REMARK SMILES CSCCC(=O)N1[C@H](C)CCC[C@@H]1C(=O)NCCCNC(=O)c1ccc(-c2c3nc(c(-c4cccc(S(=O)(=O)[O-])c4F)c4ccc([nH]4)c(-c4cccc(S(=O)(=O)[O-])c4F)c4nc(c(-c5cccc(S(=O)(=O)[O-])c5F)c5ccc2[nH]5)C=C4)C=C3)cc1
REMARK SMILES IDX 17 1 16 2 14 3 15 4 13 6 7 7 8 8 9 9 10 10 12 11 11 12 5 13
REMARK SMILES IDX 6 14 4 15 3 16 2 17 1 18 18 19 19 20 20 21 21 22 22 24 23 25
REMARK SMILES IDX 24 26 85 27 25 28 84 29 26 30 27 31 28 32 78 33 29 34 83 35
REMARK SMILES IDX 77 36 79 37 30 38 82 39 76 40 75 41 31 43 63 44 43 45 62 46
REMARK SMILES IDX 44 47 47 48 61 49 80 50 45 51 46 52 60 54 81 55 48 56 32 57
REMARK SMILES IDX 33 58 41 59 34 60 36 61 42 62 35 63 37 64 38 65 39 66 40 67
REMARK SMILES IDX 64 68 65 69 73 70 66 71 68 72 74 73 67 74 69 75 70 76 71 77
REMARK SMILES IDX 72 78 49 79 50 80 58 81 51 82 53 83 59 84 52 85 54 86 55 87
REMARK SMILES IDX 56 88 57 89
REMARK H PARENT 16 5 20 23 79 42 47 53
REMARK Flexibility Score: inf
ROOT
ATOM      1  C   UNL     1      -1.698   1.886   1.842  1.00  0.00     0.117 C 
ENDROOT
BRANCH   1   2
ATOM      2  N   UNL     1      -1.909   2.851   0.783  1.00  0.00    -0.354 N 
ATOM      3  C   UNL     1      -1.475   2.934  -0.505  1.00  0.00     0.242 C 
ATOM      4  O   UNL     1      -2.290   3.444  -1.288  1.00  0.00    -0.273 OA
ATOM      5  H   UNL     1      -2.485   3.603   1.050  1.00  0.00     0.163 HD
BRANCH   3   6
ATOM      6  C   UNL     1      -0.059   2.523  -1.027  1.00  0.00     0.174 C 
ATOM      7  N   UNL     1       0.235   1.118  -1.414  1.00  0.00    -0.328 N 
ATOM      8  C   UNL     1       0.661   0.204  -0.365  1.00  0.00     0.082 C 
ATOM      9  C   UNL     1      -0.440  -0.759   0.077  1.00  0.00     0.031 C 
ATOM     10  C   UNL     1       1.474   0.886   0.745  1.00  0.00     0.025 C 
ATOM     11  C   UNL     1       1.079   3.172  -0.224  1.00  0.00     0.035 C 
ATOM     12  C   UNL     1       2.127   2.173   0.254  1.00  0.00     0.005 C 
BRANCH   7  13
ATOM     13  C   UNL     1       0.511   0.807  -2.753  1.00  0.00     0.224 C 
ATOM     14  O   UNL     1       0.710   1.675  -3.606  1.00  0.00    -0.275 OA
BRANCH  13  15
ATOM     15  C   UNL     1       0.545  -0.670  -3.172  1.00  0.00     0.111 C 
BRANCH  15  16
ATOM     16  C   UNL     1       1.908  -1.368  -3.067  1.00  0.00     0.079 C 
BRANCH  16  17
ATOM     17  S   UNL     1       1.929  -2.863  -1.980  1.00  0.00    -0.165 SA
ATOM     18  C   UNL     1       3.007  -2.310  -0.616  1.00  0.00     0.085 C 
ENDBRANCH  16  17
ENDBRANCH  15  16
ENDBRANCH  13  15
ENDBRANCH   7  13
ENDBRANCH   3   6
ENDBRANCH   1   2
BRANCH   1  19
ATOM     19  C   UNL     1      -0.999   2.412   3.084  1.00  0.00     0.042 C 
BRANCH  19  20
ATOM     20  C   UNL     1      -1.465   1.700   4.350  1.00  0.00     0.118 C 
BRANCH  20  21
ATOM     21  N   UNL     1      -1.430   0.241   4.347  1.00  0.00    -0.352 N 
ATOM     22  C   UNL     1      -1.436  -0.626   5.433  1.00  0.00     0.251 C 
ATOM     23  H   UNL     1      -1.397  -0.184   3.460  1.00  0.00     0.163 HD
ATOM     24  O   UNL     1      -1.429  -1.828   5.245  1.00  0.00    -0.269 OA
BRANCH  22  25
ATOM     25  C   UNL     1      -1.392  -0.080   6.819  1.00  0.00     0.039 A 
ATOM     26  C   UNL     1      -0.596  -0.714   7.779  1.00  0.00     0.014 A 
ATOM     27  C   UNL     1      -2.085   1.078   7.163  1.00  0.00     0.014 A 
ATOM     28  C   UNL     1      -0.426  -0.127   9.039  1.00  0.00     0.010 A 
ATOM     29  C   UNL     1      -1.802   1.732   8.353  1.00  0.00     0.010 A 
ATOM     30  C   UNL     1      -0.989   1.129   9.319  1.00  0.00    -0.014 A 
BRANCH  30  31
ATOM     31  C   UNL     1      -0.777   1.828  10.613  1.00  0.00     0.031 A 
ATOM     32  C   UNL     1      -1.966   2.232  11.451  1.00  0.00     0.074 A 
ATOM     33  C   UNL     1       0.466   2.202  10.978  1.00  0.00     0.049 A 
ATOM     34  N   UNL     1      -1.998   2.922  12.562  1.00  0.00    -0.248 NA
ATOM     35  C   UNL     1      -3.301   1.860  10.948  1.00  0.00     0.031 C 
ATOM     36  C   UNL     1       1.684   1.981  10.194  1.00  0.00     0.029 A 
ATOM     37  N   UNL     1       0.908   2.870  12.092  1.00  0.00    -0.354 N 
ATOM     38  C   UNL     1      -3.344   3.109  12.854  1.00  0.00     0.074 A 
ATOM     39  C   UNL     1      -4.099   2.516  11.775  1.00  0.00     0.031 C 
ATOM     40  C   UNL     1       2.737   2.480  10.863  1.00  0.00     0.029 A 
ATOM     41  C   UNL     1       2.269   3.077  12.109  1.00  0.00     0.049 A 
ATOM     42  H   UNL     1       0.309   3.173  12.811  1.00  0.00     0.167 HD
ATOM     43  C   UNL     1      -3.908   3.678  13.946  1.00  0.00     0.034 A 
ATOM     44  C   UNL     1       3.049   3.671  13.033  1.00  0.00     0.034 A 
ATOM     45  C   UNL     1      -3.152   4.184  15.057  1.00  0.00     0.049 A 
ATOM     46  C   UNL     1       2.409   4.193  14.291  1.00  0.00     0.074 A 
ATOM     47  C   UNL     1      -3.615   4.671  16.265  1.00  0.00     0.029 A 
ATOM     48  N   UNL     1      -1.768   4.255  15.097  1.00  0.00    -0.354 N 
ATOM     49  N   UNL     1       1.141   4.203  14.629  1.00  0.00    -0.248 NA
ATOM     50  C   UNL     1       3.308   4.744  15.315  1.00  0.00     0.031 C 
ATOM     51  C   UNL     1      -2.508   5.047  17.034  1.00  0.00     0.029 A 
ATOM     52  C   UNL     1      -1.357   4.776  16.310  1.00  0.00     0.049 A 
ATOM     53  H   UNL     1      -1.167   3.976  14.370  1.00  0.00     0.167 HD
ATOM     54  C   UNL     1       1.093   4.729  15.914  1.00  0.00     0.074 A 
ATOM     55  C   UNL     1       2.462   4.999  16.305  1.00  0.00     0.031 C 
ATOM     56  C   UNL     1       0.015   4.986  16.696  1.00  0.00     0.034 A 
BRANCH  43  57
ATOM     57  C   UNL     1      -5.414   3.703  14.022  1.00  0.00     0.023 A 
ATOM     58  C   UNL     1      -6.122   2.495  14.199  1.00  0.00     0.012 A 
ATOM     59  C   UNL     1      -6.128   4.915  13.954  1.00  0.00     0.148 A 
ATOM     60  C   UNL     1      -7.514   2.485  14.258  1.00  0.00     0.002 A 
ATOM     61  C   UNL     1      -7.515   4.902  14.064  1.00  0.00     0.091 A 
ATOM     62  F   UNL     1      -5.444   6.052  13.764  1.00  0.00    -0.205 F 
ATOM     63  C   UNL     1      -8.209   3.689  14.201  1.00  0.00     0.022 A 
BRANCH  61  64
ATOM     64  S   UNL     1      -8.500   6.404  14.082  1.00  0.00     0.127 S 
ATOM     65  O   UNL     1      -9.166   6.336  12.782  1.00  0.00    -0.237 OA
ATOM     66  O   UNL     1      -9.380   6.181  15.230  1.00  0.00    -0.237 OA
ATOM     67  O   UNL     1      -7.556   7.501  14.244  1.00  0.00    -0.744 OA
ENDBRANCH  61  64
ENDBRANCH  43  57
BRANCH  44  68
ATOM     68  C   UNL     1       4.529   3.706  12.850  1.00  0.00     0.023 A 
ATOM     69  C   UNL     1       5.342   2.891  13.662  1.00  0.00     0.012 A 
ATOM     70  C   UNL     1       5.133   4.506  11.860  1.00  0.00     0.148 A 
ATOM     71  C   UNL     1       6.730   2.896  13.516  1.00  0.00     0.002 A 
ATOM     72  C   UNL     1       6.512   4.465  11.684  1.00  0.00     0.091 A 
ATOM     73  F   UNL     1       4.346   5.282  11.103  1.00  0.00    -0.205 F 
ATOM     74  C   UNL     1       7.314   3.674  12.521  1.00  0.00     0.022 A 
BRANCH  72  75
ATOM     75  S   UNL     1       7.335   5.328  10.340  1.00  0.00     0.127 S 
ATOM     76  O   UNL     1       7.998   6.420  11.047  1.00  0.00    -0.237 OA
ATOM     77  O   UNL     1       8.232   4.296   9.819  1.00  0.00    -0.237 OA
ATOM     78  O   UNL     1       6.275   5.716   9.419  1.00  0.00    -0.744 OA
ENDBRANCH  72  75
ENDBRANCH  44  68
BRANCH  56  79
ATOM     79  C   UNL     1       0.271   5.564  18.061  1.00  0.00     0.023 A 
ATOM     80  C   UNL     1       0.684   6.905  18.185  1.00  0.00     0.012 A 
ATOM     81  C   UNL     1       0.037   4.801  19.221  1.00  0.00     0.148 A 
ATOM     82  C   UNL     1       0.897   7.467  19.442  1.00  0.00     0.002 A 
ATOM     83  C   UNL     1       0.203   5.382  20.472  1.00  0.00     0.091 A 
ATOM     84  F   UNL     1      -0.337   3.520  19.082  1.00  0.00    -0.205 F 
ATOM     85  C   UNL     1       0.645   6.710  20.585  1.00  0.00     0.022 A 
BRANCH  83  86
ATOM     86  S   UNL     1      -0.195   4.509  21.990  1.00  0.00     0.127 S 
ATOM     87  O   UNL     1       1.132   4.140  22.479  1.00  0.00    -0.237 OA
ATOM     88  O   UNL     1      -0.869   5.542  22.778  1.00  0.00    -0.237 OA
ATOM     89  O   UNL     1      -1.053   3.400  21.596  1.00  0.00    -0.744 OA
ENDBRANCH  83  86
ENDBRANCH  56  79
ENDBRANCH  30  31
ENDBRANCH  22  25
ENDBRANCH  20  21
ENDBRANCH  19  20
ENDBRANCH   1  19
TORSDOF 17
