REMARK SMILES Cc1nccn1C1(C(=O)NCCCNC(=O)c2ccc(-c3c4nc(c(-c5cccc(S(=O)(=O)[O-])c5F)c5ccc([nH]5)c(-c5cccc(S(=O)(=O)[O-])c5F)c5nc(c(-c6cccc(S(=O)(=O)[O-])c6F)c6ccc3[nH]6)C=C5)C=C4)cc2)CCN(C(=O)[C@@H]2C[C@H]2c2ccccc2)CC1
REMARK SMILES IDX 12 1 11 2 10 3 8 4 9 5 7 7 80 8 95 9 81 10 94 11 82 12 83 13
REMARK SMILES IDX 84 14 6 15 1 16 2 17 3 18 4 19 5 20 85 21 86 22 87 23 88 24
REMARK SMILES IDX 89 25 93 26 90 27 92 28 91 29 13 30 14 31 15 32 16 34 17 35
REMARK SMILES IDX 18 36 79 37 19 38 78 39 20 40 21 41 22 42 72 43 23 44 77 45
REMARK SMILES IDX 71 46 73 47 24 48 76 49 70 50 69 51 25 53 57 54 37 55 56 56
REMARK SMILES IDX 38 57 41 58 55 59 74 60 39 61 40 62 54 64 75 65 42 66 26 67
REMARK SMILES IDX 27 68 35 69 28 70 30 71 36 72 29 73 31 74 32 75 33 76 34 77
REMARK SMILES IDX 58 78 59 79 67 80 60 81 62 82 68 83 61 84 63 85 64 86 65 87
REMARK SMILES IDX 66 88 43 89 44 90 52 91 45 92 47 93 53 94 46 95 48 96 49 97
REMARK SMILES IDX 50 98 51 99
REMARK H PARENT 10 6 14 33 73 52 41 63
REMARK Flexibility Score: inf
ROOT
ATOM      1  C   UNL     1       4.428   3.888   3.136  1.00  0.00     0.042 C 
ENDROOT
BRANCH   1   2
ATOM      2  C   UNL     1       2.910   3.850   2.934  1.00  0.00     0.117 C 
BRANCH   2   3
ATOM      3  N   UNL     1       2.450   4.481   1.700  1.00  0.00    -0.354 N 
ATOM      4  C   UNL     1       1.806   4.031   0.571  1.00  0.00     0.246 C 
ATOM      5  O   UNL     1       1.438   4.957  -0.153  1.00  0.00    -0.272 OA
ATOM      6  H   UNL     1       2.643   5.445   1.669  1.00  0.00     0.163 HD
BRANCH   4   7
ATOM      7  C   UNL     1       1.520   2.497   0.287  1.00  0.00     0.127 C 
ATOM      8  C   UNL     1       2.899   1.796   0.347  1.00  0.00     0.061 C 
ATOM      9  C   UNL     1       0.495   2.099   1.384  1.00  0.00     0.061 C 
ATOM     10  C   UNL     1       3.000   0.504   1.152  1.00  0.00     0.122 C 
ATOM     11  C   UNL     1       0.611   0.639   1.737  1.00  0.00     0.122 C 
ATOM     12  N   UNL     1       1.968   0.324   2.170  1.00  0.00    -0.342 N 
ATOM     13  C   UNL     1       2.366  -0.319   3.352  1.00  0.00     0.226 C 
ATOM     14  O   UNL     1       3.464  -0.867   3.433  1.00  0.00    -0.275 OA
BRANCH   7  15
ATOM     15  N   UNL     1       0.868   2.179  -1.053  1.00  0.00    -0.320 N 
ATOM     16  C   UNL     1       1.152  -0.424  -1.437  1.00  0.00     0.087 C 
ATOM     17  C   UNL     1       0.576   0.935  -1.651  1.00  0.00     0.106 A 
ATOM     18  N   UNL     1      -0.289   1.084  -2.640  1.00  0.00    -0.242 NA
ATOM     19  C   UNL     1      -0.409   2.414  -2.847  1.00  0.00     0.131 A 
ATOM     20  C   UNL     1       0.298   3.104  -1.902  1.00  0.00     0.108 A 
ENDBRANCH   7  15
BRANCH  13  21
ATOM     21  C   UNL     1       1.548  -0.324   4.606  1.00  0.00     0.087 C 
ATOM     22  C   UNL     1       0.305  -1.177   4.682  1.00  0.00     0.023 C 
ATOM     23  C   UNL     1       0.216   0.322   4.805  1.00  0.00     0.032 C 
BRANCH  23  24
ATOM     24  C   UNL     1      -0.283   1.023   6.019  1.00  0.00    -0.044 A 
ATOM     25  C   UNL     1      -1.592   0.766   6.459  1.00  0.00     0.004 A 
ATOM     26  C   UNL     1       0.347   2.203   6.441  1.00  0.00     0.004 A 
ATOM     27  C   UNL     1      -2.297   1.721   7.186  1.00  0.00     0.000 A 
ATOM     28  C   UNL     1      -0.358   3.160   7.168  1.00  0.00     0.000 A 
ATOM     29  C   UNL     1      -1.689   2.931   7.511  1.00  0.00     0.000 A 
ENDBRANCH  23  24
ENDBRANCH  13  21
ENDBRANCH   4   7
ENDBRANCH   2   3
ENDBRANCH   1   2
BRANCH   1  30
ATOM     30  C   UNL     1       4.973   5.284   3.377  1.00  0.00     0.118 C 
BRANCH  30  31
ATOM     31  N   UNL     1       4.631   5.840   4.691  1.00  0.00    -0.352 N 
ATOM     32  C   UNL     1       5.122   7.008   5.266  1.00  0.00     0.251 C 
ATOM     33  H   UNL     1       3.982   5.330   5.226  1.00  0.00     0.163 HD
ATOM     34  O   UNL     1       5.025   7.210   6.463  1.00  0.00    -0.269 OA
BRANCH  32  35
ATOM     35  C   UNL     1       5.757   8.000   4.374  1.00  0.00     0.039 A 
ATOM     36  C   UNL     1       6.919   8.690   4.729  1.00  0.00     0.014 A 
ATOM     37  C   UNL     1       5.181   8.175   3.121  1.00  0.00     0.014 A 
ATOM     38  C   UNL     1       7.531   9.493   3.768  1.00  0.00     0.010 A 
ATOM     39  C   UNL     1       5.900   8.769   2.124  1.00  0.00     0.010 A 
ATOM     40  C   UNL     1       7.024   9.506   2.458  1.00  0.00    -0.014 A 
BRANCH  40  41
ATOM     41  C   UNL     1       7.709  10.195   1.375  1.00  0.00     0.031 A 
ATOM     42  C   UNL     1       9.132   9.805   1.231  1.00  0.00     0.074 A 
ATOM     43  C   UNL     1       7.063  10.960   0.466  1.00  0.00     0.049 A 
ATOM     44  N   UNL     1      10.157  10.510   1.574  1.00  0.00    -0.248 NA
ATOM     45  C   UNL     1       9.461   8.420   0.861  1.00  0.00     0.031 C 
ATOM     46  C   UNL     1       5.616  11.178   0.321  1.00  0.00     0.029 A 
ATOM     47  N   UNL     1       7.563  11.601  -0.625  1.00  0.00    -0.354 N 
ATOM     48  C   UNL     1      11.265   9.766   1.184  1.00  0.00     0.074 A 
ATOM     49  C   UNL     1      10.790   8.421   1.000  1.00  0.00     0.031 C 
ATOM     50  C   UNL     1       5.351  11.657  -0.913  1.00  0.00     0.029 A 
ATOM     51  C   UNL     1       6.606  11.944  -1.579  1.00  0.00     0.049 A 
ATOM     52  H   UNL     1       8.520  11.806  -0.731  1.00  0.00     0.167 HD
ATOM     53  C   UNL     1      12.396  10.393   0.756  1.00  0.00     0.034 A 
ATOM     54  C   UNL     1       6.840  12.385  -2.841  1.00  0.00     0.034 A 
ATOM     55  C   UNL     1      12.355  11.803   1.075  1.00  0.00     0.049 A 
ATOM     56  C   UNL     1       8.213  12.939  -2.855  1.00  0.00     0.074 A 
ATOM     57  C   UNL     1      12.185  12.539   2.232  1.00  0.00     0.029 A 
ATOM     58  N   UNL     1      12.066  12.661   0.039  1.00  0.00    -0.354 N 
ATOM     59  N   UNL     1       8.554  14.005  -2.187  1.00  0.00    -0.248 NA
ATOM     60  C   UNL     1       9.303  12.048  -3.216  1.00  0.00     0.031 C 
ATOM     61  C   UNL     1      11.338  13.625   1.854  1.00  0.00     0.029 A 
ATOM     62  C   UNL     1      11.119  13.548   0.478  1.00  0.00     0.049 A 
ATOM     63  H   UNL     1      12.469  12.642  -0.859  1.00  0.00     0.167 HD
ATOM     64  C   UNL     1       9.771  13.664  -1.613  1.00  0.00     0.074 A 
ATOM     65  C   UNL     1      10.237  12.503  -2.374  1.00  0.00     0.031 C 
ATOM     66  C   UNL     1      10.131  14.152  -0.389  1.00  0.00     0.034 A 
BRANCH  53  67
ATOM     67  C   UNL     1      13.344   9.867  -0.302  1.00  0.00     0.023 A 
ATOM     68  C   UNL     1      14.512  10.628  -0.540  1.00  0.00     0.012 A 
ATOM     69  C   UNL     1      13.030   8.869  -1.253  1.00  0.00     0.148 A 
ATOM     70  C   UNL     1      15.273  10.466  -1.702  1.00  0.00     0.002 A 
ATOM     71  C   UNL     1      13.830   8.662  -2.371  1.00  0.00     0.091 A 
ATOM     72  F   UNL     1      11.886   8.189  -1.165  1.00  0.00    -0.205 F 
ATOM     73  C   UNL     1      14.932   9.482  -2.619  1.00  0.00     0.022 A 
BRANCH  71  74
ATOM     74  S   UNL     1      13.460   7.377  -3.574  1.00  0.00     0.127 S 
ATOM     75  O   UNL     1      13.022   8.169  -4.719  1.00  0.00    -0.237 OA
ATOM     76  O   UNL     1      14.764   6.730  -3.726  1.00  0.00    -0.237 OA
ATOM     77  O   UNL     1      12.445   6.535  -2.953  1.00  0.00    -0.744 OA
ENDBRANCH  71  74
ENDBRANCH  53  67
BRANCH  54  78
ATOM     78  C   UNL     1       6.094  12.117  -4.096  1.00  0.00     0.023 A 
ATOM     79  C   UNL     1       6.360  12.892  -5.245  1.00  0.00     0.012 A 
ATOM     80  C   UNL     1       5.366  10.919  -4.259  1.00  0.00     0.148 A 
ATOM     81  C   UNL     1       5.962  12.460  -6.517  1.00  0.00     0.002 A 
ATOM     82  C   UNL     1       4.975  10.493  -5.525  1.00  0.00     0.091 A 
ATOM     83  F   UNL     1       5.145  10.145  -3.189  1.00  0.00    -0.205 F 
ATOM     84  C   UNL     1       5.282  11.255  -6.659  1.00  0.00     0.022 A 
BRANCH  82  85
ATOM     85  S   UNL     1       4.141   8.921  -5.783  1.00  0.00     0.127 S 
ATOM     86  O   UNL     1       3.042   9.302  -6.670  1.00  0.00    -0.237 OA
ATOM     87  O   UNL     1       5.191   8.125  -6.413  1.00  0.00    -0.237 OA
ATOM     88  O   UNL     1       3.719   8.477  -4.461  1.00  0.00    -0.744 OA
ENDBRANCH  82  85
ENDBRANCH  54  78
BRANCH  66  89
ATOM     89  C   UNL     1       9.292  15.259   0.207  1.00  0.00     0.023 A 
ATOM     90  C   UNL     1       7.920  15.109   0.504  1.00  0.00     0.012 A 
ATOM     91  C   UNL     1       9.940  16.439   0.604  1.00  0.00     0.148 A 
ATOM     92  C   UNL     1       7.205  16.127   1.144  1.00  0.00     0.002 A 
ATOM     93  C   UNL     1       9.239  17.430   1.280  1.00  0.00     0.091 A 
ATOM     94  F   UNL     1      11.246  16.570   0.324  1.00  0.00    -0.205 F 
ATOM     95  C   UNL     1       7.868  17.284   1.542  1.00  0.00     0.022 A 
BRANCH  93  96
ATOM     96  S   UNL     1      10.068  18.889   1.911  1.00  0.00     0.127 S 
ATOM     97  O   UNL     1       9.694  19.902   0.927  1.00  0.00    -0.237 OA
ATOM     98  O   UNL     1       9.453  19.058   3.229  1.00  0.00    -0.237 OA
ATOM     99  O   UNL     1      11.486  18.550   1.959  1.00  0.00    -0.744 OA
ENDBRANCH  93  96
ENDBRANCH  66  89
ENDBRANCH  40  41
ENDBRANCH  32  35
ENDBRANCH  30  31
ENDBRANCH   1  30
TORSDOF 16
