REMARK SMILES CC1=C(C)C[C@@H](C(=O)NCCCNC(=O)c2ccc(-c3c4nc(c(-c5cccc(S(=O)(=O)[O-])c5F)c5ccc([nH]5)c(-c5cccc(S(=O)(=O)[O-])c5F)c5nc(c(-c6cccc(S(=O)(=O)[O-])c6F)c6ccc3[nH]6)C=C5)C=C4)cc2)[C@@H](C(=O)NCC[NH+]2CCOCC2)C1
REMARK SMILES IDX 10 1 9 2 7 3 8 4 6 6 1 7 2 8 3 9 91 10 4 11 5 12 79 13 80 14
REMARK SMILES IDX 81 15 82 16 83 18 84 19 85 20 86 21 90 22 87 24 89 25 88 26
REMARK SMILES IDX 11 27 12 28 13 29 14 30 15 32 16 33 17 34 78 35 18 36 77 37
REMARK SMILES IDX 19 38 20 39 21 40 71 41 22 42 76 43 70 44 72 45 23 46 75 47
REMARK SMILES IDX 69 48 68 49 24 51 56 52 36 53 55 54 37 55 40 56 54 57 73 58
REMARK SMILES IDX 38 59 39 60 53 62 74 63 41 64 25 65 26 66 34 67 27 68 29 69
REMARK SMILES IDX 35 70 28 71 30 72 31 73 32 74 33 75 57 76 58 77 66 78 59 79
REMARK SMILES IDX 61 80 67 81 60 82 62 83 63 84 64 85 65 86 42 87 43 88 51 89
REMARK SMILES IDX 44 90 46 91 52 92 45 93 47 94 48 95 49 96 50 97
REMARK H PARENT 9 5 82 17 85 23 13 31 72 50 40 61
REMARK Flexibility Score: inf
ROOT
ATOM      1  C   UNL     1      -2.322   1.824  -0.564  1.00  0.00     0.117 C 
ENDROOT
BRANCH   1   2
ATOM      2  N   UNL     1      -2.559   2.771  -1.632  1.00  0.00    -0.356 N 
ATOM      3  C   UNL     1      -1.866   2.997  -2.768  1.00  0.00     0.224 C 
ATOM      4  O   UNL     1      -2.536   3.344  -3.749  1.00  0.00    -0.275 OA
ATOM      5  H   UNL     1      -3.353   3.341  -1.511  1.00  0.00     0.163 HD
BRANCH   3   6
ATOM      6  C   UNL     1      -0.366   2.802  -2.947  1.00  0.00     0.095 C 
ATOM      7  C   UNL     1       1.352  -0.005  -0.026  1.00  0.00     0.039 C 
ATOM      8  C   UNL     1       0.944   0.867  -1.191  1.00  0.00    -0.074 C 
ATOM      9  C   UNL     1       0.353   0.422  -2.320  1.00  0.00    -0.074 C 
ATOM     10  C   UNL     1       1.170   2.347  -0.918  1.00  0.00     0.045 C 
ATOM     11  C   UNL     1      -0.034  -1.004  -2.616  1.00  0.00     0.039 C 
ATOM     12  C   UNL     1      -0.051   1.380  -3.406  1.00  0.00     0.045 C 
ATOM     13  C   UNL     1       0.610   3.390  -1.922  1.00  0.00     0.095 C 
BRANCH  13  14
ATOM     14  C   UNL     1       0.084   4.636  -1.190  1.00  0.00     0.224 C 
ATOM     15  O   UNL     1      -0.004   4.692   0.038  1.00  0.00    -0.275 OA
ATOM     16  N   UNL     1      -0.274   5.766  -1.851  1.00  0.00    -0.350 N 
ATOM     17  H   UNL     1      -0.755   6.417  -1.290  1.00  0.00     0.163 HD
BRANCH  16  18
ATOM     18  C   UNL     1      -0.088   6.203  -3.219  1.00  0.00     0.177 C 
BRANCH  18  19
ATOM     19  C   UNL     1      -1.389   6.436  -4.022  1.00  0.00     0.283 C 
BRANCH  19  20
ATOM     20  N   UNL     1      -2.300   7.478  -3.502  1.00  0.00    -0.330 N 
ATOM     21  C   UNL     1      -3.214   6.994  -2.433  1.00  0.00     0.291 C 
ATOM     22  C   UNL     1      -3.160   8.012  -4.591  1.00  0.00     0.291 C 
ATOM     23  H   UNL     1      -1.686   8.193  -3.112  1.00  0.00     0.348 HD
ATOM     24  C   UNL     1      -4.392   6.114  -2.902  1.00  0.00     0.221 C 
ATOM     25  C   UNL     1      -4.266   7.047  -5.050  1.00  0.00     0.221 C 
ATOM     26  O   UNL     1      -5.136   6.728  -3.960  1.00  0.00    -0.370 OA
ENDBRANCH  19  20
ENDBRANCH  18  19
ENDBRANCH  16  18
ENDBRANCH  13  14
ENDBRANCH   3   6
ENDBRANCH   1   2
BRANCH   1  27
ATOM     27  C   UNL     1      -2.279   2.429   0.828  1.00  0.00     0.042 C 
BRANCH  27  28
ATOM     28  C   UNL     1      -3.511   3.239   1.190  1.00  0.00     0.118 C 
BRANCH  28  29
ATOM     29  N   UNL     1      -4.712   2.413   1.208  1.00  0.00    -0.352 N 
ATOM     30  C   UNL     1      -5.460   1.977   2.272  1.00  0.00     0.251 C 
ATOM     31  H   UNL     1      -5.034   2.125   0.324  1.00  0.00     0.163 HD
ATOM     32  O   UNL     1      -6.257   1.055   2.107  1.00  0.00    -0.269 OA
BRANCH  30  33
ATOM     33  C   UNL     1      -5.318   2.608   3.602  1.00  0.00     0.039 A 
ATOM     34  C   UNL     1      -5.410   1.809   4.746  1.00  0.00     0.014 A 
ATOM     35  C   UNL     1      -5.153   3.989   3.729  1.00  0.00     0.014 A 
ATOM     36  C   UNL     1      -5.303   2.393   6.011  1.00  0.00     0.010 A 
ATOM     37  C   UNL     1      -4.952   4.555   4.983  1.00  0.00     0.010 A 
ATOM     38  C   UNL     1      -5.057   3.770   6.139  1.00  0.00    -0.014 A 
BRANCH  38  39
ATOM     39  C   UNL     1      -4.947   4.414   7.472  1.00  0.00     0.031 A 
ATOM     40  C   UNL     1      -5.940   5.471   7.883  1.00  0.00     0.074 A 
ATOM     41  C   UNL     1      -3.914   4.104   8.280  1.00  0.00     0.049 A 
ATOM     42  N   UNL     1      -5.989   6.171   8.986  1.00  0.00    -0.248 NA
ATOM     43  C   UNL     1      -6.999   5.808   6.916  1.00  0.00     0.031 C 
ATOM     44  C   UNL     1      -2.839   3.164   7.957  1.00  0.00     0.029 A 
ATOM     45  N   UNL     1      -3.588   4.564   9.531  1.00  0.00    -0.354 N 
ATOM     46  C   UNL     1      -7.051   7.054   8.829  1.00  0.00     0.074 A 
ATOM     47  C   UNL     1      -7.595   6.831   7.508  1.00  0.00     0.031 C 
ATOM     48  C   UNL     1      -1.979   3.109   8.987  1.00  0.00     0.029 A 
ATOM     49  C   UNL     1      -2.427   4.023  10.033  1.00  0.00     0.049 A 
ATOM     50  H   UNL     1      -4.133   5.220  10.023  1.00  0.00     0.167 HD
ATOM     51  C   UNL     1      -7.556   7.944   9.716  1.00  0.00     0.034 A 
ATOM     52  C   UNL     1      -1.799   4.238  11.205  1.00  0.00     0.034 A 
ATOM     53  C   UNL     1      -7.051   8.117  11.051  1.00  0.00     0.049 A 
ATOM     54  C   UNL     1      -2.418   5.183  12.200  1.00  0.00     0.074 A 
ATOM     55  C   UNL     1      -7.550   8.917  12.063  1.00  0.00     0.029 A 
ATOM     56  N   UNL     1      -5.932   7.478  11.560  1.00  0.00    -0.354 N 
ATOM     57  N   UNL     1      -3.522   5.883  12.097  1.00  0.00    -0.248 NA
ATOM     58  C   UNL     1      -1.727   5.338  13.488  1.00  0.00     0.031 C 
ATOM     59  C   UNL     1      -6.723   8.771  13.182  1.00  0.00     0.029 A 
ATOM     60  C   UNL     1      -5.719   7.867  12.870  1.00  0.00     0.049 A 
ATOM     61  H   UNL     1      -5.370   6.840  11.062  1.00  0.00     0.167 HD
ATOM     62  C   UNL     1      -3.676   6.534  13.315  1.00  0.00     0.074 A 
ATOM     63  C   UNL     1      -2.564   6.125  14.149  1.00  0.00     0.031 C 
ATOM     64  C   UNL     1      -4.638   7.407  13.704  1.00  0.00     0.034 A 
BRANCH  51  65
ATOM     65  C   UNL     1      -8.759   8.748   9.295  1.00  0.00     0.023 A 
ATOM     66  C   UNL     1     -10.010   8.109   9.170  1.00  0.00     0.012 A 
ATOM     67  C   UNL     1      -8.669  10.136   9.074  1.00  0.00     0.148 A 
ATOM     68  C   UNL     1     -11.143   8.828   8.796  1.00  0.00     0.002 A 
ATOM     69  C   UNL     1      -9.813  10.856   8.744  1.00  0.00     0.091 A 
ATOM     70  F   UNL     1      -7.469  10.725   9.176  1.00  0.00    -0.205 F 
ATOM     71  C   UNL     1     -11.047  10.202   8.593  1.00  0.00     0.022 A 
BRANCH  69  72
ATOM     72  S   UNL     1      -9.810  12.641   8.540  1.00  0.00     0.127 S 
ATOM     73  O   UNL     1      -9.973  12.772   7.092  1.00  0.00    -0.237 OA
ATOM     74  O   UNL     1     -10.980  13.043   9.322  1.00  0.00    -0.237 OA
ATOM     75  O   UNL     1      -8.537  13.104   9.072  1.00  0.00    -0.744 OA
ENDBRANCH  69  72
ENDBRANCH  51  65
BRANCH  52  76
ATOM     76  C   UNL     1      -0.561   3.477  11.536  1.00  0.00     0.023 A 
ATOM     77  C   UNL     1      -0.615   2.475  12.524  1.00  0.00     0.012 A 
ATOM     78  C   UNL     1       0.652   3.710  10.860  1.00  0.00     0.148 A 
ATOM     79  C   UNL     1       0.524   1.741  12.857  1.00  0.00     0.002 A 
ATOM     80  C   UNL     1       1.770   2.939  11.159  1.00  0.00     0.091 A 
ATOM     81  F   UNL     1       0.687   4.676   9.931  1.00  0.00    -0.205 F 
ATOM     82  C   UNL     1       1.713   1.965  12.168  1.00  0.00     0.022 A 
BRANCH  80  83
ATOM     83  S   UNL     1       3.303   3.071  10.232  1.00  0.00     0.127 S 
ATOM     84  O   UNL     1       4.175   3.748  11.191  1.00  0.00    -0.237 OA
ATOM     85  O   UNL     1       3.633   1.664   9.989  1.00  0.00    -0.237 OA
ATOM     86  O   UNL     1       2.972   3.822   9.033  1.00  0.00    -0.744 OA
ENDBRANCH  80  83
ENDBRANCH  52  76
BRANCH  64  87
ATOM     87  C   UNL     1      -4.552   7.963  15.100  1.00  0.00     0.023 A 
ATOM     88  C   UNL     1      -3.570   8.926  15.406  1.00  0.00     0.012 A 
ATOM     89  C   UNL     1      -5.489   7.592  16.084  1.00  0.00     0.148 A 
ATOM     90  C   UNL     1      -3.503   9.488  16.680  1.00  0.00     0.002 A 
ATOM     91  C   UNL     1      -5.445   8.190  17.337  1.00  0.00     0.091 A 
ATOM     92  F   UNL     1      -6.404   6.660  15.778  1.00  0.00    -0.205 F 
ATOM     93  C   UNL     1      -4.446   9.130  17.641  1.00  0.00     0.022 A 
BRANCH  91  94
ATOM     94  S   UNL     1      -6.676   7.860  18.603  1.00  0.00     0.127 S 
ATOM     95  O   UNL     1      -5.932   7.008  19.528  1.00  0.00    -0.237 OA
ATOM     96  O   UNL     1      -6.970   9.201  19.110  1.00  0.00    -0.237 OA
ATOM     97  O   UNL     1      -7.790   7.219  17.918  1.00  0.00    -0.744 OA
ENDBRANCH  91  94
ENDBRANCH  64  87
ENDBRANCH  38  39
ENDBRANCH  30  33
ENDBRANCH  28  29
ENDBRANCH  27  28
ENDBRANCH   1  27
TORSDOF 17
