REMARK SMILES O=C(CCc1cc2n(n1)CCCN(S(=O)(=O)CCC(F)(F)F)C2)NCCCNC(=O)c1ccc(-c2c3nc(c(-c4cccc(S(=O)(=O)[O-])c4F)c4ccc([nH]4)c(-c4cccc(S(=O)(=O)[O-])c4F)c4nc(c(-c5cccc(S(=O)(=O)[O-])c5F)c5ccc2[nH]5)C=C4)C=C3)cc1
REMARK SMILES IDX 1 1 2 2 24 3 3 5 4 6 5 7 6 8 9 9 7 10 8 11 23 12 13 13 12 14
REMARK SMILES IDX 14 16 15 17 16 18 17 19 18 20 19 21 20 22 21 23 22 24 10 25
REMARK SMILES IDX 11 26 25 28 26 29 27 30 28 31 29 32 30 34 31 35 32 36 93 37
REMARK SMILES IDX 33 38 92 39 34 40 35 41 36 42 86 43 37 44 91 45 85 46 87 47
REMARK SMILES IDX 38 48 90 49 84 50 83 51 39 53 71 54 51 55 70 56 52 57 55 58
REMARK SMILES IDX 69 59 88 60 53 61 54 62 68 64 89 65 56 66 40 67 41 68 49 69
REMARK SMILES IDX 42 70 44 71 50 72 43 73 45 74 46 75 47 76 48 77 72 78 73 79
REMARK SMILES IDX 81 80 74 81 76 82 82 83 75 84 77 85 78 86 79 87 80 88 57 89
REMARK SMILES IDX 58 90 66 91 59 92 61 93 67 94 60 95 62 96 63 97 64 98 65 99
REMARK H PARENT 24 4 28 33 87 52 55 63
REMARK Flexibility Score: 90.00
ROOT
ATOM      1  O   UNL     1       0.933   0.036   0.046  1.00  0.00    -0.275 OA
ATOM      2  C   UNL     1       2.162   0.064   0.087  1.00  0.00     0.220 C 
ATOM      3  N   UNL     1       2.820   0.820   1.019  1.00  0.00    -0.356 N 
ATOM      4  H   UNL     1       3.803   0.784   1.049  1.00  0.00     0.163 HD
ENDROOT
BRANCH   2   5
ATOM      5  C   UNL     1       2.998  -0.753  -0.890  1.00  0.00     0.106 C 
BRANCH   5   6
ATOM      6  C   UNL     1       3.861   0.113  -1.803  1.00  0.00     0.068 C 
BRANCH   6   7
ATOM      7  C   UNL     1       4.876   0.846  -1.037  1.00  0.00     0.063 A 
ATOM      8  C   UNL     1       5.748   0.244  -0.140  1.00  0.00     0.050 A 
ATOM      9  N   UNL     1       4.903   2.185  -0.981  1.00  0.00    -0.178 NA
ATOM     10  C   UNL     1       6.398   1.305   0.403  1.00  0.00     0.054 A 
ATOM     11  N   UNL     1       5.884   2.448  -0.105  1.00  0.00    -0.268 N 
BRANCH  10  12
ATOM     12  C   UNL     1       7.429   1.161   1.367  1.00  0.00     0.157 C 
BRANCH  12  13
ATOM     13  N   UNL     1       7.350   2.183   2.350  1.00  0.00    -0.196 NA
BRANCH  13  14
ATOM     14  C   UNL     1       6.422   3.219   2.442  1.00  0.00     0.104 CG0
ATOM     15  G   UNL     1       6.597   4.302   1.504  1.00  0.00     0.000 G0
ENDBRANCH  13  14
BRANCH  13  16
ATOM     16  S   UNL     1       7.468   1.390   3.706  1.00  0.00     0.214 S 
ATOM     17  O   UNL     1       6.344   0.475   3.769  1.00  0.00    -0.212 OA
ATOM     18  O   UNL     1       8.750   0.857   3.519  1.00  0.00    -0.212 OA
BRANCH  16  19
ATOM     19  C   UNL     1       7.659   2.788   4.757  1.00  0.00     0.163 C 
BRANCH  19  20
ATOM     20  C   UNL     1       8.926   3.350   5.294  1.00  0.00     0.133 C 
BRANCH  20  21
ATOM     21  C   UNL     1       9.125   4.237   4.162  1.00  0.00     0.390 C 
ATOM     22  F   UNL     1       8.060   5.078   4.084  1.00  0.00    -0.171 F 
ATOM     23  F   UNL     1      10.228   4.961   4.263  1.00  0.00    -0.171 F 
ATOM     24  F   UNL     1       9.194   3.509   3.041  1.00  0.00    -0.171 F 
ENDBRANCH  20  21
ENDBRANCH  19  20
ENDBRANCH  16  19
ENDBRANCH  13  16
ENDBRANCH  12  13
ENDBRANCH  10  12
BRANCH  11  25
ATOM     25  C   UNL     1       6.237   3.829   0.137  1.00  0.00     0.146 C 
BRANCH  25  26
ATOM     26  C   UNL     1       6.597   4.302   1.504  1.00  0.00     0.040 CG0
ATOM     27  G   UNL     1       6.422   3.219   2.442  1.00  0.00     0.000 G0
ENDBRANCH  25  26
ENDBRANCH  11  25
ENDBRANCH   6   7
ENDBRANCH   5   6
ENDBRANCH   2   5
BRANCH   3  28
ATOM     28  C   UNL     1       2.127   1.667   1.959  1.00  0.00     0.117 C 
BRANCH  28  29
ATOM     29  C   UNL     1       2.411   1.255   3.370  1.00  0.00     0.042 C 
BRANCH  29  30
ATOM     30  C   UNL     1       3.827   1.505   3.639  1.00  0.00     0.118 C 
BRANCH  30  31
ATOM     31  N   UNL     1       4.067   2.924   3.808  1.00  0.00    -0.352 N 
ATOM     32  C   UNL     1       4.640   3.549   4.910  1.00  0.00     0.251 C 
ATOM     33  H   UNL     1       3.795   3.508   3.063  1.00  0.00     0.163 HD
ATOM     34  O   UNL     1       4.981   4.725   4.737  1.00  0.00    -0.269 OA
BRANCH  32  35
ATOM     35  C   UNL     1       5.071   2.629   6.224  1.00  0.00     0.039 A 
ATOM     36  C   UNL     1       6.069   2.977   7.060  1.00  0.00     0.014 A 
ATOM     37  C   UNL     1       5.456   1.293   6.150  1.00  0.00     0.014 A 
ATOM     38  C   UNL     1       7.558   1.990   7.191  1.00  0.00     0.010 A 
ATOM     39  C   UNL     1       6.859   0.340   6.202  1.00  0.00     0.010 A 
ATOM     40  C   UNL     1       8.270   0.596   6.282  1.00  0.00    -0.014 A 
BRANCH  40  41
ATOM     41  C   UNL     1       9.417  -0.575   5.041  1.00  0.00     0.031 A 
ATOM     42  C   UNL     1       8.822  -1.248   6.853  1.00  0.00     0.074 A 
ATOM     43  C   UNL     1      10.156  -0.744   3.302  1.00  0.00     0.049 A 
ATOM     44  N   UNL     1       9.267  -0.709   8.059  1.00  0.00    -0.248 NA
ATOM     45  C   UNL     1       7.317  -1.672   7.957  1.00  0.00     0.031 C 
ATOM     46  C   UNL     1      10.937  -0.947   1.491  1.00  0.00     0.029 A 
ATOM     47  N   UNL     1      11.506  -1.806   2.694  1.00  0.00    -0.354 N 
ATOM     48  C   UNL     1       9.069  -1.798   8.972  1.00  0.00     0.074 A 
ATOM     49  C   UNL     1       7.745  -2.134   9.152  1.00  0.00     0.031 C 
ATOM     50  C   UNL     1      11.470  -1.800   0.338  1.00  0.00     0.029 A 
ATOM     51  C   UNL     1      11.699  -2.755   1.292  1.00  0.00     0.049 A 
ATOM     52  H   UNL     1      12.282  -1.837   3.299  1.00  0.00     0.167 HD
ATOM     53  C   UNL     1       9.910  -2.824   8.816  1.00  0.00     0.034 A 
ATOM     54  C   UNL     1      11.787  -4.119   1.053  1.00  0.00     0.034 A 
ATOM     55  C   UNL     1      11.024  -2.319   8.114  1.00  0.00     0.049 A 
ATOM     56  C   UNL     1      11.806  -4.230   2.494  1.00  0.00     0.074 A 
ATOM     57  C   UNL     1      11.700  -1.140   8.356  1.00  0.00     0.029 A 
ATOM     58  N   UNL     1      11.094  -2.578   6.786  1.00  0.00    -0.354 N 
ATOM     59  N   UNL     1      12.797  -3.753   3.237  1.00  0.00    -0.248 NA
ATOM     60  C   UNL     1      10.473  -4.322   3.057  1.00  0.00     0.031 C 
ATOM     61  C   UNL     1      12.280  -0.746   7.159  1.00  0.00     0.029 A 
ATOM     62  C   UNL     1      11.942  -1.684   6.207  1.00  0.00     0.049 A 
ATOM     63  H   UNL     1      10.611  -3.296   6.316  1.00  0.00     0.167 HD
ATOM     64  C   UNL     1      12.151  -3.166   4.337  1.00  0.00     0.074 A 
ATOM     65  C   UNL     1      10.735  -3.709   4.209  1.00  0.00     0.031 C 
ATOM     66  C   UNL     1      12.467  -1.918   4.916  1.00  0.00     0.034 A 
BRANCH  53  67
ATOM     67  C   UNL     1       9.621  -4.228   9.093  1.00  0.00     0.023 A 
ATOM     68  C   UNL     1      10.692  -4.807   9.747  1.00  0.00     0.012 A 
ATOM     69  C   UNL     1       8.510  -5.003   8.680  1.00  0.00     0.148 A 
ATOM     70  C   UNL     1      10.753  -6.176   9.841  1.00  0.00     0.002 A 
ATOM     71  C   UNL     1       8.524  -6.370   8.875  1.00  0.00     0.091 A 
ATOM     72  F   UNL     1       7.448  -4.415   8.117  1.00  0.00    -0.205 F 
ATOM     73  C   UNL     1       9.656  -6.958   9.461  1.00  0.00     0.022 A 
BRANCH  71  74
ATOM     74  S   UNL     1       7.172  -7.410   8.280  1.00  0.00     0.127 S 
ATOM     75  O   UNL     1       7.850  -8.270   7.313  1.00  0.00    -0.237 OA
ATOM     76  O   UNL     1       6.736  -8.079   9.505  1.00  0.00    -0.237 OA
ATOM     77  O   UNL     1       6.189  -6.498   7.709  1.00  0.00    -0.744 OA
ENDBRANCH  71  74
ENDBRANCH  53  67
BRANCH  54  78
ATOM     78  C   UNL     1      10.878  -4.836  -0.004  1.00  0.00     0.023 A 
ATOM     79  C   UNL     1      11.256  -5.993  -0.727  1.00  0.00     0.012 A 
ATOM     80  C   UNL     1       9.537  -4.393  -0.217  1.00  0.00     0.148 A 
ATOM     81  C   UNL     1      10.327  -6.700  -1.536  1.00  0.00     0.002 A 
ATOM     82  C   UNL     1       8.595  -5.125  -0.950  1.00  0.00     0.091 A 
ATOM     83  F   UNL     1       9.166  -3.251   0.367  1.00  0.00    -0.205 F 
ATOM     84  C   UNL     1       8.978  -6.321  -1.567  1.00  0.00     0.022 A 
BRANCH  82  85
ATOM     85  S   UNL     1       6.874  -4.551  -1.095  1.00  0.00     0.127 S 
ATOM     86  O   UNL     1       6.698  -4.455  -2.544  1.00  0.00    -0.237 OA
ATOM     87  O   UNL     1       6.125  -5.630  -0.458  1.00  0.00    -0.237 OA
ATOM     88  O   UNL     1       6.814  -3.268  -0.403  1.00  0.00    -0.744 OA
ENDBRANCH  82  85
ENDBRANCH  54  78
BRANCH  66  89
ATOM     89  C   UNL     1      13.525  -0.845   4.433  1.00  0.00     0.023 A 
ATOM     90  C   UNL     1      13.390   0.181   3.436  1.00  0.00     0.012 A 
ATOM     91  C   UNL     1      14.731  -0.870   5.111  1.00  0.00     0.148 A 
ATOM     92  C   UNL     1      14.491   0.873   2.927  1.00  0.00     0.002 A 
ATOM     93  C   UNL     1      15.789  -0.054   4.734  1.00  0.00     0.091 A 
ATOM     94  F   UNL     1      14.802  -1.664   6.183  1.00  0.00    -0.205 F 
ATOM     95  C   UNL     1      15.684   0.808   3.628  1.00  0.00     0.022 A 
BRANCH  93  96
ATOM     96  S   UNL     1      17.354  -0.205   5.599  1.00  0.00     0.127 S 
ATOM     97  O   UNL     1      18.249  -0.646   4.531  1.00  0.00    -0.237 OA
ATOM     98  O   UNL     1      17.582   1.159   6.073  1.00  0.00    -0.237 OA
ATOM     99  O   UNL     1      17.143  -1.186   6.657  1.00  0.00    -0.744 OA
ENDBRANCH  93  96
ENDBRANCH  66  89
ENDBRANCH  40  41
ENDBRANCH  32  35
ENDBRANCH  30  31
ENDBRANCH  29  30
ENDBRANCH  28  29
ENDBRANCH   3  28
TORSDOF 19
