REMARK SMILES COCc1cccc(O[C@@H](C)c2ccc(C(=O)NCCCNC(=O)c3ccc(-c4c5nc(c(-c6cccc(S(=O)(=O)[O-])c6F)c6ccc([nH]6)c(-c6cccc(S(=O)(=O)[O-])c6F)c6nc(c(-c7cccc(S(=O)(=O)[O-])c7F)c7ccc4[nH]7)C=C6)C=C5)cc3)o2)c1
REMARK SMILES IDX 19 1 18 2 16 3 17 4 15 6 12 7 13 8 88 9 14 10 10 11 11 12
REMARK SMILES IDX 9 13 8 14 4 15 5 16 89 17 6 18 7 19 3 20 2 21 1 22 20 23
REMARK SMILES IDX 21 24 22 25 23 26 24 28 25 29 26 30 87 31 27 32 86 33 28 34
REMARK SMILES IDX 29 35 30 36 80 37 31 38 85 39 79 40 81 41 32 42 84 43 78 44
REMARK SMILES IDX 77 45 33 47 65 48 45 49 64 50 46 51 49 52 63 53 82 54 47 55
REMARK SMILES IDX 48 56 62 58 83 59 50 60 34 61 35 62 43 63 36 64 38 65 44 66
REMARK SMILES IDX 37 67 39 68 40 69 41 70 42 71 66 72 67 73 75 74 68 75 70 76
REMARK SMILES IDX 76 77 69 78 71 79 72 80 73 81 74 82 51 83 52 84 60 85 53 86
REMARK SMILES IDX 55 87 61 88 54 89 56 90 57 91 58 92 59 93
REMARK H PARENT 18 5 22 27 81 46 49 57
REMARK Flexibility Score: inf
ROOT
ATOM      1  C   UNL     1      -5.516  -3.554  -0.368  1.00  0.00     0.118 C 
ENDROOT
BRANCH   1   2
ATOM      2  N   UNL     1      -5.256  -2.152  -0.611  1.00  0.00    -0.349 N 
ATOM      3  C   UNL     1      -4.599  -1.525  -1.646  1.00  0.00     0.286 C 
ATOM      4  O   UNL     1      -4.694  -0.295  -1.661  1.00  0.00    -0.266 OA
ATOM      5  H   UNL     1      -5.608  -1.544   0.079  1.00  0.00     0.163 HD
BRANCH   3   6
ATOM      6  C   UNL     1      -3.868  -2.280  -2.648  1.00  0.00     0.191 A 
ATOM      7  C   UNL     1      -2.741  -2.417  -4.556  1.00  0.00     0.145 A 
ATOM      8  C   UNL     1      -2.703  -3.674  -3.992  1.00  0.00     0.050 A 
ATOM      9  O   UNL     1      -3.498  -1.593  -3.779  1.00  0.00    -0.452 OA
ATOM     10  C   UNL     1      -3.377  -3.570  -2.750  1.00  0.00     0.057 A 
BRANCH   7  11
ATOM     11  C   UNL     1      -2.098  -1.805  -5.757  1.00  0.00     0.236 C 
ATOM     12  C   UNL     1      -0.993  -2.647  -6.389  1.00  0.00     0.062 C 
BRANCH  11  13
ATOM     13  O   UNL     1      -1.661  -0.456  -5.510  1.00  0.00    -0.483 OA
BRANCH  13  14
ATOM     14  C   UNL     1      -0.681  -0.141  -4.611  1.00  0.00     0.120 A 
ATOM     15  C   UNL     1       0.817  -0.486  -2.716  1.00  0.00    -0.019 A 
ATOM     16  C   UNL     1       1.303   0.817  -2.869  1.00  0.00     0.006 A 
ATOM     17  C   UNL     1      -0.172  -0.954  -3.599  1.00  0.00     0.052 A 
ATOM     18  C   UNL     1       0.795   1.641  -3.870  1.00  0.00     0.004 A 
ATOM     19  C   UNL     1      -0.196   1.164  -4.730  1.00  0.00     0.046 A 
BRANCH  15  20
ATOM     20  C   UNL     1       1.309  -1.370  -1.595  1.00  0.00     0.195 C 
BRANCH  20  21
ATOM     21  O   UNL     1       0.518  -1.231  -0.416  1.00  0.00    -0.380 OA
ATOM     22  C   UNL     1       0.870  -0.098   0.367  1.00  0.00     0.195 C 
ENDBRANCH  20  21
ENDBRANCH  15  20
ENDBRANCH  13  14
ENDBRANCH  11  13
ENDBRANCH   7  11
ENDBRANCH   3   6
ENDBRANCH   1   2
BRANCH   1  23
ATOM     23  C   UNL     1      -4.574  -4.144   0.678  1.00  0.00     0.042 C 
BRANCH  23  24
ATOM     24  C   UNL     1      -4.953  -3.775   2.111  1.00  0.00     0.118 C 
BRANCH  24  25
ATOM     25  N   UNL     1      -6.241  -4.341   2.496  1.00  0.00    -0.352 N 
ATOM     26  C   UNL     1      -6.569  -5.206   3.509  1.00  0.00     0.251 C 
ATOM     27  H   UNL     1      -7.000  -4.057   1.936  1.00  0.00     0.163 HD
ATOM     28  O   UNL     1      -7.676  -5.740   3.502  1.00  0.00    -0.269 OA
BRANCH  26  29
ATOM     29  C   UNL     1      -5.616  -5.496   4.602  1.00  0.00     0.039 A 
ATOM     30  C   UNL     1      -5.554  -6.796   5.114  1.00  0.00     0.014 A 
ATOM     31  C   UNL     1      -4.834  -4.486   5.169  1.00  0.00     0.014 A 
ATOM     32  C   UNL     1      -4.677  -7.093   6.160  1.00  0.00     0.010 A 
ATOM     33  C   UNL     1      -3.910  -4.797   6.163  1.00  0.00     0.010 A 
ATOM     34  C   UNL     1      -3.831  -6.099   6.678  1.00  0.00    -0.014 A 
BRANCH  34  35
ATOM     35  C   UNL     1      -2.854  -6.402   7.753  1.00  0.00     0.031 A 
ATOM     36  C   UNL     1      -2.980  -5.748   9.102  1.00  0.00     0.074 A 
ATOM     37  C   UNL     1      -1.804  -7.203   7.486  1.00  0.00     0.049 A 
ATOM     38  N   UNL     1      -2.198  -5.850  10.145  1.00  0.00    -0.248 NA
ATOM     39  C   UNL     1      -4.121  -4.838   9.296  1.00  0.00     0.031 C 
ATOM     40  C   UNL     1      -1.535  -7.839   6.195  1.00  0.00     0.029 A 
ATOM     41  N   UNL     1      -0.757  -7.601   8.278  1.00  0.00    -0.354 N 
ATOM     42  C   UNL     1      -2.728  -4.995  11.104  1.00  0.00     0.074 A 
ATOM     43  C   UNL     1      -3.878  -4.353  10.505  1.00  0.00     0.031 C 
ATOM     44  C   UNL     1      -0.405  -8.558   6.287  1.00  0.00     0.029 A 
ATOM     45  C   UNL     1       0.144  -8.413   7.631  1.00  0.00     0.049 A 
ATOM     46  H   UNL     1      -0.660  -7.330   9.220  1.00  0.00     0.167 HD
ATOM     47  C   UNL     1      -2.317  -4.786  12.378  1.00  0.00     0.034 A 
ATOM     48  C   UNL     1       1.283  -8.980   8.074  1.00  0.00     0.034 A 
ATOM     49  C   UNL     1      -1.199  -5.460  12.982  1.00  0.00     0.049 A 
ATOM     50  C   UNL     1       1.700  -8.761   9.502  1.00  0.00     0.074 A 
ATOM     51  C   UNL     1      -0.748  -5.383  14.288  1.00  0.00     0.029 A 
ATOM     52  N   UNL     1      -0.351  -6.334  12.318  1.00  0.00    -0.354 N 
ATOM     53  N   UNL     1       1.101  -8.068  10.440  1.00  0.00    -0.248 NA
ATOM     54  C   UNL     1       2.932  -9.431   9.943  1.00  0.00     0.031 C 
ATOM     55  C   UNL     1       0.381  -6.201  14.409  1.00  0.00     0.029 A 
ATOM     56  C   UNL     1       0.625  -6.800  13.183  1.00  0.00     0.049 A 
ATOM     57  H   UNL     1      -0.431  -6.586  11.370  1.00  0.00     0.167 HD
ATOM     58  C   UNL     1       1.860  -8.246  11.590  1.00  0.00     0.074 A 
ATOM     59  C   UNL     1       2.954  -9.128  11.234  1.00  0.00     0.031 C 
ATOM     60  C   UNL     1       1.677  -7.717  12.826  1.00  0.00     0.034 A 
BRANCH  47  61
ATOM     61  C   UNL     1      -3.126  -3.831  13.219  1.00  0.00     0.023 A 
ATOM     62  C   UNL     1      -4.420  -4.206  13.640  1.00  0.00     0.012 A 
ATOM     63  C   UNL     1      -2.610  -2.582  13.612  1.00  0.00     0.148 A 
ATOM     64  C   UNL     1      -5.202  -3.337  14.399  1.00  0.00     0.002 A 
ATOM     65  C   UNL     1      -3.380  -1.738  14.406  1.00  0.00     0.091 A 
ATOM     66  F   UNL     1      -1.390  -2.227  13.185  1.00  0.00    -0.205 F 
ATOM     67  C   UNL     1      -4.680  -2.107  14.789  1.00  0.00     0.022 A 
BRANCH  65  68
ATOM     68  S   UNL     1      -2.760  -0.167  15.021  1.00  0.00     0.127 S 
ATOM     69  O   UNL     1      -3.409   0.781  14.116  1.00  0.00    -0.237 OA
ATOM     70  O   UNL     1      -3.270  -0.144  16.393  1.00  0.00    -0.237 OA
ATOM     71  O   UNL     1      -1.310  -0.249  14.919  1.00  0.00    -0.744 OA
ENDBRANCH  65  68
ENDBRANCH  47  61
BRANCH  48  72
ATOM     72  C   UNL     1       2.048  -9.893   7.179  1.00  0.00     0.023 A 
ATOM     73  C   UNL     1       2.024 -11.277   7.437  1.00  0.00     0.012 A 
ATOM     74  C   UNL     1       2.747  -9.415   6.053  1.00  0.00     0.148 A 
ATOM     75  C   UNL     1       2.701 -12.169   6.604  1.00  0.00     0.002 A 
ATOM     76  C   UNL     1       3.377 -10.313   5.199  1.00  0.00     0.091 A 
ATOM     77  F   UNL     1       2.763  -8.094   5.830  1.00  0.00    -0.205 F 
ATOM     78  C   UNL     1       3.367 -11.689   5.480  1.00  0.00     0.022 A 
BRANCH  76  79
ATOM     79  S   UNL     1       4.151  -9.804   3.659  1.00  0.00     0.127 S 
ATOM     80  O   UNL     1       5.564 -10.046   3.941  1.00  0.00    -0.237 OA
ATOM     81  O   UNL     1       3.547 -10.728   2.699  1.00  0.00    -0.237 OA
ATOM     82  O   UNL     1       3.775  -8.410   3.470  1.00  0.00    -0.744 OA
ENDBRANCH  76  79
ENDBRANCH  48  72
BRANCH  60  83
ATOM     83  C   UNL     1       2.667  -8.095  13.897  1.00  0.00     0.023 A 
ATOM     84  C   UNL     1       3.966  -7.551  13.870  1.00  0.00     0.012 A 
ATOM     85  C   UNL     1       2.289  -8.933  14.964  1.00  0.00     0.148 A 
ATOM     86  C   UNL     1       4.884  -7.860  14.873  1.00  0.00     0.002 A 
ATOM     87  C   UNL     1       3.195  -9.200  15.984  1.00  0.00     0.091 A 
ATOM     88  F   UNL     1       1.056  -9.460  14.960  1.00  0.00    -0.205 F 
ATOM     89  C   UNL     1       4.496  -8.673  15.935  1.00  0.00     0.022 A 
BRANCH  87  90
ATOM     90  S   UNL     1       2.750 -10.161  17.436  1.00  0.00     0.127 S 
ATOM     91  O   UNL     1       3.411 -11.435  17.164  1.00  0.00    -0.237 OA
ATOM     92  O   UNL     1       3.348  -9.383  18.522  1.00  0.00    -0.237 OA
ATOM     93  O   UNL     1       1.293 -10.199  17.456  1.00  0.00    -0.744 OA
ENDBRANCH  87  90
ENDBRANCH  60  83
ENDBRANCH  34  35
ENDBRANCH  26  29
ENDBRANCH  24  25
ENDBRANCH  23  24
ENDBRANCH   1  23
TORSDOF 18
