REMARK SMILES NS(=O)(=O)c1ccc(-n2nc(C(F)(F)F)cc2-c2ccc(C(=O)NCCCNC(=O)c3ccc(-c4c5nc(c(-c6cccc(S(=O)(=O)[O-])c6F)c6ccc([nH]6)c(-c6cccc(S(=O)(=O)[O-])c6F)c6nc(c(-c7cccc(S(=O)(=O)[O-])c7F)c7ccc4[nH]7)C=C6)C=C5)cc3)cc2)cc1
REMARK SMILES IDX 25 1 24 2 22 3 23 4 21 6 18 7 19 8 95 9 20 10 94 11 17 12
REMARK SMILES IDX 9 13 10 14 11 15 16 16 8 17 5 18 6 19 97 20 7 21 96 22 2 23
REMARK SMILES IDX 3 24 4 25 1 26 12 29 13 30 14 31 15 32 26 33 27 34 28 35
REMARK SMILES IDX 29 36 30 38 31 39 32 40 93 41 33 42 92 43 34 44 35 45 36 46
REMARK SMILES IDX 86 47 37 48 91 49 85 50 87 51 38 52 90 53 84 54 83 55 39 57
REMARK SMILES IDX 71 58 51 59 70 60 52 61 55 62 69 63 88 64 53 65 54 66 68 68
REMARK SMILES IDX 89 69 56 70 40 71 41 72 49 73 42 74 44 75 50 76 43 77 45 78
REMARK SMILES IDX 46 79 47 80 48 81 72 82 73 83 81 84 74 85 76 86 82 87 75 88
REMARK SMILES IDX 77 89 78 90 79 91 80 92 57 93 58 94 66 95 59 96 61 97 67 98
REMARK SMILES IDX 60 99 62 100 63 101 64 102 65 103
REMARK H PARENT 24 5 1 27 1 28 28 37 87 56 55 67
REMARK Flexibility Score: inf
ROOT
ATOM      1  C   UNL     1       9.516   4.880   0.414  1.00  0.00     0.118 C 
ENDROOT
BRANCH   1   2
ATOM      2  N   UNL     1       9.096   4.078  -0.724  1.00  0.00    -0.352 N 
ATOM      3  C   UNL     1       7.914   4.024  -1.421  1.00  0.00     0.251 C 
ATOM      4  O   UNL     1       7.878   3.348  -2.446  1.00  0.00    -0.269 OA
ATOM      5  H   UNL     1       9.787   3.460  -1.056  1.00  0.00     0.163 HD
BRANCH   3   6
ATOM      6  C   UNL     1       6.707   4.799  -1.024  1.00  0.00     0.039 A 
ATOM      7  C   UNL     1       4.458   6.367  -0.427  1.00  0.00     0.000 A 
ATOM      8  C   UNL     1       4.637   5.864  -1.720  1.00  0.00     0.011 A 
ATOM      9  C   UNL     1       5.376   6.056   0.569  1.00  0.00     0.011 A 
ATOM     10  C   UNL     1       5.760   5.087  -2.017  1.00  0.00     0.014 A 
ATOM     11  C   UNL     1       6.460   5.240   0.276  1.00  0.00     0.014 A 
BRANCH   7  12
ATOM     12  C   UNL     1       3.294   7.157  -0.071  1.00  0.00     0.075 A 
ATOM     13  N   UNL     1       1.990   6.692  -0.073  1.00  0.00    -0.233 N 
ATOM     14  N   UNL     1       1.099   7.699   0.129  1.00  0.00    -0.163 NA
ATOM     15  C   UNL     1       1.856   8.758   0.489  1.00  0.00     0.167 A 
ATOM     16  C   UNL     1       3.232   8.472   0.331  1.00  0.00     0.064 A 
BRANCH  13  17
ATOM     17  C   UNL     1       1.561   5.352  -0.254  1.00  0.00     0.065 A 
ATOM     18  C   UNL     1       0.907   2.710  -0.838  1.00  0.00     0.082 A 
ATOM     19  C   UNL     1       1.934   2.974   0.068  1.00  0.00     0.024 A 
ATOM     20  C   UNL     1       0.172   3.757  -1.412  1.00  0.00     0.024 A 
ATOM     21  C   UNL     1       2.264   4.298   0.354  1.00  0.00     0.030 A 
ATOM     22  C   UNL     1       0.483   5.085  -1.102  1.00  0.00     0.030 A 
BRANCH  18  23
ATOM     23  S   UNL     1       0.516   1.050  -1.311  1.00  0.00     0.238 S 
ATOM     24  O   UNL     1       1.169   0.781  -2.562  1.00  0.00    -0.207 OA
ATOM     25  O   UNL     1      -0.908   0.862  -1.113  1.00  0.00    -0.207 OA
BRANCH  23  26
ATOM     26  N   UNL     1       1.261   0.088  -0.154  1.00  0.00    -0.225 NA
ATOM     27  H   UNL     1       1.079  -0.895  -0.361  1.00  0.00     0.137 HD
ATOM     28  H   UNL     1       0.889   0.315   0.768  1.00  0.00     0.137 HD
ENDBRANCH  23  26
ENDBRANCH  18  23
ENDBRANCH  13  17
BRANCH  15  29
ATOM     29  C   UNL     1       1.290  10.058   0.989  1.00  0.00     0.435 C 
ATOM     30  F   UNL     1       0.349  10.586   0.165  1.00  0.00    -0.164 F 
ATOM     31  F   UNL     1       0.722   9.931   2.219  1.00  0.00    -0.164 F 
ATOM     32  F   UNL     1       2.260  11.008   1.121  1.00  0.00    -0.164 F 
ENDBRANCH  15  29
ENDBRANCH   7  12
ENDBRANCH   3   6
ENDBRANCH   1   2
BRANCH   1  33
ATOM     33  C   UNL     1       9.342   4.133   1.745  1.00  0.00     0.042 C 
BRANCH  33  34
ATOM     34  C   UNL     1      10.489   3.182   2.009  1.00  0.00     0.118 C 
BRANCH  34  35
ATOM     35  N   UNL     1      11.738   3.892   2.296  1.00  0.00    -0.352 N 
ATOM     36  C   UNL     1      12.987   3.359   2.544  1.00  0.00     0.251 C 
ATOM     37  H   UNL     1      11.678   4.875   2.314  1.00  0.00     0.163 HD
ATOM     38  O   UNL     1      13.847   4.029   3.105  1.00  0.00    -0.269 OA
BRANCH  36  39
ATOM     39  C   UNL     1      13.258   1.974   2.125  1.00  0.00     0.039 A 
ATOM     40  C   UNL     1      14.030   1.109   2.901  1.00  0.00     0.014 A 
ATOM     41  C   UNL     1      12.674   1.534   0.941  1.00  0.00     0.014 A 
ATOM     42  C   UNL     1      14.141  -0.219   2.500  1.00  0.00     0.010 A 
ATOM     43  C   UNL     1      12.589   0.196   0.681  1.00  0.00     0.010 A 
ATOM     44  C   UNL     1      13.392  -0.672   1.399  1.00  0.00    -0.014 A 
BRANCH  44  45
ATOM     45  C   UNL     1      13.339  -2.084   1.048  1.00  0.00     0.031 A 
ATOM     46  C   UNL     1      12.977  -2.952   2.196  1.00  0.00     0.074 A 
ATOM     47  C   UNL     1      13.425  -2.541  -0.222  1.00  0.00     0.049 A 
ATOM     48  N   UNL     1      13.777  -3.706   2.873  1.00  0.00    -0.248 NA
ATOM     49  C   UNL     1      11.645  -2.804   2.803  1.00  0.00     0.031 C 
ATOM     50  C   UNL     1      13.463  -1.767  -1.472  1.00  0.00     0.029 A 
ATOM     51  N   UNL     1      13.368  -3.821  -0.678  1.00  0.00    -0.354 N 
ATOM     52  C   UNL     1      12.974  -4.349   3.809  1.00  0.00     0.074 A 
ATOM     53  C   UNL     1      11.761  -3.580   3.883  1.00  0.00     0.031 C 
ATOM     54  C   UNL     1      13.164  -2.573  -2.516  1.00  0.00     0.029 A 
ATOM     55  C   UNL     1      13.095  -3.940  -2.040  1.00  0.00     0.049 A 
ATOM     56  H   UNL     1      13.508  -4.600  -0.094  1.00  0.00     0.167 HD
ATOM     57  C   UNL     1      13.264  -5.619   4.206  1.00  0.00     0.034 A 
ATOM     58  C   UNL     1      12.798  -5.080  -2.715  1.00  0.00     0.034 A 
ATOM     59  C   UNL     1      14.602  -5.987   3.801  1.00  0.00     0.049 A 
ATOM     60  C   UNL     1      13.296  -6.206  -1.893  1.00  0.00     0.074 A 
ATOM     61  C   UNL     1      15.868  -5.481   4.024  1.00  0.00     0.029 A 
ATOM     62  N   UNL     1      14.703  -6.786   2.687  1.00  0.00    -0.354 N 
ATOM     63  N   UNL     1      14.562  -6.415  -1.665  1.00  0.00    -0.248 NA
ATOM     64  C   UNL     1      12.375  -6.811  -0.948  1.00  0.00     0.031 C 
ATOM     65  C   UNL     1      16.541  -5.617   2.773  1.00  0.00     0.029 A 
ATOM     66  C   UNL     1      15.689  -6.278   1.886  1.00  0.00     0.049 A 
ATOM     67  H   UNL     1      14.160  -7.585   2.498  1.00  0.00     0.167 HD
ATOM     68  C   UNL     1      14.610  -6.737  -0.316  1.00  0.00     0.074 A 
ATOM     69  C   UNL     1      13.231  -7.074   0.044  1.00  0.00     0.031 C 
ATOM     70  C   UNL     1      15.694  -6.406   0.445  1.00  0.00     0.034 A 
BRANCH  57  71
ATOM     71  C   UNL     1      12.243  -6.681   4.560  1.00  0.00     0.023 A 
ATOM     72  C   UNL     1      12.752  -7.924   5.004  1.00  0.00     0.012 A 
ATOM     73  C   UNL     1      10.873  -6.643   4.213  1.00  0.00     0.148 A 
ATOM     74  C   UNL     1      11.966  -9.081   5.016  1.00  0.00     0.002 A 
ATOM     75  C   UNL     1      10.076  -7.780   4.295  1.00  0.00     0.091 A 
ATOM     76  F   UNL     1      10.341  -5.542   3.682  1.00  0.00    -0.205 F 
ATOM     77  C   UNL     1      10.627  -9.009   4.660  1.00  0.00     0.022 A 
BRANCH  75  78
ATOM     78  S   UNL     1       8.326  -7.741   3.882  1.00  0.00     0.127 S 
ATOM     79  O   UNL     1       8.302  -8.513   2.643  1.00  0.00    -0.237 OA
ATOM     80  O   UNL     1       7.735  -8.408   5.043  1.00  0.00    -0.237 OA
ATOM     81  O   UNL     1       7.977  -6.331   3.762  1.00  0.00    -0.744 OA
ENDBRANCH  75  78
ENDBRANCH  57  71
BRANCH  58  82
ATOM     82  C   UNL     1      11.893  -5.308  -3.867  1.00  0.00     0.023 A 
ATOM     83  C   UNL     1      11.999  -6.498  -4.618  1.00  0.00     0.012 A 
ATOM     84  C   UNL     1      10.733  -4.521  -4.033  1.00  0.00     0.148 A 
ATOM     85  C   UNL     1      10.968  -6.911  -5.472  1.00  0.00     0.002 A 
ATOM     86  C   UNL     1       9.709  -4.937  -4.881  1.00  0.00     0.091 A 
ATOM     87  F   UNL     1      10.593  -3.418  -3.287  1.00  0.00    -0.205 F 
ATOM     88  C   UNL     1       9.818  -6.137  -5.594  1.00  0.00     0.022 A 
BRANCH  86  89
ATOM     89  S   UNL     1       8.173  -4.018  -5.051  1.00  0.00     0.127 S 
ATOM     90  O   UNL     1       8.056  -3.895  -6.504  1.00  0.00    -0.237 OA
ATOM     91  O   UNL     1       7.210  -4.925  -4.433  1.00  0.00    -0.237 OA
ATOM     92  O   UNL     1       8.386  -2.756  -4.354  1.00  0.00    -0.744 OA
ENDBRANCH  86  89
ENDBRANCH  58  82
BRANCH  70  93
ATOM     93  C   UNL     1      16.938  -5.927  -0.263  1.00  0.00     0.023 A 
ATOM     94  C   UNL     1      16.987  -4.732  -1.013  1.00  0.00     0.012 A 
ATOM     95  C   UNL     1      18.131  -6.625  -0.021  1.00  0.00     0.148 A 
ATOM     96  C   UNL     1      18.200  -4.258  -1.524  1.00  0.00     0.002 A 
ATOM     97  C   UNL     1      19.339  -6.127  -0.488  1.00  0.00     0.091 A 
ATOM     98  F   UNL     1      18.065  -7.758   0.695  1.00  0.00    -0.205 F 
ATOM     99  C   UNL     1      19.379  -4.948  -1.249  1.00  0.00     0.022 A 
BRANCH  97 100
ATOM    100  S   UNL     1      20.896  -6.905  -0.059  1.00  0.00     0.127 S 
ATOM    101  O   UNL     1      21.276  -7.542  -1.319  1.00  0.00    -0.237 OA
ATOM    102  O   UNL     1      21.725  -5.760   0.323  1.00  0.00    -0.237 OA
ATOM    103  O   UNL     1      20.601  -7.817   1.039  1.00  0.00    -0.744 OA
ENDBRANCH  97 100
ENDBRANCH  70  93
ENDBRANCH  44  45
ENDBRANCH  36  39
ENDBRANCH  34  35
ENDBRANCH  33  34
ENDBRANCH   1  33
TORSDOF 18
