REMARK SMILES C[C@H]1CC[C@](C#N)([C@H](O)C(=O)NCCCNC(=O)c2ccc(-c3c4nc(c(-c5cccc(S(=O)(=O)[O-])c5F)c5ccc([nH]5)c(-c5cccc(S(=O)(=O)[O-])c5F)c5nc(c(-c6cccc(S(=O)(=O)[O-])c6F)c6ccc3[nH]6)C=C5)C=C4)cc2)C1
REMARK SMILES IDX 14 1 13 2 12 3 10 4 11 5 8 7 5 8 1 9 2 10 3 11 82 12 4 13
REMARK SMILES IDX 6 14 7 15 9 16 15 18 16 19 17 20 18 22 19 23 20 24 81 25
REMARK SMILES IDX 21 26 80 27 22 28 23 29 24 30 74 31 25 32 79 33 73 34 75 35
REMARK SMILES IDX 26 36 78 37 72 38 71 39 27 41 59 42 39 43 58 44 40 45 43 46
REMARK SMILES IDX 57 47 76 48 41 49 42 50 56 52 77 53 44 54 28 55 29 56 37 57
REMARK SMILES IDX 30 58 32 59 38 60 31 61 33 62 34 63 35 64 36 65 60 66 61 67
REMARK SMILES IDX 69 68 62 69 64 70 70 71 63 72 65 73 66 74 67 75 68 76 45 77
REMARK SMILES IDX 46 78 54 79 47 80 49 81 55 82 48 83 50 84 51 85 52 86 53 87
REMARK H PARENT 12 6 9 17 16 21 75 40 43 51
REMARK Flexibility Score: inf
ROOT
ATOM      1  C   UNL     1      -1.692  -3.925   0.892  1.00  0.00     0.042 C 
ENDROOT
BRANCH   1   2
ATOM      2  C   UNL     1      -1.153  -3.876   2.304  1.00  0.00     0.117 C 
BRANCH   2   3
ATOM      3  N   UNL     1      -0.139  -4.866   2.595  1.00  0.00    -0.354 N 
ATOM      4  C   UNL     1       1.009  -4.792   3.321  1.00  0.00     0.250 C 
ATOM      5  O   UNL     1       1.347  -5.846   3.877  1.00  0.00    -0.272 OA
ATOM      6  H   UNL     1      -0.311  -5.750   2.198  1.00  0.00     0.163 HD
BRANCH   4   7
ATOM      7  C   UNL     1       1.999  -3.583   3.320  1.00  0.00     0.223 C 
BRANCH   7   8
ATOM      8  C   UNL     1       1.480  -2.142   3.181  1.00  0.00     0.092 C 
ATOM      9  C   UNL     1      -0.434   0.089   1.658  1.00  0.00     0.008 C 
ATOM     10  C   UNL     1       1.058  -0.244   1.670  1.00  0.00    -0.013 C 
ATOM     11  C   UNL     1       1.833   0.251   2.903  1.00  0.00     0.005 C 
ATOM     12  C   UNL     1       1.290  -1.749   1.693  1.00  0.00     0.029 C 
ATOM     13  C   UNL     1       2.461  -1.009   3.555  1.00  0.00     0.026 C 
BRANCH   8  14
ATOM     14  C   UNL     1       0.350  -1.979   4.129  1.00  0.00     0.072 C 
ATOM     15  N   UNL     1      -0.522  -1.883   4.893  1.00  0.00    -0.198 NA
ENDBRANCH   8  14
ENDBRANCH   7   8
BRANCH   7  16
ATOM     16  O   UNL     1       3.016  -3.864   2.344  1.00  0.00    -0.382 OA
ATOM     17  H   UNL     1       2.618  -3.883   1.459  1.00  0.00     0.211 HD
ENDBRANCH   7  16
ENDBRANCH   4   7
ENDBRANCH   2   3
ENDBRANCH   1   2
BRANCH   1  18
ATOM     18  C   UNL     1      -3.189  -4.155   0.890  1.00  0.00     0.118 C 
BRANCH  18  19
ATOM     19  N   UNL     1      -3.929  -3.188   1.711  1.00  0.00    -0.352 N 
ATOM     20  C   UNL     1      -4.889  -2.261   1.381  1.00  0.00     0.251 C 
ATOM     21  H   UNL     1      -3.696  -3.206   2.667  1.00  0.00     0.163 HD
ATOM     22  O   UNL     1      -5.278  -1.458   2.224  1.00  0.00    -0.269 OA
BRANCH  20  23
ATOM     23  C   UNL     1      -5.420  -2.218   0.009  1.00  0.00     0.039 A 
ATOM     24  C   UNL     1      -5.676  -0.986  -0.594  1.00  0.00     0.014 A 
ATOM     25  C   UNL     1      -5.604  -3.400  -0.700  1.00  0.00     0.014 A 
ATOM     26  C   UNL     1      -6.016  -0.949  -1.946  1.00  0.00     0.010 A 
ATOM     27  C   UNL     1      -5.753  -3.350  -2.072  1.00  0.00     0.010 A 
ATOM     28  C   UNL     1      -5.992  -2.127  -2.708  1.00  0.00    -0.014 A 
BRANCH  28  29
ATOM     29  C   UNL     1      -6.235  -2.126  -4.170  1.00  0.00     0.031 A 
ATOM     30  C   UNL     1      -7.315  -3.006  -4.744  1.00  0.00     0.074 A 
ATOM     31  C   UNL     1      -5.416  -1.426  -4.980  1.00  0.00     0.049 A 
ATOM     32  N   UNL     1      -7.616  -3.225  -5.996  1.00  0.00    -0.248 NA
ATOM     33  C   UNL     1      -8.135  -3.780  -3.792  1.00  0.00     0.031 C 
ATOM     34  C   UNL     1      -4.272  -0.620  -4.542  1.00  0.00     0.029 A 
ATOM     35  N   UNL     1      -5.402  -1.301  -6.345  1.00  0.00    -0.354 N 
ATOM     36  C   UNL     1      -8.611  -4.195  -5.979  1.00  0.00     0.074 A 
ATOM     37  C   UNL     1      -8.830  -4.562  -4.601  1.00  0.00     0.031 C 
ATOM     38  C   UNL     1      -3.683  -0.069  -5.615  1.00  0.00     0.029 A 
ATOM     39  C   UNL     1      -4.372  -0.522  -6.818  1.00  0.00     0.049 A 
ATOM     40  H   UNL     1      -6.067  -1.728  -6.932  1.00  0.00     0.167 HD
ATOM     41  C   UNL     1      -9.306  -4.710  -7.018  1.00  0.00     0.034 A 
ATOM     42  C   UNL     1      -4.011  -0.223  -8.080  1.00  0.00     0.034 A 
ATOM     43  C   UNL     1      -9.120  -4.295  -8.379  1.00  0.00     0.049 A 
ATOM     44  C   UNL     1      -4.835  -0.769  -9.213  1.00  0.00     0.074 A 
ATOM     45  C   UNL     1      -9.848  -4.664  -9.494  1.00  0.00     0.029 A 
ATOM     46  N   UNL     1      -8.126  -3.432  -8.811  1.00  0.00    -0.354 N 
ATOM     47  N   UNL     1      -5.884  -1.554  -9.165  1.00  0.00    -0.248 NA
ATOM     48  C   UNL     1      -4.449  -0.364 -10.572  1.00  0.00     0.031 C 
ATOM     49  C   UNL     1      -9.260  -4.065 -10.611  1.00  0.00     0.029 A 
ATOM     50  C   UNL     1      -8.203  -3.276 -10.182  1.00  0.00     0.049 A 
ATOM     51  H   UNL     1      -7.464  -2.995  -8.228  1.00  0.00     0.167 HD
ATOM     52  C   UNL     1      -6.304  -1.710 -10.481  1.00  0.00     0.074 A 
ATOM     53  C   UNL     1      -5.409  -0.917 -11.299  1.00  0.00     0.031 C 
ATOM     54  C   UNL     1      -7.328  -2.450 -10.971  1.00  0.00     0.034 A 
BRANCH  41  55
ATOM     55  C   UNL     1     -10.349  -5.754  -6.722  1.00  0.00     0.023 A 
ATOM     56  C   UNL     1     -11.529  -5.403  -6.035  1.00  0.00     0.012 A 
ATOM     57  C   UNL     1     -10.185  -7.074  -7.183  1.00  0.00     0.148 A 
ATOM     58  C   UNL     1     -12.514  -6.357  -5.781  1.00  0.00     0.002 A 
ATOM     59  C   UNL     1     -11.193  -8.005  -6.976  1.00  0.00     0.091 A 
ATOM     60  F   UNL     1      -9.044  -7.393  -7.811  1.00  0.00    -0.205 F 
ATOM     61  C   UNL     1     -12.352  -7.653  -6.264  1.00  0.00     0.022 A 
BRANCH  59  62
ATOM     62  S   UNL     1     -11.119  -9.674  -7.632  1.00  0.00     0.127 S 
ATOM     63  O   UNL     1     -11.041 -10.469  -6.407  1.00  0.00    -0.237 OA
ATOM     64  O   UNL     1     -12.392  -9.777  -8.346  1.00  0.00    -0.237 OA
ATOM     65  O   UNL     1      -9.936  -9.724  -8.480  1.00  0.00    -0.744 OA
ENDBRANCH  59  62
ENDBRANCH  41  55
BRANCH  42  66
ATOM     66  C   UNL     1      -2.835   0.655  -8.337  1.00  0.00     0.023 A 
ATOM     67  C   UNL     1      -3.025   1.940  -8.884  1.00  0.00     0.012 A 
ATOM     68  C   UNL     1      -1.530   0.227  -8.030  1.00  0.00     0.148 A 
ATOM     69  C   UNL     1      -1.933   2.763  -9.161  1.00  0.00     0.002 A 
ATOM     70  C   UNL     1      -0.452   1.075  -8.250  1.00  0.00     0.091 A 
ATOM     71  F   UNL     1      -1.369  -1.000  -7.515  1.00  0.00    -0.205 F 
ATOM     72  C   UNL     1      -0.648   2.335  -8.836  1.00  0.00     0.022 A 
BRANCH  70  73
ATOM     73  S   UNL     1       1.218   0.659  -7.738  1.00  0.00     0.127 S 
ATOM     74  O   UNL     1       1.889   0.481  -9.023  1.00  0.00    -0.237 OA
ATOM     75  O   UNL     1       1.612   1.858  -6.997  1.00  0.00    -0.237 OA
ATOM     76  O   UNL     1       1.094  -0.538  -6.918  1.00  0.00    -0.744 OA
ENDBRANCH  70  73
ENDBRANCH  42  66
BRANCH  54  77
ATOM     77  C   UNL     1      -7.574  -2.405 -12.455  1.00  0.00     0.023 A 
ATOM     78  C   UNL     1      -6.676  -3.031 -13.341  1.00  0.00     0.012 A 
ATOM     79  C   UNL     1      -8.746  -1.807 -12.959  1.00  0.00     0.148 A 
ATOM     80  C   UNL     1      -6.923  -3.030 -14.713  1.00  0.00     0.002 A 
ATOM     81  C   UNL     1      -9.014  -1.862 -14.320  1.00  0.00     0.091 A 
ATOM     82  F   UNL     1      -9.579  -1.206 -12.098  1.00  0.00    -0.205 F 
ATOM     83  C   UNL     1      -8.097  -2.459 -15.200  1.00  0.00     0.022 A 
BRANCH  81  84
ATOM     84  S   UNL     1     -10.546  -1.246 -15.024  1.00  0.00     0.127 S 
ATOM     85  O   UNL     1     -10.076  -0.099 -15.800  1.00  0.00    -0.237 OA
ATOM     86  O   UNL     1     -10.994  -2.384 -15.827  1.00  0.00    -0.237 OA
ATOM     87  O   UNL     1     -11.409  -0.921 -13.897  1.00  0.00    -0.744 OA
ENDBRANCH  81  84
ENDBRANCH  54  77
ENDBRANCH  28  29
ENDBRANCH  20  23
ENDBRANCH  18  19
ENDBRANCH   1  18
TORSDOF 16
