REMARK SMILES CCc1nnsc1C(=O)N[C@](C)(CC)C(=O)NCCCNC(=O)c1ccc(-c2c3nc(c(-c4cccc(S(=O)(=O)[O-])c4F)c4ccc([nH]4)c(-c4cccc(S(=O)(=O)[O-])c4F)c4nc(c(-c5cccc(S(=O)(=O)[O-])c5F)c5ccc2[nH]5)C=C4)C=C3)cc1
REMARK SMILES IDX 19 1 18 2 17 3 15 4 16 5 11 7 12 8 10 9 8 10 9 11 7 13 3 14
REMARK SMILES IDX 4 15 5 16 6 17 2 18 1 19 13 20 14 21 20 22 21 23 22 24 23 26
REMARK SMILES IDX 24 27 25 28 86 29 26 30 85 31 27 32 28 33 29 34 79 35 30 36
REMARK SMILES IDX 84 37 78 38 80 39 31 40 83 41 77 42 76 43 32 45 64 46 44 47
REMARK SMILES IDX 63 48 45 49 48 50 62 51 81 52 46 53 47 54 61 56 82 57 49 58
REMARK SMILES IDX 33 59 34 60 42 61 35 62 37 63 43 64 36 65 38 66 39 67 40 68
REMARK SMILES IDX 41 69 65 70 66 71 74 72 67 73 69 74 75 75 68 76 70 77 71 78
REMARK SMILES IDX 72 79 73 80 50 81 51 82 59 83 52 84 54 85 60 86 53 87 55 88
REMARK SMILES IDX 56 89 57 90 58 91
REMARK H PARENT 17 6 10 12 21 25 80 44 48 55
REMARK Flexibility Score: inf
ROOT
ATOM      1  C   UNL     1       1.765  -3.509   0.165  1.00  0.00     0.042 C 
ENDROOT
BRANCH   1   2
ATOM      2  C   UNL     1       0.569  -2.693   0.642  1.00  0.00     0.117 C 
BRANCH   2   3
ATOM      3  N   UNL     1       1.020  -1.409   1.169  1.00  0.00    -0.354 N 
ATOM      4  C   UNL     1       1.065  -0.185   0.552  1.00  0.00     0.245 C 
ATOM      5  O   UNL     1       1.962   0.589   0.895  1.00  0.00    -0.272 OA
ATOM      6  H   UNL     1       1.337  -1.424   2.101  1.00  0.00     0.163 HD
BRANCH   4   7
ATOM      7  C   UNL     1       0.117   0.139  -0.620  1.00  0.00     0.116 C 
ATOM      8  C   UNL     1      -0.139   1.616  -0.929  1.00  0.00     0.045 C 
BRANCH   7   9
ATOM      9  N   UNL     1      -1.184  -0.496  -0.358  1.00  0.00    -0.337 N 
ATOM     10  C   UNL     1      -2.163  -0.439   0.604  1.00  0.00     0.265 C 
ATOM     11  O   UNL     1      -3.119  -1.147   0.242  1.00  0.00    -0.268 OA
ATOM     12  H   UNL     1      -1.417  -1.138  -1.068  1.00  0.00     0.164 HD
BRANCH  10  13
ATOM     13  C   UNL     1      -2.208   0.272   1.890  1.00  0.00     0.136 A 
ATOM     14  C   UNL     1      -1.492   1.085   2.789  1.00  0.00     0.088 A 
ATOM     15  N   UNL     1      -2.191   1.441   3.957  1.00  0.00    -0.142 NA
ATOM     16  N   UNL     1      -3.391   0.925   4.024  1.00  0.00    -0.090 NA
ATOM     17  S   UNL     1      -3.761   0.013   2.705  1.00  0.00    -0.006 S 
BRANCH  14  18
ATOM     18  C   UNL     1      -0.111   1.651   2.836  1.00  0.00     0.056 C 
ATOM     19  C   UNL     1       0.084   2.922   2.032  1.00  0.00     0.011 C 
ENDBRANCH  14  18
ENDBRANCH  10  13
ENDBRANCH   7   9
BRANCH   7  20
ATOM     20  C   UNL     1       0.812  -0.471  -1.885  1.00  0.00     0.035 C 
ATOM     21  C   UNL     1       2.213   0.095  -2.150  1.00  0.00     0.007 C 
ENDBRANCH   7  20
ENDBRANCH   4   7
ENDBRANCH   2   3
ENDBRANCH   1   2
BRANCH   1  22
ATOM     22  C   UNL     1       2.612  -4.023   1.319  1.00  0.00     0.118 C 
BRANCH  22  23
ATOM     23  N   UNL     1       1.916  -5.049   2.083  1.00  0.00    -0.352 N 
ATOM     24  C   UNL     1       2.244  -6.371   2.259  1.00  0.00     0.251 C 
ATOM     25  H   UNL     1       1.093  -4.754   2.536  1.00  0.00     0.163 HD
ATOM     26  O   UNL     1       1.421  -7.146   2.732  1.00  0.00    -0.269 OA
BRANCH  24  27
ATOM     27  C   UNL     1       3.585  -6.851   1.864  1.00  0.00     0.039 A 
ATOM     28  C   UNL     1       3.697  -8.070   1.192  1.00  0.00     0.014 A 
ATOM     29  C   UNL     1       4.727  -6.100   2.154  1.00  0.00     0.014 A 
ATOM     30  C   UNL     1       4.951  -8.506   0.761  1.00  0.00     0.010 A 
ATOM     31  C   UNL     1       5.960  -6.489   1.643  1.00  0.00     0.010 A 
ATOM     32  C   UNL     1       6.088  -7.702   0.952  1.00  0.00    -0.014 A 
BRANCH  32  33
ATOM     33  C   UNL     1       7.417  -8.110   0.431  1.00  0.00     0.031 A 
ATOM     34  C   UNL     1       8.567  -8.333   1.376  1.00  0.00     0.074 A 
ATOM     35  C   UNL     1       7.609  -8.200  -0.900  1.00  0.00     0.049 A 
ATOM     36  N   UNL     1       9.809  -8.640   1.103  1.00  0.00    -0.248 NA
ATOM     37  C   UNL     1       8.296  -8.161   2.813  1.00  0.00     0.031 C 
ATOM     38  C   UNL     1       6.593  -7.931  -1.921  1.00  0.00     0.029 A 
ATOM     39  N   UNL     1       8.731  -8.515  -1.625  1.00  0.00    -0.354 N 
ATOM     40  C   UNL     1      10.472  -8.664   2.324  1.00  0.00     0.074 A 
ATOM     41  C   UNL     1       9.504  -8.304   3.337  1.00  0.00     0.031 C 
ATOM     42  C   UNL     1       7.136  -8.101  -3.137  1.00  0.00     0.029 A 
ATOM     43  C   UNL     1       8.544  -8.452  -2.986  1.00  0.00     0.049 A 
ATOM     44  H   UNL     1       9.589  -8.762  -1.209  1.00  0.00     0.167 HD
ATOM     45  C   UNL     1      11.761  -8.984   2.584  1.00  0.00     0.034 A 
ATOM     46  C   UNL     1       9.412  -8.642  -3.999  1.00  0.00     0.034 A 
ATOM     47  C   UNL     1      12.711  -9.375   1.577  1.00  0.00     0.049 A 
ATOM     48  C   UNL     1      10.832  -9.021  -3.682  1.00  0.00     0.074 A 
ATOM     49  C   UNL     1      14.016  -9.802   1.746  1.00  0.00     0.029 A 
ATOM     50  N   UNL     1      12.465  -9.371   0.213  1.00  0.00    -0.354 N 
ATOM     51  N   UNL     1      11.399  -9.193  -2.513  1.00  0.00    -0.248 NA
ATOM     52  C   UNL     1      11.725  -9.267  -4.824  1.00  0.00     0.031 C 
ATOM     53  C   UNL     1      14.571 -10.022   0.482  1.00  0.00     0.029 A 
ATOM     54  C   UNL     1      13.598  -9.773  -0.473  1.00  0.00     0.049 A 
ATOM     55  H   UNL     1      11.611  -9.120  -0.206  1.00  0.00     0.167 HD
ATOM     56  C   UNL     1      12.701  -9.603  -2.777  1.00  0.00     0.074 A 
ATOM     57  C   UNL     1      12.832  -9.673  -4.218  1.00  0.00     0.031 C 
ATOM     58  C   UNL     1      13.702  -9.884  -1.906  1.00  0.00     0.034 A 
BRANCH  45  59
ATOM     59  C   UNL     1      12.213  -8.964   4.022  1.00  0.00     0.023 A 
ATOM     60  C   UNL     1      11.736  -9.942   4.919  1.00  0.00     0.012 A 
ATOM     61  C   UNL     1      13.154  -8.017   4.471  1.00  0.00     0.148 A 
ATOM     62  C   UNL     1      12.156  -9.954   6.249  1.00  0.00     0.002 A 
ATOM     63  C   UNL     1      13.606  -8.065   5.785  1.00  0.00     0.091 A 
ATOM     64  F   UNL     1      13.582  -7.083   3.610  1.00  0.00    -0.205 F 
ATOM     65  C   UNL     1      13.098  -9.023   6.678  1.00  0.00     0.022 A 
BRANCH  63  66
ATOM     66  S   UNL     1      14.879  -6.965   6.414  1.00  0.00     0.127 S 
ATOM     67  O   UNL     1      14.116  -6.131   7.341  1.00  0.00    -0.237 OA
ATOM     68  O   UNL     1      15.803  -7.901   7.054  1.00  0.00    -0.237 OA
ATOM     69  O   UNL     1      15.421  -6.272   5.254  1.00  0.00    -0.744 OA
ENDBRANCH  63  66
ENDBRANCH  45  59
BRANCH  46  70
ATOM     70  C   UNL     1       8.946  -8.528  -5.410  1.00  0.00     0.023 A 
ATOM     71  C   UNL     1       8.870  -9.683  -6.213  1.00  0.00     0.012 A 
ATOM     72  C   UNL     1       8.557  -7.288  -5.954  1.00  0.00     0.148 A 
ATOM     73  C   UNL     1       8.451  -9.601  -7.541  1.00  0.00     0.002 A 
ATOM     74  C   UNL     1       8.084  -7.222  -7.259  1.00  0.00     0.091 A 
ATOM     75  F   UNL     1       8.643  -6.200  -5.176  1.00  0.00    -0.205 F 
ATOM     76  C   UNL     1       8.049  -8.373  -8.061  1.00  0.00     0.022 A 
BRANCH  74  77
ATOM     77  S   UNL     1       7.420  -5.711  -7.967  1.00  0.00     0.127 S 
ATOM     78  O   UNL     1       8.427  -5.385  -8.974  1.00  0.00    -0.237 OA
ATOM     79  O   UNL     1       6.137  -6.170  -8.503  1.00  0.00    -0.237 OA
ATOM     80  O   UNL     1       7.306  -4.772  -6.860  1.00  0.00    -0.744 OA
ENDBRANCH  74  77
ENDBRANCH  46  70
BRANCH  58  81
ATOM     81  C   UNL     1      15.021 -10.337  -2.477  1.00  0.00     0.023 A 
ATOM     82  C   UNL     1      15.849  -9.420  -3.155  1.00  0.00     0.012 A 
ATOM     83  C   UNL     1      15.469 -11.658  -2.277  1.00  0.00     0.148 A 
ATOM     84  C   UNL     1      17.087  -9.821  -3.655  1.00  0.00     0.002 A 
ATOM     85  C   UNL     1      16.727 -12.035  -2.731  1.00  0.00     0.091 A 
ATOM     86  F   UNL     1      14.659 -12.519  -1.645  1.00  0.00    -0.205 F 
ATOM     87  C   UNL     1      17.531 -11.122  -3.433  1.00  0.00     0.022 A 
BRANCH  85  88
ATOM     88  S   UNL     1      17.423 -13.658  -2.405  1.00  0.00     0.127 S 
ATOM     89  O   UNL     1      17.410 -14.261  -3.737  1.00  0.00    -0.237 OA
ATOM     90  O   UNL     1      18.755 -13.326  -1.899  1.00  0.00    -0.237 OA
ATOM     91  O   UNL     1      16.543 -14.286  -1.428  1.00  0.00    -0.744 OA
ENDBRANCH  85  88
ENDBRANCH  58  81
ENDBRANCH  32  33
ENDBRANCH  24  27
ENDBRANCH  22  23
ENDBRANCH   1  22
TORSDOF 17
