REMARK SMILES Cc1cc(F)cc(N[C@](C)(C(=O)NCCCNC(=O)c2ccc(-c3c4nc(c(-c5cccc(S(=O)(=O)[O-])c5F)c5ccc([nH]5)c(-c5cccc(S(=O)(=O)[O-])c5F)c5nc(c(-c6cccc(S(=O)(=O)[O-])c6F)c6ccc3[nH]6)C=C5)C=C4)cc2)c2cccc(F)c2)c1
REMARK SMILES IDX 15 1 14 2 13 3 11 4 12 5 9 7 10 8 8 9 7 11 1 12 2 13 3 14
REMARK SMILES IDX 90 15 4 16 5 17 6 18 83 19 84 20 89 21 85 22 87 23 86 24
REMARK SMILES IDX 88 25 16 26 17 27 18 28 19 30 20 31 21 32 82 33 22 34 81 35
REMARK SMILES IDX 23 36 24 37 25 38 75 39 26 40 80 41 74 42 76 43 27 44 79 45
REMARK SMILES IDX 73 46 72 47 28 49 60 50 40 51 59 52 41 53 44 54 58 55 77 56
REMARK SMILES IDX 42 57 43 58 57 60 78 61 45 62 29 63 30 64 38 65 31 66 33 67
REMARK SMILES IDX 39 68 32 69 34 70 35 71 36 72 37 73 61 74 62 75 70 76 63 77
REMARK SMILES IDX 65 78 71 79 64 80 66 81 67 82 68 83 69 84 46 85 47 86 55 87
REMARK SMILES IDX 48 88 50 89 56 90 49 91 51 92 52 93 53 94 54 95
REMARK H PARENT 13 6 8 10 17 29 76 48 44 59
REMARK Flexibility Score: inf
ROOT
ATOM      1  C   UNL     1      -3.920  -6.413   1.275  1.00  0.00     0.042 C 
ENDROOT
BRANCH   1   2
ATOM      2  C   UNL     1      -3.837  -4.972   0.779  1.00  0.00     0.117 C 
BRANCH   2   3
ATOM      3  N   UNL     1      -2.825  -4.227   1.497  1.00  0.00    -0.354 N 
ATOM      4  C   UNL     1      -1.510  -3.992   1.245  1.00  0.00     0.250 C 
ATOM      5  O   UNL     1      -0.859  -3.631   2.240  1.00  0.00    -0.272 OA
ATOM      6  H   UNL     1      -3.152  -3.811   2.328  1.00  0.00     0.163 HD
BRANCH   4   7
ATOM      7  C   UNL     1      -0.800  -4.154  -0.173  1.00  0.00     0.139 C 
ATOM      8  C   UNL     1      -1.639  -3.858  -1.441  1.00  0.00     0.051 C 
BRANCH   7   9
ATOM      9  N   UNL     1       0.316  -3.146  -0.194  1.00  0.00    -0.368 N 
ATOM     10  H   UNL     1       1.228  -3.506  -0.292  1.00  0.00     0.161 HD
BRANCH   9  11
ATOM     11  C   UNL     1       0.205  -1.759  -0.090  1.00  0.00     0.038 A 
ATOM     12  C   UNL     1       2.683   1.172  -0.068  1.00  0.00     0.044 C 
ATOM     13  C   UNL     1       1.399   0.398  -0.051  1.00  0.00    -0.046 A 
ATOM     14  C   UNL     1       0.184   1.071   0.066  1.00  0.00     0.042 A 
ATOM     15  C   UNL     1       1.394  -1.005  -0.145  1.00  0.00     0.029 A 
ATOM     16  C   UNL     1      -0.995   0.341   0.101  1.00  0.00     0.125 A 
ATOM     17  F   UNL     1      -2.163   0.988   0.220  1.00  0.00    -0.207 F 
ATOM     18  C   UNL     1      -0.991  -1.050   0.026  1.00  0.00     0.065 A 
ENDBRANCH   9  11
ENDBRANCH   7   9
BRANCH   7  19
ATOM     19  C   UNL     1      -0.229  -5.608  -0.248  1.00  0.00    -0.011 A 
ATOM     20  C   UNL     1       1.083  -5.957   0.133  1.00  0.00     0.007 A 
ATOM     21  C   UNL     1      -1.068  -6.682  -0.615  1.00  0.00     0.046 A 
ATOM     22  C   UNL     1       1.517  -7.295   0.159  1.00  0.00     0.003 A 
ATOM     23  C   UNL     1      -0.639  -8.007  -0.564  1.00  0.00     0.123 A 
ATOM     24  C   UNL     1       0.648  -8.325  -0.177  1.00  0.00     0.039 A 
ATOM     25  F   UNL     1      -1.504  -8.981  -0.873  1.00  0.00    -0.207 F 
ENDBRANCH   7  19
ENDBRANCH   4   7
ENDBRANCH   2   3
ENDBRANCH   1   2
BRANCH   1  26
ATOM     26  C   UNL     1      -4.626  -6.564   2.616  1.00  0.00     0.118 C 
BRANCH  26  27
ATOM     27  N   UNL     1      -6.049  -6.279   2.517  1.00  0.00    -0.352 N 
ATOM     28  C   UNL     1      -7.133  -7.089   2.745  1.00  0.00     0.251 C 
ATOM     29  H   UNL     1      -6.270  -5.359   2.242  1.00  0.00     0.163 HD
ATOM     30  O   UNL     1      -8.242  -6.713   2.373  1.00  0.00    -0.269 OA
BRANCH  28  31
ATOM     31  C   UNL     1      -6.985  -8.397   3.426  1.00  0.00     0.039 A 
ATOM     32  C   UNL     1      -7.809  -9.456   3.031  1.00  0.00     0.014 A 
ATOM     33  C   UNL     1      -6.095  -8.573   4.489  1.00  0.00     0.014 A 
ATOM     34  C   UNL     1      -7.716 -10.691   3.678  1.00  0.00     0.010 A 
ATOM     35  C   UNL     1      -5.939  -9.829   5.071  1.00  0.00     0.010 A 
ATOM     36  C   UNL     1      -6.767 -10.894   4.693  1.00  0.00    -0.014 A 
BRANCH  36  37
ATOM     37  C   UNL     1      -6.648 -12.204   5.383  1.00  0.00     0.031 A 
ATOM     38  C   UNL     1      -6.920 -12.314   6.861  1.00  0.00     0.074 A 
ATOM     39  C   UNL     1      -6.232 -13.284   4.694  1.00  0.00     0.049 A 
ATOM     40  N   UNL     1      -6.870 -13.370   7.632  1.00  0.00    -0.248 NA
ATOM     41  C   UNL     1      -7.263 -11.072   7.572  1.00  0.00     0.031 C 
ATOM     42  C   UNL     1      -5.853 -13.288   3.280  1.00  0.00     0.029 A 
ATOM     43  N   UNL     1      -6.044 -14.583   5.092  1.00  0.00    -0.354 N 
ATOM     44  C   UNL     1      -7.134 -12.914   8.919  1.00  0.00     0.074 A 
ATOM     45  C   UNL     1      -7.300 -11.480   8.832  1.00  0.00     0.031 C 
ATOM     46  C   UNL     1      -5.502 -14.533   2.922  1.00  0.00     0.029 A 
ATOM     47  C   UNL     1      -5.608 -15.411   4.084  1.00  0.00     0.049 A 
ATOM     48  H   UNL     1      -6.206 -14.894   6.012  1.00  0.00     0.167 HD
ATOM     49  C   UNL     1      -7.263 -13.625  10.065  1.00  0.00     0.034 A 
ATOM     50  C   UNL     1      -5.335 -16.730   4.092  1.00  0.00     0.034 A 
ATOM     51  C   UNL     1      -7.149 -15.056  10.136  1.00  0.00     0.049 A 
ATOM     52  C   UNL     1      -5.542 -17.511   5.361  1.00  0.00     0.074 A 
ATOM     53  C   UNL     1      -7.363 -15.886  11.222  1.00  0.00     0.029 A 
ATOM     54  N   UNL     1      -6.782 -15.872   9.076  1.00  0.00    -0.354 N 
ATOM     55  N   UNL     1      -5.960 -17.089   6.530  1.00  0.00    -0.248 NA
ATOM     56  C   UNL     1      -5.277 -18.955   5.303  1.00  0.00     0.031 C 
ATOM     57  C   UNL     1      -7.105 -17.202  10.823  1.00  0.00     0.029 A 
ATOM     58  C   UNL     1      -6.753 -17.195   9.483  1.00  0.00     0.049 A 
ATOM     59  H   UNL     1      -6.573 -15.557   8.167  1.00  0.00     0.167 HD
ATOM     60  C   UNL     1      -6.043 -18.218   7.337  1.00  0.00     0.074 A 
ATOM     61  C   UNL     1      -5.648 -19.345   6.516  1.00  0.00     0.031 C 
ATOM     62  C   UNL     1      -6.404 -18.312   8.641  1.00  0.00     0.034 A 
BRANCH  49  63
ATOM     63  C   UNL     1      -7.599 -12.862  11.322  1.00  0.00     0.023 A 
ATOM     64  C   UNL     1      -8.876 -12.278  11.462  1.00  0.00     0.012 A 
ATOM     65  C   UNL     1      -6.669 -12.741  12.373  1.00  0.00     0.148 A 
ATOM     66  C   UNL     1      -9.204 -11.543  12.600  1.00  0.00     0.002 A 
ATOM     67  C   UNL     1      -7.021 -12.046  13.527  1.00  0.00     0.091 A 
ATOM     68  F   UNL     1      -5.452 -13.281  12.220  1.00  0.00    -0.205 F 
ATOM     69  C   UNL     1      -8.280 -11.435  13.635  1.00  0.00     0.022 A 
BRANCH  67  70
ATOM     70  S   UNL     1      -5.926 -11.923  14.946  1.00  0.00     0.127 S 
ATOM     71  O   UNL     1      -5.415 -10.560  14.809  1.00  0.00    -0.237 OA
ATOM     72  O   UNL     1      -6.845 -12.119  16.067  1.00  0.00    -0.237 OA
ATOM     73  O   UNL     1      -4.943 -12.986  14.781  1.00  0.00    -0.744 OA
ENDBRANCH  67  70
ENDBRANCH  49  63
BRANCH  50  74
ATOM     74  C   UNL     1      -4.944 -17.407   2.824  1.00  0.00     0.023 A 
ATOM     75  C   UNL     1      -5.872 -18.255   2.187  1.00  0.00     0.012 A 
ATOM     76  C   UNL     1      -3.697 -17.171   2.213  1.00  0.00     0.148 A 
ATOM     77  C   UNL     1      -5.558 -18.872   0.976  1.00  0.00     0.002 A 
ATOM     78  C   UNL     1      -3.410 -17.748   0.982  1.00  0.00     0.091 A 
ATOM     79  F   UNL     1      -2.828 -16.364   2.839  1.00  0.00    -0.205 F 
ATOM     80  C   UNL     1      -4.333 -18.610   0.368  1.00  0.00     0.022 A 
BRANCH  78  81
ATOM     81  S   UNL     1      -1.915 -17.372   0.060  1.00  0.00     0.127 S 
ATOM     82  O   UNL     1      -1.215 -18.653   0.089  1.00  0.00    -0.237 OA
ATOM     83  O   UNL     1      -2.454 -16.994  -1.246  1.00  0.00    -0.237 OA
ATOM     84  O   UNL     1      -1.267 -16.285   0.782  1.00  0.00    -0.744 OA
ENDBRANCH  78  81
ENDBRANCH  50  74
BRANCH  62  85
ATOM     85  C   UNL     1      -6.416 -19.683   9.265  1.00  0.00     0.023 A 
ATOM     86  C   UNL     1      -5.199 -20.325   9.566  1.00  0.00     0.012 A 
ATOM     87  C   UNL     1      -7.631 -20.298   9.625  1.00  0.00     0.148 A 
ATOM     88  C   UNL     1      -5.192 -21.572  10.190  1.00  0.00     0.002 A 
ATOM     89  C   UNL     1      -7.615 -21.518  10.290  1.00  0.00     0.091 A 
ATOM     90  F   UNL     1      -8.779 -19.679   9.312  1.00  0.00    -0.205 F 
ATOM     91  C   UNL     1      -6.397 -22.162  10.562  1.00  0.00     0.022 A 
BRANCH  89  92
ATOM     92  S   UNL     1      -9.114 -22.303  10.894  1.00  0.00     0.127 S 
ATOM     93  O   UNL     1      -9.275 -23.406   9.947  1.00  0.00    -0.237 OA
ATOM     94  O   UNL     1      -8.729 -22.711  12.245  1.00  0.00    -0.237 OA
ATOM     95  O   UNL     1     -10.149 -21.280  10.845  1.00  0.00    -0.744 OA
ENDBRANCH  89  92
ENDBRANCH  62  85
ENDBRANCH  36  37
ENDBRANCH  28  31
ENDBRANCH  26  27
ENDBRANCH   1  26
TORSDOF 16
