REMARK SMILES O=C(NCCCNC(=O)c1ccc(Br)c(NC(=S)NC(=O)c2cccs2)c1)c1ccc(-c2c3nc(c(-c4cccc(S(=O)(=O)[O-])c4F)c4ccc([nH]4)c(-c4cccc(S(=O)(=O)[O-])c4F)c4nc(c(-c5cccc(S(=O)(=O)[O-])c5F)c5ccc2[nH]5)C=C4)C=C3)cc1
REMARK SMILES IDX 5 1 4 2 3 3 1 4 2 5 28 7 29 8 90 9 30 10 89 11 31 12 32 13
REMARK SMILES IDX 33 14 83 15 34 16 88 17 82 18 84 19 35 20 87 21 81 22 80 23
REMARK SMILES IDX 36 25 68 26 48 27 67 28 49 29 52 30 66 31 85 32 50 33 51 34
REMARK SMILES IDX 65 36 86 37 53 38 37 39 38 40 46 41 39 42 41 43 47 44 40 45
REMARK SMILES IDX 42 46 43 47 44 48 45 49 69 50 70 51 78 52 71 53 73 54 79 55
REMARK SMILES IDX 72 56 74 57 75 58 76 59 77 60 54 61 55 62 63 63 56 64 58 65
REMARK SMILES IDX 64 66 57 67 59 68 60 69 61 70 62 71 6 72 7 73 8 74 9 76
REMARK SMILES IDX 10 77 11 78 27 79 12 80 15 81 13 82 14 83 16 84 17 86 18 87
REMARK SMILES IDX 19 88 20 89 21 91 22 92 23 93 26 94 24 95 25 96
REMARK H PARENT 3 6 84 24 52 35 7 75 16 85 19 90
REMARK Flexibility Score: inf
ROOT
ATOM      1  C   UNL     1       4.914   2.179  -0.721  1.00  0.00     0.042 C 
ENDROOT
BRANCH   1   2
ATOM      2  C   UNL     1       4.509   1.165   0.331  1.00  0.00     0.118 C 
BRANCH   2   3
ATOM      3  N   UNL     1       3.065   0.955   0.382  1.00  0.00    -0.352 N 
ATOM      4  O   UNL     1       1.098  -0.019  -0.139  1.00  0.00    -0.269 OA
ATOM      5  C   UNL     1       2.317  -0.114  -0.056  1.00  0.00     0.251 C 
ATOM      6  H   UNL     1       2.549   1.687   0.790  1.00  0.00     0.163 HD
BRANCH   5   7
ATOM      7  C   UNL     1       3.013  -1.355  -0.446  1.00  0.00     0.039 A 
ATOM      8  C   UNL     1       4.082  -1.807   0.326  1.00  0.00     0.014 A 
ATOM      9  C   UNL     1       2.632  -2.045  -1.598  1.00  0.00     0.014 A 
ATOM     10  C   UNL     1       4.904  -2.805  -0.162  1.00  0.00     0.010 A 
ATOM     11  C   UNL     1       3.369  -3.161  -2.002  1.00  0.00     0.010 A 
ATOM     12  C   UNL     1       4.527  -3.533  -1.300  1.00  0.00    -0.014 A 
BRANCH  12  13
ATOM     13  C   UNL     1       5.293  -4.758  -1.626  1.00  0.00     0.031 A 
ATOM     14  C   UNL     1       5.994  -4.931  -2.941  1.00  0.00     0.074 A 
ATOM     15  C   UNL     1       5.357  -5.723  -0.684  1.00  0.00     0.049 A 
ATOM     16  N   UNL     1       6.707  -5.946  -3.354  1.00  0.00    -0.248 NA
ATOM     17  C   UNL     1       5.884  -3.838  -3.921  1.00  0.00     0.031 C 
ATOM     18  C   UNL     1       4.690  -5.669   0.624  1.00  0.00     0.029 A 
ATOM     19  N   UNL     1       6.006  -6.928  -0.668  1.00  0.00    -0.354 N 
ATOM     20  C   UNL     1       7.094  -5.641  -4.652  1.00  0.00     0.074 A 
ATOM     21  C   UNL     1       6.540  -4.339  -4.960  1.00  0.00     0.031 C 
ATOM     22  C   UNL     1       4.995  -6.767   1.324  1.00  0.00     0.029 A 
ATOM     23  C   UNL     1       5.789  -7.648   0.483  1.00  0.00     0.049 A 
ATOM     24  H   UNL     1       6.572  -7.248  -1.408  1.00  0.00     0.167 HD
ATOM     25  C   UNL     1       7.839  -6.385  -5.502  1.00  0.00     0.034 A 
ATOM     26  C   UNL     1       6.140  -8.903   0.812  1.00  0.00     0.034 A 
ATOM     27  C   UNL     1       8.386  -7.677  -5.179  1.00  0.00     0.049 A 
ATOM     28  C   UNL     1       6.934  -9.706  -0.172  1.00  0.00     0.074 A 
ATOM     29  C   UNL     1       9.204  -8.478  -5.957  1.00  0.00     0.029 A 
ATOM     30  N   UNL     1       8.147  -8.374  -4.005  1.00  0.00    -0.354 N 
ATOM     31  N   UNL     1       7.387  -9.352  -1.350  1.00  0.00    -0.248 NA
ATOM     32  C   UNL     1       7.289 -11.074   0.225  1.00  0.00     0.031 C 
ATOM     33  C   UNL     1       9.401  -9.686  -5.284  1.00  0.00     0.029 A 
ATOM     34  C   UNL     1       8.774  -9.607  -4.052  1.00  0.00     0.049 A 
ATOM     35  H   UNL     1       7.611  -8.041  -3.250  1.00  0.00     0.167 HD
ATOM     36  C   UNL     1       8.110 -10.440  -1.817  1.00  0.00     0.074 A 
ATOM     37  C   UNL     1       8.061 -11.452  -0.783  1.00  0.00     0.031 C 
ATOM     38  C   UNL     1       8.749 -10.592  -3.002  1.00  0.00     0.034 A 
BRANCH  25  39
ATOM     39  C   UNL     1       8.109  -5.841  -6.881  1.00  0.00     0.023 A 
ATOM     40  C   UNL     1       9.001  -4.766  -7.059  1.00  0.00     0.012 A 
ATOM     41  C   UNL     1       7.561  -6.481  -8.011  1.00  0.00     0.148 A 
ATOM     42  C   UNL     1       9.329  -4.324  -8.341  1.00  0.00     0.002 A 
ATOM     43  C   UNL     1       7.929  -6.067  -9.284  1.00  0.00     0.091 A 
ATOM     44  F   UNL     1       6.704  -7.494  -7.817  1.00  0.00    -0.205 F 
ATOM     45  C   UNL     1       8.805  -4.983  -9.451  1.00  0.00     0.022 A 
BRANCH  43  46
ATOM     46  S   UNL     1       7.374  -6.902 -10.774  1.00  0.00     0.127 S 
ATOM     47  O   UNL     1       6.590  -5.851 -11.423  1.00  0.00    -0.237 OA
ATOM     48  O   UNL     1       8.640  -7.215 -11.437  1.00  0.00    -0.237 OA
ATOM     49  O   UNL     1       6.609  -8.059 -10.332  1.00  0.00    -0.744 OA
ENDBRANCH  43  46
ENDBRANCH  25  39
BRANCH  26  50
ATOM     50  C   UNL     1       5.711  -9.489   2.112  1.00  0.00     0.023 A 
ATOM     51  C   UNL     1       6.675  -9.860   3.069  1.00  0.00     0.012 A 
ATOM     52  C   UNL     1       4.347  -9.705   2.390  1.00  0.00     0.148 A 
ATOM     53  C   UNL     1       6.291 -10.491   4.252  1.00  0.00     0.002 A 
ATOM     54  C   UNL     1       3.967 -10.271   3.598  1.00  0.00     0.091 A 
ATOM     55  F   UNL     1       3.445  -9.345   1.466  1.00  0.00    -0.205 F 
ATOM     56  C   UNL     1       4.938 -10.691   4.519  1.00  0.00     0.022 A 
BRANCH  54  57
ATOM     57  S   UNL     1       2.247 -10.450   4.076  1.00  0.00     0.127 S 
ATOM     58  O   UNL     1       2.082 -11.901   4.054  1.00  0.00    -0.237 OA
ATOM     59  O   UNL     1       2.243  -9.847   5.409  1.00  0.00    -0.237 OA
ATOM     60  O   UNL     1       1.480  -9.713   3.080  1.00  0.00    -0.744 OA
ENDBRANCH  54  57
ENDBRANCH  26  50
BRANCH  38  61
ATOM     61  C   UNL     1       9.505 -11.876  -3.220  1.00  0.00     0.023 A 
ATOM     62  C   UNL     1       8.816 -13.095  -3.371  1.00  0.00     0.012 A 
ATOM     63  C   UNL     1      10.910 -11.858  -3.318  1.00  0.00     0.148 A 
ATOM     64  C   UNL     1       9.517 -14.284  -3.568  1.00  0.00     0.002 A 
ATOM     65  C   UNL     1      11.598 -13.036  -3.576  1.00  0.00     0.091 A 
ATOM     66  F   UNL     1      11.548 -10.690  -3.157  1.00  0.00    -0.205 F 
ATOM     67  C   UNL     1      10.905 -14.253  -3.683  1.00  0.00     0.022 A 
BRANCH  65  68
ATOM     68  S   UNL     1      13.373 -13.078  -3.834  1.00  0.00     0.127 S 
ATOM     69  O   UNL     1      13.825 -13.842  -2.672  1.00  0.00    -0.237 OA
ATOM     70  O   UNL     1      13.480 -13.785  -5.110  1.00  0.00    -0.237 OA
ATOM     71  O   UNL     1      13.812 -11.689  -3.870  1.00  0.00    -0.744 OA
ENDBRANCH  65  68
ENDBRANCH  38  61
ENDBRANCH  12  13
ENDBRANCH   5   7
ENDBRANCH   2   3
ENDBRANCH   1   2
BRANCH   1  72
ATOM     72  C   UNL     1       4.262   3.534  -0.531  1.00  0.00     0.118 C 
BRANCH  72  73
ATOM     73  N   UNL     1       4.480   4.075   0.800  1.00  0.00    -0.352 N 
ATOM     74  C   UNL     1       5.185   5.160   1.258  1.00  0.00     0.251 C 
ATOM     75  H   UNL     1       4.035   3.562   1.514  1.00  0.00     0.163 HD
ATOM     76  O   UNL     1       5.281   5.256   2.478  1.00  0.00    -0.269 OA
BRANCH  74  77
ATOM     77  C   UNL     1       5.773   6.175   0.212  1.00  0.00     0.041 A 
ATOM     78  C   UNL     1       4.488   6.563  -1.013  1.00  0.00     0.015 A 
ATOM     79  C   UNL     1       7.588   7.062  -0.185  1.00  0.00     0.041 A 
ATOM     80  C   UNL     1       4.967   7.581  -2.392  1.00  0.00     0.018 A 
ATOM     81  C   UNL     1       7.949   7.907  -1.554  1.00  0.00     0.055 A 
ATOM     82  C   UNL     1       6.631   8.199  -2.635  1.00  0.00     0.041 A 
ATOM     83  Br  UNL     1       6.995   9.060  -4.284  1.00  0.00    -0.049 Br
BRANCH  81  84
ATOM     84  N   UNL     1       9.354   7.921  -1.689  1.00  0.00    -0.331 N 
ATOM     85  H   UNL     1       9.694   8.439  -2.454  1.00  0.00     0.169 HD
BRANCH  84  86
ATOM     86  C   UNL     1      10.335   7.311  -0.902  1.00  0.00     0.177 C 
ATOM     87  S   UNL     1      11.929   7.571  -1.377  1.00  0.00    -0.040 S 
BRANCH  86  88
ATOM     88  N   UNL     1      10.169   6.503   0.297  1.00  0.00    -0.298 N 
ATOM     89  C   UNL     1       9.338   5.811   1.391  1.00  0.00     0.267 C 
ATOM     90  H   UNL     1      11.095   6.274   0.542  1.00  0.00     0.172 HD
ATOM     91  O   UNL     1       9.933   5.435   2.400  1.00  0.00    -0.268 OA
BRANCH  89  92
ATOM     92  C   UNL     1       7.828   5.623   1.180  1.00  0.00     0.092 A 
ATOM     93  C   UNL     1       7.455   5.019  -0.371  1.00  0.00     0.025 A 
ATOM     94  S   UNL     1       6.700   7.557   1.765  1.00  0.00    -0.139 S 
ATOM     95  C   UNL     1       6.532   6.275  -1.477  1.00  0.00     0.012 A 
ATOM     96  C   UNL     1       6.011   7.890  -0.443  1.00  0.00     0.065 A 
ENDBRANCH  89  92
ENDBRANCH  86  88
ENDBRANCH  84  86
ENDBRANCH  81  84
ENDBRANCH  74  77
ENDBRANCH  72  73
ENDBRANCH   1  72
TORSDOF 17
