REMARK SMILES Cc1ccc(F)cc1NC(=O)c1nn(C)cc1C(=O)NCCCNC(=O)c1ccc(-c2c3nc(c(-c4cccc(S(=O)(=O)[O-])c4F)c4ccc([nH]4)c(-c4cccc(S(=O)(=O)[O-])c4F)c4nc(c(-c5cccc(S(=O)(=O)[O-])c5F)c5ccc2[nH]5)C=C4)C=C3)cc1
REMARK SMILES IDX 22 1 21 2 20 3 18 4 19 5 17 7 12 8 13 9 14 10 16 11 15 12
REMARK SMILES IDX 10 13 9 14 11 16 8 17 1 18 2 19 3 20 4 21 7 22 5 23 6 24
REMARK SMILES IDX 23 25 24 26 25 27 26 29 27 30 28 31 89 32 29 33 88 34 30 35
REMARK SMILES IDX 31 36 32 37 82 38 33 39 87 40 81 41 83 42 34 43 86 44 80 45
REMARK SMILES IDX 79 46 35 48 67 49 47 50 66 51 48 52 51 53 65 54 84 55 49 56
REMARK SMILES IDX 50 57 64 59 85 60 52 61 36 62 37 63 45 64 38 65 40 66 46 67
REMARK SMILES IDX 39 68 41 69 42 70 43 71 44 72 68 73 69 74 77 75 70 76 72 77
REMARK SMILES IDX 78 78 71 79 73 80 74 81 75 82 76 83 53 84 54 85 62 86 55 87
REMARK SMILES IDX 57 88 63 89 56 90 58 91 59 92 60 93 61 94
REMARK H PARENT 20 6 9 15 24 28 83 47 51 58
REMARK Flexibility Score: inf
ROOT
ATOM      1  C   UNL     1      -4.038  -0.249  -2.247  1.00  0.00     0.042 C 
ENDROOT
BRANCH   1   2
ATOM      2  C   UNL     1      -3.584  -1.570  -2.864  1.00  0.00     0.118 C 
BRANCH   2   3
ATOM      3  N   UNL     1      -2.143  -1.746  -2.892  1.00  0.00    -0.352 N 
ATOM      4  C   UNL     1      -1.257  -2.493  -2.157  1.00  0.00     0.255 C 
ATOM      5  O   UNL     1      -0.080  -2.444  -2.523  1.00  0.00    -0.269 OA
ATOM      6  H   UNL     1      -1.704  -1.211  -3.592  1.00  0.00     0.163 HD
BRANCH   4   7
ATOM      7  C   UNL     1      -1.639  -3.282  -0.994  1.00  0.00     0.090 A 
ATOM      8  C   UNL     1      -0.730  -3.772   0.016  1.00  0.00     0.163 A 
ATOM      9  N   UNL     1      -1.376  -4.482   0.962  1.00  0.00    -0.167 NA
ATOM     10  N   UNL     1      -2.657  -4.434   0.595  1.00  0.00    -0.274 N 
ATOM     11  C   UNL     1      -2.865  -3.771  -0.579  1.00  0.00     0.123 A 
ATOM     12  C   UNL     1      -3.659  -5.048   1.433  1.00  0.00     0.173 C 
BRANCH   8  13
ATOM     13  C   UNL     1       0.724  -3.594   0.114  1.00  0.00     0.277 C 
ATOM     14  N   UNL     1       1.295  -2.341   0.232  1.00  0.00    -0.320 N 
ATOM     15  H   UNL     1       2.279  -2.360   0.210  1.00  0.00     0.170 HD
ATOM     16  O   UNL     1       1.493  -4.561   0.087  1.00  0.00    -0.267 OA
BRANCH  14  17
ATOM     17  C   UNL     1       0.767  -1.043   0.376  1.00  0.00     0.047 A 
ATOM     18  C   UNL     1       3.056   0.001  -0.240  1.00  0.00     0.046 C 
ATOM     19  C   UNL     1       1.587   0.074   0.090  1.00  0.00    -0.027 A 
ATOM     20  C   UNL     1       1.026   1.369   0.119  1.00  0.00     0.008 A 
ATOM     21  C   UNL     1      -0.312   1.565   0.445  1.00  0.00     0.039 A 
ATOM     22  C   UNL     1      -0.548  -0.813   0.791  1.00  0.00     0.065 A 
ATOM     23  C   UNL     1      -1.081   0.471   0.796  1.00  0.00     0.125 A 
ATOM     24  F   UNL     1      -2.363   0.646   1.140  1.00  0.00    -0.207 F 
ENDBRANCH  14  17
ENDBRANCH   8  13
ENDBRANCH   4   7
ENDBRANCH   2   3
ENDBRANCH   1   2
BRANCH   1  25
ATOM     25  C   UNL     1      -3.716   0.996  -3.077  1.00  0.00     0.118 C 
BRANCH  25  26
ATOM     26  N   UNL     1      -4.259   0.928  -4.429  1.00  0.00    -0.352 N 
ATOM     27  C   UNL     1      -5.221   1.664  -5.073  1.00  0.00     0.251 C 
ATOM     28  H   UNL     1      -3.859   0.221  -4.985  1.00  0.00     0.163 HD
ATOM     29  O   UNL     1      -5.644   1.246  -6.150  1.00  0.00    -0.269 OA
BRANCH  27  30
ATOM     30  C   UNL     1      -5.756   2.933  -4.524  1.00  0.00     0.039 A 
ATOM     31  C   UNL     1      -7.097   3.251  -4.777  1.00  0.00     0.014 A 
ATOM     32  C   UNL     1      -4.949   3.857  -3.857  1.00  0.00     0.014 A 
ATOM     33  C   UNL     1      -7.632   4.463  -4.327  1.00  0.00     0.010 A 
ATOM     34  C   UNL     1      -5.500   5.037  -3.350  1.00  0.00     0.010 A 
ATOM     35  C   UNL     1      -6.845   5.359  -3.587  1.00  0.00    -0.014 A 
BRANCH  35  36
ATOM     36  C   UNL     1      -7.428   6.614  -3.040  1.00  0.00     0.031 A 
ATOM     37  C   UNL     1      -6.937   7.963  -3.496  1.00  0.00     0.074 A 
ATOM     38  C   UNL     1      -8.359   6.537  -2.067  1.00  0.00     0.049 A 
ATOM     39  N   UNL     1      -7.333   9.153  -3.119  1.00  0.00    -0.248 NA
ATOM     40  C   UNL     1      -5.843   7.984  -4.481  1.00  0.00     0.031 C 
ATOM     41  C   UNL     1      -8.847   5.296  -1.463  1.00  0.00     0.029 A 
ATOM     42  N   UNL     1      -9.041   7.522  -1.396  1.00  0.00    -0.354 N 
ATOM     43  C   UNL     1      -6.516  10.059  -3.786  1.00  0.00     0.074 A 
ATOM     44  C   UNL     1      -5.586   9.282  -4.576  1.00  0.00     0.031 C 
ATOM     45  C   UNL     1      -9.747   5.593  -0.512  1.00  0.00     0.029 A 
ATOM     46  C   UNL     1      -9.891   7.043  -0.427  1.00  0.00     0.049 A 
ATOM     47  H   UNL     1      -8.932   8.481  -1.590  1.00  0.00     0.167 HD
ATOM     48  C   UNL     1      -6.555  11.414  -3.765  1.00  0.00     0.034 A 
ATOM     49  C   UNL     1     -10.698   7.694   0.434  1.00  0.00     0.034 A 
ATOM     50  C   UNL     1      -7.523  12.185  -3.031  1.00  0.00     0.049 A 
ATOM     51  C   UNL     1     -10.786   9.194   0.365  1.00  0.00     0.074 A 
ATOM     52  C   UNL     1      -7.721  13.556  -3.048  1.00  0.00     0.029 A 
ATOM     53  N   UNL     1      -8.450  11.659  -2.147  1.00  0.00    -0.354 N 
ATOM     54  N   UNL     1     -10.145  10.022  -0.423  1.00  0.00    -0.248 NA
ATOM     55  C   UNL     1     -11.742   9.846   1.272  1.00  0.00     0.031 C 
ATOM     56  C   UNL     1      -8.761  13.859  -2.162  1.00  0.00     0.029 A 
ATOM     57  C   UNL     1      -9.217  12.676  -1.603  1.00  0.00     0.049 A 
ATOM     58  H   UNL     1      -8.550  10.703  -1.936  1.00  0.00     0.167 HD
ATOM     59  C   UNL     1     -10.636  11.288  -0.125  1.00  0.00     0.074 A 
ATOM     60  C   UNL     1     -11.653  11.114   0.891  1.00  0.00     0.031 C 
ATOM     61  C   UNL     1     -10.262  12.489  -0.631  1.00  0.00     0.034 A 
BRANCH  48  62
ATOM     62  C   UNL     1      -5.564  12.163  -4.618  1.00  0.00     0.023 A 
ATOM     63  C   UNL     1      -5.744  12.200  -6.015  1.00  0.00     0.012 A 
ATOM     64  C   UNL     1      -4.516  12.903  -4.035  1.00  0.00     0.148 A 
ATOM     65  C   UNL     1      -4.883  12.942  -6.823  1.00  0.00     0.002 A 
ATOM     66  C   UNL     1      -3.685  13.671  -4.844  1.00  0.00     0.091 A 
ATOM     67  F   UNL     1      -4.350  12.840  -2.707  1.00  0.00    -0.205 F 
ATOM     68  C   UNL     1      -3.862  13.685  -6.237  1.00  0.00     0.022 A 
BRANCH  66  69
ATOM     69  S   UNL     1      -2.386  14.722  -4.182  1.00  0.00     0.127 S 
ATOM     70  O   UNL     1      -1.183  14.009  -4.610  1.00  0.00    -0.237 OA
ATOM     71  O   UNL     1      -2.626  15.985  -4.880  1.00  0.00    -0.237 OA
ATOM     72  O   UNL     1      -2.604  14.772  -2.743  1.00  0.00    -0.744 OA
ENDBRANCH  66  69
ENDBRANCH  48  62
BRANCH  49  73
ATOM     73  C   UNL     1     -11.547   6.920   1.383  1.00  0.00     0.023 A 
ATOM     74  C   UNL     1     -12.940   6.867   1.180  1.00  0.00     0.012 A 
ATOM     75  C   UNL     1     -10.984   6.210   2.461  1.00  0.00     0.148 A 
ATOM     76  C   UNL     1     -13.759   6.149   2.052  1.00  0.00     0.002 A 
ATOM     77  C   UNL     1     -11.800   5.450   3.292  1.00  0.00     0.091 A 
ATOM     78  F   UNL     1      -9.659   6.285   2.652  1.00  0.00    -0.205 F 
ATOM     79  C   UNL     1     -13.190   5.432   3.100  1.00  0.00     0.022 A 
BRANCH  77  80
ATOM     80  S   UNL     1     -11.121   4.386   4.571  1.00  0.00     0.127 S 
ATOM     81  O   UNL     1     -11.321   5.192   5.771  1.00  0.00    -0.237 OA
ATOM     82  O   UNL     1     -11.976   3.201   4.474  1.00  0.00    -0.237 OA
ATOM     83  O   UNL     1      -9.738   4.152   4.177  1.00  0.00    -0.744 OA
ENDBRANCH  77  80
ENDBRANCH  49  73
BRANCH  61  84
ATOM     84  C   UNL     1     -10.960  13.713  -0.103  1.00  0.00     0.023 A 
ATOM     85  C   UNL     1     -10.670  14.171   1.198  1.00  0.00     0.012 A 
ATOM     86  C   UNL     1     -11.856  14.444  -0.908  1.00  0.00     0.148 A 
ATOM     87  C   UNL     1     -11.285  15.316   1.702  1.00  0.00     0.002 A 
ATOM     88  C   UNL     1     -12.431  15.610  -0.415  1.00  0.00     0.091 A 
ATOM     89  F   UNL     1     -12.139  13.983  -2.135  1.00  0.00    -0.205 F 
ATOM     90  C   UNL     1     -12.156  16.041   0.893  1.00  0.00     0.022 A 
BRANCH  88  91
ATOM     91  S   UNL     1     -13.493  16.649  -1.426  1.00  0.00     0.127 S 
ATOM     92  O   UNL     1     -14.823  16.259  -0.962  1.00  0.00    -0.237 OA
ATOM     93  O   UNL     1     -13.082  17.998  -1.034  1.00  0.00    -0.237 OA
ATOM     94  O   UNL     1     -13.179  16.306  -2.807  1.00  0.00    -0.744 OA
ENDBRANCH  88  91
ENDBRANCH  61  84
ENDBRANCH  35  36
ENDBRANCH  27  30
ENDBRANCH  25  26
ENDBRANCH   1  25
TORSDOF 15
