REMARK SMILES CC[C@H](C)c1ccccc1Oc1cccc(F)c1C(=O)NCCCNC(=O)c1ccc(-c2c3nc(c(-c4cccc(S(=O)(=O)[O-])c4F)c4ccc([nH]4)c(-c4cccc(S(=O)(=O)[O-])c4F)c4nc(c(-c5cccc(S(=O)(=O)[O-])c5F)c5ccc2[nH]5)C=C4)C=C3)cc1
REMARK SMILES IDX 22 1 21 2 19 3 20 4 18 6 12 7 13 8 14 9 16 10 15 11 17 12
REMARK SMILES IDX 11 13 10 14 5 15 6 16 7 17 9 18 8 19 3 20 4 21 2 22 1 23
REMARK SMILES IDX 23 24 24 25 25 26 26 27 27 29 28 30 29 31 90 32 30 33 89 34
REMARK SMILES IDX 31 35 32 36 33 37 83 38 34 39 88 40 82 41 84 42 35 43 87 44
REMARK SMILES IDX 81 45 80 46 36 48 68 49 48 50 67 51 49 52 52 53 66 54 85 55
REMARK SMILES IDX 50 56 51 57 65 59 86 60 53 61 37 62 38 63 46 64 39 65 41 66
REMARK SMILES IDX 47 67 40 68 42 69 43 70 44 71 45 72 69 73 70 74 78 75 71 76
REMARK SMILES IDX 73 77 79 78 72 79 74 80 75 81 76 82 77 83 54 84 55 85 63 86
REMARK SMILES IDX 56 87 58 88 64 89 57 90 59 91 60 92 61 93 62 94
REMARK H PARENT 21 5 25 28 84 47 52 58
REMARK Flexibility Score: inf
ROOT
ATOM      1  C   UNL     1      -1.586   3.718   0.987  1.00  0.00     0.118 C 
ENDROOT
BRANCH   1   2
ATOM      2  N   UNL     1      -0.754   2.783   1.682  1.00  0.00    -0.352 N 
ATOM      3  C   UNL     1      -0.286   1.577   1.228  1.00  0.00     0.258 C 
ATOM      4  O   UNL     1       0.670   1.099   1.843  1.00  0.00    -0.269 OA
ATOM      5  H   UNL     1      -0.486   3.036   2.595  1.00  0.00     0.163 HD
BRANCH   3   6
ATOM      6  C   UNL     1      -0.901   0.795   0.112  1.00  0.00     0.118 A 
ATOM      7  C   UNL     1      -1.389   1.198  -1.145  1.00  0.00     0.143 A 
ATOM      8  C   UNL     1      -2.060   0.244  -1.954  1.00  0.00     0.048 A 
ATOM      9  C   UNL     1      -2.168  -1.098  -1.607  1.00  0.00     0.007 A 
ATOM     10  C   UNL     1      -1.008  -0.584   0.428  1.00  0.00     0.139 A 
ATOM     11  C   UNL     1      -1.617  -1.517  -0.413  1.00  0.00     0.040 A 
ATOM     12  F   UNL     1      -0.563  -1.069   1.600  1.00  0.00    -0.206 F 
BRANCH   7  13
ATOM     13  O   UNL     1      -1.547   2.432  -1.722  1.00  0.00    -0.456 OA
BRANCH  13  14
ATOM     14  C   UNL     1      -0.626   3.421  -1.936  1.00  0.00     0.130 A 
ATOM     15  C   UNL     1       0.757   3.380  -2.130  1.00  0.00    -0.002 A 
ATOM     16  C   UNL     1       1.443   4.622  -2.195  1.00  0.00     0.008 A 
ATOM     17  C   UNL     1       0.778   5.851  -2.173  1.00  0.00     0.001 A 
ATOM     18  C   UNL     1      -1.291   4.672  -2.021  1.00  0.00     0.047 A 
ATOM     19  C   UNL     1      -0.602   5.876  -2.121  1.00  0.00     0.004 A 
BRANCH  15  20
ATOM     20  C   UNL     1       1.616   2.140  -2.341  1.00  0.00     0.019 C 
ATOM     21  C   UNL     1       2.170   1.616  -1.015  1.00  0.00     0.013 C 
BRANCH  20  22
ATOM     22  C   UNL     1       1.029   1.154  -3.377  1.00  0.00     0.005 C 
ATOM     23  C   UNL     1       1.283  -0.323  -3.139  1.00  0.00     0.004 C 
ENDBRANCH  20  22
ENDBRANCH  15  20
ENDBRANCH  13  14
ENDBRANCH   7  13
ENDBRANCH   3   6
ENDBRANCH   1   2
BRANCH   1  24
ATOM     24  C   UNL     1      -2.440   4.627   1.831  1.00  0.00     0.042 C 
BRANCH  24  25
ATOM     25  C   UNL     1      -1.686   5.818   2.396  1.00  0.00     0.118 C 
BRANCH  25  26
ATOM     26  N   UNL     1      -1.198   6.763   1.384  1.00  0.00    -0.352 N 
ATOM     27  C   UNL     1      -1.576   8.061   1.096  1.00  0.00     0.251 C 
ATOM     28  H   UNL     1      -0.477   6.412   0.812  1.00  0.00     0.163 HD
ATOM     29  O   UNL     1      -1.110   8.642   0.130  1.00  0.00    -0.269 OA
BRANCH  27  30
ATOM     30  C   UNL     1      -2.591   8.724   1.946  1.00  0.00     0.039 A 
ATOM     31  C   UNL     1      -3.630   9.447   1.354  1.00  0.00     0.014 A 
ATOM     32  C   UNL     1      -2.556   8.557   3.326  1.00  0.00     0.014 A 
ATOM     33  C   UNL     1      -4.698   9.886   2.143  1.00  0.00     0.010 A 
ATOM     34  C   UNL     1      -3.686   8.843   4.073  1.00  0.00     0.010 A 
ATOM     35  C   UNL     1      -4.766   9.528   3.498  1.00  0.00    -0.014 A 
BRANCH  35  36
ATOM     36  C   UNL     1      -5.931   9.858   4.360  1.00  0.00     0.031 A 
ATOM     37  C   UNL     1      -5.709  10.605   5.651  1.00  0.00     0.074 A 
ATOM     38  C   UNL     1      -7.151   9.366   4.064  1.00  0.00     0.049 A 
ATOM     39  N   UNL     1      -6.552  10.854   6.618  1.00  0.00    -0.248 NA
ATOM     40  C   UNL     1      -4.339  11.078   5.922  1.00  0.00     0.031 C 
ATOM     41  C   UNL     1      -7.473   8.522   2.910  1.00  0.00     0.029 A 
ATOM     42  N   UNL     1      -8.344   9.473   4.734  1.00  0.00    -0.354 N 
ATOM     43  C   UNL     1      -5.800  11.435   7.633  1.00  0.00     0.074 A 
ATOM     44  C   UNL     1      -4.426  11.453   7.188  1.00  0.00     0.031 C 
ATOM     45  C   UNL     1      -8.777   8.203   2.945  1.00  0.00     0.029 A 
ATOM     46  C   UNL     1      -9.379   8.791   4.137  1.00  0.00     0.049 A 
ATOM     47  H   UNL     1      -8.450   9.991   5.565  1.00  0.00     0.167 HD
ATOM     48  C   UNL     1      -6.218  11.952   8.812  1.00  0.00     0.034 A 
ATOM     49  C   UNL     1     -10.667   8.655   4.508  1.00  0.00     0.034 A 
ATOM     50  C   UNL     1      -7.599  12.028   9.196  1.00  0.00     0.049 A 
ATOM     51  C   UNL     1     -11.137   9.355   5.754  1.00  0.00     0.074 A 
ATOM     52  C   UNL     1      -8.155  12.662  10.292  1.00  0.00     0.029 A 
ATOM     53  N   UNL     1      -8.645  11.460   8.485  1.00  0.00    -0.354 N 
ATOM     54  N   UNL     1     -10.442  10.061   6.614  1.00  0.00    -0.248 NA
ATOM     55  C   UNL     1     -12.572   9.279   6.061  1.00  0.00     0.031 C 
ATOM     56  C   UNL     1      -9.540  12.467  10.248  1.00  0.00     0.029 A 
ATOM     57  C   UNL     1      -9.846  11.726   9.117  1.00  0.00     0.049 A 
ATOM     58  H   UNL     1      -8.547  10.943   7.653  1.00  0.00     0.167 HD
ATOM     59  C   UNL     1     -11.357  10.537   7.546  1.00  0.00     0.074 A 
ATOM     60  C   UNL     1     -12.660  10.059   7.131  1.00  0.00     0.031 C 
ATOM     61  C   UNL     1     -11.137  11.286   8.656  1.00  0.00     0.034 A 
BRANCH  48  62
ATOM     62  C   UNL     1      -5.174  12.542   9.725  1.00  0.00     0.023 A 
ATOM     63  C   UNL     1      -4.508  13.728   9.350  1.00  0.00     0.012 A 
ATOM     64  C   UNL     1      -4.863  11.939  10.959  1.00  0.00     0.148 A 
ATOM     65  C   UNL     1      -3.514  14.275  10.160  1.00  0.00     0.002 A 
ATOM     66  C   UNL     1      -3.907  12.519  11.786  1.00  0.00     0.091 A 
ATOM     67  F   UNL     1      -5.486  10.800  11.291  1.00  0.00    -0.205 F 
ATOM     68  C   UNL     1      -3.221  13.676  11.381  1.00  0.00     0.022 A 
BRANCH  66  69
ATOM     69  S   UNL     1      -3.520  11.871  13.416  1.00  0.00     0.127 S 
ATOM     70  O   UNL     1      -2.219  11.246  13.184  1.00  0.00    -0.237 OA
ATOM     71  O   UNL     1      -3.475  13.087  14.229  1.00  0.00    -0.237 OA
ATOM     72  O   UNL     1      -4.606  10.961  13.750  1.00  0.00    -0.744 OA
ENDBRANCH  66  69
ENDBRANCH  48  62
BRANCH  49  73
ATOM     73  C   UNL     1     -11.615   7.907   3.634  1.00  0.00     0.023 A 
ATOM     74  C   UNL     1     -12.574   8.623   2.889  1.00  0.00     0.012 A 
ATOM     75  C   UNL     1     -11.539   6.508   3.488  1.00  0.00     0.148 A 
ATOM     76  C   UNL     1     -13.455   7.959   2.035  1.00  0.00     0.002 A 
ATOM     77  C   UNL     1     -12.385   5.858   2.595  1.00  0.00     0.091 A 
ATOM     78  F   UNL     1     -10.626   5.843   4.210  1.00  0.00    -0.205 F 
ATOM     79  C   UNL     1     -13.354   6.579   1.880  1.00  0.00     0.022 A 
BRANCH  77  80
ATOM     80  S   UNL     1     -12.238   4.106   2.225  1.00  0.00     0.127 S 
ATOM     81  O   UNL     1     -13.448   3.567   2.840  1.00  0.00    -0.237 OA
ATOM     82  O   UNL     1     -12.237   4.105   0.762  1.00  0.00    -0.237 OA
ATOM     83  O   UNL     1     -10.980   3.682   2.825  1.00  0.00    -0.744 OA
ENDBRANCH  77  80
ENDBRANCH  49  73
BRANCH  61  84
ATOM     84  C   UNL     1     -12.331  11.661   9.491  1.00  0.00     0.023 A 
ATOM     85  C   UNL     1     -12.951  10.687  10.298  1.00  0.00     0.012 A 
ATOM     86  C   UNL     1     -12.782  12.994   9.542  1.00  0.00     0.148 A 
ATOM     87  C   UNL     1     -14.020  11.029  11.123  1.00  0.00     0.002 A 
ATOM     88  C   UNL     1     -13.816  13.338  10.403  1.00  0.00     0.091 A 
ATOM     89  F   UNL     1     -12.191  13.901   8.750  1.00  0.00    -0.205 F 
ATOM     90  C   UNL     1     -14.444  12.355  11.186  1.00  0.00     0.022 A 
BRANCH  88  91
ATOM     91  S   UNL     1     -14.357  15.037  10.618  1.00  0.00     0.127 S 
ATOM     92  O   UNL     1     -15.610  15.049   9.866  1.00  0.00    -0.237 OA
ATOM     93  O   UNL     1     -14.516  15.133  12.070  1.00  0.00    -0.237 OA
ATOM     94  O   UNL     1     -13.289  15.866  10.075  1.00  0.00    -0.744 OA
ENDBRANCH  88  91
ENDBRANCH  61  84
ENDBRANCH  35  36
ENDBRANCH  27  30
ENDBRANCH  25  26
ENDBRANCH  24  25
ENDBRANCH   1  24
TORSDOF 17
