REMARK SMILES CC[C@H]1CO[C@@H](C)CN1c1cccc(F)c1C(=O)NCCCNC(=O)c1ccc(-c2c3nc(c(-c4cccc(S(=O)(=O)[O-])c4F)c4ccc([nH]4)c(-c4cccc(S(=O)(=O)[O-])c4F)c4nc(c(-c5cccc(S(=O)(=O)[O-])c5F)c5ccc2[nH]5)C=C4)C=C3)cc1
REMARK SMILES IDX 21 1 20 2 19 3 17 4 18 5 16 7 10 8 11 9 12 10 14 11 13 12
REMARK SMILES IDX 15 13 9 14 3 15 4 16 5 17 8 18 6 19 7 20 2 21 1 22 22 23
REMARK SMILES IDX 23 24 24 25 25 27 26 28 27 29 88 30 28 31 87 32 29 33 30 34
REMARK SMILES IDX 31 35 81 36 32 37 86 38 80 39 82 40 33 41 85 42 79 43 78 44
REMARK SMILES IDX 34 46 66 47 46 48 65 49 47 50 50 51 64 52 83 53 48 54 49 55
REMARK SMILES IDX 63 57 84 58 51 59 35 60 36 61 44 62 37 63 39 64 45 65 38 66
REMARK SMILES IDX 40 67 41 68 42 69 43 70 67 71 68 72 76 73 69 74 71 75 77 76
REMARK SMILES IDX 70 77 72 78 73 79 74 80 75 81 52 82 53 83 61 84 54 85 56 86
REMARK SMILES IDX 62 87 55 88 57 89 58 90 59 91 60 92
REMARK H PARENT 19 6 23 26 82 45 50 56
REMARK Flexibility Score: inf
ROOT
ATOM      1  C   UNL     1      -0.390   4.285  -8.205  1.00  0.00     0.042 C 
ENDROOT
BRANCH   1   2
ATOM      2  C   UNL     1       0.689   4.090  -7.130  1.00  0.00     0.118 C 
BRANCH   2   3
ATOM      3  N   UNL     1       0.139   4.292  -5.803  1.00  0.00    -0.352 N 
ATOM      4  C   UNL     1      -0.694   3.432  -5.125  1.00  0.00     0.256 C 
ATOM      5  O   UNL     1      -1.722   3.906  -4.647  1.00  0.00    -0.269 OA
ATOM      6  H   UNL     1       0.385   5.127  -5.343  1.00  0.00     0.163 HD
BRANCH   4   7
ATOM      7  C   UNL     1      -0.356   2.004  -4.910  1.00  0.00     0.098 A 
ATOM      8  C   UNL     1      -0.065   1.493  -3.611  1.00  0.00     0.053 A 
ATOM      9  C   UNL     1       0.061   0.093  -3.486  1.00  0.00     0.027 A 
ATOM     10  C   UNL     1       0.019  -0.761  -4.590  1.00  0.00     0.005 A 
ATOM     11  C   UNL     1      -0.424   1.129  -6.001  1.00  0.00     0.138 A 
ATOM     12  C   UNL     1      -0.203  -0.236  -5.854  1.00  0.00     0.040 A 
ATOM     13  F   UNL     1      -0.708   1.570  -7.232  1.00  0.00    -0.206 F 
BRANCH   8  14
ATOM     14  N   UNL     1       0.156   2.302  -2.498  1.00  0.00    -0.363 N 
ATOM     15  C   UNL     1       1.185   2.044  -1.450  1.00  0.00     0.108 C 
ATOM     16  C   UNL     1       1.540   3.396  -0.768  1.00  0.00     0.185 C 
ATOM     17  O   UNL     1       0.390   4.084  -0.251  1.00  0.00    -0.375 OA
ATOM     18  C   UNL     1      -1.033   2.978  -1.918  1.00  0.00     0.148 C 
ATOM     19  C   UNL     1      -0.614   4.312  -1.265  1.00  0.00     0.134 C 
ATOM     20  C   UNL     1      -0.150   5.377  -2.259  1.00  0.00     0.040 C 
BRANCH  15  21
ATOM     21  C   UNL     1       2.482   1.342  -1.896  1.00  0.00     0.024 C 
ATOM     22  C   UNL     1       3.149   1.875  -3.154  1.00  0.00     0.006 C 
ENDBRANCH  15  21
ENDBRANCH   8  14
ENDBRANCH   4   7
ENDBRANCH   2   3
ENDBRANCH   1   2
BRANCH   1  23
ATOM     23  C   UNL     1      -0.910   5.719  -8.332  1.00  0.00     0.118 C 
BRANCH  23  24
ATOM     24  N   UNL     1       0.060   6.599  -8.968  1.00  0.00    -0.352 N 
ATOM     25  C   UNL     1      -0.033   7.306 -10.142  1.00  0.00     0.251 C 
ATOM     26  H   UNL     1       0.910   6.703  -8.483  1.00  0.00     0.163 HD
ATOM     27  O   UNL     1       0.984   7.805 -10.620  1.00  0.00    -0.269 OA
BRANCH  25  28
ATOM     28  C   UNL     1      -1.331   7.472 -10.839  1.00  0.00     0.039 A 
ATOM     29  C   UNL     1      -1.361   7.379 -12.235  1.00  0.00     0.014 A 
ATOM     30  C   UNL     1      -2.502   7.780 -10.141  1.00  0.00     0.014 A 
ATOM     31  C   UNL     1      -2.567   7.548 -12.923  1.00  0.00     0.010 A 
ATOM     32  C   UNL     1      -3.715   7.890 -10.824  1.00  0.00     0.010 A 
ATOM     33  C   UNL     1      -3.762   7.782 -12.222  1.00  0.00    -0.014 A 
BRANCH  33  34
ATOM     34  C   UNL     1      -5.065   7.896 -12.932  1.00  0.00     0.031 A 
ATOM     35  C   UNL     1      -5.845   9.184 -12.899  1.00  0.00     0.074 A 
ATOM     36  C   UNL     1      -5.587   6.813 -13.542  1.00  0.00     0.049 A 
ATOM     37  N   UNL     1      -7.026   9.445 -13.399  1.00  0.00    -0.248 NA
ATOM     38  C   UNL     1      -5.230  10.323 -12.196  1.00  0.00     0.031 C 
ATOM     39  C   UNL     1      -4.963   5.489 -13.587  1.00  0.00     0.029 A 
ATOM     40  N   UNL     1      -6.773   6.644 -14.215  1.00  0.00    -0.354 N 
ATOM     41  C   UNL     1      -7.311  10.758 -13.042  1.00  0.00     0.074 A 
ATOM     42  C   UNL     1      -6.189  11.236 -12.264  1.00  0.00     0.031 C 
ATOM     43  C   UNL     1      -5.769   4.645 -14.250  1.00  0.00     0.029 A 
ATOM     44  C   UNL     1      -6.980   5.355 -14.653  1.00  0.00     0.049 A 
ATOM     45  H   UNL     1      -7.413   7.375 -14.370  1.00  0.00     0.167 HD
ATOM     46  C   UNL     1      -8.395  11.506 -13.358  1.00  0.00     0.034 A 
ATOM     47  C   UNL     1      -8.028   4.802 -15.297  1.00  0.00     0.034 A 
ATOM     48  C   UNL     1      -9.483  11.046 -14.179  1.00  0.00     0.049 A 
ATOM     49  C   UNL     1      -9.198   5.669 -15.676  1.00  0.00     0.074 A 
ATOM     50  C   UNL     1     -10.581  11.761 -14.624  1.00  0.00     0.029 A 
ATOM     51  N   UNL     1      -9.613   9.761 -14.679  1.00  0.00    -0.354 N 
ATOM     52  N   UNL     1      -9.380   6.948 -15.454  1.00  0.00    -0.248 NA
ATOM     53  C   UNL     1     -10.292   5.030 -16.423  1.00  0.00     0.031 C 
ATOM     54  C   UNL     1     -11.385  10.903 -15.379  1.00  0.00     0.029 A 
ATOM     55  C   UNL     1     -10.775   9.659 -15.424  1.00  0.00     0.049 A 
ATOM     56  H   UNL     1      -8.973   9.027 -14.526  1.00  0.00     0.167 HD
ATOM     57  C   UNL     1     -10.589   7.273 -16.059  1.00  0.00     0.074 A 
ATOM     58  C   UNL     1     -11.088   6.061 -16.675  1.00  0.00     0.031 C 
ATOM     59  C   UNL     1     -11.234   8.465 -16.084  1.00  0.00     0.034 A 
BRANCH  46  60
ATOM     60  C   UNL     1      -8.440  12.935 -12.880  1.00  0.00     0.023 A 
ATOM     61  C   UNL     1      -7.615  13.895 -13.500  1.00  0.00     0.012 A 
ATOM     62  C   UNL     1      -9.374  13.349 -11.910  1.00  0.00     0.148 A 
ATOM     63  C   UNL     1      -7.704  15.241 -13.150  1.00  0.00     0.002 A 
ATOM     64  C   UNL     1      -9.488  14.699 -11.597  1.00  0.00     0.091 A 
ATOM     65  F   UNL     1     -10.141  12.419 -11.323  1.00  0.00    -0.205 F 
ATOM     66  C   UNL     1      -8.648  15.644 -12.210  1.00  0.00     0.022 A 
BRANCH  64  67
ATOM     67  S   UNL     1     -10.727  15.336 -10.463  1.00  0.00     0.127 S 
ATOM     68  O   UNL     1      -9.898  15.812  -9.356  1.00  0.00    -0.237 OA
ATOM     69  O   UNL     1     -11.352  16.396 -11.255  1.00  0.00    -0.237 OA
ATOM     70  O   UNL     1     -11.600  14.215 -10.146  1.00  0.00    -0.744 OA
ENDBRANCH  64  67
ENDBRANCH  46  60
BRANCH  47  71
ATOM     71  C   UNL     1      -7.975   3.364 -15.690  1.00  0.00     0.023 A 
ATOM     72  C   UNL     1      -7.829   3.027 -17.049  1.00  0.00     0.012 A 
ATOM     73  C   UNL     1      -8.010   2.336 -14.727  1.00  0.00     0.148 A 
ATOM     74  C   UNL     1      -7.739   1.692 -17.446  1.00  0.00     0.002 A 
ATOM     75  C   UNL     1      -7.862   1.011 -15.124  1.00  0.00     0.091 A 
ATOM     76  F   UNL     1      -8.165   2.675 -13.440  1.00  0.00    -0.205 F 
ATOM     77  C   UNL     1      -7.742   0.686 -16.484  1.00  0.00     0.022 A 
BRANCH  75  78
ATOM     78  S   UNL     1      -7.710  -0.337 -13.946  1.00  0.00     0.127 S 
ATOM     79  O   UNL     1      -8.986  -1.026 -14.112  1.00  0.00    -0.237 OA
ATOM     80  O   UNL     1      -6.547  -1.060 -14.460  1.00  0.00    -0.237 OA
ATOM     81  O   UNL     1      -7.495   0.297 -12.651  1.00  0.00    -0.744 OA
ENDBRANCH  75  78
ENDBRANCH  47  71
BRANCH  59  82
ATOM     82  C   UNL     1     -12.546   8.549 -16.820  1.00  0.00     0.023 A 
ATOM     83  C   UNL     1     -13.701   7.982 -16.247  1.00  0.00     0.012 A 
ATOM     84  C   UNL     1     -12.658   9.296 -18.009  1.00  0.00     0.148 A 
ATOM     85  C   UNL     1     -14.945   8.143 -16.856  1.00  0.00     0.002 A 
ATOM     86  C   UNL     1     -13.908   9.493 -18.585  1.00  0.00     0.091 A 
ATOM     87  F   UNL     1     -11.543   9.813 -18.546  1.00  0.00    -0.205 F 
ATOM     88  C   UNL     1     -15.051   8.910 -18.014  1.00  0.00     0.022 A 
BRANCH  86  89
ATOM     89  S   UNL     1     -14.155  10.549 -20.017  1.00  0.00     0.127 S 
ATOM     90  O   UNL     1     -14.460   9.570 -21.060  1.00  0.00    -0.237 OA
ATOM     91  O   UNL     1     -15.292  11.372 -19.603  1.00  0.00    -0.237 OA
ATOM     92  O   UNL     1     -12.911  11.284 -20.195  1.00  0.00    -0.744 OA
ENDBRANCH  86  89
ENDBRANCH  59  82
ENDBRANCH  33  34
ENDBRANCH  25  28
ENDBRANCH  23  24
ENDBRANCH   1  23
TORSDOF 15
