REMARK SMILES CC1(C)[C@H](C(=O)NCCCNC(=O)c2ccc(-c3c4nc(c(-c5cccc(S(=O)(=O)[O-])c5F)c5ccc([nH]5)c(-c5cccc(S(=O)(=O)[O-])c5F)c5nc(c(-c6cccc(S(=O)(=O)[O-])c6F)c6ccc3[nH]6)C=C5)C=C4)cc2)[C@@H]1C(=O)Nc1ccc(NC(=O)C2CCC2)cc1
REMARK SMILES IDX 8 1 7 2 5 3 6 4 4 6 1 7 2 8 3 9 77 10 78 11 79 12 80 13
REMARK SMILES IDX 81 15 82 16 93 17 83 18 92 19 84 20 85 21 86 22 87 24 88 25
REMARK SMILES IDX 89 26 91 27 90 28 9 29 10 30 11 31 12 32 13 34 14 35 15 36
REMARK SMILES IDX 76 37 16 38 75 39 17 40 18 41 19 42 69 43 20 44 74 45 68 46
REMARK SMILES IDX 70 47 21 48 73 49 67 50 66 51 22 53 54 54 34 55 53 56 35 57
REMARK SMILES IDX 38 58 52 59 71 60 36 61 37 62 51 64 72 65 39 66 23 67 24 68
REMARK SMILES IDX 32 69 25 70 27 71 33 72 26 73 28 74 29 75 30 76 31 77 55 78
REMARK SMILES IDX 56 79 64 80 57 81 59 82 65 83 58 84 60 85 61 86 62 87 63 88
REMARK SMILES IDX 40 89 41 90 49 91 42 92 44 93 50 94 43 95 45 96 46 97 47 98
REMARK SMILES IDX 48 99
REMARK H PARENT 7 5 80 14 85 23 11 33 70 52 38 63
REMARK Flexibility Score: inf
ROOT
ATOM      1  C   UNL     1      -0.712   3.022  -0.293  1.00  0.00     0.117 C 
ENDROOT
BRANCH   1   2
ATOM      2  N   UNL     1      -0.944   2.165  -1.438  1.00  0.00    -0.356 N 
ATOM      3  C   UNL     1      -0.978   0.823  -1.662  1.00  0.00     0.224 C 
ATOM      4  O   UNL     1      -1.254   0.494  -2.819  1.00  0.00    -0.275 OA
ATOM      5  H   UNL     1      -1.120   2.682  -2.258  1.00  0.00     0.163 HD
BRANCH   3   6
ATOM      6  C   UNL     1      -0.740  -0.282  -0.704  1.00  0.00     0.098 C 
ATOM      7  C   UNL     1       1.173  -1.758   0.146  1.00  0.00     0.013 C 
ATOM      8  C   UNL     1       0.452  -0.429   0.226  1.00  0.00    -0.011 C 
ATOM      9  C   UNL     1       1.413   0.718   0.425  1.00  0.00     0.013 C 
ATOM     10  C   UNL     1      -0.999  -0.437   0.761  1.00  0.00     0.098 C 
BRANCH  10  11
ATOM     11  C   UNL     1      -1.574   0.557   1.688  1.00  0.00     0.228 C 
ATOM     12  O   UNL     1      -0.940   0.916   2.676  1.00  0.00    -0.274 OA
ATOM     13  N   UNL     1      -2.843   1.057   1.488  1.00  0.00    -0.326 N 
ATOM     14  H   UNL     1      -3.235   1.570   2.232  1.00  0.00     0.169 HD
BRANCH  13  15
ATOM     15  C   UNL     1      -3.635   0.915   0.346  1.00  0.00     0.041 A 
ATOM     16  C   UNL     1      -3.930   2.090  -0.328  1.00  0.00     0.028 A 
ATOM     17  C   UNL     1      -4.020  -0.305  -0.203  1.00  0.00     0.028 A 
ATOM     18  C   UNL     1      -4.376   2.026  -1.638  1.00  0.00     0.028 A 
ATOM     19  C   UNL     1      -4.684  -0.326  -1.442  1.00  0.00     0.028 A 
ATOM     20  C   UNL     1      -4.865   0.856  -2.174  1.00  0.00     0.041 A 
BRANCH  20  21
ATOM     21  N   UNL     1      -5.529   0.804  -3.403  1.00  0.00    -0.326 N 
ATOM     22  C   UNL     1      -6.007   1.760  -4.279  1.00  0.00     0.227 C 
ATOM     23  H   UNL     1      -5.692  -0.117  -3.712  1.00  0.00     0.169 HD
ATOM     24  O   UNL     1      -6.565   1.282  -5.288  1.00  0.00    -0.274 OA
BRANCH  22  25
ATOM     25  C   UNL     1      -5.908   3.301  -4.107  1.00  0.00     0.079 C 
ATOM     26  C   UNL     1      -7.182   4.066  -4.627  1.00  0.00     0.013 C 
ATOM     27  C   UNL     1      -6.155   4.110  -2.792  1.00  0.00     0.013 C 
ATOM     28  C   UNL     1      -6.850   5.183  -3.634  1.00  0.00     0.002 C 
ENDBRANCH  22  25
ENDBRANCH  20  21
ENDBRANCH  13  15
ENDBRANCH  10  11
ENDBRANCH   3   6
ENDBRANCH   1   2
BRANCH   1  29
ATOM     29  C   UNL     1       0.262   4.141  -0.613  1.00  0.00     0.042 C 
BRANCH  29  30
ATOM     30  C   UNL     1      -0.328   5.181  -1.559  1.00  0.00     0.118 C 
BRANCH  30  31
ATOM     31  N   UNL     1      -1.371   5.993  -0.934  1.00  0.00    -0.352 N 
ATOM     32  C   UNL     1      -1.377   7.343  -0.673  1.00  0.00     0.251 C 
ATOM     33  H   UNL     1      -2.182   5.505  -0.663  1.00  0.00     0.163 HD
ATOM     34  O   UNL     1      -2.264   7.835   0.019  1.00  0.00    -0.269 OA
BRANCH  32  35
ATOM     35  C   UNL     1      -0.295   8.186  -1.220  1.00  0.00     0.039 A 
ATOM     36  C   UNL     1       0.382   9.072  -0.379  1.00  0.00     0.014 A 
ATOM     37  C   UNL     1       0.084   8.047  -2.556  1.00  0.00     0.014 A 
ATOM     38  C   UNL     1       1.498   9.758  -0.863  1.00  0.00     0.010 A 
ATOM     39  C   UNL     1       1.252   8.649  -3.002  1.00  0.00     0.010 A 
ATOM     40  C   UNL     1       1.968   9.518  -2.165  1.00  0.00    -0.014 A 
BRANCH  40  41
ATOM     41  C   UNL     1       3.196  10.167  -2.693  1.00  0.00     0.031 A 
ATOM     42  C   UNL     1       3.105  11.036  -3.921  1.00  0.00     0.074 A 
ATOM     43  C   UNL     1       4.396   9.889  -2.144  1.00  0.00     0.049 A 
ATOM     44  N   UNL     1       4.066  11.584  -4.617  1.00  0.00    -0.248 NA
ATOM     45  C   UNL     1       1.757  11.288  -4.462  1.00  0.00     0.031 C 
ATOM     46  C   UNL     1       4.624   9.000  -1.002  1.00  0.00     0.029 A 
ATOM     47  N   UNL     1       5.657  10.305  -2.494  1.00  0.00    -0.354 N 
ATOM     48  C   UNL     1       3.446  12.205  -5.695  1.00  0.00     0.074 A 
ATOM     49  C   UNL     1       2.031  11.929  -5.588  1.00  0.00     0.031 C 
ATOM     50  C   UNL     1       5.941   8.942  -0.743  1.00  0.00     0.029 A 
ATOM     51  C   UNL     1       6.655   9.761  -1.717  1.00  0.00     0.049 A 
ATOM     52  H   UNL     1       5.831  10.932  -3.232  1.00  0.00     0.167 HD
ATOM     53  C   UNL     1       3.996  12.970  -6.666  1.00  0.00     0.034 A 
ATOM     54  C   UNL     1       7.993   9.903  -1.788  1.00  0.00     0.034 A 
ATOM     55  C   UNL     1       5.393  13.297  -6.730  1.00  0.00     0.049 A 
ATOM     56  C   UNL     1       8.573  10.804  -2.847  1.00  0.00     0.074 A 
ATOM     57  C   UNL     1       6.042  14.128  -7.626  1.00  0.00     0.029 A 
ATOM     58  N   UNL     1       6.356  12.817  -5.857  1.00  0.00    -0.354 N 
ATOM     59  N   UNL     1       7.953  11.496  -3.772  1.00  0.00    -0.248 NA
ATOM     60  C   UNL     1      10.034  10.973  -2.850  1.00  0.00     0.031 C 
ATOM     61  C   UNL     1       7.401  14.145  -7.298  1.00  0.00     0.029 A 
ATOM     62  C   UNL     1       7.594  13.339  -6.187  1.00  0.00     0.049 A 
ATOM     63  H   UNL     1       6.185  12.197  -5.112  1.00  0.00     0.167 HD
ATOM     64  C   UNL     1       8.940  12.216  -4.435  1.00  0.00     0.074 A 
ATOM     65  C   UNL     1      10.198  11.889  -3.796  1.00  0.00     0.031 C 
ATOM     66  C   UNL     1       8.821  13.060  -5.489  1.00  0.00     0.034 A 
BRANCH  53  67
ATOM     67  C   UNL     1       3.074  13.571  -7.693  1.00  0.00     0.023 A 
ATOM     68  C   UNL     1       2.206  14.616  -7.314  1.00  0.00     0.012 A 
ATOM     69  C   UNL     1       3.106  13.152  -9.037  1.00  0.00     0.148 A 
ATOM     70  C   UNL     1       1.361  15.212  -8.248  1.00  0.00     0.002 A 
ATOM     71  C   UNL     1       2.293  13.783  -9.972  1.00  0.00     0.091 A 
ATOM     72  F   UNL     1       3.923  12.144  -9.374  1.00  0.00    -0.205 F 
ATOM     73  C   UNL     1       1.412  14.804  -9.577  1.00  0.00     0.022 A 
BRANCH  71  74
ATOM     74  S   UNL     1       2.338  13.389 -11.724  1.00  0.00     0.127 S 
ATOM     75  O   UNL     1       1.032  12.761 -11.919  1.00  0.00    -0.237 OA
ATOM     76  O   UNL     1       2.475  14.712 -12.333  1.00  0.00    -0.237 OA
ATOM     77  O   UNL     1       3.485  12.511 -11.910  1.00  0.00    -0.744 OA
ENDBRANCH  71  74
ENDBRANCH  53  67
BRANCH  54  78
ATOM     78  C   UNL     1       8.877   9.242  -0.786  1.00  0.00     0.023 A 
ATOM     79  C   UNL     1       9.556  10.035   0.161  1.00  0.00     0.012 A 
ATOM     80  C   UNL     1       9.048   7.845  -0.756  1.00  0.00     0.148 A 
ATOM     81  C   UNL     1      10.421   9.454   1.089  1.00  0.00     0.002 A 
ATOM     82  C   UNL     1       9.870   7.268   0.207  1.00  0.00     0.091 A 
ATOM     83  F   UNL     1       8.406   7.105  -1.671  1.00  0.00    -0.205 F 
ATOM     84  C   UNL     1      10.572   8.071   1.118  1.00  0.00     0.022 A 
BRANCH  82  85
ATOM     85  S   UNL     1      10.018   5.487   0.395  1.00  0.00     0.127 S 
ATOM     86  O   UNL     1      11.328   5.231  -0.196  1.00  0.00    -0.237 OA
ATOM     87  O   UNL     1       9.955   5.326   1.848  1.00  0.00    -0.237 OA
ATOM     88  O   UNL     1       8.876   4.927  -0.316  1.00  0.00    -0.744 OA
ENDBRANCH  82  85
ENDBRANCH  54  78
BRANCH  66  89
ATOM     89  C   UNL     1      10.068  13.738  -5.990  1.00  0.00     0.023 A 
ATOM     90  C   UNL     1      11.018  13.005  -6.725  1.00  0.00     0.012 A 
ATOM     91  C   UNL     1      10.248  15.124  -5.809  1.00  0.00     0.148 A 
ATOM     92  C   UNL     1      12.145  13.636  -7.251  1.00  0.00     0.002 A 
ATOM     93  C   UNL     1      11.348  15.754  -6.376  1.00  0.00     0.091 A 
ATOM     94  F   UNL     1       9.339  15.799  -5.090  1.00  0.00    -0.205 F 
ATOM     95  C   UNL     1      12.303  15.010  -7.088  1.00  0.00     0.022 A 
BRANCH  93  96
ATOM     96  S   UNL     1      11.580  17.534  -6.302  1.00  0.00     0.127 S 
ATOM     97  O   UNL     1      12.685  17.650  -5.351  1.00  0.00    -0.237 OA
ATOM     98  O   UNL     1      11.929  17.859  -7.685  1.00  0.00    -0.237 OA
ATOM     99  O   UNL     1      10.309  18.087  -5.854  1.00  0.00    -0.744 OA
ENDBRANCH  93  96
ENDBRANCH  66  89
ENDBRANCH  40  41
ENDBRANCH  32  35
ENDBRANCH  30  31
ENDBRANCH  29  30
ENDBRANCH   1  29
TORSDOF 17
