REMARK SMILES Cc1cccc(C(=O)NCCCNC(=O)c2ccc(-c3c4nc(c(-c5cccc(S(=O)(=O)[O-])c5F)c5ccc([nH]5)c(-c5cccc(S(=O)(=O)[O-])c5F)c5nc(c(-c6cccc(S(=O)(=O)[O-])c6F)c6ccc3[nH]6)C=C5)C=C4)cc2)c1NC(=O)Cc1ccccc1
REMARK SMILES IDX 11 1 10 2 9 3 7 4 8 5 6 7 1 8 2 9 3 10 79 11 4 12 5 13 80 14
REMARK SMILES IDX 81 15 82 17 83 18 84 19 85 20 89 21 86 22 88 23 87 24 12 25
REMARK SMILES IDX 13 26 14 27 15 29 16 30 17 31 78 32 18 33 77 34 19 35 20 36
REMARK SMILES IDX 21 37 71 38 22 39 76 40 70 41 72 42 23 43 75 44 69 45 68 46
REMARK SMILES IDX 24 48 56 49 36 50 55 51 37 52 40 53 54 54 73 55 38 56 39 57
REMARK SMILES IDX 53 59 74 60 41 61 25 62 26 63 34 64 27 65 29 66 35 67 28 68
REMARK SMILES IDX 30 69 31 70 32 71 33 72 57 73 58 74 66 75 59 76 61 77 67 78
REMARK SMILES IDX 60 79 62 80 63 81 64 82 65 83 42 84 43 85 51 86 44 87 46 88
REMARK SMILES IDX 52 89 45 90 47 91 48 92 49 93 50 94
REMARK H PARENT 9 6 80 16 13 28 72 47 40 58
REMARK Flexibility Score: inf
ROOT
ATOM      1  C   UNL     1       2.150   3.863  -0.048  1.00  0.00     0.042 C 
ENDROOT
BRANCH   1   2
ATOM      2  C   UNL     1       1.499   3.513   1.300  1.00  0.00     0.118 C 
BRANCH   2   3
ATOM      3  N   UNL     1       0.042   3.476   1.429  1.00  0.00    -0.352 N 
ATOM      4  C   UNL     1      -0.856   2.422   1.500  1.00  0.00     0.253 C 
ATOM      5  O   UNL     1      -1.898   2.567   2.137  1.00  0.00    -0.269 OA
ATOM      6  H   UNL     1      -0.380   4.364   1.473  1.00  0.00     0.163 HD
BRANCH   4   7
ATOM      7  C   UNL     1      -0.610   1.109   0.850  1.00  0.00     0.063 A 
ATOM      8  C   UNL     1       2.308  -0.217  -0.945  1.00  0.00     0.046 C 
ATOM      9  C   UNL     1       0.903  -0.206  -0.424  1.00  0.00    -0.027 A 
ATOM     10  C   UNL     1       0.309  -1.378   0.047  1.00  0.00     0.005 A 
ATOM     11  C   UNL     1       0.189   0.981  -0.268  1.00  0.00     0.056 A 
ATOM     12  C   UNL     1      -0.837  -1.299   0.835  1.00  0.00     0.001 A 
ATOM     13  C   UNL     1      -1.231  -0.052   1.325  1.00  0.00     0.016 A 
BRANCH  11  14
ATOM     14  N   UNL     1       0.114   1.829  -1.386  1.00  0.00    -0.325 N 
ATOM     15  C   UNL     1      -0.894   2.630  -1.849  1.00  0.00     0.228 C 
ATOM     16  H   UNL     1       0.932   1.851  -1.933  1.00  0.00     0.169 HD
ATOM     17  O   UNL     1      -0.603   3.344  -2.817  1.00  0.00    -0.274 OA
BRANCH  15  18
ATOM     18  C   UNL     1      -2.324   2.576  -1.300  1.00  0.00     0.135 C 
BRANCH  18  19
ATOM     19  C   UNL     1      -2.898   3.925  -0.965  1.00  0.00    -0.039 A 
ATOM     20  C   UNL     1      -4.267   4.166  -1.128  1.00  0.00     0.004 A 
ATOM     21  C   UNL     1      -2.070   4.972  -0.564  1.00  0.00     0.004 A 
ATOM     22  C   UNL     1      -4.739   5.466  -1.120  1.00  0.00     0.000 A 
ATOM     23  C   UNL     1      -2.531   6.267  -0.553  1.00  0.00     0.000 A 
ATOM     24  C   UNL     1      -3.847   6.502  -0.910  1.00  0.00     0.000 A 
ENDBRANCH  18  19
ENDBRANCH  15  18
ENDBRANCH  11  14
ENDBRANCH   4   7
ENDBRANCH   2   3
ENDBRANCH   1   2
BRANCH   1  25
ATOM     25  C   UNL     1       1.822   5.194  -0.717  1.00  0.00     0.118 C 
BRANCH  25  26
ATOM     26  N   UNL     1       2.651   6.277  -0.242  1.00  0.00    -0.352 N 
ATOM     27  C   UNL     1       2.977   7.457  -0.894  1.00  0.00     0.251 C 
ATOM     28  H   UNL     1       3.033   6.163   0.658  1.00  0.00     0.163 HD
ATOM     29  O   UNL     1       4.077   7.927  -0.718  1.00  0.00    -0.269 OA
BRANCH  27  30
ATOM     30  C   UNL     1       1.906   8.223  -1.595  1.00  0.00     0.039 A 
ATOM     31  C   UNL     1       1.858   9.595  -1.301  1.00  0.00     0.014 A 
ATOM     32  C   UNL     1       0.860   7.628  -2.294  1.00  0.00     0.014 A 
ATOM     33  C   UNL     1       0.673  10.305  -1.466  1.00  0.00     0.010 A 
ATOM     34  C   UNL     1      -0.324   8.326  -2.443  1.00  0.00     0.010 A 
ATOM     35  C   UNL     1      -0.441   9.626  -1.934  1.00  0.00    -0.014 A 
BRANCH  35  36
ATOM     36  C   UNL     1      -1.788  10.169  -1.880  1.00  0.00     0.031 A 
ATOM     37  C   UNL     1      -2.357  10.842  -3.054  1.00  0.00     0.074 A 
ATOM     38  C   UNL     1      -2.573   9.816  -0.842  1.00  0.00     0.049 A 
ATOM     39  N   UNL     1      -3.502  11.429  -3.070  1.00  0.00    -0.248 NA
ATOM     40  C   UNL     1      -1.646  10.918  -4.319  1.00  0.00     0.031 C 
ATOM     41  C   UNL     1      -4.029   9.775  -0.816  1.00  0.00     0.029 A 
ATOM     42  N   UNL     1      -2.204   9.453   0.454  1.00  0.00    -0.354 N 
ATOM     43  C   UNL     1      -3.815  11.691  -4.384  1.00  0.00     0.074 A 
ATOM     44  C   UNL     1      -2.585  11.453  -5.104  1.00  0.00     0.031 C 
ATOM     45  C   UNL     1      -4.448   9.546   0.439  1.00  0.00     0.029 A 
ATOM     46  C   UNL     1      -3.292   9.737   1.292  1.00  0.00     0.049 A 
ATOM     47  H   UNL     1      -1.339   9.070   0.729  1.00  0.00     0.167 HD
ATOM     48  C   UNL     1      -5.120  11.926  -4.706  1.00  0.00     0.034 A 
ATOM     49  C   UNL     1      -3.242  10.639   2.316  1.00  0.00     0.034 A 
ATOM     50  C   UNL     1      -5.965  11.929  -3.491  1.00  0.00     0.049 A 
ATOM     51  C   UNL     1      -4.227  11.769   2.059  1.00  0.00     0.074 A 
ATOM     52  C   UNL     1      -6.800  10.980  -2.919  1.00  0.00     0.029 A 
ATOM     53  N   UNL     1      -5.780  12.914  -2.519  1.00  0.00    -0.354 N 
ATOM     54  N   UNL     1      -4.739  12.012   0.882  1.00  0.00    -0.248 NA
ATOM     55  C   UNL     1      -4.769  12.658   3.079  1.00  0.00     0.031 C 
ATOM     56  C   UNL     1      -7.036  11.357  -1.565  1.00  0.00     0.029 A 
ATOM     57  C   UNL     1      -6.375  12.552  -1.318  1.00  0.00     0.049 A 
ATOM     58  H   UNL     1      -5.291  13.756  -2.666  1.00  0.00     0.167 HD
ATOM     59  C   UNL     1      -5.659  13.010   0.950  1.00  0.00     0.074 A 
ATOM     60  C   UNL     1      -5.639  13.391   2.356  1.00  0.00     0.031 C 
ATOM     61  C   UNL     1      -6.339  13.443  -0.156  1.00  0.00     0.034 A 
BRANCH  48  62
ATOM     62  C   UNL     1      -5.696  11.853  -6.119  1.00  0.00     0.023 A 
ATOM     63  C   UNL     1      -7.091  11.664  -6.246  1.00  0.00     0.012 A 
ATOM     64  C   UNL     1      -4.979  11.909  -7.339  1.00  0.00     0.148 A 
ATOM     65  C   UNL     1      -7.718  11.451  -7.481  1.00  0.00     0.002 A 
ATOM     66  C   UNL     1      -5.590  11.636  -8.569  1.00  0.00     0.091 A 
ATOM     67  F   UNL     1      -3.712  12.324  -7.349  1.00  0.00    -0.205 F 
ATOM     68  C   UNL     1      -6.963  11.403  -8.642  1.00  0.00     0.022 A 
BRANCH  66  69
ATOM     69  S   UNL     1      -4.659  11.516 -10.110  1.00  0.00     0.127 S 
ATOM     70  O   UNL     1      -5.086  10.214 -10.629  1.00  0.00    -0.237 OA
ATOM     71  O   UNL     1      -5.157  12.662 -10.868  1.00  0.00    -0.237 OA
ATOM     72  O   UNL     1      -3.249  11.574  -9.743  1.00  0.00    -0.744 OA
ENDBRANCH  66  69
ENDBRANCH  48  62
BRANCH  49  73
ATOM     73  C   UNL     1      -1.879  10.728   2.922  1.00  0.00     0.023 A 
ATOM     74  C   UNL     1      -1.377   9.525   3.487  1.00  0.00     0.012 A 
ATOM     75  C   UNL     1      -0.967  11.703   2.489  1.00  0.00     0.148 A 
ATOM     76  C   UNL     1      -0.017   9.218   3.424  1.00  0.00     0.002 A 
ATOM     77  C   UNL     1       0.393  11.390   2.438  1.00  0.00     0.091 A 
ATOM     78  F   UNL     1      -1.440  12.869   2.031  1.00  0.00    -0.205 F 
ATOM     79  C   UNL     1       0.862  10.133   2.854  1.00  0.00     0.022 A 
BRANCH  77  80
ATOM     80  S   UNL     1       1.564  12.528   1.686  1.00  0.00     0.127 S 
ATOM     81  O   UNL     1       1.917  13.378   2.818  1.00  0.00    -0.237 OA
ATOM     82  O   UNL     1       2.633  11.640   1.231  1.00  0.00    -0.237 OA
ATOM     83  O   UNL     1       0.815  13.155   0.607  1.00  0.00    -0.744 OA
ENDBRANCH  77  80
ENDBRANCH  49  73
BRANCH  61  84
ATOM     84  C   UNL     1      -7.053  14.771  -0.235  1.00  0.00     0.023 A 
ATOM     85  C   UNL     1      -6.702  15.843   0.609  1.00  0.00     0.012 A 
ATOM     86  C   UNL     1      -7.944  15.055  -1.300  1.00  0.00     0.148 A 
ATOM     87  C   UNL     1      -7.240  17.120   0.441  1.00  0.00     0.002 A 
ATOM     88  C   UNL     1      -8.378  16.355  -1.537  1.00  0.00     0.091 A 
ATOM     89  F   UNL     1      -8.385  14.065  -2.090  1.00  0.00    -0.205 F 
ATOM     90  C   UNL     1      -8.055  17.384  -0.650  1.00  0.00     0.022 A 
BRANCH  88  91
ATOM     91  S   UNL     1      -9.201  16.790  -3.075  1.00  0.00     0.127 S 
ATOM     92  O   UNL     1     -10.609  16.744  -2.689  1.00  0.00    -0.237 OA
ATOM     93  O   UNL     1      -8.683  18.135  -3.336  1.00  0.00    -0.237 OA
ATOM     94  O   UNL     1      -8.766  15.788  -4.039  1.00  0.00    -0.744 OA
ENDBRANCH  88  91
ENDBRANCH  61  84
ENDBRANCH  35  36
ENDBRANCH  27  30
ENDBRANCH  25  26
ENDBRANCH   1  25
TORSDOF 16
