REMARK SMILES Cc1ccc(-c2csc(NC(=O)[C@H]3[C@@H](C(=O)NCCCNC(=O)c4ccc(-c5c6nc(c(-c7cccc(S(=O)(=O)[O-])c7F)c7ccc([nH]7)c(-c7cccc(S(=O)(=O)[O-])c7F)c7nc(c(-c8cccc(S(=O)(=O)[O-])c8F)c8ccc5[nH]8)C=C7)C=C6)cc4)[C@H]4C=C[C@@H]3C4)c2C(=O)NC2CC2)cc1
REMARK SMILES IDX 18 1 17 2 15 3 16 4 14 6 13 7 90 8 87 9 89 10 91 11 88 12
REMARK SMILES IDX 11 13 10 14 12 16 9 17 6 18 7 19 92 20 8 21 5 22 1 23 2 24
REMARK SMILES IDX 3 25 100 26 4 27 99 28 93 29 94 30 95 31 96 33 97 34 98 35
REMARK SMILES IDX 19 36 20 37 21 38 22 39 23 41 24 42 25 43 86 44 26 45 85 46
REMARK SMILES IDX 27 47 28 48 29 49 79 50 30 51 84 52 78 53 80 54 31 55 83 56
REMARK SMILES IDX 77 57 76 58 32 60 64 61 44 62 63 63 45 64 48 65 62 66 81 67
REMARK SMILES IDX 46 68 47 69 61 71 82 72 49 73 33 74 34 75 42 76 35 77 37 78
REMARK SMILES IDX 43 79 36 80 38 81 39 82 40 83 41 84 65 85 66 86 74 87 67 88
REMARK SMILES IDX 69 89 75 90 68 91 70 92 71 93 72 94 73 95 50 96 51 97 59 98
REMARK SMILES IDX 52 99 54 100 60 101 53 102 55 103 56 104 57 105 58 106
REMARK H PARENT 17 5 10 15 95 32 21 40 80 59 48 70
REMARK Flexibility Score: inf
ROOT
ATOM      1  C   UNL     1      -4.594   2.201   0.026  1.00  0.00     0.117 C 
ENDROOT
BRANCH   1   2
ATOM      2  N   UNL     1      -5.247   1.712  -1.177  1.00  0.00    -0.356 N 
ATOM      3  C   UNL     1      -6.524   1.236  -1.327  1.00  0.00     0.224 C 
ATOM      4  O   UNL     1      -6.881   0.848  -2.437  1.00  0.00    -0.275 OA
ATOM      5  H   UNL     1      -4.698   1.723  -1.994  1.00  0.00     0.163 HD
BRANCH   3   6
ATOM      6  C   UNL     1      -7.475   1.364  -0.136  1.00  0.00     0.098 C 
ATOM      7  C   UNL     1      -8.648   0.323   0.063  1.00  0.00     0.099 C 
ATOM      8  C   UNL     1      -9.894   1.240  -0.068  1.00  0.00     0.025 C 
ATOM      9  C   UNL     1      -8.236   2.719  -0.260  1.00  0.00     0.025 C 
ATOM     10  C   UNL     1      -9.989   1.826  -1.450  1.00  0.00    -0.027 C 
ATOM     11  C   UNL     1      -9.404   2.486   0.691  1.00  0.00     0.017 C 
ATOM     12  C   UNL     1      -9.018   2.743  -1.555  1.00  0.00    -0.027 C 
BRANCH   7  13
ATOM     13  C   UNL     1      -8.527  -0.961  -0.757  1.00  0.00     0.229 C 
ATOM     14  N   UNL     1      -9.620  -1.649  -1.201  1.00  0.00    -0.317 N 
ATOM     15  H   UNL     1      -9.488  -2.148  -2.040  1.00  0.00     0.170 HD
ATOM     16  O   UNL     1      -7.416  -1.458  -0.969  1.00  0.00    -0.274 OA
BRANCH  14  17
ATOM     17  C   UNL     1     -10.884  -1.751  -0.650  1.00  0.00     0.108 A 
ATOM     18  C   UNL     1     -13.181  -1.935  -0.336  1.00  0.00     0.007 A 
ATOM     19  C   UNL     1     -12.717  -1.666   0.941  1.00  0.00     0.076 A 
ATOM     20  C   UNL     1     -12.085  -2.067  -1.294  1.00  0.00     0.082 A 
ATOM     21  S   UNL     1     -11.028  -1.703   1.044  1.00  0.00    -0.125 S 
BRANCH  18  22
ATOM     22  C   UNL     1     -14.625  -2.080  -0.482  1.00  0.00    -0.017 A 
ATOM     23  C   UNL     1     -18.711  -3.131  -1.295  1.00  0.00     0.044 C 
ATOM     24  C   UNL     1     -17.344  -2.661  -0.895  1.00  0.00    -0.051 A 
ATOM     25  C   UNL     1     -16.591  -3.434  -0.009  1.00  0.00     0.004 A 
ATOM     26  C   UNL     1     -16.752  -1.537  -1.496  1.00  0.00     0.004 A 
ATOM     27  C   UNL     1     -15.254  -3.126   0.216  1.00  0.00     0.009 A 
ATOM     28  C   UNL     1     -15.394  -1.244  -1.292  1.00  0.00     0.009 A 
ENDBRANCH  18  22
BRANCH  20  29
ATOM     29  C   UNL     1     -12.073  -2.219  -2.754  1.00  0.00     0.255 C 
ATOM     30  O   UNL     1     -11.493  -1.370  -3.441  1.00  0.00    -0.269 OA
ATOM     31  N   UNL     1     -12.548  -3.290  -3.475  1.00  0.00    -0.349 N 
ATOM     32  H   UNL     1     -12.318  -3.193  -4.427  1.00  0.00     0.164 HD
BRANCH  31  33
ATOM     33  C   UNL     1     -13.270  -4.493  -3.256  1.00  0.00     0.082 C 
ATOM     34  C   UNL     1     -13.830  -5.040  -1.993  1.00  0.00     0.027 C 
ATOM     35  C   UNL     1     -14.743  -4.379  -2.989  1.00  0.00     0.027 C 
ENDBRANCH  31  33
ENDBRANCH  20  29
ENDBRANCH  14  17
ENDBRANCH   7  13
ENDBRANCH   3   6
ENDBRANCH   1   2
BRANCH   1  36
ATOM     36  C   UNL     1      -4.073   1.054   0.884  1.00  0.00     0.042 C 
BRANCH  36  37
ATOM     37  C   UNL     1      -2.755   0.502   0.361  1.00  0.00     0.118 C 
BRANCH  37  38
ATOM     38  N   UNL     1      -1.586   1.129   0.969  1.00  0.00    -0.352 N 
ATOM     39  C   UNL     1      -0.242   0.905   0.735  1.00  0.00     0.251 C 
ATOM     40  H   UNL     1      -1.784   1.815   1.647  1.00  0.00     0.163 HD
ATOM     41  O   UNL     1       0.582   1.410   1.498  1.00  0.00    -0.269 OA
BRANCH  39  42
ATOM     42  C   UNL     1       0.186   0.192  -0.490  1.00  0.00     0.039 A 
ATOM     43  C   UNL     1       1.195   0.777  -1.268  1.00  0.00     0.014 A 
ATOM     44  C   UNL     1      -0.553  -0.875  -0.992  1.00  0.00     0.014 A 
ATOM     45  C   UNL     1       1.277   0.481  -2.626  1.00  0.00     0.010 A 
ATOM     46  C   UNL     1      -0.542  -1.101  -2.349  1.00  0.00     0.010 A 
ATOM     47  C   UNL     1       0.323  -0.369  -3.172  1.00  0.00    -0.014 A 
BRANCH  47  48
ATOM     48  C   UNL     1       0.072  -0.531  -4.594  1.00  0.00     0.031 A 
ATOM     49  C   UNL     1       0.608  -1.702  -5.307  1.00  0.00     0.074 A 
ATOM     50  C   UNL     1      -0.867   0.261  -5.156  1.00  0.00     0.049 A 
ATOM     51  N   UNL     1       0.630  -1.832  -6.588  1.00  0.00    -0.248 NA
ATOM     52  C   UNL     1       1.203  -2.826  -4.597  1.00  0.00     0.031 C 
ATOM     53  C   UNL     1      -1.636  -0.003  -6.364  1.00  0.00     0.029 A 
ATOM     54  N   UNL     1      -1.176   1.587  -4.831  1.00  0.00    -0.354 N 
ATOM     55  C   UNL     1       0.969  -3.141  -6.864  1.00  0.00     0.074 A 
ATOM     56  C   UNL     1       1.399  -3.686  -5.599  1.00  0.00     0.031 C 
ATOM     57  C   UNL     1      -2.108   1.161  -6.835  1.00  0.00     0.029 A 
ATOM     58  C   UNL     1      -1.496   2.217  -6.045  1.00  0.00     0.049 A 
ATOM     59  H   UNL     1      -1.170   1.994  -3.935  1.00  0.00     0.167 HD
ATOM     60  C   UNL     1       0.696  -3.647  -8.102  1.00  0.00     0.034 A 
ATOM     61  C   UNL     1      -0.803   3.278  -6.553  1.00  0.00     0.034 A 
ATOM     62  C   UNL     1       0.167  -2.596  -8.986  1.00  0.00     0.049 A 
ATOM     63  C   UNL     1      -0.219   2.999  -7.926  1.00  0.00     0.074 A 
ATOM     64  C   UNL     1      -1.123  -2.230  -9.335  1.00  0.00     0.029 A 
ATOM     65  N   UNL     1       0.996  -1.562  -9.407  1.00  0.00    -0.354 N 
ATOM     66  N   UNL     1      -0.190   1.819  -8.481  1.00  0.00    -0.248 NA
ATOM     67  C   UNL     1       0.403   4.017  -8.769  1.00  0.00     0.031 C 
ATOM     68  C   UNL     1      -1.075  -0.919  -9.878  1.00  0.00     0.029 A 
ATOM     69  C   UNL     1       0.246  -0.501  -9.890  1.00  0.00     0.049 A 
ATOM     70  H   UNL     1       1.980  -1.581  -9.368  1.00  0.00     0.167 HD
ATOM     71  C   UNL     1       0.536   1.866  -9.640  1.00  0.00     0.074 A 
ATOM     72  C   UNL     1       0.820   3.280  -9.815  1.00  0.00     0.031 C 
ATOM     73  C   UNL     1       0.895   0.734 -10.320  1.00  0.00     0.034 A 
BRANCH  60  74
ATOM     74  C   UNL     1       0.587  -5.129  -8.443  1.00  0.00     0.023 A 
ATOM     75  C   UNL     1      -0.165  -5.470  -9.593  1.00  0.00     0.012 A 
ATOM     76  C   UNL     1       1.087  -6.222  -7.699  1.00  0.00     0.148 A 
ATOM     77  C   UNL     1      -0.495  -6.791  -9.920  1.00  0.00     0.002 A 
ATOM     78  C   UNL     1       0.706  -7.539  -7.984  1.00  0.00     0.091 A 
ATOM     79  F   UNL     1       2.014  -6.021  -6.761  1.00  0.00    -0.205 F 
ATOM     80  C   UNL     1      -0.092  -7.826  -9.092  1.00  0.00     0.022 A 
BRANCH  78  81
ATOM     81  S   UNL     1       1.145  -8.927  -6.919  1.00  0.00     0.127 S 
ATOM     82  O   UNL     1      -0.156  -9.553  -6.676  1.00  0.00    -0.237 OA
ATOM     83  O   UNL     1       2.042  -9.704  -7.771  1.00  0.00    -0.237 OA
ATOM     84  O   UNL     1       1.758  -8.349  -5.729  1.00  0.00    -0.744 OA
ENDBRANCH  78  81
ENDBRANCH  60  74
BRANCH  61  85
ATOM     85  C   UNL     1      -0.191   4.153  -5.511  1.00  0.00     0.023 A 
ATOM     86  C   UNL     1      -1.085   4.852  -4.666  1.00  0.00     0.012 A 
ATOM     87  C   UNL     1       1.144   3.989  -5.101  1.00  0.00     0.148 A 
ATOM     88  C   UNL     1      -0.696   5.261  -3.390  1.00  0.00     0.002 A 
ATOM     89  C   UNL     1       1.524   4.396  -3.822  1.00  0.00     0.091 A 
ATOM     90  F   UNL     1       1.995   3.363  -5.924  1.00  0.00    -0.205 F 
ATOM     91  C   UNL     1       0.598   5.000  -2.955  1.00  0.00     0.022 A 
BRANCH  89  92
ATOM     92  S   UNL     1       3.158   4.039  -3.159  1.00  0.00     0.127 S 
ATOM     93  O   UNL     1       3.846   5.308  -3.377  1.00  0.00    -0.237 OA
ATOM     94  O   UNL     1       2.865   3.731  -1.759  1.00  0.00    -0.237 OA
ATOM     95  O   UNL     1       3.636   2.902  -3.931  1.00  0.00    -0.744 OA
ENDBRANCH  89  92
ENDBRANCH  61  85
BRANCH  73  96
ATOM     96  C   UNL     1       1.903   0.689 -11.448  1.00  0.00     0.023 A 
ATOM     97  C   UNL     1       2.939   1.637 -11.559  1.00  0.00     0.012 A 
ATOM     98  C   UNL     1       1.941  -0.408 -12.347  1.00  0.00     0.148 A 
ATOM     99  C   UNL     1       3.923   1.545 -12.548  1.00  0.00     0.002 A 
ATOM    100  C   UNL     1       2.981  -0.550 -13.262  1.00  0.00     0.091 A 
ATOM    101  F   UNL     1       0.954  -1.317 -12.331  1.00  0.00    -0.205 F 
ATOM    102  C   UNL     1       3.958   0.440 -13.387  1.00  0.00     0.022 A 
BRANCH 100 103
ATOM    103  S   UNL     1       3.184  -2.073 -14.198  1.00  0.00     0.127 S 
ATOM    104  O   UNL     1       2.416  -1.794 -15.408  1.00  0.00    -0.237 OA
ATOM    105  O   UNL     1       4.634  -2.134 -14.399  1.00  0.00    -0.237 OA
ATOM    106  O   UNL     1       2.662  -3.118 -13.327  1.00  0.00    -0.744 OA
ENDBRANCH 100 103
ENDBRANCH  73  96
ENDBRANCH  47  48
ENDBRANCH  39  42
ENDBRANCH  37  38
ENDBRANCH  36  37
ENDBRANCH   1  36
TORSDOF 18
