REMARK SMILES NS(=O)(=O)c1ccc(N2N=C(C(=O)NCCCNC(=O)c3ccc(-c4c5nc(c(-c6cccc(S(=O)(=O)[O-])c6F)c6ccc([nH]6)c(-c6cccc(S(=O)(=O)[O-])c6F)c6nc(c(-c7cccc(S(=O)(=O)[O-])c7F)c7ccc4[nH]7)C=C6)C=C5)cc3)C[C@H]2c2cccs2)cc1
REMARK SMILES IDX 16 1 15 2 14 3 12 4 13 5 11 7 9 8 10 9 85 10 84 11 8 12 5 13
REMARK SMILES IDX 6 14 92 15 7 16 91 17 2 18 3 19 4 20 1 21 86 24 87 25 90 26
REMARK SMILES IDX 88 27 89 28 17 29 18 30 19 31 20 33 21 34 22 35 83 36 23 37
REMARK SMILES IDX 82 38 24 39 25 40 26 41 76 42 27 43 81 44 75 45 77 46 28 47
REMARK SMILES IDX 80 48 74 49 73 50 29 52 61 53 41 54 60 55 42 56 45 57 59 58
REMARK SMILES IDX 78 59 43 60 44 61 58 63 79 64 46 65 30 66 31 67 39 68 32 69
REMARK SMILES IDX 34 70 40 71 33 72 35 73 36 74 37 75 38 76 62 77 63 78 71 79
REMARK SMILES IDX 64 80 66 81 72 82 65 83 67 84 68 85 69 86 70 87 47 88 48 89
REMARK SMILES IDX 56 90 49 91 51 92 57 93 50 94 52 95 53 96 54 97 55 98
REMARK H PARENT 14 6 1 22 1 23 18 32 77 51 45 62
REMARK Flexibility Score: inf
ROOT
ATOM      1  C   UNL     1       1.915   5.610  10.836  1.00  0.00     0.042 C 
ENDROOT
BRANCH   1   2
ATOM      2  C   UNL     1       2.765   6.190   9.710  1.00  0.00     0.118 C 
BRANCH   2   3
ATOM      3  N   UNL     1       3.652   5.190   9.154  1.00  0.00    -0.351 N 
ATOM      4  C   UNL     1       3.655   4.433   8.013  1.00  0.00     0.267 C 
ATOM      5  O   UNL     1       4.553   3.600   7.897  1.00  0.00    -0.268 OA
ATOM      6  H   UNL     1       4.432   5.013   9.729  1.00  0.00     0.163 HD
BRANCH   4   7
ATOM      7  C   UNL     1       2.667   4.586   6.867  1.00  0.00     0.128 C 
ATOM      8  N   UNL     1       1.944   4.439   4.862  1.00  0.00    -0.256 N 
ATOM      9  N   UNL     1       2.964   4.108   5.693  1.00  0.00    -0.171 NA
ATOM     10  C   UNL     1       0.875   5.193   5.515  1.00  0.00     0.154 C 
ATOM     11  C   UNL     1       1.283   5.141   6.994  1.00  0.00     0.097 C 
BRANCH   8  12
ATOM     12  C   UNL     1       1.689   3.713   3.702  1.00  0.00     0.060 A 
ATOM     13  C   UNL     1       1.017   2.289   1.378  1.00  0.00     0.082 A 
ATOM     14  C   UNL     1       1.317   1.595   2.553  1.00  0.00     0.024 A 
ATOM     15  C   UNL     1       1.084   3.681   1.341  1.00  0.00     0.024 A 
ATOM     16  C   UNL     1       1.666   2.312   3.704  1.00  0.00     0.029 A 
ATOM     17  C   UNL     1       1.411   4.381   2.501  1.00  0.00     0.029 A 
BRANCH  13  18
ATOM     18  S   UNL     1       0.576   1.431  -0.100  1.00  0.00     0.238 S 
ATOM     19  O   UNL     1       1.192   2.099  -1.227  1.00  0.00    -0.207 OA
ATOM     20  O   UNL     1      -0.829   1.129  -0.054  1.00  0.00    -0.207 OA
BRANCH  18  21
ATOM     21  N   UNL     1       1.378  -0.040   0.019  1.00  0.00    -0.225 NA
ATOM     22  H   UNL     1       1.175  -0.605  -0.806  1.00  0.00     0.137 HD
ATOM     23  H   UNL     1       1.064  -0.532   0.855  1.00  0.00     0.137 HD
ENDBRANCH  18  21
ENDBRANCH  13  18
ENDBRANCH   8  12
BRANCH  10  24
ATOM     24  C   UNL     1       0.674   6.600   4.976  1.00  0.00     0.030 A 
ATOM     25  C   UNL     1      -0.330   7.027   4.123  1.00  0.00     0.017 A 
ATOM     26  S   UNL     1       1.779   7.875   5.304  1.00  0.00    -0.147 S 
ATOM     27  C   UNL     1      -0.201   8.398   3.763  1.00  0.00     0.012 A 
ATOM     28  C   UNL     1       0.888   8.986   4.362  1.00  0.00     0.065 A 
ENDBRANCH  10  24
ENDBRANCH   4   7
ENDBRANCH   2   3
ENDBRANCH   1   2
BRANCH   1  29
ATOM     29  C   UNL     1       2.700   5.421  12.133  1.00  0.00     0.118 C 
BRANCH  29  30
ATOM     30  N   UNL     1       3.143   6.694  12.688  1.00  0.00    -0.352 N 
ATOM     31  C   UNL     1       2.853   7.293  13.887  1.00  0.00     0.251 C 
ATOM     32  H   UNL     1       3.748   7.208  12.107  1.00  0.00     0.163 HD
ATOM     33  O   UNL     1       3.131   8.480  14.040  1.00  0.00    -0.269 OA
BRANCH  31  34
ATOM     34  C   UNL     1       2.228   6.530  14.989  1.00  0.00     0.039 A 
ATOM     35  C   UNL     1       1.329   7.184  15.837  1.00  0.00     0.014 A 
ATOM     36  C   UNL     1       2.577   5.200  15.239  1.00  0.00     0.014 A 
ATOM     37  C   UNL     1       0.766   6.500  16.917  1.00  0.00     0.010 A 
ATOM     38  C   UNL     1       1.948   4.494  16.259  1.00  0.00     0.010 A 
ATOM     39  C   UNL     1       1.064   5.145  17.130  1.00  0.00    -0.014 A 
BRANCH  39  40
ATOM     40  C   UNL     1       0.505   4.406  18.290  1.00  0.00     0.031 A 
ATOM     41  C   UNL     1       1.428   3.855  19.346  1.00  0.00     0.074 A 
ATOM     42  C   UNL     1      -0.819   4.169  18.356  1.00  0.00     0.049 A 
ATOM     43  N   UNL     1       1.137   3.151  20.410  1.00  0.00    -0.248 NA
ATOM     44  C   UNL     1       2.870   4.094  19.167  1.00  0.00     0.031 C 
ATOM     45  C   UNL     1      -1.803   4.571  17.348  1.00  0.00     0.029 A 
ATOM     46  N   UNL     1      -1.563   3.514  19.303  1.00  0.00    -0.354 N 
ATOM     47  C   UNL     1       2.356   2.828  20.996  1.00  0.00     0.074 A 
ATOM     48  C   UNL     1       3.391   3.375  20.149  1.00  0.00     0.031 C 
ATOM     49  C   UNL     1      -3.022   4.163  17.736  1.00  0.00     0.029 A 
ATOM     50  C   UNL     1      -2.906   3.459  19.010  1.00  0.00     0.049 A 
ATOM     51  H   UNL     1      -1.173   3.120  20.117  1.00  0.00     0.167 HD
ATOM     52  C   UNL     1       2.594   2.169  22.155  1.00  0.00     0.034 A 
ATOM     53  C   UNL     1      -3.927   2.913  19.698  1.00  0.00     0.034 A 
ATOM     54  C   UNL     1       1.558   1.692  23.031  1.00  0.00     0.049 A 
ATOM     55  C   UNL     1      -3.646   2.279  21.033  1.00  0.00     0.074 A 
ATOM     56  C   UNL     1       1.685   1.093  24.271  1.00  0.00     0.029 A 
ATOM     57  N   UNL     1       0.201   1.771  22.761  1.00  0.00    -0.354 N 
ATOM     58  N   UNL     1      -2.498   2.124  21.648  1.00  0.00    -0.248 NA
ATOM     59  C   UNL     1      -4.805   1.789  21.793  1.00  0.00     0.031 C 
ATOM     60  C   UNL     1       0.401   0.809  24.751  1.00  0.00     0.029 A 
ATOM     61  C   UNL     1      -0.523   1.242  23.814  1.00  0.00     0.049 A 
ATOM     62  H   UNL     1      -0.190   2.148  21.939  1.00  0.00     0.167 HD
ATOM     63  C   UNL     1      -2.799   1.558  22.881  1.00  0.00     0.074 A 
ATOM     64  C   UNL     1      -4.241   1.417  22.934  1.00  0.00     0.031 C 
ATOM     65  C   UNL     1      -1.960   1.172  23.875  1.00  0.00     0.034 A 
BRANCH  52  66
ATOM     66  C   UNL     1       4.030   1.995  22.577  1.00  0.00     0.023 A 
ATOM     67  C   UNL     1       4.763   3.117  23.017  1.00  0.00     0.012 A 
ATOM     68  C   UNL     1       4.643   0.727  22.580  1.00  0.00     0.148 A 
ATOM     69  C   UNL     1       6.093   2.989  23.414  1.00  0.00     0.002 A 
ATOM     70  C   UNL     1       5.957   0.600  23.020  1.00  0.00     0.091 A 
ATOM     71  F   UNL     1       3.941  -0.325  22.137  1.00  0.00    -0.205 F 
ATOM     72  C   UNL     1       6.686   1.730  23.425  1.00  0.00     0.022 A 
BRANCH  70  73
ATOM     73  S   UNL     1       6.784  -0.990  23.146  1.00  0.00     0.127 S 
ATOM     74  O   UNL     1       7.711  -0.931  22.017  1.00  0.00    -0.237 OA
ATOM     75  O   UNL     1       7.420  -0.905  24.461  1.00  0.00    -0.237 OA
ATOM     76  O   UNL     1       5.735  -1.995  23.045  1.00  0.00    -0.744 OA
ENDBRANCH  70  73
ENDBRANCH  52  66
BRANCH  53  77
ATOM     77  C   UNL     1      -5.320   3.044  19.186  1.00  0.00     0.023 A 
ATOM     78  C   UNL     1      -6.213   3.916  19.840  1.00  0.00     0.012 A 
ATOM     79  C   UNL     1      -5.755   2.348  18.043  1.00  0.00     0.148 A 
ATOM     80  C   UNL     1      -7.523   4.067  19.386  1.00  0.00     0.002 A 
ATOM     81  C   UNL     1      -7.046   2.543  17.564  1.00  0.00     0.091 A 
ATOM     82  F   UNL     1      -4.895   1.515  17.440  1.00  0.00    -0.205 F 
ATOM     83  C   UNL     1      -7.937   3.388  18.243  1.00  0.00     0.022 A 
BRANCH  81  84
ATOM     84  S   UNL     1      -7.618   1.815  16.024  1.00  0.00     0.127 S 
ATOM     85  O   UNL     1      -8.498   0.753  16.503  1.00  0.00    -0.237 OA
ATOM     86  O   UNL     1      -8.300   2.942  15.388  1.00  0.00    -0.237 OA
ATOM     87  O   UNL     1      -6.413   1.379  15.329  1.00  0.00    -0.744 OA
ENDBRANCH  81  84
ENDBRANCH  53  77
BRANCH  65  88
ATOM     88  C   UNL     1      -2.577   0.600  25.122  1.00  0.00     0.023 A 
ATOM     89  C   UNL     1      -3.129  -0.696  25.098  1.00  0.00     0.012 A 
ATOM     90  C   UNL     1      -2.552   1.319  26.332  1.00  0.00     0.148 A 
ATOM     91  C   UNL     1      -3.679  -1.253  26.252  1.00  0.00     0.002 A 
ATOM     92  C   UNL     1      -3.060   0.739  27.489  1.00  0.00     0.091 A 
ATOM     93  F   UNL     1      -2.044   2.561  26.332  1.00  0.00    -0.205 F 
ATOM     94  C   UNL     1      -3.634  -0.541  27.449  1.00  0.00     0.022 A 
BRANCH  92  95
ATOM     95  S   UNL     1      -2.950   1.556  29.085  1.00  0.00     0.127 S 
ATOM     96  O   UNL     1      -4.286   2.133  29.219  1.00  0.00    -0.237 OA
ATOM     97  O   UNL     1      -2.673   0.442  29.993  1.00  0.00    -0.237 OA
ATOM     98  O   UNL     1      -1.857   2.512  28.962  1.00  0.00    -0.744 OA
ENDBRANCH  92  95
ENDBRANCH  65  88
ENDBRANCH  39  40
ENDBRANCH  31  34
ENDBRANCH  29  30
ENDBRANCH   1  29
TORSDOF 17
