REMARK SMILES O=Cc1ccc(-c2ccc(C(=O)NCCCNC(=O)c3ccc(-c4c5nc(c(-c6cccc(S(=O)(=O)[O-])c6F)c6ccc([nH]6)c(-c6cccc(S(=O)(=O)[O-])c6F)c6nc(c(-c7cccc(S(=O)(=O)[O-])c7F)c7ccc4[nH]7)C=C6)C=C5)cc3)cn2)cc1
REMARK SMILES IDX 15 1 14 2 13 3 11 4 12 5 10 7 7 8 8 9 84 10 9 11 83 12 6 13
REMARK SMILES IDX 3 14 4 15 86 16 5 17 85 18 2 19 1 20 16 21 17 22 18 23 19 25
REMARK SMILES IDX 20 26 21 27 82 28 22 29 81 30 23 31 24 32 25 33 75 34 26 35
REMARK SMILES IDX 80 36 74 37 76 38 27 39 79 40 73 41 72 42 28 44 60 45 40 46
REMARK SMILES IDX 59 47 41 48 44 49 58 50 77 51 42 52 43 53 57 55 78 56 45 57
REMARK SMILES IDX 29 58 30 59 38 60 31 61 33 62 39 63 32 64 34 65 35 66 36 67
REMARK SMILES IDX 37 68 61 69 62 70 70 71 63 72 65 73 71 74 64 75 66 76 67 77
REMARK SMILES IDX 68 78 69 79 46 80 47 81 55 82 48 83 50 84 56 85 49 86 51 87
REMARK SMILES IDX 52 88 53 89 54 90
REMARK H PARENT 13 6 17 24 76 43 44 54
REMARK Flexibility Score: inf
ROOT
ATOM      1  C   UNL     1       8.760  -7.537  -5.015  1.00  0.00     0.042 C 
ENDROOT
BRANCH   1   2
ATOM      2  C   UNL     1       7.467  -8.158  -4.488  1.00  0.00     0.118 C 
BRANCH   2   3
ATOM      3  N   UNL     1       7.632  -8.653  -3.133  1.00  0.00    -0.352 N 
ATOM      4  C   UNL     1       7.258  -8.150  -1.914  1.00  0.00     0.252 C 
ATOM      5  O   UNL     1       7.459  -8.851  -0.922  1.00  0.00    -0.269 OA
ATOM      6  H   UNL     1       8.102  -9.516  -3.079  1.00  0.00     0.163 HD
BRANCH   4   7
ATOM      7  C   UNL     1       6.581  -6.844  -1.738  1.00  0.00     0.058 A 
ATOM      8  C   UNL     1       5.157  -4.538  -1.179  1.00  0.00     0.070 A 
ATOM      9  C   UNL     1       5.969  -4.581  -2.309  1.00  0.00     0.030 A 
ATOM     10  N   UNL     1       5.064  -5.573  -0.314  1.00  0.00    -0.255 NA
ATOM     11  C   UNL     1       6.704  -5.738  -2.575  1.00  0.00     0.018 A 
ATOM     12  C   UNL     1       5.776  -6.692  -0.612  1.00  0.00     0.125 A 
BRANCH   8  13
ATOM     13  C   UNL     1       4.362  -3.355  -0.853  1.00  0.00     0.000 A 
ATOM     14  C   UNL     1       2.872  -1.052  -0.258  1.00  0.00     0.014 A 
ATOM     15  C   UNL     1       4.010  -1.353   0.492  1.00  0.00     0.012 A 
ATOM     16  C   UNL     1       2.464  -1.894  -1.295  1.00  0.00     0.012 A 
ATOM     17  C   UNL     1       4.745  -2.506   0.198  1.00  0.00     0.011 A 
ATOM     18  C   UNL     1       3.210  -3.038  -1.591  1.00  0.00     0.011 A 
BRANCH  14  19
ATOM     19  C   UNL     1       2.102   0.168   0.054  1.00  0.00     0.260 C 
ATOM     20  O   UNL     1       1.048   0.439  -0.508  1.00  0.00    -0.298 OA
ENDBRANCH  14  19
ENDBRANCH   8  13
ENDBRANCH   4   7
ENDBRANCH   2   3
ENDBRANCH   1   2
BRANCH   1  21
ATOM     21  C   UNL     1       9.828  -8.569  -5.370  1.00  0.00     0.118 C 
BRANCH  21  22
ATOM     22  N   UNL     1       9.446  -9.372  -6.524  1.00  0.00    -0.352 N 
ATOM     23  C   UNL     1      10.072  -9.532  -7.735  1.00  0.00     0.251 C 
ATOM     24  H   UNL     1       8.608  -9.877  -6.420  1.00  0.00     0.163 HD
ATOM     25  O   UNL     1       9.462 -10.065  -8.658  1.00  0.00    -0.269 OA
BRANCH  23  26
ATOM     26  C   UNL     1      11.464  -9.072  -7.936  1.00  0.00     0.039 A 
ATOM     27  C   UNL     1      11.809  -8.480  -9.155  1.00  0.00     0.014 A 
ATOM     28  C   UNL     1      12.440  -9.268  -6.955  1.00  0.00     0.014 A 
ATOM     29  C   UNL     1      13.119  -8.046  -9.373  1.00  0.00     0.010 A 
ATOM     30  C   UNL     1      13.728  -8.772  -7.146  1.00  0.00     0.010 A 
ATOM     31  C   UNL     1      14.084  -8.165  -8.360  1.00  0.00    -0.014 A 
BRANCH  31  32
ATOM     32  C   UNL     1      15.468  -7.658  -8.547  1.00  0.00     0.031 A 
ATOM     33  C   UNL     1      16.636  -8.607  -8.521  1.00  0.00     0.074 A 
ATOM     34  C   UNL     1      15.678  -6.330  -8.645  1.00  0.00     0.049 A 
ATOM     35  N   UNL     1      17.914  -8.342  -8.595  1.00  0.00    -0.248 NA
ATOM     36  C   UNL     1      16.329 -10.039  -8.364  1.00  0.00     0.031 C 
ATOM     37  C   UNL     1      14.635  -5.304  -8.600  1.00  0.00     0.029 A 
ATOM     38  N   UNL     1      16.843  -5.614  -8.768  1.00  0.00    -0.354 N 
ATOM     39  C   UNL     1      18.565  -9.562  -8.453  1.00  0.00     0.074 A 
ATOM     40  C   UNL     1      17.541 -10.566  -8.260  1.00  0.00     0.031 C 
ATOM     41  C   UNL     1      15.205  -4.093  -8.692  1.00  0.00     0.029 A 
ATOM     42  C   UNL     1      16.653  -4.252  -8.774  1.00  0.00     0.049 A 
ATOM     43  H   UNL     1      17.729  -6.035  -8.846  1.00  0.00     0.167 HD
ATOM     44  C   UNL     1      19.892  -9.828  -8.504  1.00  0.00     0.034 A 
ATOM     45  C   UNL     1      17.545  -3.243  -8.829  1.00  0.00     0.034 A 
ATOM     46  C   UNL     1      20.902  -8.834  -8.748  1.00  0.00     0.049 A 
ATOM     47  C   UNL     1      19.010  -3.570  -8.942  1.00  0.00     0.074 A 
ATOM     48  C   UNL     1      22.264  -9.014  -8.917  1.00  0.00     0.029 A 
ATOM     49  N   UNL     1      20.664  -7.472  -8.850  1.00  0.00    -0.354 N 
ATOM     50  N   UNL     1      19.593  -4.743  -8.972  1.00  0.00    -0.248 NA
ATOM     51  C   UNL     1      19.936  -2.436  -9.069  1.00  0.00     0.031 C 
ATOM     52  C   UNL     1      22.851  -7.758  -9.103  1.00  0.00     0.029 A 
ATOM     53  C   UNL     1      21.852  -6.798  -9.073  1.00  0.00     0.049 A 
ATOM     54  H   UNL     1      19.779  -7.047  -8.776  1.00  0.00     0.167 HD
ATOM     55  C   UNL     1      20.947  -4.492  -9.155  1.00  0.00     0.074 A 
ATOM     56  C   UNL     1      21.095  -3.054  -9.252  1.00  0.00     0.031 C 
ATOM     57  C   UNL     1      21.978  -5.371  -9.222  1.00  0.00     0.034 A 
BRANCH  44  58
ATOM     58  C   UNL     1      20.329 -11.262  -8.350  1.00  0.00     0.023 A 
ATOM     59  C   UNL     1      20.079 -12.180  -9.391  1.00  0.00     0.012 A 
ATOM     60  C   UNL     1      21.039 -11.688  -7.211  1.00  0.00     0.148 A 
ATOM     61  C   UNL     1      20.497 -13.506  -9.286  1.00  0.00     0.002 A 
ATOM     62  C   UNL     1      21.491 -13.001  -7.133  1.00  0.00     0.091 A 
ATOM     63  F   UNL     1      21.250 -10.808  -6.222  1.00  0.00    -0.205 F 
ATOM     64  C   UNL     1      21.212 -13.913  -8.163  1.00  0.00     0.022 A 
BRANCH  62  65
ATOM     65  S   UNL     1      22.488 -13.603  -5.765  1.00  0.00     0.127 S 
ATOM     66  O   UNL     1      21.541 -14.476  -5.072  1.00  0.00    -0.237 OA
ATOM     67  O   UNL     1      23.570 -14.305  -6.457  1.00  0.00    -0.237 OA
ATOM     68  O   UNL     1      22.908 -12.422  -5.024  1.00  0.00    -0.744 OA
ENDBRANCH  62  65
ENDBRANCH  44  58
BRANCH  45  69
ATOM     69  C   UNL     1      17.068  -1.831  -8.848  1.00  0.00     0.023 A 
ATOM     70  C   UNL     1      17.179  -1.082 -10.035  1.00  0.00     0.012 A 
ATOM     71  C   UNL     1      16.472  -1.242  -7.717  1.00  0.00     0.148 A 
ATOM     72  C   UNL     1      16.734   0.239 -10.087  1.00  0.00     0.002 A 
ATOM     73  C   UNL     1      15.979   0.056  -7.792  1.00  0.00     0.091 A 
ATOM     74  F   UNL     1      16.385  -1.968  -6.593  1.00  0.00    -0.205 F 
ATOM     75  C   UNL     1      16.124   0.804  -8.970  1.00  0.00     0.022 A 
BRANCH  73  76
ATOM     76  S   UNL     1      15.056   0.812  -6.449  1.00  0.00     0.127 S 
ATOM     77  O   UNL     1      16.011   1.795  -5.945  1.00  0.00    -0.237 OA
ATOM     78  O   UNL     1      13.903   1.376  -7.152  1.00  0.00    -0.237 OA
ATOM     79  O   UNL     1      14.725  -0.277  -5.538  1.00  0.00    -0.744 OA
ENDBRANCH  73  76
ENDBRANCH  45  69
BRANCH  57  80
ATOM     80  C   UNL     1      23.359  -4.813  -9.442  1.00  0.00     0.023 A 
ATOM     81  C   UNL     1      24.017  -4.139  -8.394  1.00  0.00     0.012 A 
ATOM     82  C   UNL     1      24.034  -5.026 -10.660  1.00  0.00     0.148 A 
ATOM     83  C   UNL     1      25.314  -3.658  -8.565  1.00  0.00     0.002 A 
ATOM     84  C   UNL     1      25.345  -4.587 -10.807  1.00  0.00     0.091 A 
ATOM     85  F   UNL     1      23.384  -5.652 -11.651  1.00  0.00    -0.205 F 
ATOM     86  C   UNL     1      25.982  -3.893  -9.765  1.00  0.00     0.022 A 
BRANCH  84  87
ATOM     87  S   UNL     1      26.313  -4.929 -12.280  1.00  0.00     0.127 S 
ATOM     88  O   UNL     1      26.349  -3.617 -12.925  1.00  0.00    -0.237 OA
ATOM     89  O   UNL     1      27.591  -5.368 -11.718  1.00  0.00    -0.237 OA
ATOM     90  O   UNL     1      25.587  -5.963 -13.005  1.00  0.00    -0.744 OA
ENDBRANCH  84  87
ENDBRANCH  57  80
ENDBRANCH  31  32
ENDBRANCH  23  26
ENDBRANCH  21  22
ENDBRANCH   1  21
TORSDOF 15
