REMARK SMILES CC1(C)O[C@](C)([C@H](O)C2CCCCC2)CC[C@H]1C(=O)NCCCNC(=O)c1ccc(-c2c3nc(c(-c4cccc(S(=O)(=O)[O-])c4F)c4ccc([nH]4)c(-c4cccc(S(=O)(=O)[O-])c4F)c4nc(c(-c5cccc(S(=O)(=O)[O-])c5F)c5ccc2[nH]5)C=C4)C=C3)cc1
REMARK SMILES IDX 22 1 21 2 20 3 18 4 19 5 17 7 1 8 2 9 3 10 4 11 5 12 16 13
REMARK SMILES IDX 6 14 15 15 7 16 9 17 10 18 14 19 11 20 13 21 12 22 8 23
REMARK SMILES IDX 23 25 24 26 25 27 26 29 27 30 28 31 89 32 29 33 88 34 30 35
REMARK SMILES IDX 31 36 32 37 82 38 33 39 87 40 81 41 83 42 34 43 86 44 80 45
REMARK SMILES IDX 79 46 35 48 67 49 47 50 66 51 48 52 51 53 65 54 84 55 49 56
REMARK SMILES IDX 50 57 64 59 85 60 52 61 36 62 37 63 45 64 38 65 40 66 46 67
REMARK SMILES IDX 39 68 41 69 42 70 43 71 44 72 68 73 69 74 77 75 70 76 72 77
REMARK SMILES IDX 78 78 71 79 73 80 74 81 75 82 76 83 53 84 54 85 62 86 55 87
REMARK SMILES IDX 57 88 63 89 56 90 58 91 59 92 60 93 61 94
REMARK H PARENT 20 6 8 24 24 28 83 47 51 58
REMARK Flexibility Score: inf
ROOT
ATOM      1  C   UNL     1      -5.518  -2.615   5.892  1.00  0.00     0.042 C 
ENDROOT
BRANCH   1   2
ATOM      2  C   UNL     1      -5.211  -3.672   4.839  1.00  0.00     0.117 C 
BRANCH   2   3
ATOM      3  N   UNL     1      -6.389  -4.093   4.101  1.00  0.00    -0.356 N 
ATOM      4  C   UNL     1      -6.781  -3.946   2.811  1.00  0.00     0.226 C 
ATOM      5  O   UNL     1      -7.881  -4.430   2.522  1.00  0.00    -0.275 OA
ATOM      6  H   UNL     1      -7.038  -4.587   4.652  1.00  0.00     0.163 HD
BRANCH   4   7
ATOM      7  C   UNL     1      -5.959  -3.249   1.723  1.00  0.00     0.110 C 
ATOM      8  C   UNL     1      -6.044  -0.963   3.048  1.00  0.00     0.043 C 
ATOM      9  C   UNL     1      -6.036  -1.694   1.710  1.00  0.00     0.075 C 
ATOM     10  C   UNL     1      -7.370  -1.292   1.031  1.00  0.00     0.043 C 
ATOM     11  O   UNL     1      -5.019  -1.072   0.911  1.00  0.00    -0.366 OA
ATOM     12  C   UNL     1      -3.683  -1.583   0.907  1.00  0.00     0.092 C 
ATOM     13  C   UNL     1      -4.591  -3.893   1.478  1.00  0.00     0.019 C 
ATOM     14  C   UNL     1      -2.945  -1.463   2.255  1.00  0.00     0.045 C 
ATOM     15  C   UNL     1      -3.745  -3.073   0.507  1.00  0.00     0.039 C 
BRANCH  12  16
ATOM     16  C   UNL     1      -2.933  -0.773  -0.215  1.00  0.00     0.149 C 
BRANCH  16  17
ATOM     17  C   UNL     1      -3.008   0.796  -0.163  1.00  0.00     0.021 C 
ATOM     18  C   UNL     1      -2.627   1.532   1.131  1.00  0.00     0.006 C 
ATOM     19  C   UNL     1      -2.219   1.453  -1.316  1.00  0.00     0.006 C 
ATOM     20  C   UNL     1      -1.135   1.506   1.436  1.00  0.00     0.000 C 
ATOM     21  C   UNL     1      -0.708   1.537  -1.079  1.00  0.00     0.000 C 
ATOM     22  C   UNL     1      -0.337   2.112   0.287  1.00  0.00     0.000 C 
ENDBRANCH  16  17
BRANCH  16  23
ATOM     23  O   UNL     1      -1.609  -1.273  -0.408  1.00  0.00    -0.390 OA
ATOM     24  H   UNL     1      -1.080  -1.101   0.387  1.00  0.00     0.211 HD
ENDBRANCH  16  23
ENDBRANCH  12  16
ENDBRANCH   4   7
ENDBRANCH   2   3
ENDBRANCH   1   2
BRANCH   1  25
ATOM     25  C   UNL     1      -6.309  -3.140   7.072  1.00  0.00     0.118 C 
BRANCH  25  26
ATOM     26  N   UNL     1      -5.453  -3.801   8.039  1.00  0.00    -0.352 N 
ATOM     27  C   UNL     1      -5.047  -3.374   9.281  1.00  0.00     0.251 C 
ATOM     28  H   UNL     1      -5.114  -4.684   7.766  1.00  0.00     0.163 HD
ATOM     29  O   UNL     1      -4.112  -3.952   9.832  1.00  0.00    -0.269 OA
BRANCH  27  30
ATOM     30  C   UNL     1      -5.714  -2.231   9.951  1.00  0.00     0.039 A 
ATOM     31  C   UNL     1      -4.957  -1.385  10.768  1.00  0.00     0.014 A 
ATOM     32  C   UNL     1      -7.090  -2.019   9.833  1.00  0.00     0.014 A 
ATOM     33  C   UNL     1      -5.575  -0.329  11.444  1.00  0.00     0.010 A 
ATOM     34  C   UNL     1      -7.679  -0.896  10.402  1.00  0.00     0.010 A 
ATOM     35  C   UNL     1      -6.943  -0.071  11.261  1.00  0.00    -0.014 A 
BRANCH  35  36
ATOM     36  C   UNL     1      -7.650   0.987  12.029  1.00  0.00     0.031 A 
ATOM     37  C   UNL     1      -8.787   0.605  12.948  1.00  0.00     0.074 A 
ATOM     38  C   UNL     1      -7.328   2.284  11.857  1.00  0.00     0.049 A 
ATOM     39  N   UNL     1      -9.576   1.374  13.652  1.00  0.00    -0.248 NA
ATOM     40  C   UNL     1      -9.106  -0.830  13.058  1.00  0.00     0.031 C 
ATOM     41  C   UNL     1      -6.308   2.791  10.937  1.00  0.00     0.029 A 
ATOM     42  N   UNL     1      -7.845   3.416  12.436  1.00  0.00    -0.354 N 
ATOM     43  C   UNL     1     -10.510   0.526  14.238  1.00  0.00     0.074 A 
ATOM     44  C   UNL     1     -10.221  -0.810  13.771  1.00  0.00     0.031 C 
ATOM     45  C   UNL     1      -6.266   4.131  11.023  1.00  0.00     0.029 A 
ATOM     46  C   UNL     1      -7.269   4.580  11.984  1.00  0.00     0.049 A 
ATOM     47  H   UNL     1      -8.561   3.397  13.111  1.00  0.00     0.167 HD
ATOM     48  C   UNL     1     -11.493   0.820  15.120  1.00  0.00     0.034 A 
ATOM     49  C   UNL     1      -7.519   5.863  12.312  1.00  0.00     0.034 A 
ATOM     50  C   UNL     1     -11.723   2.136  15.648  1.00  0.00     0.049 A 
ATOM     51  C   UNL     1      -8.557   6.157  13.362  1.00  0.00     0.074 A 
ATOM     52  C   UNL     1     -12.624   2.529  16.620  1.00  0.00     0.029 A 
ATOM     53  N   UNL     1     -11.035   3.272  15.253  1.00  0.00    -0.354 N 
ATOM     54  N   UNL     1      -9.326   5.322  14.020  1.00  0.00    -0.248 NA
ATOM     55  C   UNL     1      -8.731   7.564  13.751  1.00  0.00     0.031 C 
ATOM     56  C   UNL     1     -12.487   3.908  16.808  1.00  0.00     0.029 A 
ATOM     57  C   UNL     1     -11.486   4.368  15.966  1.00  0.00     0.049 A 
ATOM     58  H   UNL     1     -10.329   3.296  14.568  1.00  0.00     0.167 HD
ATOM     59  C   UNL     1     -10.042   6.095  14.927  1.00  0.00     0.074 A 
ATOM     60  C   UNL     1      -9.602   7.463  14.746  1.00  0.00     0.031 C 
ATOM     61  C   UNL     1     -10.987   5.710  15.819  1.00  0.00     0.034 A 
BRANCH  48  62
ATOM     62  C   UNL     1     -12.348  -0.316  15.623  1.00  0.00     0.023 A 
ATOM     63  C   UNL     1     -11.788  -1.276  16.492  1.00  0.00     0.012 A 
ATOM     64  C   UNL     1     -13.709  -0.411  15.275  1.00  0.00     0.148 A 
ATOM     65  C   UNL     1     -12.556  -2.336  16.972  1.00  0.00     0.002 A 
ATOM     66  C   UNL     1     -14.481  -1.444  15.797  1.00  0.00     0.091 A 
ATOM     67  F   UNL     1     -14.220   0.496  14.431  1.00  0.00    -0.205 F 
ATOM     68  C   UNL     1     -13.904  -2.413  16.633  1.00  0.00     0.022 A 
BRANCH  66  69
ATOM     69  S   UNL     1     -16.245  -1.585  15.488  1.00  0.00     0.127 S 
ATOM     70  O   UNL     1     -16.296  -2.738  14.589  1.00  0.00    -0.237 OA
ATOM     71  O   UNL     1     -16.774  -1.835  16.829  1.00  0.00    -0.237 OA
ATOM     72  O   UNL     1     -16.653  -0.317  14.902  1.00  0.00    -0.744 OA
ENDBRANCH  66  69
ENDBRANCH  48  62
BRANCH  49  73
ATOM     73  C   UNL     1      -6.708   6.958  11.707  1.00  0.00     0.023 A 
ATOM     74  C   UNL     1      -5.773   7.645  12.507  1.00  0.00     0.012 A 
ATOM     75  C   UNL     1      -6.830   7.301  10.347  1.00  0.00     0.148 A 
ATOM     76  C   UNL     1      -5.000   8.676  11.973  1.00  0.00     0.002 A 
ATOM     77  C   UNL     1      -6.018   8.293   9.808  1.00  0.00     0.091 A 
ATOM     78  F   UNL     1      -7.732   6.643   9.605  1.00  0.00    -0.205 F 
ATOM     79  C   UNL     1      -5.115   8.993  10.622  1.00  0.00     0.022 A 
BRANCH  77  80
ATOM     80  S   UNL     1      -6.005   8.674   8.052  1.00  0.00     0.127 S 
ATOM     81  O   UNL     1      -6.674   9.973   8.024  1.00  0.00    -0.237 OA
ATOM     82  O   UNL     1      -4.570   8.715   7.762  1.00  0.00    -0.237 OA
ATOM     83  O   UNL     1      -6.714   7.580   7.409  1.00  0.00    -0.744 OA
ENDBRANCH  77  80
ENDBRANCH  49  73
BRANCH  61  84
ATOM     84  C   UNL     1     -11.582   6.768  16.710  1.00  0.00     0.023 A 
ATOM     85  C   UNL     1     -12.493   7.702  16.180  1.00  0.00     0.012 A 
ATOM     86  C   UNL     1     -11.301   6.779  18.091  1.00  0.00     0.148 A 
ATOM     87  C   UNL     1     -13.094   8.650  17.006  1.00  0.00     0.002 A 
ATOM     88  C   UNL     1     -11.941   7.696  18.916  1.00  0.00     0.091 A 
ATOM     89  F   UNL     1     -10.415   5.894  18.572  1.00  0.00    -0.205 F 
ATOM     90  C   UNL     1     -12.828   8.640  18.374  1.00  0.00     0.022 A 
BRANCH  88  91
ATOM     91  S   UNL     1     -11.733   7.686  20.700  1.00  0.00     0.127 S 
ATOM     92  O   UNL     1     -10.855   8.836  20.904  1.00  0.00    -0.237 OA
ATOM     93  O   UNL     1     -13.104   7.872  21.175  1.00  0.00    -0.237 OA
ATOM     94  O   UNL     1     -11.155   6.389  21.026  1.00  0.00    -0.744 OA
ENDBRANCH  88  91
ENDBRANCH  61  84
ENDBRANCH  35  36
ENDBRANCH  27  30
ENDBRANCH  25  26
ENDBRANCH   1  25
TORSDOF 16
