REMARK SMILES Cc1ccc2cc(C[N@H+]3CC[NH2+][C@H](C(=O)NCCCNC(=O)c4ccc(-c5c6nc(c(-c7cccc(S(=O)(=O)[O-])c7F)c7ccc([nH]7)c(-c7cccc(S(=O)(=O)[O-])c7F)c7nc(c(-c8cccc(S(=O)(=O)[O-])c8F)c8ccc5[nH]8)C=C7)C=C6)cc4)C3)c(N3CCOCC3)nc2c1
REMARK SMILES IDX 18 1 17 2 16 3 14 4 15 5 13 7 9 8 10 9 86 10 11 12 12 13
REMARK SMILES IDX 8 16 7 17 1 18 2 19 3 20 96 21 4 22 95 23 5 24 94 25 6 26
REMARK SMILES IDX 87 27 88 28 89 29 93 30 90 31 92 32 91 33 19 34 20 35 21 36
REMARK SMILES IDX 22 38 23 39 24 40 85 41 25 42 84 43 26 44 27 45 28 46 78 47
REMARK SMILES IDX 29 48 83 49 77 50 79 51 30 52 82 53 76 54 75 55 31 57 63 58
REMARK SMILES IDX 43 59 62 60 44 61 47 62 61 63 80 64 45 65 46 66 60 68 81 69
REMARK SMILES IDX 48 70 32 71 33 72 41 73 34 74 36 75 42 76 35 77 37 78 38 79
REMARK SMILES IDX 39 80 40 81 64 82 65 83 73 84 66 85 68 86 74 87 67 88 69 89
REMARK SMILES IDX 70 90 71 91 72 92 49 93 50 94 58 95 51 96 53 97 59 98 52 99
REMARK SMILES IDX 54 100 55 101 56 102 57 103
REMARK H PARENT 16 6 9 11 12 14 12 15 20 37 79 56 47 67
REMARK Flexibility Score: inf
ROOT
ATOM      1  C   UNL     1      -2.979   1.467   0.699  1.00  0.00     0.042 C 
ENDROOT
BRANCH   1   2
ATOM      2  C   UNL     1      -3.942   2.577   1.079  1.00  0.00     0.118 C 
BRANCH   2   3
ATOM      3  N   UNL     1      -3.893   2.933   2.488  1.00  0.00    -0.351 N 
ATOM      4  C   UNL     1      -3.489   4.102   3.071  1.00  0.00     0.284 C 
ATOM      5  O   UNL     1      -3.639   4.215   4.290  1.00  0.00    -0.268 OA
ATOM      6  H   UNL     1      -4.194   2.232   3.111  1.00  0.00     0.163 HD
BRANCH   4   7
ATOM      7  C   UNL     1      -2.764   5.163   2.233  1.00  0.00     0.328 C 
ATOM      8  N   UNL     1      -1.622   7.443   2.413  1.00  0.00    -0.321 N 
ATOM      9  C   UNL     1      -2.155   7.708   1.065  1.00  0.00     0.324 C 
ATOM     10  C   UNL     1      -2.360   6.376   3.114  1.00  0.00     0.339 C 
ATOM     11  H   UNL     1      -1.810   8.294   2.943  1.00  0.00     0.348 HD
ATOM     12  C   UNL     1      -2.681   6.489   0.270  1.00  0.00     0.323 C 
ATOM     13  N   UNL     1      -3.573   5.636   1.078  1.00  0.00    -0.327 N 
ATOM     14  H   UNL     1      -3.898   4.843   0.526  1.00  0.00     0.347 HD
ATOM     15  H   UNL     1      -4.397   6.151   1.388  1.00  0.00     0.347 HD
BRANCH   8  16
ATOM     16  C   UNL     1      -0.154   7.348   2.504  1.00  0.00     0.303 C 
BRANCH  16  17
ATOM     17  C   UNL     1       0.509   6.145   1.868  1.00  0.00     0.049 A 
ATOM     18  C   UNL     1       1.268   0.067  -0.251  1.00  0.00     0.044 C 
ATOM     19  C   UNL     1       1.108   1.349   0.516  1.00  0.00    -0.049 A 
ATOM     20  C   UNL     1       0.759   1.319   1.865  1.00  0.00     0.004 A 
ATOM     21  C   UNL     1       1.326   2.594  -0.109  1.00  0.00     0.032 A 
ATOM     22  C   UNL     1       0.599   2.511   2.562  1.00  0.00     0.010 A 
ATOM     23  C   UNL     1       1.150   3.808   0.557  1.00  0.00     0.073 A 
ATOM     24  C   UNL     1       0.780   3.741   1.910  1.00  0.00     0.001 A 
ATOM     25  N   UNL     1       1.293   4.992  -0.087  1.00  0.00    -0.230 NA
ATOM     26  C   UNL     1       0.512   4.935   2.572  1.00  0.00     0.023 A 
ATOM     27  C   UNL     1       1.002   6.149   0.556  1.00  0.00     0.138 A 
BRANCH  27  28
ATOM     28  N   UNL     1       1.149   7.347  -0.119  1.00  0.00    -0.352 N 
ATOM     29  C   UNL     1       2.185   8.281   0.345  1.00  0.00     0.146 C 
ATOM     30  C   UNL     1       0.948   7.403  -1.567  1.00  0.00     0.146 C 
ATOM     31  C   UNL     1       1.742   9.701  -0.044  1.00  0.00     0.181 C 
ATOM     32  C   UNL     1       0.566   8.857  -1.926  1.00  0.00     0.181 C 
ATOM     33  O   UNL     1       1.542   9.814  -1.465  1.00  0.00    -0.378 OA
ENDBRANCH  27  28
ENDBRANCH  16  17
ENDBRANCH   8  16
ENDBRANCH   4   7
ENDBRANCH   2   3
ENDBRANCH   1   2
BRANCH   1  34
ATOM     34  C   UNL     1      -3.187   0.170   1.461  1.00  0.00     0.118 C 
BRANCH  34  35
ATOM     35  N   UNL     1      -4.505  -0.416   1.234  1.00  0.00    -0.352 N 
ATOM     36  C   UNL     1      -4.841  -1.653   0.736  1.00  0.00     0.251 C 
ATOM     37  H   UNL     1      -5.266   0.161   1.474  1.00  0.00     0.163 HD
ATOM     38  O   UNL     1      -6.007  -1.895   0.434  1.00  0.00    -0.269 OA
BRANCH  36  39
ATOM     39  C   UNL     1      -3.787  -2.670   0.540  1.00  0.00     0.039 A 
ATOM     40  C   UNL     1      -2.797  -2.841   1.507  1.00  0.00     0.014 A 
ATOM     41  C   UNL     1      -3.760  -3.426  -0.634  1.00  0.00     0.014 A 
ATOM     42  C   UNL     1      -1.672  -3.596   1.206  1.00  0.00     0.010 A 
ATOM     43  C   UNL     1      -2.680  -4.280  -0.881  1.00  0.00     0.010 A 
ATOM     44  C   UNL     1      -1.594  -4.322   0.006  1.00  0.00    -0.014 A 
BRANCH  44  45
ATOM     45  C   UNL     1      -0.356  -5.096  -0.281  1.00  0.00     0.031 A 
ATOM     46  C   UNL     1       0.498  -4.781  -1.483  1.00  0.00     0.074 A 
ATOM     47  C   UNL     1       0.043  -6.040   0.596  1.00  0.00     0.049 A 
ATOM     48  N   UNL     1       1.653  -5.296  -1.819  1.00  0.00    -0.248 NA
ATOM     49  C   UNL     1       0.003  -3.768  -2.430  1.00  0.00     0.031 C 
ATOM     50  C   UNL     1      -0.708  -6.454   1.785  1.00  0.00     0.029 A 
ATOM     51  N   UNL     1       1.185  -6.799   0.647  1.00  0.00    -0.354 N 
ATOM     52  C   UNL     1       2.000  -4.706  -3.029  1.00  0.00     0.074 A 
ATOM     53  C   UNL     1       0.932  -3.797  -3.377  1.00  0.00     0.031 C 
ATOM     54  C   UNL     1       0.018  -7.342   2.478  1.00  0.00     0.029 A 
ATOM     55  C   UNL     1       1.257  -7.609   1.757  1.00  0.00     0.049 A 
ATOM     56  H   UNL     1       1.885  -6.766  -0.044  1.00  0.00     0.167 HD
ATOM     57  C   UNL     1       3.117  -4.887  -3.770  1.00  0.00     0.034 A 
ATOM     58  C   UNL     1       2.208  -8.476   2.155  1.00  0.00     0.034 A 
ATOM     59  C   UNL     1       4.205  -5.747  -3.397  1.00  0.00     0.049 A 
ATOM     60  C   UNL     1       3.443  -8.646   1.322  1.00  0.00     0.074 A 
ATOM     61  C   UNL     1       5.403  -5.943  -4.062  1.00  0.00     0.029 A 
ATOM     62  N   UNL     1       4.233  -6.549  -2.270  1.00  0.00    -0.354 N 
ATOM     63  N   UNL     1       3.785  -8.010   0.228  1.00  0.00    -0.248 NA
ATOM     64  C   UNL     1       4.430  -9.636   1.777  1.00  0.00     0.031 C 
ATOM     65  C   UNL     1       6.150  -6.879  -3.344  1.00  0.00     0.029 A 
ATOM     66  C   UNL     1       5.425  -7.248  -2.222  1.00  0.00     0.049 A 
ATOM     67  H   UNL     1       3.512  -6.613  -1.602  1.00  0.00     0.167 HD
ATOM     68  C   UNL     1       5.031  -8.509  -0.127  1.00  0.00     0.074 A 
ATOM     69  C   UNL     1       5.392  -9.492   0.873  1.00  0.00     0.031 C 
ATOM     70  C   UNL     1       5.796  -8.186  -1.195  1.00  0.00     0.034 A 
BRANCH  57  71
ATOM     71  C   UNL     1       3.262  -4.106  -5.047  1.00  0.00     0.023 A 
ATOM     72  C   UNL     1       3.649  -2.753  -4.989  1.00  0.00     0.012 A 
ATOM     73  C   UNL     1       3.141  -4.742  -6.298  1.00  0.00     0.148 A 
ATOM     74  C   UNL     1       3.906  -2.040  -6.159  1.00  0.00     0.002 A 
ATOM     75  C   UNL     1       3.428  -4.034  -7.459  1.00  0.00     0.091 A 
ATOM     76  F   UNL     1       2.767  -6.029  -6.325  1.00  0.00    -0.205 F 
ATOM     77  C   UNL     1       3.807  -2.682  -7.391  1.00  0.00     0.022 A 
BRANCH  75  78
ATOM     78  S   UNL     1       3.385  -4.779  -9.092  1.00  0.00     0.127 S 
ATOM     79  O   UNL     1       2.304  -4.027  -9.729  1.00  0.00    -0.237 OA
ATOM     80  O   UNL     1       4.722  -4.476  -9.602  1.00  0.00    -0.237 OA
ATOM     81  O   UNL     1       3.113  -6.194  -8.885  1.00  0.00    -0.744 OA
ENDBRANCH  75  78
ENDBRANCH  57  71
BRANCH  58  82
ATOM     82  C   UNL     1       2.027  -9.211   3.435  1.00  0.00     0.023 A 
ATOM     83  C   UNL     1       2.775  -8.830   4.565  1.00  0.00     0.012 A 
ATOM     84  C   UNL     1       1.057 -10.225   3.556  1.00  0.00     0.148 A 
ATOM     85  C   UNL     1       2.560  -9.450   5.796  1.00  0.00     0.002 A 
ATOM     86  C   UNL     1       0.820 -10.809   4.794  1.00  0.00     0.091 A 
ATOM     87  F   UNL     1       0.358 -10.565   2.464  1.00  0.00    -0.205 F 
ATOM     88  C   UNL     1       1.577 -10.429   5.913  1.00  0.00     0.022 A 
BRANCH  86  89
ATOM     89  S   UNL     1      -0.493 -12.004   5.066  1.00  0.00     0.127 S 
ATOM     90  O   UNL     1       0.263 -13.191   5.460  1.00  0.00    -0.237 OA
ATOM     91  O   UNL     1      -1.253 -11.370   6.143  1.00  0.00    -0.237 OA
ATOM     92  O   UNL     1      -1.204 -12.108   3.799  1.00  0.00    -0.744 OA
ENDBRANCH  86  89
ENDBRANCH  58  82
BRANCH  70  93
ATOM     93  C   UNL     1       7.125  -8.866  -1.362  1.00  0.00     0.023 A 
ATOM     94  C   UNL     1       7.174 -10.151  -1.934  1.00  0.00     0.012 A 
ATOM     95  C   UNL     1       8.319  -8.157  -1.128  1.00  0.00     0.148 A 
ATOM     96  C   UNL     1       8.398 -10.718  -2.282  1.00  0.00     0.002 A 
ATOM     97  C   UNL     1       9.532  -8.714  -1.510  1.00  0.00     0.091 A 
ATOM     98  F   UNL     1       8.237  -6.935  -0.582  1.00  0.00    -0.205 F 
ATOM     99  C   UNL     1       9.574  -9.995  -2.085  1.00  0.00     0.022 A 
BRANCH  97 100
ATOM    100  S   UNL     1      11.090  -7.831  -1.373  1.00  0.00     0.127 S 
ATOM    101  O   UNL     1      11.838  -8.689  -0.455  1.00  0.00    -0.237 OA
ATOM    102  O   UNL     1      11.573  -7.845  -2.753  1.00  0.00    -0.237 OA
ATOM    103  O   UNL     1      10.765  -6.511  -0.850  1.00  0.00    -0.744 OA
ENDBRANCH  97 100
ENDBRANCH  70  93
ENDBRANCH  44  45
ENDBRANCH  36  39
ENDBRANCH  34  35
ENDBRANCH   1  34
TORSDOF 16
