REMARK SMILES NC(=O)COc1ccc(/C=C2\SC(=S)N(CCC(=O)NCCCNC(=O)c3ccc(-c4c5nc(c(-c6cccc(S(=O)(=O)[O-])c6F)c6ccc([nH]6)c(-c6cccc(S(=O)(=O)[O-])c6F)c6nc(c(-c7cccc(S(=O)(=O)[O-])c7F)c7ccc4[nH]7)C=C6)C=C5)cc3)C2=O)cc1
REMARK SMILES IDX 18 1 19 2 20 3 17 5 16 6 15 7 10 8 11 9 12 10 90 11 13 12
REMARK SMILES IDX 91 13 14 14 9 15 6 16 7 17 93 18 8 19 92 20 5 21 4 22 2 23
REMARK SMILES IDX 1 24 3 27 21 28 22 29 23 30 24 31 25 32 26 34 27 35 28 36
REMARK SMILES IDX 89 37 29 38 88 39 30 40 31 41 32 42 82 43 33 44 87 45 81 46
REMARK SMILES IDX 83 47 34 48 86 49 80 50 79 51 35 53 67 54 47 55 66 56 48 57
REMARK SMILES IDX 51 58 65 59 84 60 49 61 50 62 64 64 85 65 52 66 36 67 37 68
REMARK SMILES IDX 45 69 38 70 40 71 46 72 39 73 41 74 42 75 43 76 44 77 68 78
REMARK SMILES IDX 69 79 77 80 70 81 72 82 78 83 71 84 73 85 74 86 75 87 76 88
REMARK SMILES IDX 53 89 54 90 62 91 55 92 57 93 63 94 56 95 58 96 59 97 60 98
REMARK SMILES IDX 61 99
REMARK H PARENT 20 4 1 25 1 26 24 33 83 52 51 63
REMARK Flexibility Score: inf
ROOT
ATOM      1  C   UNL     1      -0.697   9.075   6.498  1.00  0.00     0.221 C 
ATOM      2  O   UNL     1      -1.678   9.718   6.878  1.00  0.00    -0.275 OA
ATOM      3  N   UNL     1      -0.149   9.398   5.293  1.00  0.00    -0.356 N 
ATOM      4  H   UNL     1      -0.551  10.189   4.865  1.00  0.00     0.163 HD
ENDROOT
BRANCH   1   5
ATOM      5  C   UNL     1      -0.097   8.003   7.383  1.00  0.00     0.122 C 
BRANCH   5   6
ATOM      6  C   UNL     1      -0.961   6.737   7.459  1.00  0.00     0.137 C 
BRANCH   6   7
ATOM      7  N   UNL     1      -0.415   5.662   6.623  1.00  0.00    -0.292 N 
ATOM      8  C   UNL     1      -0.215   4.529   3.247  1.00  0.00     0.029 C 
ATOM      9  C   UNL     1      -0.091   4.566   4.577  1.00  0.00     0.081 C 
ATOM     10  S   UNL     1       1.130   3.884   5.563  1.00  0.00    -0.054 SA
ATOM     11  C   UNL     1      -0.992   5.427   5.389  1.00  0.00     0.266 C 
ATOM     12  C   UNL     1       0.676   4.878   6.945  1.00  0.00     0.148 C 
ATOM     13  O   UNL     1      -2.022   5.925   4.971  1.00  0.00    -0.268 OA
ATOM     14  S   UNL     1       1.540   4.862   8.374  1.00  0.00    -0.052 S 
BRANCH   8  15
ATOM     15  C   UNL     1       0.621   3.797   2.304  1.00  0.00    -0.024 A 
ATOM     16  C   UNL     1       1.890   2.423   0.216  1.00  0.00     0.120 A 
ATOM     17  C   UNL     1       2.394   3.648   0.656  1.00  0.00     0.047 A 
ATOM     18  C   UNL     1       0.801   1.862   0.876  1.00  0.00     0.047 A 
ATOM     19  C   UNL     1       1.750   4.346   1.688  1.00  0.00     0.012 A 
ATOM     20  C   UNL     1       0.185   2.533   1.928  1.00  0.00     0.012 A 
BRANCH  16  21
ATOM     21  O   UNL     1       2.546   1.813  -0.818  1.00  0.00    -0.484 OA
BRANCH  21  22
ATOM     22  C   UNL     1       1.708   1.180  -1.787  1.00  0.00     0.329 C 
BRANCH  22  23
ATOM     23  C   UNL     1       1.298  -0.276  -1.530  1.00  0.00     0.255 C 
ATOM     24  N   UNL     1       1.848  -0.873  -0.434  1.00  0.00    -0.367 N 
ATOM     25  H   UNL     1       1.623  -1.807  -0.217  1.00  0.00     0.159 HD
ATOM     26  H   UNL     1       2.469  -0.371   0.141  1.00  0.00     0.159 HD
ATOM     27  O   UNL     1       0.532  -0.896  -2.260  1.00  0.00    -0.271 OA
ENDBRANCH  22  23
ENDBRANCH  21  22
ENDBRANCH  16  21
ENDBRANCH   8  15
ENDBRANCH   6   7
ENDBRANCH   5   6
ENDBRANCH   1   5
BRANCH   3  28
ATOM     28  C   UNL     1       0.925   8.784   4.525  1.00  0.00     0.117 C 
BRANCH  28  29
ATOM     29  C   UNL     1       0.386   7.872   3.427  1.00  0.00     0.042 C 
BRANCH  29  30
ATOM     30  C   UNL     1      -0.303   8.556   2.249  1.00  0.00     0.118 C 
BRANCH  30  31
ATOM     31  N   UNL     1       0.523   8.540   1.056  1.00  0.00    -0.352 N 
ATOM     32  C   UNL     1       0.602   7.716  -0.041  1.00  0.00     0.251 C 
ATOM     33  H   UNL     1       1.169   9.282   1.026  1.00  0.00     0.163 HD
ATOM     34  O   UNL     1       1.577   7.898  -0.777  1.00  0.00    -0.269 OA
BRANCH  32  35
ATOM     35  C   UNL     1      -0.367   6.633  -0.395  1.00  0.00     0.039 A 
ATOM     36  C   UNL     1       0.122   5.596  -1.210  1.00  0.00     0.014 A 
ATOM     37  C   UNL     1      -1.732   6.635  -0.098  1.00  0.00     0.014 A 
ATOM     38  C   UNL     1      -0.717   4.582  -1.692  1.00  0.00     0.010 A 
ATOM     39  C   UNL     1      -2.574   5.600  -0.557  1.00  0.00     0.010 A 
ATOM     40  C   UNL     1      -2.077   4.572  -1.372  1.00  0.00    -0.014 A 
BRANCH  40  41
ATOM     41  C   UNL     1      -2.978   3.562  -1.999  1.00  0.00     0.031 A 
ATOM     42  C   UNL     1      -3.744   3.922  -3.236  1.00  0.00     0.074 A 
ATOM     43  C   UNL     1      -3.091   2.316  -1.501  1.00  0.00     0.049 A 
ATOM     44  N   UNL     1      -4.558   3.183  -3.943  1.00  0.00    -0.248 NA
ATOM     45  C   UNL     1      -3.588   5.297  -3.732  1.00  0.00     0.031 C 
ATOM     46  C   UNL     1      -2.434   1.859  -0.289  1.00  0.00     0.029 A 
ATOM     47  N   UNL     1      -3.778   1.208  -1.937  1.00  0.00    -0.354 N 
ATOM     48  C   UNL     1      -5.054   4.014  -4.936  1.00  0.00     0.074 A 
ATOM     49  C   UNL     1      -4.433   5.309  -4.753  1.00  0.00     0.031 C 
ATOM     50  C   UNL     1      -2.680   0.552  -0.105  1.00  0.00     0.029 A 
ATOM     51  C   UNL     1      -3.577   0.086  -1.159  1.00  0.00     0.049 A 
ATOM     52  H   UNL     1      -4.360   1.214  -2.731  1.00  0.00     0.167 HD
ATOM     53  C   UNL     1      -5.955   3.728  -5.904  1.00  0.00     0.034 A 
ATOM     54  C   UNL     1      -4.069  -1.165  -1.275  1.00  0.00     0.034 A 
ATOM     55  C   UNL     1      -6.572   2.443  -6.090  1.00  0.00     0.049 A 
ATOM     56  C   UNL     1      -5.035  -1.463  -2.397  1.00  0.00     0.074 A 
ATOM     57  C   UNL     1      -7.518   2.073  -7.030  1.00  0.00     0.029 A 
ATOM     58  N   UNL     1      -6.309   1.318  -5.324  1.00  0.00    -0.354 N 
ATOM     59  N   UNL     1      -5.443  -0.679  -3.365  1.00  0.00    -0.248 NA
ATOM     60  C   UNL     1      -5.614  -2.816  -2.440  1.00  0.00     0.031 C 
ATOM     61  C   UNL     1      -7.840   0.728  -6.822  1.00  0.00     0.029 A 
ATOM     62  C   UNL     1      -7.073   0.253  -5.771  1.00  0.00     0.049 A 
ATOM     63  H   UNL     1      -5.673   1.281  -4.574  1.00  0.00     0.167 HD
ATOM     64  C   UNL     1      -6.310  -1.445  -4.137  1.00  0.00     0.074 A 
ATOM     65  C   UNL     1      -6.337  -2.768  -3.550  1.00  0.00     0.031 C 
ATOM     66  C   UNL     1      -7.046  -1.075  -5.214  1.00  0.00     0.034 A 
BRANCH  53  67
ATOM     67  C   UNL     1      -6.338   4.844  -6.834  1.00  0.00     0.023 A 
ATOM     68  C   UNL     1      -5.444   5.253  -7.843  1.00  0.00     0.012 A 
ATOM     69  C   UNL     1      -7.597   5.466  -6.726  1.00  0.00     0.148 A 
ATOM     70  C   UNL     1      -5.785   6.286  -8.714  1.00  0.00     0.002 A 
ATOM     71  C   UNL     1      -7.946   6.467  -7.623  1.00  0.00     0.091 A 
ATOM     72  F   UNL     1      -8.421   5.075  -5.743  1.00  0.00    -0.205 F 
ATOM     73  C   UNL     1      -7.038   6.886  -8.610  1.00  0.00     0.022 A 
BRANCH  71  74
ATOM     74  S   UNL     1      -9.558   7.258  -7.613  1.00  0.00     0.127 S 
ATOM     75  O   UNL     1      -9.216   8.618  -7.197  1.00  0.00    -0.237 OA
ATOM     76  O   UNL     1      -9.968   7.134  -9.012  1.00  0.00    -0.237 OA
ATOM     77  O   UNL     1     -10.372   6.505  -6.669  1.00  0.00    -0.744 OA
ENDBRANCH  71  74
ENDBRANCH  53  67
BRANCH  54  78
ATOM     78  C   UNL     1      -3.655  -2.252  -0.334  1.00  0.00     0.023 A 
ATOM     79  C   UNL     1      -2.954  -3.369  -0.834  1.00  0.00     0.012 A 
ATOM     80  C   UNL     1      -3.961  -2.208   1.040  1.00  0.00     0.148 A 
ATOM     81  C   UNL     1      -2.614  -4.437   0.000  1.00  0.00     0.002 A 
ATOM     82  C   UNL     1      -3.552  -3.240   1.880  1.00  0.00     0.091 A 
ATOM     83  F   UNL     1      -4.654  -1.160   1.508  1.00  0.00    -0.205 F 
ATOM     84  C   UNL     1      -2.902  -4.368   1.359  1.00  0.00     0.022 A 
BRANCH  82  85
ATOM     85  S   UNL     1      -3.732  -3.128   3.664  1.00  0.00     0.127 S 
ATOM     86  O   UNL     1      -4.935  -3.920   3.900  1.00  0.00    -0.237 OA
ATOM     87  O   UNL     1      -2.488  -3.738   4.140  1.00  0.00    -0.237 OA
ATOM     88  O   UNL     1      -3.833  -1.701   3.945  1.00  0.00    -0.744 OA
ENDBRANCH  82  85
ENDBRANCH  54  78
BRANCH  66  89
ATOM     89  C   UNL     1      -7.936  -2.113  -5.847  1.00  0.00     0.023 A 
ATOM     90  C   UNL     1      -9.115  -2.518  -5.188  1.00  0.00     0.012 A 
ATOM     91  C   UNL     1      -7.655  -2.617  -7.132  1.00  0.00     0.148 A 
ATOM     92  C   UNL     1      -9.986  -3.428  -5.787  1.00  0.00     0.002 A 
ATOM     93  C   UNL     1      -8.551  -3.487  -7.742  1.00  0.00     0.091 A 
ATOM     94  F   UNL     1      -6.520  -2.234  -7.735  1.00  0.00    -0.205 F 
ATOM     95  C   UNL     1      -9.710  -3.902  -7.067  1.00  0.00     0.022 A 
BRANCH  93  96
ATOM     96  S   UNL     1      -8.330  -4.073  -9.427  1.00  0.00     0.127 S 
ATOM     97  O   UNL     1      -7.961  -5.471  -9.210  1.00  0.00    -0.237 OA
ATOM     98  O   UNL     1      -9.661  -3.876 -10.001  1.00  0.00    -0.237 OA
ATOM     99  O   UNL     1      -7.291  -3.235 -10.010  1.00  0.00    -0.744 OA
ENDBRANCH  93  96
ENDBRANCH  66  89
ENDBRANCH  40  41
ENDBRANCH  32  35
ENDBRANCH  30  31
ENDBRANCH  29  30
ENDBRANCH  28  29
ENDBRANCH   3  28
TORSDOF 19
