REMARK SMILES COCc1cccc(O[C@@H](F)C(=O)NCCCNC(=O)c2ccc(-c3c4nc(c(-c5cccc(S(=O)(=O)[O-])c5F)c5ccc([nH]5)c(-c5cccc(S(=O)(=O)[O-])c5F)c5nc(c(-c6cccc(S(=O)(=O)[O-])c6F)c6ccc3[nH]6)C=C5)C=C4)cc2)c1
REMARK SMILES IDX 15 1 14 2 12 3 13 4 10 6 11 7 9 8 8 9 4 10 5 11 84 12 6 13
REMARK SMILES IDX 7 14 3 15 2 16 1 17 16 18 17 19 18 20 19 21 20 23 21 24
REMARK SMILES IDX 22 25 83 26 23 27 82 28 24 29 25 30 26 31 76 32 27 33 81 34
REMARK SMILES IDX 75 35 77 36 28 37 80 38 74 39 73 40 29 42 61 43 41 44 60 45
REMARK SMILES IDX 42 46 45 47 59 48 78 49 43 50 44 51 58 53 79 54 46 55 30 56
REMARK SMILES IDX 31 57 39 58 32 59 34 60 40 61 33 62 35 63 36 64 37 65 38 66
REMARK SMILES IDX 62 67 63 68 71 69 64 70 66 71 72 72 65 73 67 74 68 75 69 76
REMARK SMILES IDX 70 77 47 78 48 79 56 80 49 81 51 82 57 83 50 84 52 85 53 86
REMARK SMILES IDX 54 87 55 88
REMARK H PARENT 14 5 18 22 77 41 45 52
REMARK Flexibility Score: inf
ROOT
ATOM      1  C   UNL     1       1.837   1.175   1.874  1.00  0.00     0.118 C 
ENDROOT
BRANCH   1   2
ATOM      2  N   UNL     1       2.058  -0.015   2.646  1.00  0.00    -0.350 N 
ATOM      3  C   UNL     1       1.126  -0.715   3.369  1.00  0.00     0.294 C 
ATOM      4  O   UNL     1       1.536  -1.763   3.893  1.00  0.00    -0.267 OA
ATOM      5  H   UNL     1       2.978  -0.367   2.658  1.00  0.00     0.163 HD
BRANCH   3   6
ATOM      6  C   UNL     1      -0.415  -0.324   3.485  1.00  0.00     0.440 C 
ATOM      7  F   UNL     1      -1.135  -0.930   2.488  1.00  0.00    -0.191 F 
BRANCH   6   8
ATOM      8  O   UNL     1      -0.990   0.946   3.777  1.00  0.00    -0.452 OA
BRANCH   8   9
ATOM      9  C   UNL     1      -1.090   1.885   2.790  1.00  0.00     0.124 A 
ATOM     10  C   UNL     1      -0.891   2.542   0.460  1.00  0.00    -0.019 A 
ATOM     11  C   UNL     1      -0.566   3.844   0.874  1.00  0.00     0.006 A 
ATOM     12  C   UNL     1      -1.245   1.595   1.434  1.00  0.00     0.052 A 
ATOM     13  C   UNL     1      -0.578   4.184   2.229  1.00  0.00     0.004 A 
ATOM     14  C   UNL     1      -0.834   3.202   3.188  1.00  0.00     0.046 A 
BRANCH  10  15
ATOM     15  C   UNL     1      -0.679   2.155  -0.991  1.00  0.00     0.195 C 
BRANCH  15  16
ATOM     16  O   UNL     1      -1.160   0.852  -1.337  1.00  0.00    -0.380 OA
ATOM     17  C   UNL     1      -0.185  -0.178  -1.223  1.00  0.00     0.195 C 
ENDBRANCH  15  16
ENDBRANCH  10  15
ENDBRANCH   8   9
ENDBRANCH   6   8
ENDBRANCH   3   6
ENDBRANCH   1   2
BRANCH   1  18
ATOM     18  C   UNL     1       3.016   2.093   1.631  1.00  0.00     0.042 C 
BRANCH  18  19
ATOM     19  C   UNL     1       3.978   1.613   0.563  1.00  0.00     0.118 C 
BRANCH  19  20
ATOM     20  N   UNL     1       3.421   1.609  -0.790  1.00  0.00    -0.352 N 
ATOM     21  C   UNL     1       3.387   2.534  -1.813  1.00  0.00     0.251 C 
ATOM     22  H   UNL     1       2.972   0.764  -1.020  1.00  0.00     0.163 HD
ATOM     23  O   UNL     1       2.711   2.273  -2.808  1.00  0.00    -0.269 OA
BRANCH  21  24
ATOM     24  C   UNL     1       4.099   3.833  -1.739  1.00  0.00     0.039 A 
ATOM     25  C   UNL     1       3.598   4.948  -2.426  1.00  0.00     0.014 A 
ATOM     26  C   UNL     1       5.285   3.966  -1.031  1.00  0.00     0.014 A 
ATOM     27  C   UNL     1       4.240   6.191  -2.321  1.00  0.00     0.010 A 
ATOM     28  C   UNL     1       5.819   5.222  -0.786  1.00  0.00     0.010 A 
ATOM     29  C   UNL     1       5.332   6.350  -1.456  1.00  0.00    -0.014 A 
BRANCH  29  30
ATOM     30  C   UNL     1       6.044   7.641  -1.249  1.00  0.00     0.031 A 
ATOM     31  C   UNL     1       7.545   7.696  -1.430  1.00  0.00     0.074 A 
ATOM     32  C   UNL     1       5.386   8.709  -0.756  1.00  0.00     0.049 A 
ATOM     33  N   UNL     1       8.389   8.632  -1.081  1.00  0.00    -0.248 NA
ATOM     34  C   UNL     1       8.189   6.509  -2.022  1.00  0.00     0.031 C 
ATOM     35  C   UNL     1       3.953   8.764  -0.458  1.00  0.00     0.029 A 
ATOM     36  N   UNL     1       5.848   9.945  -0.377  1.00  0.00    -0.354 N 
ATOM     37  C   UNL     1       9.655   8.116  -1.341  1.00  0.00     0.074 A 
ATOM     38  C   UNL     1       9.472   6.766  -1.823  1.00  0.00     0.031 C 
ATOM     39  C   UNL     1       3.652   9.971   0.047  1.00  0.00     0.029 A 
ATOM     40  C   UNL     1       4.874  10.760   0.154  1.00  0.00     0.049 A 
ATOM     41  H   UNL     1       6.787  10.223  -0.477  1.00  0.00     0.167 HD
ATOM     42  C   UNL     1      10.862   8.720  -1.229  1.00  0.00     0.034 A 
ATOM     43  C   UNL     1       4.960  11.996   0.684  1.00  0.00     0.034 A 
ATOM     44  C   UNL     1      11.029  10.091  -0.836  1.00  0.00     0.049 A 
ATOM     45  C   UNL     1       6.302  12.675   0.728  1.00  0.00     0.074 A 
ATOM     46  C   UNL     1      12.191  10.840  -0.794  1.00  0.00     0.029 A 
ATOM     47  N   UNL     1       9.999  10.922  -0.425  1.00  0.00    -0.354 N 
ATOM     48  N   UNL     1       7.472  12.218   0.353  1.00  0.00    -0.248 NA
ATOM     49  C   UNL     1       6.332  14.055   1.234  1.00  0.00     0.031 C 
ATOM     50  C   UNL     1      11.865  12.121  -0.337  1.00  0.00     0.029 A 
ATOM     51  C   UNL     1      10.496  12.178  -0.128  1.00  0.00     0.049 A 
ATOM     52  H   UNL     1       9.053  10.658  -0.355  1.00  0.00     0.167 HD
ATOM     53  C   UNL     1       8.367  13.265   0.534  1.00  0.00     0.074 A 
ATOM     54  C   UNL     1       7.600  14.386   1.038  1.00  0.00     0.031 C 
ATOM     55  C   UNL     1       9.705  13.296   0.315  1.00  0.00     0.034 A 
BRANCH  42  56
ATOM     56  C   UNL     1      12.088   7.922  -1.600  1.00  0.00     0.023 A 
ATOM     57  C   UNL     1      12.304   7.552  -2.945  1.00  0.00     0.012 A 
ATOM     58  C   UNL     1      13.050   7.577  -0.630  1.00  0.00     0.148 A 
ATOM     59  C   UNL     1      13.427   6.811  -3.309  1.00  0.00     0.002 A 
ATOM     60  C   UNL     1      14.195   6.885  -1.011  1.00  0.00     0.091 A 
ATOM     61  F   UNL     1      12.824   7.920   0.646  1.00  0.00    -0.205 F 
ATOM     62  C   UNL     1      14.376   6.487  -2.345  1.00  0.00     0.022 A 
BRANCH  60  63
ATOM     63  S   UNL     1      15.522   6.494   0.134  1.00  0.00     0.127 S 
ATOM     64  O   UNL     1      15.414   5.040   0.226  1.00  0.00    -0.237 OA
ATOM     65  O   UNL     1      16.699   6.976  -0.585  1.00  0.00    -0.237 OA
ATOM     66  O   UNL     1      15.220   7.220   1.364  1.00  0.00    -0.744 OA
ENDBRANCH  60  63
ENDBRANCH  42  56
BRANCH  43  67
ATOM     67  C   UNL     1       3.730  12.699   1.149  1.00  0.00     0.023 A 
ATOM     68  C   UNL     1       3.252  13.805   0.417  1.00  0.00     0.012 A 
ATOM     69  C   UNL     1       3.020  12.273   2.288  1.00  0.00     0.148 A 
ATOM     70  C   UNL     1       2.113  14.496   0.832  1.00  0.00     0.002 A 
ATOM     71  C   UNL     1       1.854  12.931   2.663  1.00  0.00     0.091 A 
ATOM     72  F   UNL     1       3.492  11.223   2.974  1.00  0.00    -0.205 F 
ATOM     73  C   UNL     1       1.409  14.055   1.948  1.00  0.00     0.022 A 
BRANCH  71  74
ATOM     74  S   UNL     1       0.811  12.354   4.007  1.00  0.00     0.127 S 
ATOM     75  O   UNL     1       1.011  13.397   5.010  1.00  0.00    -0.237 OA
ATOM     76  O   UNL     1      -0.511  12.347   3.379  1.00  0.00    -0.237 OA
ATOM     77  O   UNL     1       1.315  11.033   4.357  1.00  0.00    -0.744 OA
ENDBRANCH  71  74
ENDBRANCH  43  67
BRANCH  55  78
ATOM     78  C   UNL     1      10.423  14.597   0.556  1.00  0.00     0.023 A 
ATOM     79  C   UNL     1      10.632  15.056   1.871  1.00  0.00     0.012 A 
ATOM     80  C   UNL     1      10.961  15.321  -0.526  1.00  0.00     0.148 A 
ATOM     81  C   UNL     1      11.337  16.236   2.103  1.00  0.00     0.002 A 
ATOM     82  C   UNL     1      11.709  16.466  -0.284  1.00  0.00     0.091 A 
ATOM     83  F   UNL     1      10.736  14.874  -1.770  1.00  0.00    -0.205 F 
ATOM     84  C   UNL     1      11.886  16.933   1.028  1.00  0.00     0.022 A 
BRANCH  82  85
ATOM     85  S   UNL     1      12.541  17.366  -1.596  1.00  0.00     0.127 S 
ATOM     86  O   UNL     1      11.743  18.590  -1.669  1.00  0.00    -0.237 OA
ATOM     87  O   UNL     1      13.884  17.544  -1.045  1.00  0.00    -0.237 OA
ATOM     88  O   UNL     1      12.479  16.511  -2.773  1.00  0.00    -0.744 OA
ENDBRANCH  82  85
ENDBRANCH  55  78
ENDBRANCH  29  30
ENDBRANCH  21  24
ENDBRANCH  19  20
ENDBRANCH  18  19
ENDBRANCH   1  18
TORSDOF 17
