REMARK SMILES COc1ccc(C(=O)c2ccccc2)cc1[C@@H](C)C(=O)NCCCNC(=O)c1ccc(-c2c3nc(c(-c4cccc(S(=O)(=O)[O-])c4F)c4ccc([nH]4)c(-c4cccc(S(=O)(=O)[O-])c4F)c4nc(c(-c5cccc(S(=O)(=O)[O-])c5F)c5ccc2[nH]5)C=C4)C=C3)cc1
REMARK SMILES IDX 23 1 22 2 21 3 19 4 20 5 17 7 18 8 16 9 3 10 4 11 5 12 15 13
REMARK SMILES IDX 6 14 2 15 1 16 7 17 8 18 9 19 10 20 14 21 11 22 13 23 12 24
REMARK SMILES IDX 24 25 25 26 26 27 27 29 28 30 29 31 90 32 30 33 89 34 31 35
REMARK SMILES IDX 32 36 33 37 83 38 34 39 88 40 82 41 84 42 35 43 87 44 81 45
REMARK SMILES IDX 80 46 36 48 68 49 48 50 67 51 49 52 52 53 66 54 85 55 50 56
REMARK SMILES IDX 51 57 65 59 86 60 53 61 37 62 38 63 46 64 39 65 41 66 47 67
REMARK SMILES IDX 40 68 42 69 43 70 44 71 45 72 69 73 70 74 78 75 71 76 73 77
REMARK SMILES IDX 79 78 72 79 74 80 75 81 76 82 77 83 54 84 55 85 63 86 56 87
REMARK SMILES IDX 58 88 64 89 57 90 59 91 60 92 61 93 62 94
REMARK H PARENT 21 6 25 28 84 47 52 58
REMARK Flexibility Score: inf
ROOT
ATOM      1  C   UNL     1       4.670   1.760   4.822  1.00  0.00     0.042 C 
ENDROOT
BRANCH   1   2
ATOM      2  C   UNL     1       5.319   1.129   3.594  1.00  0.00     0.117 C 
BRANCH   2   3
ATOM      3  N   UNL     1       4.530   0.036   3.059  1.00  0.00    -0.356 N 
ATOM      4  C   UNL     1       3.654  -0.058   2.022  1.00  0.00     0.227 C 
ATOM      5  O   UNL     1       3.106  -1.160   1.887  1.00  0.00    -0.274 OA
ATOM      6  H   UNL     1       4.653  -0.811   3.545  1.00  0.00     0.163 HD
BRANCH   4   7
ATOM      7  C   UNL     1       3.313   1.083   1.044  1.00  0.00     0.109 C 
ATOM      8  C   UNL     1       4.497   1.818   0.422  1.00  0.00     0.023 C 
BRANCH   7   9
ATOM      9  C   UNL     1       2.196   1.994   1.535  1.00  0.00     0.007 A 
ATOM     10  C   UNL     1       0.881   1.923   1.043  1.00  0.00     0.122 A 
ATOM     11  C   UNL     1      -0.118   2.760   1.552  1.00  0.00     0.047 A 
ATOM     12  C   UNL     1       0.177   3.695   2.546  1.00  0.00     0.016 A 
ATOM     13  C   UNL     1       2.470   2.976   2.510  1.00  0.00     0.020 A 
ATOM     14  C   UNL     1       1.485   3.833   3.016  1.00  0.00     0.023 A 
BRANCH  10  15
ATOM     15  O   UNL     1       0.538   1.202  -0.071  1.00  0.00    -0.496 OA
ATOM     16  C   UNL     1       0.454  -0.205   0.143  1.00  0.00     0.278 C 
ENDBRANCH  10  15
BRANCH  14  17
ATOM     17  C   UNL     1       1.754   4.870   4.059  1.00  0.00     0.193 C 
ATOM     18  O   UNL     1       0.814   5.497   4.537  1.00  0.00    -0.289 OA
BRANCH  17  19
ATOM     19  C   UNL     1       3.108   5.143   4.596  1.00  0.00     0.022 A 
ATOM     20  C   UNL     1       3.271   5.149   5.985  1.00  0.00     0.012 A 
ATOM     21  C   UNL     1       4.202   5.418   3.765  1.00  0.00     0.012 A 
ATOM     22  C   UNL     1       4.533   5.367   6.536  1.00  0.00     0.001 A 
ATOM     23  C   UNL     1       5.468   5.620   4.324  1.00  0.00     0.001 A 
ATOM     24  C   UNL     1       5.634   5.582   5.709  1.00  0.00     0.000 A 
ENDBRANCH  17  19
ENDBRANCH  14  17
ENDBRANCH   7   9
ENDBRANCH   4   7
ENDBRANCH   2   3
ENDBRANCH   1   2
BRANCH   1  25
ATOM     25  C   UNL     1       5.037   1.129   6.156  1.00  0.00     0.118 C 
BRANCH  25  26
ATOM     26  N   UNL     1       6.408   1.421   6.553  1.00  0.00    -0.352 N 
ATOM     27  C   UNL     1       6.933   2.187   7.568  1.00  0.00     0.251 C 
ATOM     28  H   UNL     1       7.087   0.988   5.988  1.00  0.00     0.163 HD
ATOM     29  O   UNL     1       8.142   2.415   7.545  1.00  0.00    -0.269 OA
BRANCH  27  30
ATOM     30  C   UNL     1       6.107   2.757   8.667  1.00  0.00     0.039 A 
ATOM     31  C   UNL     1       6.537   3.948   9.274  1.00  0.00     0.014 A 
ATOM     32  C   UNL     1       4.964   2.127   9.161  1.00  0.00     0.014 A 
ATOM     33  C   UNL     1       5.799   4.526  10.316  1.00  0.00     0.010 A 
ATOM     34  C   UNL     1       4.181   2.745  10.137  1.00  0.00     0.010 A 
ATOM     35  C   UNL     1       4.602   3.937  10.743  1.00  0.00    -0.014 A 
BRANCH  35  36
ATOM     36  C   UNL     1       3.816   4.500  11.871  1.00  0.00     0.031 A 
ATOM     37  C   UNL     1       3.708   3.731  13.163  1.00  0.00     0.074 A 
ATOM     38  C   UNL     1       3.139   5.655  11.722  1.00  0.00     0.049 A 
ATOM     39  N   UNL     1       3.064   4.040  14.259  1.00  0.00    -0.248 NA
ATOM     40  C   UNL     1       4.397   2.431  13.219  1.00  0.00     0.031 C 
ATOM     41  C   UNL     1       3.103   6.465  10.504  1.00  0.00     0.029 A 
ATOM     42  N   UNL     1       2.331   6.337  12.597  1.00  0.00    -0.354 N 
ATOM     43  C   UNL     1       3.244   2.964  15.120  1.00  0.00     0.074 A 
ATOM     44  C   UNL     1       4.017   1.974  14.402  1.00  0.00     0.031 C 
ATOM     45  C   UNL     1       2.320   7.537  10.710  1.00  0.00     0.029 A 
ATOM     46  C   UNL     1       1.788   7.485  12.069  1.00  0.00     0.049 A 
ATOM     47  H   UNL     1       2.156   6.032  13.517  1.00  0.00     0.167 HD
ATOM     48  C   UNL     1       2.839   2.821  16.405  1.00  0.00     0.034 A 
ATOM     49  C   UNL     1       0.966   8.398  12.623  1.00  0.00     0.034 A 
ATOM     50  C   UNL     1       2.100   3.819  17.130  1.00  0.00     0.049 A 
ATOM     51  C   UNL     1       0.540   8.227  14.057  1.00  0.00     0.074 A 
ATOM     52  C   UNL     1       1.717   3.812  18.459  1.00  0.00     0.029 A 
ATOM     53  N   UNL     1       1.622   4.999  16.581  1.00  0.00    -0.354 N 
ATOM     54  N   UNL     1       0.867   7.288  14.912  1.00  0.00    -0.248 NA
ATOM     55  C   UNL     1      -0.338   9.267  14.615  1.00  0.00     0.031 C 
ATOM     56  C   UNL     1       0.986   4.981  18.708  1.00  0.00     0.029 A 
ATOM     57  C   UNL     1       0.935   5.724  17.539  1.00  0.00     0.049 A 
ATOM     58  H   UNL     1       1.752   5.280  15.646  1.00  0.00     0.167 HD
ATOM     59  C   UNL     1       0.274   7.646  16.119  1.00  0.00     0.074 A 
ATOM     60  C   UNL     1      -0.420   8.897  15.886  1.00  0.00     0.031 C 
ATOM     61  C   UNL     1       0.292   6.994  17.308  1.00  0.00     0.034 A 
BRANCH  48  62
ATOM     62  C   UNL     1       3.241   1.554  17.114  1.00  0.00     0.023 A 
ATOM     63  C   UNL     1       4.597   1.344  17.445  1.00  0.00     0.012 A 
ATOM     64  C   UNL     1       2.290   0.573  17.455  1.00  0.00     0.148 A 
ATOM     65  C   UNL     1       5.008   0.159  18.053  1.00  0.00     0.002 A 
ATOM     66  C   UNL     1       2.701  -0.587  18.104  1.00  0.00     0.091 A 
ATOM     67  F   UNL     1       1.010   0.773  17.113  1.00  0.00    -0.205 F 
ATOM     68  C   UNL     1       4.059  -0.802  18.389  1.00  0.00     0.022 A 
BRANCH  66  69
ATOM     69  S   UNL     1       1.541  -1.848  18.642  1.00  0.00     0.127 S 
ATOM     70  O   UNL     1       1.717  -2.870  17.612  1.00  0.00    -0.237 OA
ATOM     71  O   UNL     1       2.066  -2.214  19.958  1.00  0.00    -0.237 OA
ATOM     72  O   UNL     1       0.238  -1.198  18.673  1.00  0.00    -0.744 OA
ENDBRANCH  66  69
ENDBRANCH  48  62
BRANCH  49  73
ATOM     73  C   UNL     1       0.580   9.618  11.858  1.00  0.00     0.023 A 
ATOM     74  C   UNL     1       1.140  10.857  12.232  1.00  0.00     0.012 A 
ATOM     75  C   UNL     1      -0.309   9.566  10.768  1.00  0.00     0.148 A 
ATOM     76  C   UNL     1       0.799  12.026  11.553  1.00  0.00     0.002 A 
ATOM     77  C   UNL     1      -0.612  10.730  10.070  1.00  0.00     0.091 A 
ATOM     78  F   UNL     1      -0.832   8.378  10.433  1.00  0.00    -0.205 F 
ATOM     79  C   UNL     1      -0.070  11.962  10.469  1.00  0.00     0.022 A 
BRANCH  77  80
ATOM     80  S   UNL     1      -1.649  10.749   8.603  1.00  0.00     0.127 S 
ATOM     81  O   UNL     1      -2.782  11.554   9.048  1.00  0.00    -0.237 OA
ATOM     82  O   UNL     1      -0.774  11.399   7.629  1.00  0.00    -0.237 OA
ATOM     83  O   UNL     1      -1.951   9.350   8.316  1.00  0.00    -0.744 OA
ENDBRANCH  77  80
ENDBRANCH  49  73
BRANCH  61  84
ATOM     84  C   UNL     1      -0.431   7.634  18.466  1.00  0.00     0.023 A 
ATOM     85  C   UNL     1      -1.840   7.655  18.487  1.00  0.00     0.012 A 
ATOM     86  C   UNL     1       0.284   8.157  19.562  1.00  0.00     0.148 A 
ATOM     87  C   UNL     1      -2.525   8.219  19.564  1.00  0.00     0.002 A 
ATOM     88  C   UNL     1      -0.406   8.671  20.654  1.00  0.00     0.091 A 
ATOM     89  F   UNL     1       1.624   8.149  19.517  1.00  0.00    -0.205 F 
ATOM     90  C   UNL     1      -1.809   8.716  20.651  1.00  0.00     0.022 A 
BRANCH  88  91
ATOM     91  S   UNL     1       0.436   9.237  22.137  1.00  0.00     0.127 S 
ATOM     92  O   UNL     1       0.371  10.689  21.983  1.00  0.00    -0.237 OA
ATOM     93  O   UNL     1      -0.411   8.699  23.203  1.00  0.00    -0.237 OA
ATOM     94  O   UNL     1       1.771   8.657  22.081  1.00  0.00    -0.744 OA
ENDBRANCH  88  91
ENDBRANCH  61  84
ENDBRANCH  35  36
ENDBRANCH  27  30
ENDBRANCH  25  26
ENDBRANCH   1  25
TORSDOF 17
