REMARK SMILES CC[C@@]1(CO)CCCN(c2nc(-c3ccc(C)s3)ccc2C(=O)NCCCNC(=O)c2ccc(-c3c4nc(c(-c5cccc(S(=O)(=O)[O-])c5F)c5ccc([nH]5)c(-c5cccc(S(=O)(=O)[O-])c5F)c5nc(c(-c6cccc(S(=O)(=O)[O-])c6F)c6ccc3[nH]6)C=C5)C=C4)cc2)C1
REMARK SMILES IDX 26 1 25 2 24 3 22 4 23 5 21 7 10 8 11 9 12 10 20 11 19 12
REMARK SMILES IDX 9 13 3 14 6 15 94 16 7 17 8 18 2 19 1 20 4 21 5 22 13 24
REMARK SMILES IDX 14 25 18 26 15 27 16 28 17 29 27 30 28 31 29 32 30 34 31 35
REMARK SMILES IDX 32 36 93 37 33 38 92 39 34 40 35 41 36 42 86 43 37 44 91 45
REMARK SMILES IDX 85 46 87 47 38 48 90 49 84 50 83 51 39 53 71 54 51 55 70 56
REMARK SMILES IDX 52 57 55 58 69 59 88 60 53 61 54 62 68 64 89 65 56 66 40 67
REMARK SMILES IDX 41 68 49 69 42 70 44 71 50 72 43 73 45 74 46 75 47 76 48 77
REMARK SMILES IDX 72 78 73 79 81 80 74 81 76 82 82 83 75 84 77 85 78 86 79 87
REMARK SMILES IDX 80 88 57 89 58 90 66 91 59 92 61 93 67 94 60 95 62 96 63 97
REMARK SMILES IDX 64 98 65 99
REMARK H PARENT 24 6 5 23 28 33 87 52 55 63
REMARK Flexibility Score: inf
ROOT
ATOM      1  C   UNL     1       4.456   6.660  -2.215  1.00  0.00     0.042 C 
ENDROOT
BRANCH   1   2
ATOM      2  C   UNL     1       5.129   5.520  -1.451  1.00  0.00     0.118 C 
BRANCH   2   3
ATOM      3  N   UNL     1       4.386   5.177  -0.253  1.00  0.00    -0.352 N 
ATOM      4  C   UNL     1       3.488   4.202   0.108  1.00  0.00     0.255 C 
ATOM      5  O   UNL     1       3.185   4.256   1.299  1.00  0.00    -0.269 OA
ATOM      6  H   UNL     1       4.571   5.800   0.486  1.00  0.00     0.163 HD
BRANCH   4   7
ATOM      7  C   UNL     1       2.976   3.122  -0.807  1.00  0.00     0.082 A 
ATOM      8  C   UNL     1       2.376   1.944  -0.304  1.00  0.00     0.142 A 
ATOM      9  N   UNL     1       2.189   0.844  -1.094  1.00  0.00    -0.229 NA
ATOM     10  C   UNL     1       2.476   0.928  -2.411  1.00  0.00     0.083 A 
ATOM     11  C   UNL     1       3.142   3.200  -2.194  1.00  0.00     0.020 A 
ATOM     12  C   UNL     1       2.912   2.095  -3.006  1.00  0.00     0.031 A 
BRANCH   8  13
ATOM     13  N   UNL     1       1.822   1.798   0.946  1.00  0.00    -0.355 N 
ATOM     14  C   UNL     1       1.026  -0.050   2.416  1.00  0.00     0.011 C 
ATOM     15  C   UNL     1      -0.020   0.964   2.959  1.00  0.00     0.013 C 
ATOM     16  C   UNL     1       2.237   0.699   1.803  1.00  0.00     0.127 C 
ATOM     17  C   UNL     1      -0.368   2.091   1.987  1.00  0.00     0.022 C 
ATOM     18  C   UNL     1       0.892   2.784   1.485  1.00  0.00     0.118 C 
BRANCH  14  19
ATOM     19  C   UNL     1       1.492  -0.992   3.574  1.00  0.00     0.008 C 
ATOM     20  C   UNL     1       2.310  -0.366   4.699  1.00  0.00     0.004 C 
ENDBRANCH  14  19
BRANCH  14  21
ATOM     21  C   UNL     1       0.380  -0.991   1.356  1.00  0.00     0.164 C 
BRANCH  21  22
ATOM     22  O   UNL     1      -0.157  -0.339   0.221  1.00  0.00    -0.396 OA
ATOM     23  H   UNL     1      -0.881   0.245   0.496  1.00  0.00     0.210 HD
ENDBRANCH  21  22
ENDBRANCH  14  21
ENDBRANCH   8  13
BRANCH  10  24
ATOM     24  C   UNL     1       2.303  -0.287  -3.200  1.00  0.00     0.053 A 
ATOM     25  C   UNL     1       3.244  -0.971  -3.948  1.00  0.00     0.022 A 
ATOM     26  S   UNL     1       0.755  -0.999  -3.351  1.00  0.00    -0.139 S 
ATOM     27  C   UNL     1       2.678  -2.056  -4.677  1.00  0.00     0.016 A 
ATOM     28  C   UNL     1       1.320  -2.168  -4.466  1.00  0.00     0.002 A 
ATOM     29  C   UNL     1       0.360  -3.127  -5.080  1.00  0.00     0.056 C 
ENDBRANCH  10  24
ENDBRANCH   4   7
ENDBRANCH   2   3
ENDBRANCH   1   2
BRANCH   1  30
ATOM     30  C   UNL     1       4.479   7.992  -1.463  1.00  0.00     0.118 C 
BRANCH  30  31
ATOM     31  N   UNL     1       5.837   8.478  -1.248  1.00  0.00    -0.352 N 
ATOM     32  C   UNL     1       6.473   9.582  -1.758  1.00  0.00     0.251 C 
ATOM     33  H   UNL     1       6.384   7.927  -0.643  1.00  0.00     0.163 HD
ATOM     34  O   UNL     1       7.694   9.671  -1.664  1.00  0.00    -0.269 OA
BRANCH  32  35
ATOM     35  C   UNL     1       5.701  10.657  -2.415  1.00  0.00     0.039 A 
ATOM     36  C   UNL     1       6.206  11.237  -3.583  1.00  0.00     0.014 A 
ATOM     37  C   UNL     1       4.505  11.122  -1.862  1.00  0.00     0.014 A 
ATOM     38  C   UNL     1       5.476  12.236  -4.231  1.00  0.00     0.010 A 
ATOM     39  C   UNL     1       3.748  12.070  -2.544  1.00  0.00     0.010 A 
ATOM     40  C   UNL     1       4.224  12.635  -3.737  1.00  0.00    -0.014 A 
BRANCH  40  41
ATOM     41  C   UNL     1       3.373  13.600  -4.477  1.00  0.00     0.031 A 
ATOM     42  C   UNL     1       3.004  14.924  -3.868  1.00  0.00     0.074 A 
ATOM     43  C   UNL     1       2.840  13.229  -5.658  1.00  0.00     0.049 A 
ATOM     44  N   UNL     1       2.210  15.852  -4.335  1.00  0.00    -0.248 NA
ATOM     45  C   UNL     1       3.581  15.233  -2.550  1.00  0.00     0.031 C 
ATOM     46  C   UNL     1       3.050  11.933  -6.306  1.00  0.00     0.029 A 
ATOM     47  N   UNL     1       1.982  13.888  -6.502  1.00  0.00    -0.354 N 
ATOM     48  C   UNL     1       2.166  16.841  -3.360  1.00  0.00     0.074 A 
ATOM     49  C   UNL     1       2.987  16.382  -2.259  1.00  0.00     0.031 C 
ATOM     50  C   UNL     1       2.332  11.886  -7.437  1.00  0.00     0.029 A 
ATOM     51  C   UNL     1       1.587  13.133  -7.581  1.00  0.00     0.049 A 
ATOM     52  H   UNL     1       1.679  14.812  -6.350  1.00  0.00     0.167 HD
ATOM     53  C   UNL     1       1.527  18.035  -3.389  1.00  0.00     0.034 A 
ATOM     54  C   UNL     1       0.710  13.403  -8.567  1.00  0.00     0.034 A 
ATOM     55  C   UNL     1       0.735  18.497  -4.498  1.00  0.00     0.049 A 
ATOM     56  C   UNL     1       0.036  14.745  -8.597  1.00  0.00     0.074 A 
ATOM     57  C   UNL     1       0.126  19.727  -4.669  1.00  0.00     0.029 A 
ATOM     58  N   UNL     1       0.428  17.742  -5.621  1.00  0.00    -0.354 N 
ATOM     59  N   UNL     1       0.147  15.741  -7.752  1.00  0.00    -0.248 NA
ATOM     60  C   UNL     1      -0.856  15.017  -9.733  1.00  0.00     0.031 C 
ATOM     61  C   UNL     1      -0.569  19.707  -5.884  1.00  0.00     0.029 A 
ATOM     62  C   UNL     1      -0.375  18.472  -6.481  1.00  0.00     0.049 A 
ATOM     63  H   UNL     1       0.737  16.821  -5.782  1.00  0.00     0.167 HD
ATOM     64  C   UNL     1      -0.646  16.764  -8.259  1.00  0.00     0.074 A 
ATOM     65  C   UNL     1      -1.206  16.276  -9.503  1.00  0.00     0.031 C 
ATOM     66  C   UNL     1      -0.901  17.987  -7.732  1.00  0.00     0.034 A 
BRANCH  53  67
ATOM     67  C   UNL     1       1.707  18.949  -2.204  1.00  0.00     0.023 A 
ATOM     68  C   UNL     1       2.960  19.562  -1.988  1.00  0.00     0.012 A 
ATOM     69  C   UNL     1       0.642  19.233  -1.327  1.00  0.00     0.148 A 
ATOM     70  C   UNL     1       3.162  20.406  -0.897  1.00  0.00     0.002 A 
ATOM     71  C   UNL     1       0.839  20.111  -0.266  1.00  0.00     0.091 A 
ATOM     72  F   UNL     1      -0.536  18.626  -1.532  1.00  0.00    -0.205 F 
ATOM     73  C   UNL     1       2.100  20.687  -0.042  1.00  0.00     0.022 A 
BRANCH  71  74
ATOM     74  S   UNL     1      -0.486  20.595   0.846  1.00  0.00     0.127 S 
ATOM     75  O   UNL     1      -0.158  19.829   2.047  1.00  0.00    -0.237 OA
ATOM     76  O   UNL     1      -0.278  22.038   0.969  1.00  0.00    -0.237 OA
ATOM     77  O   UNL     1      -1.724  20.218   0.177  1.00  0.00    -0.744 OA
ENDBRANCH  71  74
ENDBRANCH  53  67
BRANCH  54  78
ATOM     78  C   UNL     1       0.469  12.386  -9.629  1.00  0.00     0.023 A 
ATOM     79  C   UNL     1       0.979  12.602 -10.923  1.00  0.00     0.012 A 
ATOM     80  C   UNL     1      -0.196  11.178  -9.343  1.00  0.00     0.148 A 
ATOM     81  C   UNL     1       0.815  11.639 -11.920  1.00  0.00     0.002 A 
ATOM     82  C   UNL     1      -0.304  10.199 -10.324  1.00  0.00     0.091 A 
ATOM     83  F   UNL     1      -0.682  10.998  -8.107  1.00  0.00    -0.205 F 
ATOM     84  C   UNL     1       0.186  10.434 -11.618  1.00  0.00     0.022 A 
BRANCH  82  85
ATOM     85  S   UNL     1      -0.963   8.562  -9.984  1.00  0.00     0.127 S 
ATOM     86  O   UNL     1      -2.219   8.584 -10.727  1.00  0.00    -0.237 OA
ATOM     87  O   UNL     1       0.074   7.698 -10.548  1.00  0.00    -0.237 OA
ATOM     88  O   UNL     1      -1.086   8.481  -8.534  1.00  0.00    -0.744 OA
ENDBRANCH  82  85
ENDBRANCH  54  78
BRANCH  66  89
ATOM     89  C   UNL     1      -1.831  18.892  -8.498  1.00  0.00     0.023 A 
ATOM     90  C   UNL     1      -3.213  18.614  -8.514  1.00  0.00     0.012 A 
ATOM     91  C   UNL     1      -1.351  20.051  -9.139  1.00  0.00     0.148 A 
ATOM     92  C   UNL     1      -4.099  19.459  -9.180  1.00  0.00     0.002 A 
ATOM     93  C   UNL     1      -2.246  20.914  -9.761  1.00  0.00     0.091 A 
ATOM     94  F   UNL     1      -0.031  20.288  -9.127  1.00  0.00    -0.205 F 
ATOM     95  C   UNL     1      -3.618  20.614  -9.793  1.00  0.00     0.022 A 
BRANCH  93  96
ATOM     96  S   UNL     1      -1.732  22.469 -10.499  1.00  0.00     0.127 S 
ATOM     97  O   UNL     1      -1.889  22.188 -11.926  1.00  0.00    -0.237 OA
ATOM     98  O   UNL     1      -2.710  23.410  -9.952  1.00  0.00    -0.237 OA
ATOM     99  O   UNL     1      -0.363  22.692 -10.055  1.00  0.00    -0.744 OA
ENDBRANCH  93  96
ENDBRANCH  66  89
ENDBRANCH  40  41
ENDBRANCH  32  35
ENDBRANCH  30  31
ENDBRANCH   1  30
TORSDOF 18
