REMARK SMILES C[C@@H](C(=O)NCCCNC(=O)c1ccc(-c2c3nc(c(-c4cccc(S(=O)(=O)[O-])c4F)c4ccc([nH]4)c(-c4cccc(S(=O)(=O)[O-])c4F)c4nc(c(-c5cccc(S(=O)(=O)[O-])c5F)c5ccc2[nH]5)C=C4)C=C3)cc1)c1ccc(C[C@@H]2CCC[C@@H]2O)cc1Br
REMARK SMILES IDX 6 1 5 2 3 3 4 4 2 6 1 7 75 8 76 9 87 10 77 11 86 12 88 13
REMARK SMILES IDX 78 14 79 15 80 16 81 17 84 18 82 19 83 20 85 21 7 23 8 24
REMARK SMILES IDX 9 25 10 26 11 28 12 29 13 30 74 31 14 32 73 33 15 34 16 35
REMARK SMILES IDX 17 36 67 37 18 38 72 39 66 40 68 41 19 42 71 43 65 44 64 45
REMARK SMILES IDX 20 47 52 48 32 49 51 50 33 51 36 52 50 53 69 54 34 55 35 56
REMARK SMILES IDX 49 58 70 59 37 60 21 61 22 62 30 63 23 64 25 65 31 66 24 67
REMARK SMILES IDX 26 68 27 69 28 70 29 71 53 72 54 73 62 74 55 75 57 76 63 77
REMARK SMILES IDX 56 78 58 79 59 80 60 81 61 82 38 83 39 84 47 85 40 86 42 87
REMARK SMILES IDX 48 88 41 89 43 90 44 91 45 92 46 93
REMARK H PARENT 5 5 85 22 9 27 68 46 36 57
REMARK Flexibility Score: inf
ROOT
ATOM      1  C   UNL     1     -10.673   3.361   9.061  1.00  0.00     0.117 C 
ENDROOT
BRANCH   1   2
ATOM      2  N   UNL     1      -9.477   3.408   8.244  1.00  0.00    -0.356 N 
ATOM      3  C   UNL     1      -8.974   2.493   7.365  1.00  0.00     0.227 C 
ATOM      4  O   UNL     1      -7.851   2.724   6.910  1.00  0.00    -0.274 OA
ATOM      5  H   UNL     1      -8.942   4.229   8.338  1.00  0.00     0.163 HD
BRANCH   3   6
ATOM      6  C   UNL     1      -9.808   1.260   6.962  1.00  0.00     0.106 C 
ATOM      7  C   UNL     1      -9.877   0.262   8.127  1.00  0.00     0.023 C 
BRANCH   6   8
ATOM      8  C   UNL     1      -9.272   0.646   5.663  1.00  0.00    -0.022 A 
ATOM      9  C   UNL     1      -8.531  -0.549   5.690  1.00  0.00     0.006 A 
ATOM     10  C   UNL     1      -9.426   1.282   4.416  1.00  0.00     0.022 A 
ATOM     11  C   UNL     1      -7.955  -1.078   4.535  1.00  0.00     0.004 A 
ATOM     12  C   UNL     1      -8.806   0.771   3.266  1.00  0.00     0.019 A 
ATOM     13  Br  UNL     1     -10.451   2.872   4.197  1.00  0.00    -0.051 Br
ATOM     14  C   UNL     1      -8.037  -0.398   3.321  1.00  0.00    -0.047 A 
BRANCH  14  15
ATOM     15  C   UNL     1      -7.287  -0.891   2.110  1.00  0.00     0.041 C 
BRANCH  15  16
ATOM     16  C   UNL     1      -5.756  -0.669   2.057  1.00  0.00     0.022 C 
ATOM     17  C   UNL     1      -4.949  -1.347   3.171  1.00  0.00     0.007 C 
ATOM     18  C   UNL     1      -5.256   0.777   2.129  1.00  0.00     0.117 C 
ATOM     19  C   UNL     1      -4.657  -0.269   4.220  1.00  0.00     0.003 C 
ATOM     20  C   UNL     1      -5.098   1.061   3.616  1.00  0.00     0.032 C 
BRANCH  18  21
ATOM     21  O   UNL     1      -6.103   1.706   1.487  1.00  0.00    -0.393 OA
ATOM     22  H   UNL     1      -6.980   1.684   1.901  1.00  0.00     0.210 HD
ENDBRANCH  18  21
ENDBRANCH  15  16
ENDBRANCH  14  15
ENDBRANCH   6   8
ENDBRANCH   3   6
ENDBRANCH   1   2
BRANCH   1  23
ATOM     23  C   UNL     1     -10.348   2.967  10.501  1.00  0.00     0.042 C 
BRANCH  23  24
ATOM     24  C   UNL     1      -9.512   3.998  11.253  1.00  0.00     0.118 C 
BRANCH  24  25
ATOM     25  N   UNL     1     -10.221   5.254  11.447  1.00  0.00    -0.352 N 
ATOM     26  C   UNL     1     -10.563   5.900  12.607  1.00  0.00     0.251 C 
ATOM     27  H   UNL     1     -10.497   5.710  10.619  1.00  0.00     0.163 HD
ATOM     28  O   UNL     1     -11.346   6.852  12.556  1.00  0.00    -0.269 OA
BRANCH  26  29
ATOM     29  C   UNL     1     -10.015   5.465  13.909  1.00  0.00     0.039 A 
ATOM     30  C   UNL     1     -10.857   5.452  15.025  1.00  0.00     0.014 A 
ATOM     31  C   UNL     1      -8.672   5.105  14.046  1.00  0.00     0.014 A 
ATOM     32  C   UNL     1     -10.365   5.030  16.263  1.00  0.00     0.010 A 
ATOM     33  C   UNL     1      -8.204   4.610  15.261  1.00  0.00     0.010 A 
ATOM     34  C   UNL     1      -9.041   4.579  16.386  1.00  0.00    -0.014 A 
BRANCH  34  35
ATOM     35  C   UNL     1      -8.514   4.072  17.680  1.00  0.00     0.031 A 
ATOM     36  C   UNL     1      -7.370   4.774  18.362  1.00  0.00     0.074 A 
ATOM     37  C   UNL     1      -9.008   2.930  18.198  1.00  0.00     0.049 A 
ATOM     38  N   UNL     1      -6.743   4.450  19.463  1.00  0.00    -0.248 NA
ATOM     39  C   UNL     1      -6.844   5.983  17.708  1.00  0.00     0.031 C 
ATOM     40  C   UNL     1     -10.064   2.116  17.594  1.00  0.00     0.029 A 
ATOM     41  N   UNL     1      -8.667   2.242  19.336  1.00  0.00    -0.354 N 
ATOM     42  C   UNL     1      -5.726   5.385  19.612  1.00  0.00     0.074 A 
ATOM     43  C   UNL     1      -5.799   6.270  18.470  1.00  0.00     0.031 C 
ATOM     44  C   UNL     1     -10.290   1.044  18.370  1.00  0.00     0.029 A 
ATOM     45  C   UNL     1      -9.376   1.075  19.507  1.00  0.00     0.049 A 
ATOM     46  H   UNL     1      -7.981   2.554  19.969  1.00  0.00     0.167 HD
ATOM     47  C   UNL     1      -4.829   5.514  20.619  1.00  0.00     0.034 A 
ATOM     48  C   UNL     1      -9.294   0.133  20.467  1.00  0.00     0.034 A 
ATOM     49  C   UNL     1      -4.786   4.657  21.773  1.00  0.00     0.049 A 
ATOM     50  C   UNL     1      -8.316   0.319  21.594  1.00  0.00     0.074 A 
ATOM     51  C   UNL     1      -3.980   4.761  22.893  1.00  0.00     0.029 A 
ATOM     52  N   UNL     1      -5.575   3.531  21.952  1.00  0.00    -0.354 N 
ATOM     53  N   UNL     1      -7.470   1.300  21.800  1.00  0.00    -0.248 NA
ATOM     54  C   UNL     1      -8.305  -0.712  22.642  1.00  0.00     0.031 C 
ATOM     55  C   UNL     1      -4.261   3.680  23.735  1.00  0.00     0.029 A 
ATOM     56  C   UNL     1      -5.266   2.922  23.157  1.00  0.00     0.049 A 
ATOM     57  H   UNL     1      -6.255   3.211  21.316  1.00  0.00     0.167 HD
ATOM     58  C   UNL     1      -6.856   1.026  23.016  1.00  0.00     0.074 A 
ATOM     59  C   UNL     1      -7.439  -0.205  23.509  1.00  0.00     0.031 C 
ATOM     60  C   UNL     1      -5.889   1.724  23.661  1.00  0.00     0.034 A 
BRANCH  47  61
ATOM     61  C   UNL     1      -3.845   6.654  20.536  1.00  0.00     0.023 A 
ATOM     62  C   UNL     1      -4.298   7.981  20.694  1.00  0.00     0.012 A 
ATOM     63  C   UNL     1      -2.470   6.414  20.346  1.00  0.00     0.148 A 
ATOM     64  C   UNL     1      -3.407   9.051  20.619  1.00  0.00     0.002 A 
ATOM     65  C   UNL     1      -1.581   7.483  20.321  1.00  0.00     0.091 A 
ATOM     66  F   UNL     1      -2.058   5.149  20.177  1.00  0.00    -0.205 F 
ATOM     67  C   UNL     1      -2.049   8.802  20.442  1.00  0.00     0.022 A 
BRANCH  65  68
ATOM     68  S   UNL     1       0.196   7.259  20.182  1.00  0.00     0.127 S 
ATOM     69  O   UNL     1       0.444   7.708  18.813  1.00  0.00    -0.237 OA
ATOM     70  O   UNL     1       0.702   8.160  21.219  1.00  0.00    -0.237 OA
ATOM     71  O   UNL     1       0.443   5.847  20.434  1.00  0.00    -0.744 OA
ENDBRANCH  65  68
ENDBRANCH  47  61
BRANCH  48  72
ATOM     72  C   UNL     1     -10.220  -1.035  20.439  1.00  0.00     0.023 A 
ATOM     73  C   UNL     1     -11.248  -1.121  21.397  1.00  0.00     0.012 A 
ATOM     74  C   UNL     1     -10.114  -2.033  19.452  1.00  0.00     0.148 A 
ATOM     75  C   UNL     1     -12.137  -2.196  21.392  1.00  0.00     0.002 A 
ATOM     76  C   UNL     1     -11.037  -3.073  19.418  1.00  0.00     0.091 A 
ATOM     77  F   UNL     1      -9.124  -1.935  18.554  1.00  0.00    -0.205 F 
ATOM     78  C   UNL     1     -12.038  -3.166  20.397  1.00  0.00     0.022 A 
BRANCH  76  79
ATOM     79  S   UNL     1     -11.069  -4.293  18.101  1.00  0.00     0.127 S 
ATOM     80  O   UNL     1     -10.683  -5.511  18.811  1.00  0.00    -0.237 OA
ATOM     81  O   UNL     1     -12.470  -4.243  17.680  1.00  0.00    -0.237 OA
ATOM     82  O   UNL     1     -10.124  -3.821  17.100  1.00  0.00    -0.744 OA
ENDBRANCH  76  79
ENDBRANCH  48  72
BRANCH  60  83
ATOM     83  C   UNL     1      -5.420   1.204  24.995  1.00  0.00     0.023 A 
ATOM     84  C   UNL     1      -4.626   0.042  25.059  1.00  0.00     0.012 A 
ATOM     85  C   UNL     1      -5.706   1.912  26.180  1.00  0.00     0.148 A 
ATOM     86  C   UNL     1      -4.151  -0.425  26.284  1.00  0.00     0.002 A 
ATOM     87  C   UNL     1      -5.187   1.469  27.390  1.00  0.00     0.091 A 
ATOM     88  F   UNL     1      -6.480   3.004  26.102  1.00  0.00    -0.205 F 
ATOM     89  C   UNL     1      -4.420   0.294  27.447  1.00  0.00     0.022 A 
BRANCH  87  90
ATOM     90  S   UNL     1      -5.399   2.384  28.922  1.00  0.00     0.127 S 
ATOM     91  O   UNL     1      -6.347   1.539  29.645  1.00  0.00    -0.237 OA
ATOM     92  O   UNL     1      -4.042   2.388  29.471  1.00  0.00    -0.237 OA
ATOM     93  O   UNL     1      -5.898   3.698  28.538  1.00  0.00    -0.744 OA
ENDBRANCH  87  90
ENDBRANCH  60  83
ENDBRANCH  34  35
ENDBRANCH  26  29
ENDBRANCH  24  25
ENDBRANCH  23  24
ENDBRANCH   1  23
TORSDOF 17
