REMARK SMILES O=C(NCCCNC(=O)c1ccc(-c2c3nc(c(-c4cccc(S(=O)(=O)[O-])c4F)c4ccc([nH]4)c(-c4cccc(S(=O)(=O)[O-])c4F)c4nc(c(-c5cccc(S(=O)(=O)[O-])c5F)c5ccc2[nH]5)C=C4)C=C3)cc1)C1=Nc2nc3ccccc3n2[C@@H](c2cccc([N+](=O)[O-])c2)C1
REMARK SMILES IDX 5 1 4 2 3 3 1 4 2 5 73 7 74 8 94 9 75 10 84 11 76 12 83 13
REMARK SMILES IDX 77 14 82 15 78 16 81 17 79 18 80 19 85 20 86 21 93 22 87 23
REMARK SMILES IDX 89 24 88 25 90 26 91 27 92 28 6 29 7 30 8 31 9 33 10 34
REMARK SMILES IDX 11 35 72 36 12 37 71 38 13 39 14 40 15 41 65 42 16 43 70 44
REMARK SMILES IDX 64 45 66 46 17 47 69 48 63 49 62 50 18 52 50 53 30 54 49 55
REMARK SMILES IDX 31 56 34 57 48 58 67 59 32 60 33 61 47 63 68 64 35 65 19 66
REMARK SMILES IDX 20 67 28 68 21 69 23 70 29 71 22 72 24 73 25 74 26 75 27 76
REMARK SMILES IDX 51 77 52 78 60 79 53 80 55 81 61 82 54 83 56 84 57 85 58 86
REMARK SMILES IDX 59 87 36 88 37 89 45 90 38 91 40 92 46 93 39 94 41 95 42 96
REMARK SMILES IDX 43 97 44 98
REMARK H PARENT 3 6 7 32 66 51 34 62
REMARK Flexibility Score: inf
ROOT
ATOM      1  C   UNL     1       4.995   1.258  -1.565  1.00  0.00     0.042 C 
ENDROOT
BRANCH   1   2
ATOM      2  C   UNL     1       4.235   1.504  -0.262  1.00  0.00     0.118 C 
BRANCH   2   3
ATOM      3  N   UNL     1       2.905   0.917  -0.285  1.00  0.00    -0.351 N 
ATOM      4  O   UNL     1       1.284  -0.599   0.093  1.00  0.00    -0.268 OA
ATOM      5  C   UNL     1       2.465  -0.294   0.191  1.00  0.00     0.265 C 
ATOM      6  H   UNL     1       2.212   1.474  -0.708  1.00  0.00     0.163 HD
BRANCH   5   7
ATOM      7  C   UNL     1       3.407  -1.281   0.874  1.00  0.00     0.111 C 
ATOM      8  N   UNL     1       4.683  -1.075   0.899  1.00  0.00    -0.212 NA
ATOM      9  C   UNL     1       2.764  -2.447   1.576  1.00  0.00     0.092 C 
ATOM     10  C   UNL     1       5.464  -1.951   1.569  1.00  0.00     0.231 A 
ATOM     11  C   UNL     1       3.700  -3.662   1.508  1.00  0.00     0.127 C 
ATOM     12  N   UNL     1       6.685  -1.747   1.998  1.00  0.00    -0.211 NA
ATOM     13  N   UNL     1       5.057  -3.244   1.863  1.00  0.00    -0.300 N 
ATOM     14  C   UNL     1       7.144  -2.966   2.406  1.00  0.00     0.091 A 
ATOM     15  C   UNL     1       6.156  -3.946   2.295  1.00  0.00     0.070 A 
ATOM     16  C   UNL     1       8.428  -3.305   2.856  1.00  0.00     0.031 A 
ATOM     17  C   UNL     1       6.419  -5.290   2.589  1.00  0.00     0.028 A 
ATOM     18  C   UNL     1       8.701  -4.638   3.166  1.00  0.00     0.002 A 
ATOM     19  C   UNL     1       7.712  -5.612   3.029  1.00  0.00     0.002 A 
BRANCH  11  20
ATOM     20  C   UNL     1       3.046  -4.762   2.338  1.00  0.00    -0.018 A 
ATOM     21  C   UNL     1       3.265  -4.935   3.714  1.00  0.00     0.006 A 
ATOM     22  C   UNL     1       2.040  -5.537   1.721  1.00  0.00     0.091 A 
ATOM     23  C   UNL     1       2.534  -5.880   4.446  1.00  0.00     0.007 A 
ATOM     24  C   UNL     1       1.283  -6.451   2.468  1.00  0.00     0.269 A 
ATOM     25  C   UNL     1       1.537  -6.636   3.830  1.00  0.00     0.085 A 
BRANCH  24  26
ATOM     26  N   UNL     1       0.178  -7.178   1.828  1.00  0.00     0.062 N 
ATOM     27  O   UNL     1      -0.385  -8.066   2.484  1.00  0.00    -0.258 OA
ATOM     28  O   UNL     1      -0.137  -6.847   0.676  1.00  0.00    -0.258 OA
ENDBRANCH  24  26
ENDBRANCH  11  20
ENDBRANCH   5   7
ENDBRANCH   2   3
ENDBRANCH   1   2
BRANCH   1  29
ATOM     29  C   UNL     1       4.594   2.223  -2.682  1.00  0.00     0.118 C 
BRANCH  29  30
ATOM     30  N   UNL     1       4.954   3.603  -2.368  1.00  0.00    -0.352 N 
ATOM     31  C   UNL     1       5.713   4.505  -3.068  1.00  0.00     0.251 C 
ATOM     32  H   UNL     1       4.593   3.940  -1.517  1.00  0.00     0.163 HD
ATOM     33  O   UNL     1       6.063   5.548  -2.522  1.00  0.00    -0.269 OA
BRANCH  31  34
ATOM     34  C   UNL     1       6.112   4.235  -4.465  1.00  0.00     0.039 A 
ATOM     35  C   UNL     1       7.412   4.555  -4.868  1.00  0.00     0.014 A 
ATOM     36  C   UNL     1       5.200   3.715  -5.386  1.00  0.00     0.014 A 
ATOM     37  C   UNL     1       7.817   4.298  -6.180  1.00  0.00     0.010 A 
ATOM     38  C   UNL     1       5.621   3.405  -6.677  1.00  0.00     0.010 A 
ATOM     39  C   UNL     1       6.933   3.692  -7.086  1.00  0.00    -0.014 A 
BRANCH  39  40
ATOM     40  C   UNL     1       7.359   3.322  -8.459  1.00  0.00     0.031 A 
ATOM     41  C   UNL     1       6.722   3.977  -9.652  1.00  0.00     0.074 A 
ATOM     42  C   UNL     1       8.244   2.319  -8.626  1.00  0.00     0.049 A 
ATOM     43  N   UNL     1       6.877   3.706 -10.922  1.00  0.00    -0.248 NA
ATOM     44  C   UNL     1       5.767   5.066  -9.384  1.00  0.00     0.031 C 
ATOM     45  C   UNL     1       8.884   1.567  -7.545  1.00  0.00     0.029 A 
ATOM     46  N   UNL     1       8.732   1.737  -9.769  1.00  0.00    -0.354 N 
ATOM     47  C   UNL     1       6.019   4.561 -11.602  1.00  0.00     0.074 A 
ATOM     48  C   UNL     1       5.325   5.345 -10.602  1.00  0.00     0.031 C 
ATOM     49  C   UNL     1       9.675   0.620  -8.076  1.00  0.00     0.029 A 
ATOM     50  C   UNL     1       9.574   0.676  -9.530  1.00  0.00     0.049 A 
ATOM     51  H   UNL     1       8.501   2.049 -10.674  1.00  0.00     0.167 HD
ATOM     52  C   UNL     1       5.846   4.703 -12.937  1.00  0.00     0.034 A 
ATOM     53  C   UNL     1      10.184  -0.167 -10.387  1.00  0.00     0.034 A 
ATOM     54  C   UNL     1       6.573   3.955 -13.928  1.00  0.00     0.049 A 
ATOM     55  C   UNL     1       9.986   0.025 -11.866  1.00  0.00     0.074 A 
ATOM     56  C   UNL     1       6.526   4.080 -15.305  1.00  0.00     0.029 A 
ATOM     57  N   UNL     1       7.478   2.944 -13.648  1.00  0.00    -0.354 N 
ATOM     58  N   UNL     1       9.281   0.935 -12.492  1.00  0.00    -0.248 NA
ATOM     59  C   UNL     1      10.690  -0.908 -12.757  1.00  0.00     0.031 C 
ATOM     60  C   UNL     1       7.397   3.136 -15.859  1.00  0.00     0.029 A 
ATOM     61  C   UNL     1       7.993   2.431 -14.826  1.00  0.00     0.049 A 
ATOM     62  H   UNL     1       7.720   2.636 -12.745  1.00  0.00     0.167 HD
ATOM     63  C   UNL     1       9.481   0.706 -13.848  1.00  0.00     0.074 A 
ATOM     64  C   UNL     1      10.390  -0.417 -13.952  1.00  0.00     0.031 C 
ATOM     65  C   UNL     1       8.945   1.353 -14.912  1.00  0.00     0.034 A 
BRANCH  52  66
ATOM     66  C   UNL     1       4.880   5.757 -13.411  1.00  0.00     0.023 A 
ATOM     67  C   UNL     1       5.245   7.115 -13.317  1.00  0.00     0.012 A 
ATOM     68  C   UNL     1       3.651   5.411 -14.004  1.00  0.00     0.148 A 
ATOM     69  C   UNL     1       4.392   8.115 -13.780  1.00  0.00     0.002 A 
ATOM     70  C   UNL     1       2.821   6.412 -14.499  1.00  0.00     0.091 A 
ATOM     71  F   UNL     1       3.311   4.115 -14.065  1.00  0.00    -0.205 F 
ATOM     72  C   UNL     1       3.186   7.763 -14.380  1.00  0.00     0.022 A 
BRANCH  70  73
ATOM     73  S   UNL     1       1.279   6.059 -15.351  1.00  0.00     0.127 S 
ATOM     74  O   UNL     1       0.291   6.463 -14.353  1.00  0.00    -0.237 OA
ATOM     75  O   UNL     1       1.361   6.938 -16.518  1.00  0.00    -0.237 OA
ATOM     76  O   UNL     1       1.310   4.636 -15.662  1.00  0.00    -0.744 OA
ENDBRANCH  70  73
ENDBRANCH  52  66
BRANCH  53  77
ATOM     77  C   UNL     1      11.094  -1.226  -9.868  1.00  0.00     0.023 A 
ATOM     78  C   UNL     1      12.481  -1.099 -10.078  1.00  0.00     0.012 A 
ATOM     79  C   UNL     1      10.607  -2.337  -9.152  1.00  0.00     0.148 A 
ATOM     80  C   UNL     1      13.364  -2.072  -9.609  1.00  0.00     0.002 A 
ATOM     81  C   UNL     1      11.497  -3.276  -8.643  1.00  0.00     0.091 A 
ATOM     82  F   UNL     1       9.283  -2.451  -8.978  1.00  0.00    -0.205 F 
ATOM     83  C   UNL     1      12.874  -3.154  -8.883  1.00  0.00     0.022 A 
BRANCH  81  84
ATOM     84  S   UNL     1      10.958  -4.631  -7.593  1.00  0.00     0.127 S 
ATOM     85  O   UNL     1      10.993  -5.760  -8.517  1.00  0.00    -0.237 OA
ATOM     86  O   UNL     1      11.993  -4.650  -6.558  1.00  0.00    -0.237 OA
ATOM     87  O   UNL     1       9.640  -4.242  -7.108  1.00  0.00    -0.744 OA
ENDBRANCH  81  84
ENDBRANCH  53  77
BRANCH  65  88
ATOM     88  C   UNL     1       9.342   0.886 -16.286  1.00  0.00     0.023 A 
ATOM     89  C   UNL     1       8.800  -0.310 -16.795  1.00  0.00     0.012 A 
ATOM     90  C   UNL     1      10.178   1.672 -17.103  1.00  0.00     0.148 A 
ATOM     91  C   UNL     1       9.102  -0.730 -18.090  1.00  0.00     0.002 A 
ATOM     92  C   UNL     1      10.441   1.270 -18.407  1.00  0.00     0.091 A 
ATOM     93  F   UNL     1      10.697   2.798 -16.591  1.00  0.00    -0.205 F 
ATOM     94  C   UNL     1       9.911   0.065 -18.899  1.00  0.00     0.022 A 
BRANCH  92  95
ATOM     95  S   UNL     1      11.398   2.271 -19.551  1.00  0.00     0.127 S 
ATOM     96  O   UNL     1      12.640   1.505 -19.650  1.00  0.00    -0.237 OA
ATOM     97  O   UNL     1      10.568   2.245 -20.756  1.00  0.00    -0.237 OA
ATOM     98  O   UNL     1      11.521   3.583 -18.930  1.00  0.00    -0.744 OA
ENDBRANCH  92  95
ENDBRANCH  65  88
ENDBRANCH  39  40
ENDBRANCH  31  34
ENDBRANCH  29  30
ENDBRANCH   1  29
TORSDOF 15
