REMARK SMILES COc1cc2c(cc1OC)[C@H](C(=O)NCCCNC(=O)c1ccc(-c3c4nc(c(-c5cccc(S(=O)(=O)[O-])c5F)c5ccc([nH]5)c(-c5cccc(S(=O)(=O)[O-])c5F)c5nc(c(-c6cccc(S(=O)(=O)[O-])c6F)c6ccc3[nH]6)C=C5)C=C4)cc1)[C@H](c1cccc(Cl)c1)N(C)C2=O
REMARK SMILES IDX 17 1 16 2 15 3 14 4 12 5 13 6 11 8 3 9 4 10 8 11 5 12 7 13
REMARK SMILES IDX 6 14 94 15 92 16 95 17 84 18 93 19 2 20 1 21 9 22 10 23
REMARK SMILES IDX 85 24 86 25 91 26 87 27 89 28 88 29 90 30 18 31 19 32 20 34
REMARK SMILES IDX 21 35 22 36 83 37 23 38 82 39 24 40 25 41 26 42 76 43 27 44
REMARK SMILES IDX 81 45 75 46 77 47 28 48 80 49 74 50 73 51 29 53 61 54 41 55
REMARK SMILES IDX 60 56 42 57 45 58 59 59 78 60 43 61 44 62 58 64 79 65 46 66
REMARK SMILES IDX 30 67 31 68 39 69 32 70 34 71 40 72 33 73 35 74 36 75 37 76
REMARK SMILES IDX 38 77 62 78 63 79 71 80 64 81 66 82 72 83 65 84 67 85 68 86
REMARK SMILES IDX 69 87 70 88 47 89 48 90 56 91 49 92 51 93 57 94 50 95 52 96
REMARK SMILES IDX 53 97 54 98 55 99
REMARK H PARENT 14 7 18 33 77 52 45 63
REMARK Flexibility Score: inf
ROOT
ATOM      1  C   UNL     1      -2.618  -8.620   0.042  1.00  0.00     0.118 C 
ENDROOT
BRANCH   1   2
ATOM      2  C   UNL     1      -1.449  -7.873  -0.588  1.00  0.00     0.042 C 
BRANCH   2   3
ATOM      3  C   UNL     1      -0.882  -6.763   0.283  1.00  0.00     0.117 C 
BRANCH   3   4
ATOM      4  N   UNL     1      -0.399  -7.285   1.551  1.00  0.00    -0.355 N 
ATOM      5  C   UNL     1       0.839  -7.199   2.114  1.00  0.00     0.230 C 
ATOM      6  O   UNL     1       1.062  -7.976   3.041  1.00  0.00    -0.274 OA
ATOM      7  H   UNL     1      -1.067  -7.774   2.083  1.00  0.00     0.163 HD
BRANCH   5   8
ATOM      8  C   UNL     1       1.880  -6.261   1.524  1.00  0.00     0.136 C 
ATOM      9  C   UNL     1       1.079  -2.016   1.081  1.00  0.00     0.161 A 
ATOM     10  C   UNL     1       2.300  -2.583   0.690  1.00  0.00     0.064 A 
ATOM     11  C   UNL     1       0.098  -2.827   1.671  1.00  0.00     0.161 A 
ATOM     12  C   UNL     1       2.530  -3.954   0.856  1.00  0.00     0.048 A 
ATOM     13  C   UNL     1       0.353  -4.194   1.857  1.00  0.00     0.056 A 
ATOM     14  C   UNL     1       1.544  -4.781   1.419  1.00  0.00    -0.016 A 
ATOM     15  C   UNL     1       3.875  -4.523   0.518  1.00  0.00     0.254 C 
ATOM     16  N   UNL     1       4.211  -5.736   1.131  1.00  0.00    -0.333 N 
ATOM     17  O   UNL     1       4.629  -3.903  -0.224  1.00  0.00    -0.269 OA
ATOM     18  C   UNL     1       3.307  -6.362   2.136  1.00  0.00     0.132 C 
ATOM     19  C   UNL     1       5.516  -6.322   0.889  1.00  0.00     0.147 C 
BRANCH   9  20
ATOM     20  O   UNL     1       0.876  -0.662   1.008  1.00  0.00    -0.493 OA
ATOM     21  C   UNL     1       1.277  -0.073  -0.226  1.00  0.00     0.278 C 
ENDBRANCH   9  20
BRANCH  11  22
ATOM     22  O   UNL     1      -1.139  -2.457   2.131  1.00  0.00    -0.493 OA
ATOM     23  C   UNL     1      -1.706  -1.261   1.618  1.00  0.00     0.278 C 
ENDBRANCH  11  22
BRANCH  18  24
ATOM     24  C   UNL     1       3.485  -5.748   3.542  1.00  0.00    -0.023 A 
ATOM     25  C   UNL     1       2.910  -6.362   4.668  1.00  0.00     0.006 A 
ATOM     26  C   UNL     1       4.192  -4.552   3.769  1.00  0.00     0.026 A 
ATOM     27  C   UNL     1       2.936  -5.765   5.932  1.00  0.00     0.002 A 
ATOM     28  C   UNL     1       4.236  -3.963   5.037  1.00  0.00     0.041 A 
ATOM     29  C   UNL     1       3.589  -4.554   6.115  1.00  0.00     0.020 A 
ATOM     30  Cl  UNL     1       5.092  -2.487   5.262  1.00  0.00    -0.084 Cl
ENDBRANCH  18  24
ENDBRANCH   5   8
ENDBRANCH   3   4
ENDBRANCH   2   3
ENDBRANCH   1   2
BRANCH   1  31
ATOM     31  N   UNL     1      -3.752  -7.755   0.343  1.00  0.00    -0.352 N 
ATOM     32  C   UNL     1      -5.062  -7.881  -0.055  1.00  0.00     0.251 C 
ATOM     33  H   UNL     1      -3.554  -6.975   0.909  1.00  0.00     0.163 HD
ATOM     34  O   UNL     1      -5.860  -6.972   0.156  1.00  0.00    -0.269 OA
BRANCH  32  35
ATOM     35  C   UNL     1      -5.489  -9.105  -0.761  1.00  0.00     0.039 A 
ATOM     36  C   UNL     1      -6.236  -8.987  -1.935  1.00  0.00     0.014 A 
ATOM     37  C   UNL     1      -5.116 -10.364  -0.283  1.00  0.00     0.014 A 
ATOM     38  C   UNL     1      -6.546 -10.133  -2.670  1.00  0.00     0.010 A 
ATOM     39  C   UNL     1      -5.348 -11.491  -1.062  1.00  0.00     0.010 A 
ATOM     40  C   UNL     1      -6.070 -11.390  -2.261  1.00  0.00    -0.014 A 
BRANCH  40  41
ATOM     41  C   UNL     1      -6.307 -12.610  -3.074  1.00  0.00     0.031 A 
ATOM     42  C   UNL     1      -7.081 -13.765  -2.493  1.00  0.00     0.074 A 
ATOM     43  C   UNL     1      -5.741 -12.720  -4.294  1.00  0.00     0.049 A 
ATOM     44  N   UNL     1      -7.326 -14.937  -3.017  1.00  0.00    -0.248 NA
ATOM     45  C   UNL     1      -7.623 -13.594  -1.133  1.00  0.00     0.031 C 
ATOM     46  C   UNL     1      -4.894 -11.708  -4.930  1.00  0.00     0.029 A 
ATOM     47  N   UNL     1      -5.767 -13.746  -5.205  1.00  0.00    -0.354 N 
ATOM     48  C   UNL     1      -8.005 -15.656  -2.041  1.00  0.00     0.074 A 
ATOM     49  C   UNL     1      -8.114 -14.800  -0.881  1.00  0.00     0.031 C 
ATOM     50  C   UNL     1      -4.481 -12.164  -6.124  1.00  0.00     0.029 A 
ATOM     51  C   UNL     1      -5.007 -13.509  -6.328  1.00  0.00     0.049 A 
ATOM     52  H   UNL     1      -6.280 -14.575  -5.068  1.00  0.00     0.167 HD
ATOM     53  C   UNL     1      -8.517 -16.907  -2.113  1.00  0.00     0.034 A 
ATOM     54  C   UNL     1      -4.754 -14.292  -7.396  1.00  0.00     0.034 A 
ATOM     55  C   UNL     1      -8.467 -17.729  -3.290  1.00  0.00     0.049 A 
ATOM     56  C   UNL     1      -5.394 -15.653  -7.471  1.00  0.00     0.074 A 
ATOM     57  C   UNL     1      -9.060 -18.962  -3.500  1.00  0.00     0.029 A 
ATOM     58  N   UNL     1      -7.783 -17.409  -4.451  1.00  0.00    -0.354 N 
ATOM     59  N   UNL     1      -6.190 -16.239  -6.609  1.00  0.00    -0.248 NA
ATOM     60  C   UNL     1      -5.134 -16.446  -8.681  1.00  0.00     0.031 C 
ATOM     61  C   UNL     1      -8.712 -19.399  -4.781  1.00  0.00     0.029 A 
ATOM     62  C   UNL     1      -7.928 -18.425  -5.378  1.00  0.00     0.049 A 
ATOM     63  H   UNL     1      -7.270 -16.581  -4.595  1.00  0.00     0.167 HD
ATOM     64  C   UNL     1      -6.558 -17.447  -7.192  1.00  0.00     0.074 A 
ATOM     65  C   UNL     1      -5.917 -17.499  -8.489  1.00  0.00     0.031 C 
ATOM     66  C   UNL     1      -7.341 -18.433  -6.691  1.00  0.00     0.034 A 
BRANCH  53  67
ATOM     67  C   UNL     1      -9.232 -17.454  -0.907  1.00  0.00     0.023 A 
ATOM     68  C   UNL     1     -10.510 -16.963  -0.573  1.00  0.00     0.012 A 
ATOM     69  C   UNL     1      -8.686 -18.524  -0.171  1.00  0.00     0.148 A 
ATOM     70  C   UNL     1     -11.226 -17.516   0.488  1.00  0.00     0.002 A 
ATOM     71  C   UNL     1      -9.425 -19.099   0.855  1.00  0.00     0.091 A 
ATOM     72  F   UNL     1      -7.461 -18.962  -0.495  1.00  0.00    -0.205 F 
ATOM     73  C   UNL     1     -10.690 -18.591   1.192  1.00  0.00     0.022 A 
BRANCH  71  74
ATOM     74  S   UNL     1      -8.862 -20.540   1.769  1.00  0.00     0.127 S 
ATOM     75  O   UNL     1      -8.675 -19.984   3.108  1.00  0.00    -0.237 OA
ATOM     76  O   UNL     1     -10.002 -21.447   1.639  1.00  0.00    -0.237 OA
ATOM     77  O   UNL     1      -7.645 -20.988   1.108  1.00  0.00    -0.744 OA
ENDBRANCH  71  74
ENDBRANCH  53  67
BRANCH  54  78
ATOM     78  C   UNL     1      -3.897 -13.796  -8.511  1.00  0.00     0.023 A 
ATOM     79  C   UNL     1      -4.477 -13.540  -9.770  1.00  0.00     0.012 A 
ATOM     80  C   UNL     1      -2.516 -13.587  -8.339  1.00  0.00     0.148 A 
ATOM     81  C   UNL     1      -3.690 -13.132 -10.848  1.00  0.00     0.002 A 
ATOM     82  C   UNL     1      -1.747 -13.124  -9.402  1.00  0.00     0.091 A 
ATOM     83  F   UNL     1      -1.976 -13.849  -7.140  1.00  0.00    -0.205 F 
ATOM     84  C   UNL     1      -2.328 -12.917 -10.662  1.00  0.00     0.022 A 
BRANCH  82  85
ATOM     85  S   UNL     1      -0.015 -12.693  -9.207  1.00  0.00     0.127 S 
ATOM     86  O   UNL     1       0.651 -13.842  -9.813  1.00  0.00    -0.237 OA
ATOM     87  O   UNL     1       0.081 -11.450  -9.973  1.00  0.00    -0.237 OA
ATOM     88  O   UNL     1       0.181 -12.523  -7.773  1.00  0.00    -0.744 OA
ENDBRANCH  82  85
ENDBRANCH  54  78
BRANCH  66  89
ATOM     89  C   UNL     1      -7.598 -19.634  -7.561  1.00  0.00     0.023 A 
ATOM     90  C   UNL     1      -6.572 -20.572  -7.786  1.00  0.00     0.012 A 
ATOM     91  C   UNL     1      -8.883 -19.874  -8.086  1.00  0.00     0.148 A 
ATOM     92  C   UNL     1      -6.811 -21.713  -8.550  1.00  0.00     0.002 A 
ATOM     93  C   UNL     1      -9.128 -21.039  -8.803  1.00  0.00     0.091 A 
ATOM     94  F   UNL     1      -9.842 -18.960  -7.875  1.00  0.00    -0.205 F 
ATOM     95  C   UNL     1      -8.090 -21.953  -9.046  1.00  0.00     0.022 A 
BRANCH  93  96
ATOM     96  S   UNL     1     -10.767 -21.478  -9.392  1.00  0.00     0.127 S 
ATOM     97  O   UNL     1     -10.636 -21.255 -10.831  1.00  0.00    -0.237 OA
ATOM     98  O   UNL     1     -10.872 -22.884  -8.999  1.00  0.00    -0.237 OA
ATOM     99  O   UNL     1     -11.693 -20.589  -8.703  1.00  0.00    -0.744 OA
ENDBRANCH  93  96
ENDBRANCH  66  89
ENDBRANCH  40  41
ENDBRANCH  32  35
ENDBRANCH   1  31
TORSDOF 16
