REMARK SMILES CC(C)CN(C)c1cc2c(cc1Cl)C=C(C(=O)NCCCNC(=O)c1ccc(-c3c4nc(c(-c5cccc(S(=O)(=O)[O-])c5F)c5ccc([nH]5)c(-c5cccc(S(=O)(=O)[O-])c5F)c5nc(c(-c6cccc(S(=O)(=O)[O-])c6F)c6ccc3[nH]6)C=C5)C=C4)cc1)[C@@H](C(F)(F)F)O2
REMARK SMILES IDX 20 1 19 2 18 3 16 4 17 5 15 7 7 8 8 9 12 10 9 11 11 12 13 13
REMARK SMILES IDX 10 14 93 15 14 16 88 17 5 18 6 19 4 20 2 21 1 22 3 23 89 24
REMARK SMILES IDX 90 25 91 26 92 27 21 28 22 29 23 30 24 32 25 33 26 34 87 35
REMARK SMILES IDX 27 36 86 37 28 38 29 39 30 40 80 41 31 42 85 43 79 44 81 45
REMARK SMILES IDX 32 46 84 47 78 48 77 49 33 51 65 52 45 53 64 54 46 55 49 56
REMARK SMILES IDX 63 57 82 58 47 59 48 60 62 62 83 63 50 64 34 65 35 66 43 67
REMARK SMILES IDX 36 68 38 69 44 70 37 71 39 72 40 73 41 74 42 75 66 76 67 77
REMARK SMILES IDX 75 78 68 79 70 80 76 81 69 82 71 83 72 84 73 85 74 86 51 87
REMARK SMILES IDX 52 88 60 89 53 90 55 91 61 92 54 93 56 94 57 95 58 96 59 97
REMARK H PARENT 18 6 22 31 81 50 49 61
REMARK Flexibility Score: inf
ROOT
ATOM      1  C   UNL     1      -4.189   3.273   8.008  1.00  0.00     0.042 C 
ENDROOT
BRANCH   1   2
ATOM      2  C   UNL     1      -3.208   4.213   7.328  1.00  0.00     0.118 C 
BRANCH   2   3
ATOM      3  N   UNL     1      -1.847   3.706   7.378  1.00  0.00    -0.352 N 
ATOM      4  C   UNL     1      -0.939   3.244   6.489  1.00  0.00     0.251 C 
ATOM      5  O   UNL     1       0.165   2.954   6.960  1.00  0.00    -0.270 OA
ATOM      6  H   UNL     1      -1.495   3.696   8.298  1.00  0.00     0.163 HD
BRANCH   4   7
ATOM      7  C   UNL     1      -1.187   3.068   5.034  1.00  0.00     0.067 C 
ATOM      8  C   UNL     1      -0.774   1.888   0.151  1.00  0.00     0.059 A 
ATOM      9  C   UNL     1      -1.815   1.830   1.093  1.00  0.00     0.074 A 
ATOM     10  C   UNL     1       0.479   2.378   0.586  1.00  0.00     0.065 A 
ATOM     11  C   UNL     1      -1.593   2.205   2.414  1.00  0.00     0.130 A 
ATOM     12  C   UNL     1       0.720   2.660   1.936  1.00  0.00     0.034 A 
ATOM     13  Cl  UNL     1       1.781   2.671  -0.518  1.00  0.00    -0.082 Cl
ATOM     14  C   UNL     1      -0.316   2.556   2.857  1.00  0.00     0.019 A 
ATOM     15  O   UNL     1      -2.672   2.216   3.260  1.00  0.00    -0.475 OA
ATOM     16  C   UNL     1      -0.107   2.785   4.281  1.00  0.00     0.025 C 
ATOM     17  C   UNL     1      -2.531   3.160   4.366  1.00  0.00     0.314 C 
BRANCH   8  18
ATOM     18  N   UNL     1      -0.983   1.430  -1.161  1.00  0.00    -0.373 N 
ATOM     19  C   UNL     1      -2.046   2.116  -1.893  1.00  0.00     0.143 C 
BRANCH  18  20
ATOM     20  C   UNL     1      -0.898  -0.035  -1.345  1.00  0.00     0.119 C 
BRANCH  20  21
ATOM     21  C   UNL     1       0.559  -0.539  -1.412  1.00  0.00     0.002 C 
ATOM     22  C   UNL     1       1.076  -1.012  -0.050  1.00  0.00     0.009 C 
ATOM     23  C   UNL     1       0.695  -1.690  -2.413  1.00  0.00     0.009 C 
ENDBRANCH  20  21
ENDBRANCH  18  20
ENDBRANCH   8  18
BRANCH  17  24
ATOM     24  C   UNL     1      -2.848   4.603   3.901  1.00  0.00     0.429 C 
ATOM     25  F   UNL     1      -4.179   4.759   3.700  1.00  0.00    -0.167 F 
ATOM     26  F   UNL     1      -2.484   5.531   4.822  1.00  0.00    -0.167 F 
ATOM     27  F   UNL     1      -2.225   4.947   2.752  1.00  0.00    -0.167 F 
ENDBRANCH  17  24
ENDBRANCH   4   7
ENDBRANCH   2   3
ENDBRANCH   1   2
BRANCH   1  28
ATOM     28  C   UNL     1      -4.149   3.384   9.524  1.00  0.00     0.118 C 
BRANCH  28  29
ATOM     29  N   UNL     1      -4.637   4.676  10.001  1.00  0.00    -0.352 N 
ATOM     30  C   UNL     1      -5.689   4.968  10.838  1.00  0.00     0.251 C 
ATOM     31  H   UNL     1      -4.136   5.458   9.674  1.00  0.00     0.163 HD
ATOM     32  O   UNL     1      -6.059   6.131  10.968  1.00  0.00    -0.269 OA
BRANCH  30  33
ATOM     33  C   UNL     1      -6.383   3.873  11.545  1.00  0.00     0.039 A 
ATOM     34  C   UNL     1      -5.647   2.833  12.112  1.00  0.00     0.014 A 
ATOM     35  C   UNL     1      -7.779   3.857  11.599  1.00  0.00     0.014 A 
ATOM     36  C   UNL     1      -6.300   1.683  12.527  1.00  0.00     0.010 A 
ATOM     37  C   UNL     1      -8.437   2.743  12.128  1.00  0.00     0.010 A 
ATOM     38  C   UNL     1      -7.703   1.618  12.535  1.00  0.00    -0.014 A 
BRANCH  38  39
ATOM     39  C   UNL     1      -8.360   0.353  12.958  1.00  0.00     0.031 A 
ATOM     40  C   UNL     1      -9.236  -0.422  12.008  1.00  0.00     0.074 A 
ATOM     41  C   UNL     1      -8.100  -0.137  14.187  1.00  0.00     0.049 A 
ATOM     42  N   UNL     1      -9.839  -1.567  12.202  1.00  0.00    -0.248 NA
ATOM     43  C   UNL     1      -9.474   0.155  10.674  1.00  0.00     0.031 C 
ATOM     44  C   UNL     1      -7.279   0.530  15.202  1.00  0.00     0.029 A 
ATOM     45  N   UNL     1      -8.464  -1.318  14.781  1.00  0.00    -0.354 N 
ATOM     46  C   UNL     1     -10.564  -1.820  11.044  1.00  0.00     0.074 A 
ATOM     47  C   UNL     1     -10.329  -0.712  10.147  1.00  0.00     0.031 C 
ATOM     48  C   UNL     1      -7.146  -0.279  16.262  1.00  0.00     0.029 A 
ATOM     49  C   UNL     1      -7.923  -1.492  16.032  1.00  0.00     0.049 A 
ATOM     50  H   UNL     1      -9.056  -1.977  14.352  1.00  0.00     0.167 HD
ATOM     51  C   UNL     1     -11.338  -2.889  10.747  1.00  0.00     0.034 A 
ATOM     52  C   UNL     1      -8.039  -2.510  16.907  1.00  0.00     0.034 A 
ATOM     53  C   UNL     1     -11.510  -4.027  11.608  1.00  0.00     0.049 A 
ATOM     54  C   UNL     1      -8.882  -3.694  16.541  1.00  0.00     0.074 A 
ATOM     55  C   UNL     1     -12.231  -5.183  11.364  1.00  0.00     0.029 A 
ATOM     56  N   UNL     1     -10.951  -4.158  12.868  1.00  0.00    -0.354 N 
ATOM     57  N   UNL     1      -9.503  -3.940  15.414  1.00  0.00    -0.248 NA
ATOM     58  C   UNL     1      -9.041  -4.740  17.560  1.00  0.00     0.031 C 
ATOM     59  C   UNL     1     -12.109  -6.014  12.481  1.00  0.00     0.029 A 
ATOM     60  C   UNL     1     -11.312  -5.375  13.417  1.00  0.00     0.049 A 
ATOM     61  H   UNL     1     -10.381  -3.486  13.307  1.00  0.00     0.167 HD
ATOM     62  C   UNL     1     -10.127  -5.168  15.586  1.00  0.00     0.074 A 
ATOM     63  C   UNL     1      -9.786  -5.630  16.916  1.00  0.00     0.031 C 
ATOM     64  C   UNL     1     -10.931  -5.838  14.726  1.00  0.00     0.034 A 
BRANCH  51  65
ATOM     65  C   UNL     1     -12.023  -2.920   9.409  1.00  0.00     0.023 A 
ATOM     66  C   UNL     1     -11.291  -3.304   8.268  1.00  0.00     0.012 A 
ATOM     67  C   UNL     1     -13.406  -2.672   9.298  1.00  0.00     0.148 A 
ATOM     68  C   UNL     1     -11.924  -3.433   7.032  1.00  0.00     0.002 A 
ATOM     69  C   UNL     1     -14.034  -2.830   8.069  1.00  0.00     0.091 A 
ATOM     70  F   UNL     1     -14.076  -2.297  10.396  1.00  0.00    -0.205 F 
ATOM     71  C   UNL     1     -13.294  -3.206   6.935  1.00  0.00     0.022 A 
BRANCH  69  72
ATOM     72  S   UNL     1     -15.803  -2.614   7.842  1.00  0.00     0.127 S 
ATOM     73  O   UNL     1     -15.846  -1.446   6.963  1.00  0.00    -0.237 OA
ATOM     74  O   UNL     1     -16.186  -3.873   7.203  1.00  0.00    -0.237 OA
ATOM     75  O   UNL     1     -16.359  -2.408   9.172  1.00  0.00    -0.744 OA
ENDBRANCH  69  72
ENDBRANCH  51  65
BRANCH  52  76
ATOM     76  C   UNL     1      -7.295  -2.449  18.193  1.00  0.00     0.023 A 
ATOM     77  C   UNL     1      -6.152  -3.250  18.367  1.00  0.00     0.012 A 
ATOM     78  C   UNL     1      -7.659  -1.534  19.200  1.00  0.00     0.148 A 
ATOM     79  C   UNL     1      -5.381  -3.141  19.524  1.00  0.00     0.002 A 
ATOM     80  C   UNL     1      -6.861  -1.397  20.329  1.00  0.00     0.091 A 
ATOM     81  F   UNL     1      -8.756  -0.788  19.011  1.00  0.00    -0.205 F 
ATOM     82  C   UNL     1      -5.727  -2.207  20.498  1.00  0.00     0.022 A 
BRANCH  80  83
ATOM     83  S   UNL     1      -7.156  -0.137  21.574  1.00  0.00     0.127 S 
ATOM     84  O   UNL     1      -7.492  -0.946  22.743  1.00  0.00    -0.237 OA
ATOM     85  O   UNL     1      -5.855   0.530  21.638  1.00  0.00    -0.237 OA
ATOM     86  O   UNL     1      -8.234   0.692  21.052  1.00  0.00    -0.744 OA
ENDBRANCH  80  83
ENDBRANCH  52  76
BRANCH  64  87
ATOM     87  C   UNL     1     -11.516  -7.142  15.182  1.00  0.00     0.023 A 
ATOM     88  C   UNL     1     -12.655  -7.127  16.010  1.00  0.00     0.012 A 
ATOM     89  C   UNL     1     -11.029  -8.366  14.685  1.00  0.00     0.148 A 
ATOM     90  C   UNL     1     -13.301  -8.316  16.341  1.00  0.00     0.002 A 
ATOM     91  C   UNL     1     -11.698  -9.544  14.993  1.00  0.00     0.091 A 
ATOM     92  F   UNL     1      -9.940  -8.348  13.904  1.00  0.00    -0.205 F 
ATOM     93  C   UNL     1     -12.831  -9.521  15.823  1.00  0.00     0.022 A 
BRANCH  91  94
ATOM     94  S   UNL     1     -11.217 -11.136  14.316  1.00  0.00     0.127 S 
ATOM     95  O   UNL     1     -10.800 -11.857  15.518  1.00  0.00    -0.237 OA
ATOM     96  O   UNL     1     -12.468 -11.609  13.723  1.00  0.00    -0.237 OA
ATOM     97  O   UNL     1     -10.153 -10.865  13.359  1.00  0.00    -0.744 OA
ENDBRANCH  91  94
ENDBRANCH  64  87
ENDBRANCH  38  39
ENDBRANCH  30  33
ENDBRANCH  28  29
ENDBRANCH   1  28
TORSDOF 17
