REMARK SMILES CC[NH+](CC)C[C@H](C)NC(=O)N[C@H]1C=C[C@@H](C(=O)NCCCNC(=O)c2ccc(-c3c4nc(c(-c5cccc(S(=O)(=O)[O-])c5F)c5ccc([nH]5)c(-c5cccc(S(=O)(=O)[O-])c5F)c5nc(c(-c6cccc(S(=O)(=O)[O-])c6F)c6ccc3[nH]6)C=C5)C=C4)cc2)C1
REMARK SMILES IDX 20 1 19 2 17 3 18 4 16 6 13 7 14 8 89 9 15 10 12 11 9 12
REMARK SMILES IDX 10 13 11 15 7 17 8 18 6 19 3 20 2 22 1 23 4 24 5 25 21 26
REMARK SMILES IDX 22 27 23 28 24 29 25 31 26 32 27 33 88 34 28 35 87 36 29 37
REMARK SMILES IDX 30 38 31 39 81 40 32 41 86 42 80 43 82 44 33 45 85 46 79 47
REMARK SMILES IDX 78 48 34 50 66 51 46 52 65 53 47 54 50 55 64 56 83 57 48 58
REMARK SMILES IDX 49 59 63 61 84 62 51 63 35 64 36 65 44 66 37 67 39 68 45 69
REMARK SMILES IDX 38 70 40 71 41 72 42 73 43 74 67 75 68 76 76 77 69 78 71 79
REMARK SMILES IDX 77 80 70 81 72 82 73 83 74 84 75 85 52 86 53 87 61 88 54 89
REMARK SMILES IDX 56 90 62 91 55 92 57 93 58 94 59 95 60 96
REMARK H PARENT 19 5 9 14 12 16 3 21 23 30 82 49 50 60
REMARK Flexibility Score: inf
ROOT
ATOM      1  C   UNL     1       3.572   0.913   9.139  1.00  0.00     0.117 C 
ENDROOT
BRANCH   1   2
ATOM      2  N   UNL     1       2.348   1.675   9.317  1.00  0.00    -0.356 N 
ATOM      3  C   UNL     1       1.185   1.677   8.608  1.00  0.00     0.227 C 
ATOM      4  O   UNL     1       0.261   2.382   9.026  1.00  0.00    -0.274 OA
ATOM      5  H   UNL     1       2.362   2.297  10.080  1.00  0.00     0.163 HD
BRANCH   3   6
ATOM      6  C   UNL     1       1.004   0.859   7.329  1.00  0.00     0.103 C 
ATOM      7  C   UNL     1       2.547   0.088   5.600  1.00  0.00     0.107 C 
ATOM      8  C   UNL     1       2.265  -0.983   6.601  1.00  0.00    -0.006 C 
ATOM      9  C   UNL     1       1.893   1.343   6.180  1.00  0.00     0.047 C 
ATOM     10  C   UNL     1       1.363  -0.587   7.505  1.00  0.00    -0.016 C 
BRANCH   7  11
ATOM     11  N   UNL     1       3.957   0.281   5.402  1.00  0.00    -0.332 N 
ATOM     12  N   UNL     1       4.215   0.679   3.083  1.00  0.00    -0.330 N 
ATOM     13  C   UNL     1       4.697   0.588   4.327  1.00  0.00     0.315 C 
ATOM     14  H   UNL     1       4.899   0.952   2.428  1.00  0.00     0.165 HD
ATOM     15  O   UNL     1       5.902   0.775   4.504  1.00  0.00    -0.249 OA
ATOM     16  H   UNL     1       4.488   0.163   6.223  1.00  0.00     0.165 HD
BRANCH  12  17
ATOM     17  C   UNL     1       2.910   0.467   2.480  1.00  0.00     0.135 C 
ATOM     18  C   UNL     1       2.657   1.459   1.339  1.00  0.00     0.037 C 
BRANCH  17  19
ATOM     19  C   UNL     1       2.580  -1.021   2.093  1.00  0.00     0.287 C 
BRANCH  19  20
ATOM     20  N   UNL     1       3.574  -2.084   1.892  1.00  0.00    -0.334 N 
ATOM     21  H   UNL     1       3.035  -2.556   1.166  1.00  0.00     0.348 HD
BRANCH  20  22
ATOM     22  C   UNL     1       4.799  -1.810   1.154  1.00  0.00     0.258 C 
ATOM     23  C   UNL     1       4.547  -1.413  -0.292  1.00  0.00     0.071 C 
ENDBRANCH  20  22
BRANCH  20  24
ATOM     24  C   UNL     1       3.721  -3.078   2.955  1.00  0.00     0.258 C 
ATOM     25  C   UNL     1       4.691  -2.756   4.081  1.00  0.00     0.071 C 
ENDBRANCH  20  24
ENDBRANCH  19  20
ENDBRANCH  17  19
ENDBRANCH  12  17
ENDBRANCH   7  11
ENDBRANCH   3   6
ENDBRANCH   1   2
BRANCH   1  26
ATOM     26  C   UNL     1       4.779   1.788   8.859  1.00  0.00     0.042 C 
BRANCH  26  27
ATOM     27  C   UNL     1       5.210   2.598  10.066  1.00  0.00     0.118 C 
BRANCH  27  28
ATOM     28  N   UNL     1       5.604   1.749  11.188  1.00  0.00    -0.352 N 
ATOM     29  C   UNL     1       6.810   1.659  11.833  1.00  0.00     0.251 C 
ATOM     30  H   UNL     1       4.899   1.154  11.531  1.00  0.00     0.163 HD
ATOM     31  O   UNL     1       7.018   0.729  12.613  1.00  0.00    -0.269 OA
BRANCH  29  32
ATOM     32  C   UNL     1       7.851   2.673  11.584  1.00  0.00     0.039 A 
ATOM     33  C   UNL     1       9.185   2.275  11.465  1.00  0.00     0.014 A 
ATOM     34  C   UNL     1       7.504   4.020  11.463  1.00  0.00     0.014 A 
ATOM     35  C   UNL     1      10.161   3.226  11.165  1.00  0.00     0.010 A 
ATOM     36  C   UNL     1       8.455   4.942  11.054  1.00  0.00     0.010 A 
ATOM     37  C   UNL     1       9.797   4.561  10.926  1.00  0.00    -0.014 A 
BRANCH  37  38
ATOM     38  C   UNL     1      10.799   5.591  10.563  1.00  0.00     0.031 A 
ATOM     39  C   UNL     1      10.993   6.791  11.450  1.00  0.00     0.074 A 
ATOM     40  C   UNL     1      11.454   5.500   9.390  1.00  0.00     0.049 A 
ATOM     41  N   UNL     1      11.759   7.835  11.272  1.00  0.00    -0.248 NA
ATOM     42  C   UNL     1      10.191   6.842  12.685  1.00  0.00     0.031 C 
ATOM     43  C   UNL     1      11.292   4.423   8.410  1.00  0.00     0.029 A 
ATOM     44  N   UNL     1      12.370   6.340   8.812  1.00  0.00    -0.354 N 
ATOM     45  C   UNL     1      11.495   8.684  12.339  1.00  0.00     0.074 A 
ATOM     46  C   UNL     1      10.467   8.055  13.137  1.00  0.00     0.031 C 
ATOM     47  C   UNL     1      12.098   4.658   7.362  1.00  0.00     0.029 A 
ATOM     48  C   UNL     1      12.802   5.918   7.576  1.00  0.00     0.049 A 
ATOM     49  H   UNL     1      12.689   7.168   9.240  1.00  0.00     0.167 HD
ATOM     50  C   UNL     1      12.077   9.868  12.647  1.00  0.00     0.034 A 
ATOM     51  C   UNL     1      13.665   6.486   6.713  1.00  0.00     0.034 A 
ATOM     52  C   UNL     1      13.127  10.465  11.870  1.00  0.00     0.049 A 
ATOM     53  C   UNL     1      14.322   7.785   7.089  1.00  0.00     0.074 A 
ATOM     54  C   UNL     1      13.856  11.608  12.141  1.00  0.00     0.029 A 
ATOM     55  N   UNL     1      13.589   9.973  10.658  1.00  0.00    -0.354 N 
ATOM     56  N   UNL     1      14.178   8.499   8.180  1.00  0.00    -0.248 NA
ATOM     57  C   UNL     1      15.287   8.341   6.130  1.00  0.00     0.031 C 
ATOM     58  C   UNL     1      14.732  11.829  11.073  1.00  0.00     0.029 A 
ATOM     59  C   UNL     1      14.580  10.799  10.158  1.00  0.00     0.049 A 
ATOM     60  H   UNL     1      13.261   9.156  10.218  1.00  0.00     0.167 HD
ATOM     61  C   UNL     1      15.062   9.565   8.059  1.00  0.00     0.074 A 
ATOM     62  C   UNL     1      15.745   9.396   6.792  1.00  0.00     0.031 C 
ATOM     63  C   UNL     1      15.283  10.593   8.916  1.00  0.00     0.034 A 
BRANCH  50  64
ATOM     64  C   UNL     1      11.603  10.571  13.894  1.00  0.00     0.023 A 
ATOM     65  C   UNL     1      11.864  10.008  15.162  1.00  0.00     0.012 A 
ATOM     66  C   UNL     1      10.912  11.795  13.815  1.00  0.00     0.148 A 
ATOM     67  C   UNL     1      11.395  10.619  16.324  1.00  0.00     0.002 A 
ATOM     68  C   UNL     1      10.494  12.427  14.982  1.00  0.00     0.091 A 
ATOM     69  F   UNL     1      10.651  12.307  12.604  1.00  0.00    -0.205 F 
ATOM     70  C   UNL     1      10.719  11.832  16.234  1.00  0.00     0.022 A 
BRANCH  68  71
ATOM     71  S   UNL     1       9.692  14.033  14.973  1.00  0.00     0.127 S 
ATOM     72  O   UNL     1       8.309  13.674  15.281  1.00  0.00    -0.237 OA
ATOM     73  O   UNL     1      10.394  14.733  16.050  1.00  0.00    -0.237 OA
ATOM     74  O   UNL     1       9.918  14.586  13.646  1.00  0.00    -0.744 OA
ENDBRANCH  68  71
ENDBRANCH  50  64
BRANCH  51  75
ATOM     75  C   UNL     1      14.022   5.778   5.452  1.00  0.00     0.023 A 
ATOM     76  C   UNL     1      15.302   5.202   5.330  1.00  0.00     0.012 A 
ATOM     77  C   UNL     1      13.097   5.628   4.401  1.00  0.00     0.148 A 
ATOM     78  C   UNL     1      15.664   4.511   4.174  1.00  0.00     0.002 A 
ATOM     79  C   UNL     1      13.446   4.896   3.272  1.00  0.00     0.091 A 
ATOM     80  F   UNL     1      11.885   6.185   4.540  1.00  0.00    -0.205 F 
ATOM     81  C   UNL     1      14.734   4.349   3.150  1.00  0.00     0.022 A 
BRANCH  79  82
ATOM     82  S   UNL     1      12.286   4.536   1.949  1.00  0.00     0.127 S 
ATOM     83  O   UNL     1      12.896   5.234   0.819  1.00  0.00    -0.237 OA
ATOM     84  O   UNL     1      12.355   3.076   1.881  1.00  0.00    -0.237 OA
ATOM     85  O   UNL     1      11.003   5.064   2.391  1.00  0.00    -0.744 OA
ENDBRANCH  79  82
ENDBRANCH  51  75
BRANCH  63  86
ATOM     86  C   UNL     1      16.340  11.600   8.543  1.00  0.00     0.023 A 
ATOM     87  C   UNL     1      16.108  12.515   7.498  1.00  0.00     0.012 A 
ATOM     88  C   UNL     1      17.534  11.687   9.287  1.00  0.00     0.148 A 
ATOM     89  C   UNL     1      17.061  13.482   7.179  1.00  0.00     0.002 A 
ATOM     90  C   UNL     1      18.454  12.687   8.999  1.00  0.00     0.091 A 
ATOM     91  F   UNL     1      17.744  10.795  10.266  1.00  0.00    -0.205 F 
ATOM     92  C   UNL     1      18.226  13.576   7.937  1.00  0.00     0.022 A 
BRANCH  90  93
ATOM     93  S   UNL     1      19.932  12.950   9.986  1.00  0.00     0.127 S 
ATOM     94  O   UNL     1      20.984  12.522   9.067  1.00  0.00    -0.237 OA
ATOM     95  O   UNL     1      19.886  14.391  10.233  1.00  0.00    -0.237 OA
ATOM     96  O   UNL     1      19.772  12.127  11.178  1.00  0.00    -0.744 OA
ENDBRANCH  90  93
ENDBRANCH  63  86
ENDBRANCH  37  38
ENDBRANCH  29  32
ENDBRANCH  27  28
ENDBRANCH  26  27
ENDBRANCH   1  26
TORSDOF 19
