REMARK SMILES C[C@H]1[NH2+]CC[C@H]1C(=O)N1CC(C(=O)NCCCNC(=O)c2ccc(-c3c4nc(c(-c5cccc(S(=O)(=O)[O-])c5F)c5ccc([nH]5)c(-c5cccc(S(=O)(=O)[O-])c5F)c5nc(c(-c6cccc(S(=O)(=O)[O-])c6F)c6ccc3[nH]6)C=C5)C=C4)cc2)C1
REMARK SMILES IDX 17 1 16 2 15 3 14 4 12 5 13 6 11 8 7 9 8 10 9 11 10 12 84 13
REMARK SMILES IDX 6 14 1 15 2 16 3 17 4 18 5 21 18 22 19 23 20 25 21 26 22 27
REMARK SMILES IDX 83 28 23 29 82 30 24 31 25 32 26 33 76 34 27 35 81 36 75 37
REMARK SMILES IDX 77 38 28 39 80 40 74 41 73 42 29 44 61 45 41 46 60 47 42 48
REMARK SMILES IDX 45 49 59 50 78 51 43 52 44 53 58 55 79 56 46 57 30 58 31 59
REMARK SMILES IDX 39 60 32 61 34 62 40 63 33 64 35 65 36 66 37 67 38 68 62 69
REMARK SMILES IDX 63 70 71 71 64 72 66 73 72 74 65 75 67 76 68 77 69 78 70 79
REMARK SMILES IDX 47 80 48 81 56 82 49 83 51 84 57 85 50 86 52 87 53 88 54 89
REMARK SMILES IDX 55 90
REMARK H PARENT 14 7 3 19 3 20 18 24 77 43 45 54
REMARK Flexibility Score: inf
ROOT
ATOM      1  C   UNL     1       2.139   0.039   6.468  1.00  0.00     0.118 C 
ENDROOT
BRANCH   1   2
ATOM      2  C   UNL     1       1.691   0.312   5.037  1.00  0.00     0.042 C 
BRANCH   2   3
ATOM      3  C   UNL     1       1.354   1.768   4.747  1.00  0.00     0.117 C 
BRANCH   3   4
ATOM      4  N   UNL     1       2.497   2.654   4.886  1.00  0.00    -0.356 N 
ATOM      5  C   UNL     1       3.133   3.463   3.976  1.00  0.00     0.226 C 
ATOM      6  O   UNL     1       4.064   4.148   4.428  1.00  0.00    -0.275 OA
ATOM      7  H   UNL     1       2.883   2.679   5.791  1.00  0.00     0.163 HD
BRANCH   5   8
ATOM      8  C   UNL     1       2.739   3.518   2.498  1.00  0.00     0.117 C 
ATOM      9  C   UNL     1       0.915   2.417  -0.010  1.00  0.00     0.231 C 
ATOM     10  O   UNL     1       1.142   3.319  -0.818  1.00  0.00    -0.274 OA
ATOM     11  N   UNL     1       1.335   2.495   1.305  1.00  0.00    -0.341 N 
ATOM     12  C   UNL     1       1.307   3.768   2.060  1.00  0.00     0.134 C 
ATOM     13  C   UNL     1       2.739   2.241   1.682  1.00  0.00     0.134 C 
BRANCH   9  14
ATOM     14  C   UNL     1       0.088   1.197  -0.392  1.00  0.00     0.142 C 
ATOM     15  C   UNL     1       1.792  -0.585   0.482  1.00  0.00     0.076 C 
ATOM     16  C   UNL     1       0.786  -0.149  -0.576  1.00  0.00     0.192 C 
ATOM     17  N   UNL     1      -0.346  -1.090  -0.608  1.00  0.00    -0.343 N 
ATOM     18  C   UNL     1      -1.419  -0.561   0.234  1.00  0.00     0.261 C 
ATOM     19  H   UNL     1      -0.048  -1.999  -0.253  1.00  0.00     0.346 HD
ATOM     20  H   UNL     1      -0.679  -1.202  -1.566  1.00  0.00     0.346 HD
ATOM     21  C   UNL     1      -1.057   0.880   0.559  1.00  0.00     0.081 C 
ENDBRANCH   9  14
ENDBRANCH   5   8
ENDBRANCH   3   4
ENDBRANCH   2   3
ENDBRANCH   1   2
BRANCH   1  22
ATOM     22  N   UNL     1       1.123   0.381   7.457  1.00  0.00    -0.352 N 
ATOM     23  C   UNL     1       0.490  -0.405   8.387  1.00  0.00     0.251 C 
ATOM     24  H   UNL     1       0.847   1.326   7.456  1.00  0.00     0.163 HD
ATOM     25  O   UNL     1      -0.468   0.056   9.010  1.00  0.00    -0.269 OA
BRANCH  23  26
ATOM     26  C   UNL     1       0.931  -1.794   8.633  1.00  0.00     0.039 A 
ATOM     27  C   UNL     1      -0.035  -2.788   8.819  1.00  0.00     0.014 A 
ATOM     28  C   UNL     1       2.288  -2.123   8.699  1.00  0.00     0.014 A 
ATOM     29  C   UNL     1       0.359  -4.116   8.998  1.00  0.00     0.010 A 
ATOM     30  C   UNL     1       2.676  -3.457   8.787  1.00  0.00     0.010 A 
ATOM     31  C   UNL     1       1.718  -4.469   8.943  1.00  0.00    -0.014 A 
BRANCH  31  32
ATOM     32  C   UNL     1       2.152  -5.888   9.024  1.00  0.00     0.031 A 
ATOM     33  C   UNL     1       3.055  -6.349  10.137  1.00  0.00     0.074 A 
ATOM     34  C   UNL     1       1.805  -6.746   8.043  1.00  0.00     0.049 A 
ATOM     35  N   UNL     1       3.579  -7.531  10.336  1.00  0.00    -0.248 NA
ATOM     36  C   UNL     1       3.442  -5.346  11.142  1.00  0.00     0.031 C 
ATOM     37  C   UNL     1       1.001  -6.404   6.867  1.00  0.00     0.029 A 
ATOM     38  N   UNL     1       2.108  -8.073   7.862  1.00  0.00    -0.354 N 
ATOM     39  C   UNL     1       4.386  -7.405  11.461  1.00  0.00     0.074 A 
ATOM     40  C   UNL     1       4.309  -6.023  11.881  1.00  0.00     0.031 C 
ATOM     41  C   UNL     1       0.869  -7.492   6.093  1.00  0.00     0.029 A 
ATOM     42  C   UNL     1       1.609  -8.598   6.693  1.00  0.00     0.049 A 
ATOM     43  H   UNL     1       2.634  -8.598   8.508  1.00  0.00     0.167 HD
ATOM     44  C   UNL     1       5.104  -8.357  12.104  1.00  0.00     0.034 A 
ATOM     45  C   UNL     1       1.741  -9.826   6.155  1.00  0.00     0.034 A 
ATOM     46  C   UNL     1       5.152  -9.738  11.703  1.00  0.00     0.049 A 
ATOM     47  C   UNL     1       2.519 -10.874   6.902  1.00  0.00     0.074 A 
ATOM     48  C   UNL     1       5.776 -10.796  12.339  1.00  0.00     0.029 A 
ATOM     49  N   UNL     1       4.569 -10.250  10.554  1.00  0.00    -0.354 N 
ATOM     50  N   UNL     1       3.144 -10.774   8.050  1.00  0.00    -0.248 NA
ATOM     51  C   UNL     1       2.582 -12.213   6.299  1.00  0.00     0.031 C 
ATOM     52  C   UNL     1       5.602 -11.942  11.555  1.00  0.00     0.029 A 
ATOM     53  C   UNL     1       4.832 -11.606  10.453  1.00  0.00     0.049 A 
ATOM     54  H   UNL     1       4.045  -9.727   9.905  1.00  0.00     0.167 HD
ATOM     55  C   UNL     1       3.640 -12.043   8.326  1.00  0.00     0.074 A 
ATOM     56  C   UNL     1       3.228 -12.899   7.232  1.00  0.00     0.031 C 
ATOM     57  C   UNL     1       4.379 -12.459   9.384  1.00  0.00     0.034 A 
BRANCH  44  58
ATOM     58  C   UNL     1       5.871  -7.945  13.335  1.00  0.00     0.023 A 
ATOM     59  C   UNL     1       5.174  -7.594  14.510  1.00  0.00     0.012 A 
ATOM     60  C   UNL     1       7.280  -7.953  13.346  1.00  0.00     0.148 A 
ATOM     61  C   UNL     1       5.864  -7.218  15.662  1.00  0.00     0.002 A 
ATOM     62  C   UNL     1       7.961  -7.626  14.513  1.00  0.00     0.091 A 
ATOM     63  F   UNL     1       7.927  -8.270  12.216  1.00  0.00    -0.205 F 
ATOM     64  C   UNL     1       7.256  -7.244  15.666  1.00  0.00     0.022 A 
BRANCH  62  65
ATOM     65  S   UNL     1       9.750  -7.710  14.646  1.00  0.00     0.127 S 
ATOM     66  O   UNL     1      10.106  -6.294  14.725  1.00  0.00    -0.237 OA
ATOM     67  O   UNL     1       9.930  -8.454  15.893  1.00  0.00    -0.237 OA
ATOM     68  O   UNL     1      10.210  -8.404  13.452  1.00  0.00    -0.744 OA
ENDBRANCH  62  65
ENDBRANCH  44  58
BRANCH  45  69
ATOM     69  C   UNL     1       1.073 -10.145   4.861  1.00  0.00     0.023 A 
ATOM     70  C   UNL     1      -0.026 -11.026   4.845  1.00  0.00     0.012 A 
ATOM     71  C   UNL     1       1.498  -9.553   3.656  1.00  0.00     0.148 A 
ATOM     72  C   UNL     1      -0.669 -11.337   3.647  1.00  0.00     0.002 A 
ATOM     73  C   UNL     1       0.816  -9.821   2.476  1.00  0.00     0.091 A 
ATOM     74  F   UNL     1       2.550  -8.724   3.693  1.00  0.00    -0.205 F 
ATOM     75  C   UNL     1      -0.256 -10.727   2.465  1.00  0.00     0.022 A 
BRANCH  73  76
ATOM     76  S   UNL     1       1.188  -8.977   0.935  1.00  0.00     0.127 S 
ATOM     77  O   UNL     1       1.725 -10.064   0.120  1.00  0.00    -0.237 OA
ATOM     78  O   UNL     1      -0.133  -8.496   0.530  1.00  0.00    -0.237 OA
ATOM     79  O   UNL     1       2.131  -7.921   1.280  1.00  0.00    -0.744 OA
ENDBRANCH  73  76
ENDBRANCH  45  69
BRANCH  57  80
ATOM     80  C   UNL     1       4.758 -13.916   9.446  1.00  0.00     0.023 A 
ATOM     81  C   UNL     1       5.721 -14.435   8.558  1.00  0.00     0.012 A 
ATOM     82  C   UNL     1       4.209 -14.754  10.437  1.00  0.00     0.148 A 
ATOM     83  C   UNL     1       6.107 -15.774   8.635  1.00  0.00     0.002 A 
ATOM     84  C   UNL     1       4.637 -16.072  10.542  1.00  0.00     0.091 A 
ATOM     85  F   UNL     1       3.280 -14.246  11.261  1.00  0.00    -0.205 F 
ATOM     86  C   UNL     1       5.575 -16.587   9.633  1.00  0.00     0.022 A 
BRANCH  84  87
ATOM     87  S   UNL     1       4.084 -17.164  11.856  1.00  0.00     0.127 S 
ATOM     88  O   UNL     1       3.246 -18.111  11.123  1.00  0.00    -0.237 OA
ATOM     89  O   UNL     1       5.346 -17.719  12.348  1.00  0.00    -0.237 OA
ATOM     90  O   UNL     1       3.381 -16.320  12.813  1.00  0.00    -0.744 OA
ENDBRANCH  84  87
ENDBRANCH  57  80
ENDBRANCH  31  32
ENDBRANCH  23  26
ENDBRANCH   1  22
TORSDOF 14
