REMARK SMILES O=C(NCCCNC(=O)c1[nH]nc2c1CCC2)c1ccc(-c2c3nc(c(-c4cccc(S(=O)(=O)[O-])c4F)c4ccc([nH]4)c(-c4cccc(S(=O)(=O)[O-])c4F)c4nc(c(-c5cccc(S(=O)(=O)[O-])c5F)c5ccc2[nH]5)C=C4)C=C3)cc1
REMARK SMILES IDX 1 1 2 2 3 3 18 5 19 6 80 7 20 8 79 9 21 10 22 11 23 12 73 13
REMARK SMILES IDX 24 14 78 15 72 16 74 17 25 18 77 19 71 20 70 21 26 23 58 24
REMARK SMILES IDX 38 25 57 26 39 27 42 28 56 29 75 30 40 31 41 32 55 34 76 35
REMARK SMILES IDX 43 36 27 37 28 38 36 39 29 40 31 41 37 42 30 43 32 44 33 45
REMARK SMILES IDX 34 46 35 47 59 48 60 49 68 50 61 51 63 52 69 53 62 54 64 55
REMARK SMILES IDX 65 56 66 57 67 58 44 59 45 60 53 61 46 62 48 63 54 64 47 65
REMARK SMILES IDX 49 66 50 67 51 68 52 69 4 70 5 71 6 72 7 73 8 74 9 76 10 77
REMARK SMILES IDX 11 78 14 79 12 80 13 82 15 83 17 84 16 85
REMARK H PARENT 3 4 74 22 42 33 7 75 11 81
REMARK Flexibility Score: inf
ROOT
ATOM      1  O   UNL     1       1.235  -0.303  -0.589  1.00  0.00    -0.269 OA
ATOM      2  C   UNL     1       2.277  -0.009   0.002  1.00  0.00     0.251 C 
ATOM      3  N   UNL     1       3.289  -0.924  -0.099  1.00  0.00    -0.352 N 
ATOM      4  H   UNL     1       2.984  -1.788  -0.460  1.00  0.00     0.163 HD
ENDROOT
BRANCH   2   5
ATOM      5  C   UNL     1       2.317   1.226   0.830  1.00  0.00     0.039 A 
ATOM      6  C   UNL     1       3.463   1.829   1.351  1.00  0.00     0.014 A 
ATOM      7  C   UNL     1       1.063   1.795   1.125  1.00  0.00     0.014 A 
ATOM      8  C   UNL     1       3.353   2.912   2.224  1.00  0.00     0.010 A 
ATOM      9  C   UNL     1       0.947   2.878   1.987  1.00  0.00     0.010 A 
ATOM     10  C   UNL     1       2.094   3.417   2.562  1.00  0.00    -0.014 A 
BRANCH  10  11
ATOM     11  C   UNL     1       2.017   4.676   3.304  1.00  0.00     0.031 A 
ATOM     12  C   UNL     1       2.507   5.838   2.508  1.00  0.00     0.074 A 
ATOM     13  C   UNL     1       1.410   4.816   4.502  1.00  0.00     0.049 A 
ATOM     14  N   UNL     1       3.539   6.583   2.742  1.00  0.00    -0.248 NA
ATOM     15  C   UNL     1       1.877   6.090   1.200  1.00  0.00     0.031 C 
ATOM     16  C   UNL     1       0.650   3.794   5.224  1.00  0.00     0.029 A 
ATOM     17  N   UNL     1       1.218   5.936   5.267  1.00  0.00    -0.354 N 
ATOM     18  C   UNL     1       3.513   7.563   1.749  1.00  0.00     0.074 A 
ATOM     19  C   UNL     1       2.643   7.069   0.719  1.00  0.00     0.031 C 
ATOM     20  C   UNL     1      -0.113   4.388   6.169  1.00  0.00     0.029 A 
ATOM     21  C   UNL     1       0.185   5.809   6.200  1.00  0.00     0.049 A 
ATOM     22  H   UNL     1       1.758   6.753   5.169  1.00  0.00     0.167 HD
ATOM     23  C   UNL     1       3.943   8.829   2.009  1.00  0.00     0.034 A 
ATOM     24  C   UNL     1      -0.435   6.805   6.887  1.00  0.00     0.034 A 
ATOM     25  C   UNL     1       4.789   8.856   3.178  1.00  0.00     0.049 A 
ATOM     26  C   UNL     1       0.451   7.986   6.857  1.00  0.00     0.074 A 
ATOM     27  C   UNL     1       5.950   8.224   3.575  1.00  0.00     0.029 A 
ATOM     28  N   UNL     1       4.231   9.377   4.318  1.00  0.00    -0.354 N 
ATOM     29  N   UNL     1       1.590   8.049   7.483  1.00  0.00    -0.248 NA
ATOM     30  C   UNL     1       0.256   8.961   5.799  1.00  0.00     0.031 C 
ATOM     31  C   UNL     1       5.794   8.011   4.977  1.00  0.00     0.029 A 
ATOM     32  C   UNL     1       4.586   8.587   5.372  1.00  0.00     0.049 A 
ATOM     33  H   UNL     1       3.670  10.184   4.367  1.00  0.00     0.167 HD
ATOM     34  C   UNL     1       2.421   8.709   6.591  1.00  0.00     0.074 A 
ATOM     35  C   UNL     1       1.520   9.359   5.641  1.00  0.00     0.031 C 
ATOM     36  C   UNL     1       3.752   8.411   6.537  1.00  0.00     0.034 A 
BRANCH  23  37
ATOM     37  C   UNL     1       3.238  10.093   1.527  1.00  0.00     0.023 A 
ATOM     38  C   UNL     1       3.815  11.327   1.914  1.00  0.00     0.012 A 
ATOM     39  C   UNL     1       1.919  10.149   1.016  1.00  0.00     0.148 A 
ATOM     40  C   UNL     1       3.084  12.521   1.904  1.00  0.00     0.002 A 
ATOM     41  C   UNL     1       1.222  11.350   0.937  1.00  0.00     0.091 A 
ATOM     42  F   UNL     1       1.264   9.032   0.703  1.00  0.00    -0.205 F 
ATOM     43  C   UNL     1       1.784  12.532   1.419  1.00  0.00     0.022 A 
BRANCH  41  44
ATOM     44  S   UNL     1      -0.450  11.432   0.277  1.00  0.00     0.127 S 
ATOM     45  O   UNL     1      -1.221  11.734   1.480  1.00  0.00    -0.237 OA
ATOM     46  O   UNL     1      -0.333  12.532  -0.680  1.00  0.00    -0.237 OA
ATOM     47  O   UNL     1      -0.702  10.133  -0.333  1.00  0.00    -0.744 OA
ENDBRANCH  41  44
ENDBRANCH  23  37
BRANCH  24  48
ATOM     48  C   UNL     1      -1.835   6.928   7.374  1.00  0.00     0.023 A 
ATOM     49  C   UNL     1      -2.158   7.905   8.342  1.00  0.00     0.012 A 
ATOM     50  C   UNL     1      -2.898   6.310   6.682  1.00  0.00     0.148 A 
ATOM     51  C   UNL     1      -3.487   8.282   8.580  1.00  0.00     0.002 A 
ATOM     52  C   UNL     1      -4.218   6.681   6.928  1.00  0.00     0.091 A 
ATOM     53  F   UNL     1      -2.612   5.429   5.716  1.00  0.00    -0.205 F 
ATOM     54  C   UNL     1      -4.516   7.677   7.866  1.00  0.00     0.022 A 
BRANCH  52  55
ATOM     55  S   UNL     1      -5.596   5.961   6.024  1.00  0.00     0.127 S 
ATOM     56  O   UNL     1      -6.513   5.604   7.107  1.00  0.00    -0.237 OA
ATOM     57  O   UNL     1      -6.033   7.081   5.196  1.00  0.00    -0.237 OA
ATOM     58  O   UNL     1      -5.046   4.819   5.305  1.00  0.00    -0.744 OA
ENDBRANCH  52  55
ENDBRANCH  24  48
BRANCH  36  59
ATOM     59  C   UNL     1       4.353   7.638   7.681  1.00  0.00     0.023 A 
ATOM     60  C   UNL     1       3.954   6.330   8.024  1.00  0.00     0.012 A 
ATOM     61  C   UNL     1       5.457   8.209   8.334  1.00  0.00     0.148 A 
ATOM     62  C   UNL     1       4.631   5.619   9.019  1.00  0.00     0.002 A 
ATOM     63  C   UNL     1       6.158   7.480   9.283  1.00  0.00     0.091 A 
ATOM     64  F   UNL     1       5.818   9.457   7.997  1.00  0.00    -0.205 F 
ATOM     65  C   UNL     1       5.743   6.188   9.638  1.00  0.00     0.022 A 
BRANCH  63  66
ATOM     66  S   UNL     1       7.665   8.119  10.014  1.00  0.00     0.127 S 
ATOM     67  O   UNL     1       7.212   8.523  11.343  1.00  0.00    -0.237 OA
ATOM     68  O   UNL     1       8.545   6.949   9.995  1.00  0.00    -0.237 OA
ATOM     69  O   UNL     1       8.104   9.203   9.143  1.00  0.00    -0.744 OA
ENDBRANCH  63  66
ENDBRANCH  36  59
ENDBRANCH  10  11
ENDBRANCH   2   5
BRANCH   3  70
ATOM     70  C   UNL     1       4.704  -0.916   0.203  1.00  0.00     0.118 C 
BRANCH  70  71
ATOM     71  C   UNL     1       5.067  -1.209   1.655  1.00  0.00     0.042 C 
BRANCH  71  72
ATOM     72  C   UNL     1       4.532  -2.529   2.202  1.00  0.00     0.118 C 
BRANCH  72  73
ATOM     73  N   UNL     1       5.075  -3.696   1.526  1.00  0.00    -0.351 N 
ATOM     74  C   UNL     1       5.834  -4.723   2.027  1.00  0.00     0.269 C 
ATOM     75  H   UNL     1       4.867  -3.759   0.565  1.00  0.00     0.163 HD
ATOM     76  O   UNL     1       6.382  -5.482   1.234  1.00  0.00    -0.268 OA
BRANCH  74  77
ATOM     77  C   UNL     1       6.012  -4.845   3.445  1.00  0.00     0.126 A 
ATOM     78  N   UNL     1       7.234  -5.174   4.003  1.00  0.00    -0.272 N 
ATOM     79  C   UNL     1       5.175  -4.752   4.528  1.00  0.00     0.006 A 
ATOM     80  N   UNL     1       7.259  -5.147   5.361  1.00  0.00    -0.180 NA
ATOM     81  H   UNL     1       8.021  -5.408   3.460  1.00  0.00     0.190 HD
ATOM     82  C   UNL     1       5.995  -4.879   5.649  1.00  0.00     0.066 A 
ATOM     83  C   UNL     1       3.769  -4.521   4.915  1.00  0.00     0.040 C 
ATOM     84  C   UNL     1       5.276  -4.662   6.919  1.00  0.00     0.059 C 
ATOM     85  C   UNL     1       3.929  -4.052   6.399  1.00  0.00     0.011 C 
ENDBRANCH  74  77
ENDBRANCH  72  73
ENDBRANCH  71  72
ENDBRANCH  70  71
ENDBRANCH   3  70
TORSDOF 13
