REMARK SMILES O=C(NCCCNC(=O)[C@H](c1c[nH]c2cc(F)ccc12)[NH+]1CC[NH+](CC(=O)N2CCOCC2)CC1)c1ccc(-c2c3nc(c(-c4cccc(S(=O)(=O)[O-])c4F)c4ccc([nH]4)c(-c4cccc(S(=O)(=O)[O-])c4F)c4nc(c(-c5cccc(S(=O)(=O)[O-])c5F)c5ccc2[nH]5)C=C4)C=C3)cc1
REMARK SMILES IDX 5 1 4 2 3 3 1 4 2 5 36 7 37 8 98 9 38 10 97 11 39 12 40 13
REMARK SMILES IDX 41 14 91 15 42 16 96 17 90 18 92 19 43 20 95 21 89 22 88 23
REMARK SMILES IDX 44 25 76 26 56 27 75 28 57 29 60 30 74 31 93 32 58 33 59 34
REMARK SMILES IDX 73 36 94 37 61 38 45 39 46 40 54 41 47 42 49 43 55 44 48 45
REMARK SMILES IDX 50 46 51 47 52 48 53 49 77 50 78 51 86 52 79 53 81 54 87 55
REMARK SMILES IDX 80 56 82 57 83 58 84 59 85 60 62 61 63 62 71 63 64 64 66 65
REMARK SMILES IDX 72 66 65 67 67 68 68 69 69 70 70 71 6 72 7 73 8 74 9 76
REMARK SMILES IDX 10 77 21 78 22 79 35 80 23 82 34 83 24 84 25 86 26 87 27 88
REMARK SMILES IDX 28 89 29 90 33 91 30 92 32 93 31 94 11 95 12 96 20 97 13 98
REMARK SMILES IDX 14 99 19 100 15 102 18 103 16 104 17 105
REMARK H PARENT 3 6 92 24 60 35 7 75 21 81 24 85 13 101
REMARK Flexibility Score: inf
ROOT
ATOM      1  C   UNL     1       4.334  -4.093   0.983  1.00  0.00     0.042 C 
ENDROOT
BRANCH   1   2
ATOM      2  C   UNL     1       5.009  -3.592   2.241  1.00  0.00     0.118 C 
BRANCH   2   3
ATOM      3  N   UNL     1       4.824  -2.167   2.470  1.00  0.00    -0.352 N 
ATOM      4  O   UNL     1       3.850  -0.261   3.146  1.00  0.00    -0.269 OA
ATOM      5  C   UNL     1       3.907  -1.481   3.241  1.00  0.00     0.251 C 
ATOM      6  H   UNL     1       5.463  -1.592   1.991  1.00  0.00     0.163 HD
BRANCH   5   7
ATOM      7  C   UNL     1       2.965  -2.200   4.138  1.00  0.00     0.039 A 
ATOM      8  C   UNL     1       3.358  -3.330   4.850  1.00  0.00     0.014 A 
ATOM      9  C   UNL     1       1.659  -1.722   4.292  1.00  0.00     0.014 A 
ATOM     10  C   UNL     1       2.411  -4.110   5.501  1.00  0.00     0.010 A 
ATOM     11  C   UNL     1       0.739  -2.429   5.079  1.00  0.00     0.010 A 
ATOM     12  C   UNL     1       1.090  -3.663   5.647  1.00  0.00    -0.014 A 
BRANCH  12  13
ATOM     13  C   UNL     1       0.135  -4.482   6.444  1.00  0.00     0.031 A 
ATOM     14  C   UNL     1      -1.148  -5.000   5.846  1.00  0.00     0.074 A 
ATOM     15  C   UNL     1       0.445  -4.784   7.723  1.00  0.00     0.049 A 
ATOM     16  N   UNL     1      -2.059  -5.765   6.394  1.00  0.00    -0.248 NA
ATOM     17  C   UNL     1      -1.459  -4.605   4.464  1.00  0.00     0.031 C 
ATOM     18  C   UNL     1       1.637  -4.312   8.435  1.00  0.00     0.029 A 
ATOM     19  N   UNL     1      -0.201  -5.562   8.650  1.00  0.00    -0.354 N 
ATOM     20  C   UNL     1      -3.072  -5.895   5.451  1.00  0.00     0.074 A 
ATOM     21  C   UNL     1      -2.666  -5.128   4.294  1.00  0.00     0.031 C 
ATOM     22  C   UNL     1       1.663  -4.849   9.662  1.00  0.00     0.029 A 
ATOM     23  C   UNL     1       0.457  -5.642   9.856  1.00  0.00     0.049 A 
ATOM     24  H   UNL     1      -1.054  -6.020   8.470  1.00  0.00     0.167 HD
ATOM     25  C   UNL     1      -4.230  -6.596   5.536  1.00  0.00     0.034 A 
ATOM     26  C   UNL     1       0.124  -6.266  11.002  1.00  0.00     0.034 A 
ATOM     27  C   UNL     1      -4.615  -7.386   6.677  1.00  0.00     0.049 A 
ATOM     28  C   UNL     1      -1.153  -7.052  11.056  1.00  0.00     0.074 A 
ATOM     29  C   UNL     1      -5.734  -8.188   6.829  1.00  0.00     0.029 A 
ATOM     30  N   UNL     1      -3.907  -7.464   7.866  1.00  0.00    -0.354 N 
ATOM     31  N   UNL     1      -2.034  -7.260  10.109  1.00  0.00    -0.248 NA
ATOM     32  C   UNL     1      -1.467  -7.715  12.328  1.00  0.00     0.031 C 
ATOM     33  C   UNL     1      -5.721  -8.719   8.123  1.00  0.00     0.029 A 
ATOM     34  C   UNL     1      -4.569  -8.289   8.760  1.00  0.00     0.049 A 
ATOM     35  H   UNL     1      -3.057  -7.001   8.048  1.00  0.00     0.167 HD
ATOM     36  C   UNL     1      -2.986  -8.111  10.656  1.00  0.00     0.074 A 
ATOM     37  C   UNL     1      -2.560  -8.395  12.012  1.00  0.00     0.031 C 
ATOM     38  C   UNL     1      -4.113  -8.606  10.090  1.00  0.00     0.034 A 
BRANCH  25  39
ATOM     39  C   UNL     1      -5.171  -6.552   4.357  1.00  0.00     0.023 A 
ATOM     40  C   UNL     1      -4.834  -7.212   3.158  1.00  0.00     0.012 A 
ATOM     41  C   UNL     1      -6.422  -5.910   4.461  1.00  0.00     0.148 A 
ATOM     42  C   UNL     1      -5.707  -7.202   2.070  1.00  0.00     0.002 A 
ATOM     43  C   UNL     1      -7.308  -5.946   3.389  1.00  0.00     0.091 A 
ATOM     44  F   UNL     1      -6.721  -5.273   5.602  1.00  0.00    -0.205 F 
ATOM     45  C   UNL     1      -6.946  -6.579   2.189  1.00  0.00     0.022 A 
BRANCH  43  46
ATOM     46  S   UNL     1      -8.961  -5.248   3.475  1.00  0.00     0.127 S 
ATOM     47  O   UNL     1      -8.840  -4.094   2.586  1.00  0.00    -0.237 OA
ATOM     48  O   UNL     1      -9.782  -6.339   2.948  1.00  0.00    -0.237 OA
ATOM     49  O   UNL     1      -9.194  -4.936   4.878  1.00  0.00    -0.744 OA
ENDBRANCH  43  46
ENDBRANCH  25  39
BRANCH  26  50
ATOM     50  C   UNL     1       1.037  -6.202  12.178  1.00  0.00     0.023 A 
ATOM     51  C   UNL     1       1.700  -7.369  12.607  1.00  0.00     0.012 A 
ATOM     52  C   UNL     1       1.269  -4.990  12.857  1.00  0.00     0.148 A 
ATOM     53  C   UNL     1       2.550  -7.336  13.713  1.00  0.00     0.002 A 
ATOM     54  C   UNL     1       2.164  -4.952  13.918  1.00  0.00     0.091 A 
ATOM     55  F   UNL     1       0.622  -3.894  12.438  1.00  0.00    -0.205 F 
ATOM     56  C   UNL     1       2.790  -6.128  14.361  1.00  0.00     0.022 A 
BRANCH  54  57
ATOM     57  S   UNL     1       2.638  -3.420  14.724  1.00  0.00     0.127 S 
ATOM     58  O   UNL     1       2.031  -3.577  16.044  1.00  0.00    -0.237 OA
ATOM     59  O   UNL     1       4.098  -3.508  14.701  1.00  0.00    -0.237 OA
ATOM     60  O   UNL     1       2.087  -2.353  13.898  1.00  0.00    -0.744 OA
ENDBRANCH  54  57
ENDBRANCH  26  50
BRANCH  38  61
ATOM     61  C   UNL     1      -4.939  -9.563  10.909  1.00  0.00     0.023 A 
ATOM     62  C   UNL     1      -5.666  -9.103  12.025  1.00  0.00     0.012 A 
ATOM     63  C   UNL     1      -5.027 -10.920  10.539  1.00  0.00     0.148 A 
ATOM     64  C   UNL     1      -6.431  -9.988  12.786  1.00  0.00     0.002 A 
ATOM     65  C   UNL     1      -5.837 -11.782  11.266  1.00  0.00     0.091 A 
ATOM     66  F   UNL     1      -4.311 -11.344   9.487  1.00  0.00    -0.205 F 
ATOM     67  C   UNL     1      -6.526 -11.323  12.399  1.00  0.00     0.022 A 
BRANCH  65  68
ATOM     68  S   UNL     1      -6.097 -13.491  10.779  1.00  0.00     0.127 S 
ATOM     69  O   UNL     1      -5.322 -14.210  11.788  1.00  0.00    -0.237 OA
ATOM     70  O   UNL     1      -7.548 -13.633  10.908  1.00  0.00    -0.237 OA
ATOM     71  O   UNL     1      -5.601 -13.599   9.414  1.00  0.00    -0.744 OA
ENDBRANCH  65  68
ENDBRANCH  38  61
ENDBRANCH  12  13
ENDBRANCH   5   7
ENDBRANCH   2   3
ENDBRANCH   1   2
BRANCH   1  72
ATOM     72  C   UNL     1       5.077  -3.850  -0.316  1.00  0.00     0.118 C 
BRANCH  72  73
ATOM     73  N   UNL     1       6.474  -4.218  -0.376  1.00  0.00    -0.351 N 
ATOM     74  C   UNL     1       7.198  -4.565  -1.493  1.00  0.00     0.283 C 
ATOM     75  H   UNL     1       6.962  -4.221   0.479  1.00  0.00     0.163 HD
ATOM     76  O   UNL     1       8.432  -4.553  -1.367  1.00  0.00    -0.268 OA
BRANCH  74  77
ATOM     77  C   UNL     1       6.540  -5.102  -2.821  1.00  0.00     0.308 C 
BRANCH  77  78
ATOM     78  N   UNL     1       5.685  -6.270  -2.568  1.00  0.00    -0.312 N 
ATOM     79  C   UNL     1       4.898  -6.866  -3.643  1.00  0.00     0.325 C 
ATOM     80  C   UNL     1       6.118  -7.167  -1.512  1.00  0.00     0.325 C 
ATOM     81  H   UNL     1       4.912  -5.747  -2.157  1.00  0.00     0.349 HD
ATOM     82  C   UNL     1       4.834  -8.425  -3.727  1.00  0.00     0.325 C 
ATOM     83  C   UNL     1       6.220  -8.664  -1.794  1.00  0.00     0.325 C 
ATOM     84  N   UNL     1       5.079  -9.204  -2.508  1.00  0.00    -0.318 N 
ATOM     85  H   UNL     1       5.318 -10.142  -2.828  1.00  0.00     0.348 HD
BRANCH  84  86
ATOM     86  C   UNL     1       3.913  -9.550  -1.673  1.00  0.00     0.364 C 
BRANCH  86  87
ATOM     87  C   UNL     1       2.989  -8.418  -1.198  1.00  0.00     0.277 C 
ATOM     88  O   UNL     1       2.216  -7.888  -2.005  1.00  0.00    -0.268 OA
ATOM     89  N   UNL     1       2.944  -8.092   0.166  1.00  0.00    -0.333 N 
ATOM     90  C   UNL     1       4.102  -8.131   1.072  1.00  0.00     0.148 C 
ATOM     91  C   UNL     1       1.850  -7.209   0.590  1.00  0.00     0.148 C 
ATOM     92  C   UNL     1       3.787  -7.997   2.561  1.00  0.00     0.181 C 
ATOM     93  C   UNL     1       1.635  -7.205   2.106  1.00  0.00     0.181 C 
ATOM     94  O   UNL     1       2.864  -6.926   2.790  1.00  0.00    -0.378 OA
ENDBRANCH  86  87
ENDBRANCH  84  86
ENDBRANCH  77  78
BRANCH  77  95
ATOM     95  C   UNL     1       5.876  -3.996  -3.630  1.00  0.00     0.044 A 
ATOM     96  C   UNL     1       4.799  -3.178  -3.326  1.00  0.00     0.094 A 
ATOM     97  C   UNL     1       6.253  -3.613  -4.970  1.00  0.00     0.009 A 
ATOM     98  N   UNL     1       4.686  -2.199  -4.271  1.00  0.00    -0.361 N 
ATOM     99  C   UNL     1       5.519  -2.476  -5.318  1.00  0.00     0.049 A 
ATOM    100  C   UNL     1       7.149  -4.141  -5.924  1.00  0.00     0.014 A 
ATOM    101  H   UNL     1       4.095  -1.414  -4.208  1.00  0.00     0.166 HD
ATOM    102  C   UNL     1       5.657  -1.816  -6.541  1.00  0.00     0.065 A 
ATOM    103  C   UNL     1       7.260  -3.526  -7.177  1.00  0.00     0.040 A 
ATOM    104  C   UNL     1       6.532  -2.379  -7.462  1.00  0.00     0.125 A 
ATOM    105  F   UNL     1       6.661  -1.804  -8.666  1.00  0.00    -0.207 F 
ENDBRANCH  77  95
ENDBRANCH  74  77
ENDBRANCH  72  73
ENDBRANCH   1  72
TORSDOF 17
