REMARK SMILES CC[C@](C)(NC(=O)Cc1cccc(F)c1)C(=O)NCCCNC(=O)c1ccc(-c2c3nc(c(-c4cccc(S(=O)(=O)[O-])c4F)c4ccc([nH]4)c(-c4cccc(S(=O)(=O)[O-])c4F)c4nc(c(-c5cccc(S(=O)(=O)[O-])c5F)c5ccc2[nH]5)C=C4)C=C3)cc1
REMARK SMILES IDX 20 1 19 2 18 3 16 4 17 5 3 7 4 8 2 9 1 10 5 11 6 12 7 14
REMARK SMILES IDX 8 15 9 16 10 17 15 18 11 19 13 20 12 21 14 22 21 23 22 24
REMARK SMILES IDX 23 25 24 27 25 28 26 29 87 30 27 31 86 32 28 33 29 34 30 35
REMARK SMILES IDX 80 36 31 37 85 38 79 39 81 40 32 41 84 42 78 43 77 44 33 46
REMARK SMILES IDX 65 47 45 48 64 49 46 50 49 51 63 52 82 53 47 54 48 55 62 57
REMARK SMILES IDX 83 58 50 59 34 60 35 61 43 62 36 63 38 64 44 65 37 66 39 67
REMARK SMILES IDX 40 68 41 69 42 70 66 71 67 72 75 73 68 74 70 75 76 76 69 77
REMARK SMILES IDX 71 78 72 79 73 80 74 81 51 82 52 83 60 84 53 85 55 86 61 87
REMARK SMILES IDX 54 88 56 89 57 90 58 91 59 92
REMARK H PARENT 18 6 5 13 22 26 81 45 49 56
REMARK Flexibility Score: inf
ROOT
ATOM      1  C   UNL     1       2.742   4.458   4.412  1.00  0.00     0.042 C 
ENDROOT
BRANCH   1   2
ATOM      2  C   UNL     1       2.257   4.402   2.967  1.00  0.00     0.117 C 
BRANCH   2   3
ATOM      3  N   UNL     1       2.844   3.345   2.154  1.00  0.00    -0.354 N 
ATOM      4  C   UNL     1       2.334   2.180   1.653  1.00  0.00     0.245 C 
ATOM      5  O   UNL     1       3.008   1.631   0.775  1.00  0.00    -0.272 OA
ATOM      6  H   UNL     1       3.788   3.500   1.921  1.00  0.00     0.163 HD
BRANCH   4   7
ATOM      7  C   UNL     1       0.918   1.656   2.035  1.00  0.00     0.116 C 
ATOM      8  C   UNL     1       0.699   0.199   1.583  1.00  0.00     0.045 C 
BRANCH   7   9
ATOM      9  C   UNL     1      -0.125   2.549   1.282  1.00  0.00     0.035 C 
ATOM     10  C   UNL     1      -0.195   2.344  -0.231  1.00  0.00     0.007 C 
ENDBRANCH   7   9
BRANCH   7  11
ATOM     11  N   UNL     1       0.651   1.742   3.493  1.00  0.00    -0.342 N 
ATOM     12  C   UNL     1       1.260   1.118   4.547  1.00  0.00     0.225 C 
ATOM     13  H   UNL     1      -0.084   2.347   3.742  1.00  0.00     0.164 HD
ATOM     14  O   UNL     1       0.560   0.901   5.539  1.00  0.00    -0.275 OA
BRANCH  12  15
ATOM     15  C   UNL     1       2.749   0.804   4.569  1.00  0.00     0.135 C 
BRANCH  15  16
ATOM     16  C   UNL     1       3.170  -0.480   3.909  1.00  0.00    -0.036 A 
ATOM     17  C   UNL     1       4.129  -0.460   2.882  1.00  0.00     0.004 A 
ATOM     18  C   UNL     1       2.619  -1.708   4.295  1.00  0.00     0.043 A 
ATOM     19  C   UNL     1       4.468  -1.626   2.196  1.00  0.00     0.003 A 
ATOM     20  C   UNL     1       2.973  -2.867   3.611  1.00  0.00     0.123 A 
ATOM     21  C   UNL     1       3.879  -2.834   2.556  1.00  0.00     0.039 A 
ATOM     22  F   UNL     1       2.414  -4.034   3.957  1.00  0.00    -0.207 F 
ENDBRANCH  15  16
ENDBRANCH  12  15
ENDBRANCH   7  11
ENDBRANCH   4   7
ENDBRANCH   2   3
ENDBRANCH   1   2
BRANCH   1  23
ATOM     23  C   UNL     1       4.252   4.410   4.599  1.00  0.00     0.118 C 
BRANCH  23  24
ATOM     24  N   UNL     1       4.923   5.583   4.064  1.00  0.00    -0.352 N 
ATOM     25  C   UNL     1       5.574   6.604   4.711  1.00  0.00     0.251 C 
ATOM     26  H   UNL     1       4.908   5.657   3.082  1.00  0.00     0.163 HD
ATOM     27  O   UNL     1       5.907   7.599   4.071  1.00  0.00    -0.269 OA
BRANCH  25  28
ATOM     28  C   UNL     1       5.861   6.532   6.163  1.00  0.00     0.039 A 
ATOM     29  C   UNL     1       5.678   7.681   6.938  1.00  0.00     0.014 A 
ATOM     30  C   UNL     1       6.354   5.367   6.758  1.00  0.00     0.014 A 
ATOM     31  C   UNL     1       5.937   7.647   8.312  1.00  0.00     0.010 A 
ATOM     32  C   UNL     1       6.541   5.313   8.140  1.00  0.00     0.010 A 
ATOM     33  C   UNL     1       6.345   6.454   8.931  1.00  0.00    -0.014 A 
BRANCH  33  34
ATOM     34  C   UNL     1       6.567   6.388  10.400  1.00  0.00     0.031 A 
ATOM     35  C   UNL     1       7.935   6.093  10.956  1.00  0.00     0.074 A 
ATOM     36  C   UNL     1       5.522   6.530  11.240  1.00  0.00     0.049 A 
ATOM     37  N   UNL     1       8.306   5.963  12.204  1.00  0.00    -0.248 NA
ATOM     38  C   UNL     1       9.026   5.897   9.986  1.00  0.00     0.031 C 
ATOM     39  C   UNL     1       4.134   6.750  10.828  1.00  0.00     0.029 A 
ATOM     40  N   UNL     1       5.458   6.491  12.611  1.00  0.00    -0.354 N 
ATOM     41  C   UNL     1       9.658   5.641  12.169  1.00  0.00     0.074 A 
ATOM     42  C   UNL     1      10.037   5.564  10.775  1.00  0.00     0.031 C 
ATOM     43  C   UNL     1       3.359   6.836  11.920  1.00  0.00     0.029 A 
ATOM     44  C   UNL     1       4.186   6.650  13.110  1.00  0.00     0.049 A 
ATOM     45  H   UNL     1       6.248   6.361  13.183  1.00  0.00     0.167 HD
ATOM     46  C   UNL     1      10.513   5.458  13.203  1.00  0.00     0.034 A 
ATOM     47  C   UNL     1       3.731   6.645  14.379  1.00  0.00     0.034 A 
ATOM     48  C   UNL     1      10.147   5.589  14.587  1.00  0.00     0.049 A 
ATOM     49  C   UNL     1       4.709   6.478  15.511  1.00  0.00     0.074 A 
ATOM     50  C   UNL     1      10.966   5.510  15.700  1.00  0.00     0.029 A 
ATOM     51  N   UNL     1       8.863   5.824  15.051  1.00  0.00    -0.354 N 
ATOM     52  N   UNL     1       6.010   6.324  15.458  1.00  0.00    -0.248 NA
ATOM     53  C   UNL     1       4.166   6.518  16.877  1.00  0.00     0.031 C 
ATOM     54  C   UNL     1      10.173   5.677  16.838  1.00  0.00     0.029 A 
ATOM     55  C   UNL     1       8.864   5.884  16.434  1.00  0.00     0.049 A 
ATOM     56  H   UNL     1       8.068   5.931  14.481  1.00  0.00     0.167 HD
ATOM     57  C   UNL     1       6.444   6.279  16.778  1.00  0.00     0.074 A 
ATOM     58  C   UNL     1       5.270   6.441  17.610  1.00  0.00     0.031 C 
ATOM     59  C   UNL     1       7.700   6.102  17.254  1.00  0.00     0.034 A 
BRANCH  46  60
ATOM     60  C   UNL     1      11.957   5.165  12.885  1.00  0.00     0.023 A 
ATOM     61  C   UNL     1      12.777   6.198  12.390  1.00  0.00     0.012 A 
ATOM     62  C   UNL     1      12.524   3.907  13.171  1.00  0.00     0.148 A 
ATOM     63  C   UNL     1      14.135   5.980  12.162  1.00  0.00     0.002 A 
ATOM     64  C   UNL     1      13.887   3.710  12.982  1.00  0.00     0.091 A 
ATOM     65  F   UNL     1      11.723   2.932  13.624  1.00  0.00    -0.205 F 
ATOM     66  C   UNL     1      14.692   4.742  12.470  1.00  0.00     0.022 A 
BRANCH  64  67
ATOM     67  S   UNL     1      14.719   2.180  13.427  1.00  0.00     0.127 S 
ATOM     68  O   UNL     1      15.068   1.642  12.113  1.00  0.00    -0.237 OA
ATOM     69  O   UNL     1      15.857   2.665  14.208  1.00  0.00    -0.237 OA
ATOM     70  O   UNL     1      13.749   1.400  14.183  1.00  0.00    -0.744 OA
ENDBRANCH  64  67
ENDBRANCH  46  60
BRANCH  47  71
ATOM     71  C   UNL     1       2.284   6.889  14.641  1.00  0.00     0.023 A 
ATOM     72  C   UNL     1       1.884   8.116  15.206  1.00  0.00     0.012 A 
ATOM     73  C   UNL     1       1.301   5.949  14.274  1.00  0.00     0.148 A 
ATOM     74  C   UNL     1       0.534   8.396  15.416  1.00  0.00     0.002 A 
ATOM     75  C   UNL     1      -0.045   6.258  14.434  1.00  0.00     0.091 A 
ATOM     76  F   UNL     1       1.703   4.782  13.750  1.00  0.00    -0.205 F 
ATOM     77  C   UNL     1      -0.430   7.474  15.018  1.00  0.00     0.022 A 
BRANCH  75  78
ATOM     78  S   UNL     1      -1.360   5.197  13.822  1.00  0.00     0.127 S 
ATOM     79  O   UNL     1      -1.967   4.726  15.064  1.00  0.00    -0.237 OA
ATOM     80  O   UNL     1      -2.174   6.140  13.055  1.00  0.00    -0.237 OA
ATOM     81  O   UNL     1      -0.700   4.179  13.015  1.00  0.00    -0.744 OA
ENDBRANCH  75  78
ENDBRANCH  47  71
BRANCH  59  82
ATOM     82  C   UNL     1       7.902   6.091  18.747  1.00  0.00     0.023 A 
ATOM     83  C   UNL     1       7.503   4.965  19.494  1.00  0.00     0.012 A 
ATOM     84  C   UNL     1       8.598   7.136  19.387  1.00  0.00     0.148 A 
ATOM     85  C   UNL     1       7.781   4.886  20.858  1.00  0.00     0.002 A 
ATOM     86  C   UNL     1       8.912   7.029  20.737  1.00  0.00     0.091 A 
ATOM     87  F   UNL     1       8.953   8.206  18.661  1.00  0.00    -0.205 F 
ATOM     88  C   UNL     1       8.497   5.909  21.475  1.00  0.00     0.022 A 
BRANCH  86  89
ATOM     89  S   UNL     1       9.919   8.246  21.593  1.00  0.00     0.127 S 
ATOM     90  O   UNL     1       8.935   8.887  22.465  1.00  0.00    -0.237 OA
ATOM     91  O   UNL     1      10.896   7.407  22.289  1.00  0.00    -0.237 OA
ATOM     92  O   UNL     1      10.485   9.101  20.558  1.00  0.00    -0.744 OA
ENDBRANCH  86  89
ENDBRANCH  59  82
ENDBRANCH  33  34
ENDBRANCH  25  28
ENDBRANCH  23  24
ENDBRANCH   1  23
TORSDOF 17
