REMARK SMILES CC(C)(C)c1cc(NC(=O)CSC[C@H]([NH3+])C(=O)NCCCNC(=O)c2ccc(-c3c4nc(c(-c5cccc(S(=O)(=O)[O-])c5F)c5ccc([nH]5)c(-c5cccc(S(=O)(=O)[O-])c5F)c5nc(c(-c6cccc(S(=O)(=O)[O-])c6F)c6ccc3[nH]6)C=C5)C=C4)cc2)on1
REMARK SMILES IDX 16 1 17 2 18 3 14 5 13 6 12 7 11 8 9 9 8 10 10 12 7 13 5 14
REMARK SMILES IDX 6 15 89 16 88 17 2 18 1 19 3 20 4 21 15 22 19 26 20 27 21 28
REMARK SMILES IDX 22 29 23 30 24 32 25 33 26 34 87 35 27 36 86 37 28 38 29 39
REMARK SMILES IDX 30 40 80 41 31 42 85 43 79 44 81 45 32 46 84 47 78 48 77 49
REMARK SMILES IDX 33 51 65 52 45 53 64 54 46 55 49 56 63 57 82 58 47 59 48 60
REMARK SMILES IDX 62 62 83 63 50 64 34 65 35 66 43 67 36 68 38 69 44 70 37 71
REMARK SMILES IDX 39 72 40 73 41 74 42 75 66 76 67 77 75 78 68 79 70 80 76 81
REMARK SMILES IDX 69 82 71 83 72 84 73 85 74 86 51 87 52 88 60 89 53 90 55 91
REMARK SMILES IDX 61 92 54 93 56 94 57 95 58 96 59 97
REMARK H PARENT 18 4 8 11 15 23 15 24 15 25 22 31 81 50 49 61
REMARK Flexibility Score: inf
ROOT
ATOM      1  C   UNL     1       2.264  -8.802   5.830  1.00  0.00     0.279 C 
ATOM      2  O   UNL     1       1.753  -9.637   6.580  1.00  0.00    -0.268 OA
ATOM      3  N   UNL     1       3.523  -8.357   6.117  1.00  0.00    -0.351 N 
ATOM      4  H   UNL     1       3.941  -8.758   6.912  1.00  0.00     0.163 HD
ENDROOT
BRANCH   1   5
ATOM      5  C   UNL     1       1.526  -8.309   4.575  1.00  0.00     0.280 C 
BRANCH   5   6
ATOM      6  C   UNL     1       2.238  -8.856   3.326  1.00  0.00     0.145 C 
BRANCH   6   7
ATOM      7  S   UNL     1       1.733  -8.022   1.780  1.00  0.00    -0.145 SA
BRANCH   7   8
ATOM      8  C   UNL     1       0.212  -8.940   1.381  1.00  0.00     0.170 C 
BRANCH   8   9
ATOM      9  C   UNL     1       0.434 -10.442   1.336  1.00  0.00     0.236 C 
ATOM     10  N   UNL     1       1.242 -11.047   0.419  1.00  0.00    -0.294 N 
ATOM     11  H   UNL     1       1.363 -12.018   0.526  1.00  0.00     0.173 HD
ATOM     12  O   UNL     1      -0.101 -11.168   2.185  1.00  0.00    -0.274 OA
BRANCH  10  13
ATOM     13  C   UNL     1       1.906 -10.474  -0.632  1.00  0.00     0.231 A 
ATOM     14  C   UNL     1       3.231  -9.926  -2.314  1.00  0.00     0.091 A 
ATOM     15  C   UNL     1       2.885 -10.992  -1.442  1.00  0.00     0.097 A 
ATOM     16  N   UNL     1       2.437  -8.868  -2.097  1.00  0.00    -0.082 NA
ATOM     17  O   UNL     1       1.619  -9.216  -1.044  1.00  0.00    -0.338 OA
BRANCH  14  18
ATOM     18  C   UNL     1       4.271  -9.896  -3.415  1.00  0.00     0.008 C 
ATOM     19  C   UNL     1       3.642 -10.443  -4.709  1.00  0.00     0.018 C 
ATOM     20  C   UNL     1       5.495 -10.763  -3.049  1.00  0.00     0.018 C 
ATOM     21  C   UNL     1       4.786  -8.464  -3.679  1.00  0.00     0.018 C 
ENDBRANCH  14  18
ENDBRANCH  10  13
ENDBRANCH   8   9
ENDBRANCH   7   8
ENDBRANCH   6   7
ENDBRANCH   5   6
BRANCH   5  22
ATOM     22  N   UNL     1       1.380  -6.839   4.626  1.00  0.00    -0.347 N 
ATOM     23  H   UNL     1       2.303  -6.407   4.672  1.00  0.00     0.345 HD
ATOM     24  H   UNL     1       0.842  -6.579   5.452  1.00  0.00     0.345 HD
ATOM     25  H   UNL     1       0.895  -6.516   3.789  1.00  0.00     0.345 HD
ENDBRANCH   5  22
ENDBRANCH   1   5
BRANCH   3  26
ATOM     26  C   UNL     1       4.337  -7.373   5.415  1.00  0.00     0.118 C 
BRANCH  26  27
ATOM     27  C   UNL     1       4.516  -6.085   6.199  1.00  0.00     0.042 C 
BRANCH  27  28
ATOM     28  C   UNL     1       5.208  -6.272   7.538  1.00  0.00     0.118 C 
BRANCH  28  29
ATOM     29  N   UNL     1       6.545  -6.844   7.415  1.00  0.00    -0.352 N 
ATOM     30  C   UNL     1       7.759  -6.340   7.811  1.00  0.00     0.251 C 
ATOM     31  H   UNL     1       6.582  -7.727   6.982  1.00  0.00     0.163 HD
ATOM     32  O   UNL     1       8.794  -6.906   7.463  1.00  0.00    -0.269 OA
BRANCH  30  33
ATOM     33  C   UNL     1       7.822  -5.113   8.631  1.00  0.00     0.039 A 
ATOM     34  C   UNL     1       8.793  -4.151   8.342  1.00  0.00     0.014 A 
ATOM     35  C   UNL     1       6.921  -4.905   9.678  1.00  0.00     0.014 A 
ATOM     36  C   UNL     1       8.814  -2.954   9.061  1.00  0.00     0.010 A 
ATOM     37  C   UNL     1       6.875  -3.671  10.316  1.00  0.00     0.010 A 
ATOM     38  C   UNL     1       7.831  -2.688  10.028  1.00  0.00    -0.014 A 
BRANCH  38  39
ATOM     39  C   UNL     1       7.785  -1.389  10.746  1.00  0.00     0.031 A 
ATOM     40  C   UNL     1       7.919  -1.343  12.245  1.00  0.00     0.074 A 
ATOM     41  C   UNL     1       7.540  -0.257  10.058  1.00  0.00     0.049 A 
ATOM     42  N   UNL     1       7.888  -0.308  13.044  1.00  0.00    -0.248 NA
ATOM     43  C   UNL     1       8.076  -2.631  12.943  1.00  0.00     0.031 C 
ATOM     44  C   UNL     1       7.305  -0.178   8.614  1.00  0.00     0.029 A 
ATOM     45  N   UNL     1       7.431   1.044  10.482  1.00  0.00    -0.354 N 
ATOM     46  C   UNL     1       7.976  -0.820  14.333  1.00  0.00     0.074 A 
ATOM     47  C   UNL     1       8.019  -2.260  14.213  1.00  0.00     0.031 C 
ATOM     48  C   UNL     1       7.107   1.104   8.270  1.00  0.00     0.029 A 
ATOM     49  C   UNL     1       7.166   1.934   9.468  1.00  0.00     0.049 A 
ATOM     50  H   UNL     1       7.533   1.314  11.423  1.00  0.00     0.167 HD
ATOM     51  C   UNL     1       8.046  -0.154  15.510  1.00  0.00     0.034 A 
ATOM     52  C   UNL     1       6.992   3.270   9.500  1.00  0.00     0.034 A 
ATOM     53  C   UNL     1       8.042   1.279  15.621  1.00  0.00     0.049 A 
ATOM     54  C   UNL     1       7.110   3.992  10.814  1.00  0.00     0.074 A 
ATOM     55  C   UNL     1       8.217   2.055  16.753  1.00  0.00     0.029 A 
ATOM     56  N   UNL     1       7.835   2.153  14.565  1.00  0.00    -0.354 N 
ATOM     57  N   UNL     1       7.371   3.505  12.003  1.00  0.00    -0.248 NA
ATOM     58  C   UNL     1       6.944   5.452  10.785  1.00  0.00     0.031 C 
ATOM     59  C   UNL     1       8.074   3.397  16.387  1.00  0.00     0.029 A 
ATOM     60  C   UNL     1       7.853   3.460  15.020  1.00  0.00     0.049 A 
ATOM     61  H   UNL     1       7.696   1.883  13.628  1.00  0.00     0.167 HD
ATOM     62  C   UNL     1       7.438   4.599  12.857  1.00  0.00     0.074 A 
ATOM     63  C   UNL     1       7.208   5.776  12.044  1.00  0.00     0.031 C 
ATOM     64  C   UNL     1       7.663   4.626  14.195  1.00  0.00     0.034 A 
BRANCH  51  65
ATOM     65  C   UNL     1       8.165  -0.976  16.769  1.00  0.00     0.023 A 
ATOM     66  C   UNL     1       9.343  -1.712  17.020  1.00  0.00     0.012 A 
ATOM     67  C   UNL     1       7.124  -1.001  17.718  1.00  0.00     0.148 A 
ATOM     68  C   UNL     1       9.461  -2.500  18.165  1.00  0.00     0.002 A 
ATOM     69  C   UNL     1       7.270  -1.747  18.882  1.00  0.00     0.091 A 
ATOM     70  F   UNL     1       6.003  -0.314  17.456  1.00  0.00    -0.205 F 
ATOM     71  C   UNL     1       8.429  -2.509  19.099  1.00  0.00     0.022 A 
BRANCH  69  72
ATOM     72  S   UNL     1       6.034  -1.754  20.185  1.00  0.00     0.127 S 
ATOM     73  O   UNL     1       5.453  -3.087  20.032  1.00  0.00    -0.237 OA
ATOM     74  O   UNL     1       6.852  -1.580  21.386  1.00  0.00    -0.237 OA
ATOM     75  O   UNL     1       5.140  -0.642  19.895  1.00  0.00    -0.744 OA
ENDBRANCH  69  72
ENDBRANCH  51  65
BRANCH  52  76
ATOM     76  C   UNL     1       6.773   4.018   8.230  1.00  0.00     0.023 A 
ATOM     77  C   UNL     1       7.801   4.845   7.734  1.00  0.00     0.012 A 
ATOM     78  C   UNL     1       5.582   3.885   7.492  1.00  0.00     0.148 A 
ATOM     79  C   UNL     1       7.636   5.547   6.540  1.00  0.00     0.002 A 
ATOM     80  C   UNL     1       5.444   4.546   6.276  1.00  0.00     0.091 A 
ATOM     81  F   UNL     1       4.616   3.096   7.984  1.00  0.00    -0.205 F 
ATOM     82  C   UNL     1       6.463   5.390   5.807  1.00  0.00     0.022 A 
BRANCH  80  83
ATOM     83  S   UNL     1       4.025   4.311   5.201  1.00  0.00     0.127 S 
ATOM     84  O   UNL     1       3.420   5.641   5.210  1.00  0.00    -0.237 OA
ATOM     85  O   UNL     1       4.666   3.933   3.941  1.00  0.00    -0.237 OA
ATOM     86  O   UNL     1       3.232   3.256   5.816  1.00  0.00    -0.744 OA
ENDBRANCH  80  83
ENDBRANCH  52  76
BRANCH  64  87
ATOM     87  C   UNL     1       7.709   5.973  14.869  1.00  0.00     0.023 A 
ATOM     88  C   UNL     1       6.527   6.721  15.036  1.00  0.00     0.012 A 
ATOM     89  C   UNL     1       8.918   6.464  15.404  1.00  0.00     0.148 A 
ATOM     90  C   UNL     1       6.552   7.951  15.693  1.00  0.00     0.002 A 
ATOM     91  C   UNL     1       8.926   7.663  16.104  1.00  0.00     0.091 A 
ATOM     92  F   UNL     1      10.036   5.747  15.220  1.00  0.00    -0.205 F 
ATOM     93  C   UNL     1       7.748   8.415  16.237  1.00  0.00     0.022 A 
BRANCH  91  94
ATOM     94  S   UNL     1      10.395   8.290  16.926  1.00  0.00     0.127 S 
ATOM     95  O   UNL     1      10.735   9.442  16.092  1.00  0.00    -0.237 OA
ATOM     96  O   UNL     1       9.885   8.628  18.255  1.00  0.00    -0.237 OA
ATOM     97  O   UNL     1      11.362   7.201  16.909  1.00  0.00    -0.744 OA
ENDBRANCH  91  94
ENDBRANCH  64  87
ENDBRANCH  38  39
ENDBRANCH  30  33
ENDBRANCH  28  29
ENDBRANCH  27  28
ENDBRANCH  26  27
ENDBRANCH   3  26
TORSDOF 20
