REMARK SMILES COC(=O)c1sc(SCC(=O)NCCCNC(=O)c2ccc(-c3c4nc(c(-c5cccc(S(=O)(=O)[O-])c5F)c5ccc([nH]5)c(-c5cccc(S(=O)(=O)[O-])c5F)c5nc(c(-c6cccc(S(=O)(=O)[O-])c6F)c6ccc3[nH]6)C=C5)C=C4)cc2)c(NC(=O)c2ccccc2)c1O
REMARK SMILES IDX 13 1 12 2 10 3 11 4 9 6 8 7 7 8 5 9 6 10 92 11 82 12 3 13
REMARK SMILES IDX 4 14 2 15 1 16 93 17 83 19 84 20 85 22 86 23 87 24 91 25
REMARK SMILES IDX 88 26 90 27 89 28 14 29 15 30 16 31 17 32 18 34 19 35 20 36
REMARK SMILES IDX 81 37 21 38 80 39 22 40 23 41 24 42 74 43 25 44 79 45 73 46
REMARK SMILES IDX 75 47 26 48 78 49 72 50 71 51 27 53 59 54 39 55 58 56 40 57
REMARK SMILES IDX 43 58 57 59 76 60 41 61 42 62 56 64 77 65 44 66 28 67 29 68
REMARK SMILES IDX 37 69 30 70 32 71 38 72 31 73 33 74 34 75 35 76 36 77 60 78
REMARK SMILES IDX 61 79 69 80 62 81 64 82 70 83 63 84 65 85 66 86 67 87 68 88
REMARK SMILES IDX 45 89 46 90 54 91 47 92 49 93 55 94 48 95 50 96 51 97 52 98
REMARK SMILES IDX 53 99
REMARK H PARENT 12 5 93 18 83 21 16 33 75 52 43 63
REMARK Flexibility Score: inf
ROOT
ATOM      1  C   UNL     1      -0.065   1.378 -10.716  1.00  0.00     0.117 C 
ENDROOT
BRANCH   1   2
ATOM      2  N   UNL     1      -1.274   1.202  -9.934  1.00  0.00    -0.355 N 
ATOM      3  C   UNL     1      -2.006   2.101  -9.194  1.00  0.00     0.230 C 
ATOM      4  O   UNL     1      -3.174   1.769  -8.972  1.00  0.00    -0.274 OA
ATOM      5  H   UNL     1      -1.632   0.285  -9.934  1.00  0.00     0.163 HD
BRANCH   3   6
ATOM      6  C   UNL     1      -1.352   3.654  -8.788  1.00  0.00     0.175 C 
BRANCH   6   7
ATOM      7  S   UNL     1      -0.618   4.604  -6.496  1.00  0.00    -0.103 SA
BRANCH   7   8
ATOM      8  C   UNL     1      -0.603   3.499  -5.017  1.00  0.00     0.089 A 
ATOM      9  C   UNL     1       0.189   2.301  -2.963  1.00  0.00     0.157 A 
ATOM     10  S   UNL     1       0.839   3.453  -4.060  1.00  0.00    -0.116 S 
ATOM     11  C   UNL     1      -1.113   2.004  -3.300  1.00  0.00     0.166 A 
ATOM     12  C   UNL     1      -1.590   2.691  -4.453  1.00  0.00     0.109 A 
BRANCH   9  13
ATOM     13  C   UNL     1       0.998   1.815  -1.861  1.00  0.00     0.352 C 
ATOM     14  O   UNL     1       2.060   2.288  -1.474  1.00  0.00    -0.245 OA
BRANCH  13  15
ATOM     15  O   UNL     1       0.365   0.752  -1.281  1.00  0.00    -0.465 OA
ATOM     16  C   UNL     1       1.030   0.157  -0.162  1.00  0.00     0.282 C 
ENDBRANCH  13  15
ENDBRANCH   9  13
BRANCH  11  17
ATOM     17  O   UNL     1      -1.895   1.134  -2.626  1.00  0.00    -0.504 OA
ATOM     18  H   UNL     1      -1.561   0.692  -1.870  1.00  0.00     0.293 HD
ENDBRANCH  11  17
BRANCH  12  19
ATOM     19  N   UNL     1      -2.895   2.470  -4.894  1.00  0.00    -0.317 N 
ATOM     20  C   UNL     1      -3.427   2.906  -6.070  1.00  0.00     0.255 C 
ATOM     21  H   UNL     1      -3.485   1.952  -4.300  1.00  0.00     0.170 HD
ATOM     22  O   UNL     1      -4.623   3.035  -6.290  1.00  0.00    -0.269 OA
BRANCH  20  23
ATOM     23  C   UNL     1      -2.439   3.318  -7.064  1.00  0.00     0.040 A 
ATOM     24  C   UNL     1      -2.601   4.989  -7.692  1.00  0.00     0.014 A 
ATOM     25  C   UNL     1      -0.848   2.412  -7.237  1.00  0.00     0.014 A 
ATOM     26  C   UNL     1      -1.190   5.770  -8.486  1.00  0.00     0.001 A 
ATOM     27  C   UNL     1       0.554   3.243  -8.007  1.00  0.00     0.001 A 
ATOM     28  C   UNL     1       0.378   4.923  -8.619  1.00  0.00     0.000 A 
ENDBRANCH  20  23
ENDBRANCH  12  19
ENDBRANCH   7   8
ENDBRANCH   6   7
ENDBRANCH   3   6
ENDBRANCH   1   2
BRANCH   1  29
ATOM     29  C   UNL     1       1.186   0.795 -10.063  1.00  0.00     0.042 C 
BRANCH  29  30
ATOM     30  C   UNL     1       1.258  -0.706 -10.190  1.00  0.00     0.118 C 
BRANCH  30  31
ATOM     31  N   UNL     1       1.437  -1.169 -11.567  1.00  0.00    -0.352 N 
ATOM     32  C   UNL     1       1.708  -2.457 -11.990  1.00  0.00     0.251 C 
ATOM     33  H   UNL     1       1.354  -0.486 -12.271  1.00  0.00     0.163 HD
ATOM     34  O   UNL     1       2.091  -2.681 -13.132  1.00  0.00    -0.269 OA
BRANCH  32  35
ATOM     35  C   UNL     1       1.522  -3.550 -11.022  1.00  0.00     0.039 A 
ATOM     36  C   UNL     1       2.426  -4.609 -10.906  1.00  0.00     0.014 A 
ATOM     37  C   UNL     1       0.438  -3.440 -10.161  1.00  0.00     0.014 A 
ATOM     38  C   UNL     1       2.245  -5.522  -9.871  1.00  0.00     0.010 A 
ATOM     39  C   UNL     1       0.426  -4.162  -9.008  1.00  0.00     0.010 A 
ATOM     40  C   UNL     1       1.239  -5.280  -8.927  1.00  0.00    -0.014 A 
BRANCH  40  41
ATOM     41  C   UNL     1       1.002  -6.157  -7.794  1.00  0.00     0.031 A 
ATOM     42  C   UNL     1       2.140  -6.247  -6.846  1.00  0.00     0.074 A 
ATOM     43  C   UNL     1      -0.249  -6.588  -7.509  1.00  0.00     0.049 A 
ATOM     44  N   UNL     1       2.902  -7.263  -6.611  1.00  0.00    -0.248 NA
ATOM     45  C   UNL     1       2.598  -5.001  -6.208  1.00  0.00     0.031 C 
ATOM     46  C   UNL     1      -1.511  -6.208  -8.173  1.00  0.00     0.029 A 
ATOM     47  N   UNL     1      -0.686  -7.311  -6.450  1.00  0.00    -0.354 N 
ATOM     48  C   UNL     1       3.770  -6.846  -5.603  1.00  0.00     0.074 A 
ATOM     49  C   UNL     1       3.709  -5.411  -5.593  1.00  0.00     0.031 C 
ATOM     50  C   UNL     1      -2.548  -6.460  -7.348  1.00  0.00     0.029 A 
ATOM     51  C   UNL     1      -2.051  -7.195  -6.204  1.00  0.00     0.049 A 
ATOM     52  H   UNL     1      -0.090  -7.870  -5.901  1.00  0.00     0.167 HD
ATOM     53  C   UNL     1       4.235  -7.717  -4.664  1.00  0.00     0.034 A 
ATOM     54  C   UNL     1      -2.714  -7.625  -5.106  1.00  0.00     0.034 A 
ATOM     55  C   UNL     1       3.964  -9.080  -5.050  1.00  0.00     0.049 A 
ATOM     56  C   UNL     1      -1.830  -8.595  -4.422  1.00  0.00     0.074 A 
ATOM     57  C   UNL     1       4.310  -9.886  -6.114  1.00  0.00     0.029 A 
ATOM     58  N   UNL     1       2.874  -9.670  -4.455  1.00  0.00    -0.354 N 
ATOM     59  N   UNL     1      -1.472  -9.738  -4.940  1.00  0.00    -0.248 NA
ATOM     60  C   UNL     1      -0.979  -8.097  -3.354  1.00  0.00     0.031 C 
ATOM     61  C   UNL     1       3.146 -10.666  -6.375  1.00  0.00     0.029 A 
ATOM     62  C   UNL     1       2.178 -10.348  -5.417  1.00  0.00     0.049 A 
ATOM     63  H   UNL     1       2.636  -9.614  -3.502  1.00  0.00     0.167 HD
ATOM     64  C   UNL     1      -0.135  -9.873  -4.589  1.00  0.00     0.074 A 
ATOM     65  C   UNL     1       0.075  -8.901  -3.518  1.00  0.00     0.031 C 
ATOM     66  C   UNL     1       0.741 -10.539  -5.397  1.00  0.00     0.034 A 
BRANCH  53  67
ATOM     67  C   UNL     1       4.574  -7.373  -3.227  1.00  0.00     0.023 A 
ATOM     68  C   UNL     1       5.148  -8.402  -2.444  1.00  0.00     0.012 A 
ATOM     69  C   UNL     1       4.130  -6.224  -2.533  1.00  0.00     0.148 A 
ATOM     70  C   UNL     1       5.217  -8.319  -1.049  1.00  0.00     0.002 A 
ATOM     71  C   UNL     1       4.273  -6.110  -1.153  1.00  0.00     0.091 A 
ATOM     72  F   UNL     1       3.440  -5.275  -3.168  1.00  0.00    -0.205 F 
ATOM     73  C   UNL     1       4.785  -7.169  -0.402  1.00  0.00     0.022 A 
BRANCH  71  74
ATOM     74  S   UNL     1       3.773  -4.622  -0.273  1.00  0.00     0.127 S 
ATOM     75  O   UNL     1       2.561  -5.071   0.404  1.00  0.00    -0.237 OA
ATOM     76  O   UNL     1       4.923  -4.391   0.601  1.00  0.00    -0.237 OA
ATOM     77  O   UNL     1       3.588  -3.599  -1.296  1.00  0.00    -0.744 OA
ENDBRANCH  71  74
ENDBRANCH  53  67
BRANCH  54  78
ATOM     78  C   UNL     1      -3.924  -7.065  -4.467  1.00  0.00     0.023 A 
ATOM     79  C   UNL     1      -4.763  -7.894  -3.701  1.00  0.00     0.012 A 
ATOM     80  C   UNL     1      -4.114  -5.666  -4.392  1.00  0.00     0.148 A 
ATOM     81  C   UNL     1      -5.749  -7.349  -2.869  1.00  0.00     0.002 A 
ATOM     82  C   UNL     1      -5.095  -5.128  -3.564  1.00  0.00     0.091 A 
ATOM     83  F   UNL     1      -3.274  -4.868  -5.067  1.00  0.00    -0.205 F 
ATOM     84  C   UNL     1      -5.910  -5.967  -2.794  1.00  0.00     0.022 A 
BRANCH  82  85
ATOM     85  S   UNL     1      -5.337  -3.355  -3.379  1.00  0.00     0.127 S 
ATOM     86  O   UNL     1      -6.765  -3.219  -3.665  1.00  0.00    -0.237 OA
ATOM     87  O   UNL     1      -4.968  -3.147  -1.981  1.00  0.00    -0.237 OA
ATOM     88  O   UNL     1      -4.457  -2.731  -4.358  1.00  0.00    -0.744 OA
ENDBRANCH  82  85
ENDBRANCH  54  78
BRANCH  66  89
ATOM     89  C   UNL     1       0.183 -11.366  -6.529  1.00  0.00     0.023 A 
ATOM     90  C   UNL     1      -0.451 -10.791  -7.651  1.00  0.00     0.012 A 
ATOM     91  C   UNL     1       0.516 -12.729  -6.559  1.00  0.00     0.148 A 
ATOM     92  C   UNL     1      -0.744 -11.565  -8.779  1.00  0.00     0.002 A 
ATOM     93  C   UNL     1       0.275 -13.480  -7.701  1.00  0.00     0.091 A 
ATOM     94  F   UNL     1       1.116 -13.256  -5.481  1.00  0.00    -0.205 F 
ATOM     95  C   UNL     1      -0.363 -12.905  -8.812  1.00  0.00     0.022 A 
BRANCH  93  96
ATOM     96  S   UNL     1       0.885 -15.160  -7.859  1.00  0.00     0.127 S 
ATOM     97  O   UNL     1      -0.343 -15.943  -7.743  1.00  0.00    -0.237 OA
ATOM     98  O   UNL     1       1.483 -15.152  -9.195  1.00  0.00    -0.237 OA
ATOM     99  O   UNL     1       1.848 -15.341  -6.779  1.00  0.00    -0.744 OA
ENDBRANCH  93  96
ENDBRANCH  66  89
ENDBRANCH  40  41
ENDBRANCH  32  35
ENDBRANCH  30  31
ENDBRANCH  29  30
ENDBRANCH   1  29
TORSDOF 20
