REMARK SMILES O=C(C[C@H]1C(=O)NCC[N@@H+]1Cc1ccc(Cl)c(F)c1)NCCCNC(=O)c1ccc(-c2c3nc(c(-c4cccc(S(=O)(=O)[O-])c4F)c4ccc([nH]4)c(-c4cccc(S(=O)(=O)[O-])c4F)c4nc(c(-c5cccc(S(=O)(=O)[O-])c5F)c5ccc2[nH]5)C=C4)C=C3)cc1
REMARK SMILES IDX 22 1 21 2 20 3 1 4 2 5 3 7 4 8 5 9 10 10 6 11 7 12 9 13 8 15
REMARK SMILES IDX 11 17 12 18 13 19 19 20 14 21 17 22 15 23 18 24 16 25 23 26
REMARK SMILES IDX 24 27 25 28 26 30 27 31 28 32 89 33 29 34 88 35 30 36 31 37
REMARK SMILES IDX 32 38 82 39 33 40 87 41 81 42 83 43 34 44 86 45 80 46 79 47
REMARK SMILES IDX 35 49 67 50 47 51 66 52 48 53 51 54 65 55 84 56 49 57 50 58
REMARK SMILES IDX 64 60 85 61 52 62 36 63 37 64 45 65 38 66 40 67 46 68 39 69
REMARK SMILES IDX 41 70 42 71 43 72 44 73 68 74 69 75 77 76 70 77 72 78 78 79
REMARK SMILES IDX 71 80 73 81 74 82 75 83 76 84 53 85 54 86 62 87 55 88 57 89
REMARK SMILES IDX 63 90 56 91 58 92 59 93 60 94 61 95
REMARK H PARENT 20 6 10 14 7 16 24 29 83 48 51 59
REMARK Flexibility Score: inf
ROOT
ATOM      1  C   UNL     1       1.960   3.560  -3.005  1.00  0.00     0.042 C 
ENDROOT
BRANCH   1   2
ATOM      2  C   UNL     1       3.264   2.793  -2.856  1.00  0.00     0.117 C 
BRANCH   2   3
ATOM      3  N   UNL     1       3.056   1.423  -2.442  1.00  0.00    -0.356 N 
ATOM      4  O   UNL     1       3.530   0.473  -4.476  1.00  0.00    -0.275 OA
ATOM      5  C   UNL     1       3.264   0.357  -3.283  1.00  0.00     0.226 C 
ATOM      6  H   UNL     1       2.753   1.247  -1.522  1.00  0.00     0.163 HD
BRANCH   5   7
ATOM      7  C   UNL     1       3.119  -1.002  -2.634  1.00  0.00     0.175 C 
BRANCH   7   8
ATOM      8  C   UNL     1       3.974  -1.248  -1.371  1.00  0.00     0.283 C 
ATOM      9  C   UNL     1       4.435  -2.714  -1.423  1.00  0.00     0.279 C 
ATOM     10  N   UNL     1       5.109  -0.315  -1.177  1.00  0.00    -0.319 N 
ATOM     11  O   UNL     1       3.724  -3.638  -1.029  1.00  0.00    -0.268 OA
ATOM     12  N   UNL     1       5.633  -2.986  -2.023  1.00  0.00    -0.345 N 
ATOM     13  C   UNL     1       6.188  -0.529  -2.149  1.00  0.00     0.284 C 
ATOM     14  H   UNL     1       4.739   0.607  -1.405  1.00  0.00     0.349 HD
ATOM     15  C   UNL     1       6.617  -1.988  -2.379  1.00  0.00     0.177 C 
ATOM     16  H   UNL     1       5.840  -3.927  -2.227  1.00  0.00     0.163 HD
BRANCH  10  17
ATOM     17  C   UNL     1       5.523  -0.095   0.214  1.00  0.00     0.299 C 
BRANCH  17  18
ATOM     18  C   UNL     1       6.189  -1.255   0.912  1.00  0.00     0.009 A 
ATOM     19  C   UNL     1       5.435  -2.173   1.660  1.00  0.00     0.011 A 
ATOM     20  C   UNL     1       7.566  -1.470   0.769  1.00  0.00     0.050 A 
ATOM     21  C   UNL     1       6.031  -3.326   2.181  1.00  0.00     0.024 A 
ATOM     22  C   UNL     1       8.149  -2.630   1.269  1.00  0.00     0.142 A 
ATOM     23  C   UNL     1       7.386  -3.566   1.960  1.00  0.00     0.076 A 
ATOM     24  F   UNL     1       9.452  -2.844   1.031  1.00  0.00    -0.205 F 
ATOM     25  Cl  UNL     1       8.094  -5.030   2.523  1.00  0.00    -0.081 Cl
ENDBRANCH  17  18
ENDBRANCH  10  17
ENDBRANCH   7   8
ENDBRANCH   5   7
ENDBRANCH   2   3
ENDBRANCH   1   2
BRANCH   1  26
ATOM     26  C   UNL     1       1.117   3.621  -1.735  1.00  0.00     0.118 C 
BRANCH  26  27
ATOM     27  N   UNL     1       1.785   4.300  -0.632  1.00  0.00    -0.352 N 
ATOM     28  C   UNL     1       1.347   5.325   0.168  1.00  0.00     0.251 C 
ATOM     29  H   UNL     1       2.691   3.973  -0.430  1.00  0.00     0.163 HD
ATOM     30  O   UNL     1       2.136   5.839   0.963  1.00  0.00    -0.269 OA
BRANCH  28  31
ATOM     31  C   UNL     1      -0.041   5.830   0.076  1.00  0.00     0.039 A 
ATOM     32  C   UNL     1      -0.261   7.207   0.169  1.00  0.00     0.014 A 
ATOM     33  C   UNL     1      -1.129   4.964  -0.071  1.00  0.00     0.014 A 
ATOM     34  C   UNL     1      -1.558   7.716   0.069  1.00  0.00     0.010 A 
ATOM     35  C   UNL     1      -2.411   5.479  -0.257  1.00  0.00     0.010 A 
ATOM     36  C   UNL     1      -2.645   6.859  -0.170  1.00  0.00    -0.014 A 
BRANCH  36  37
ATOM     37  C   UNL     1      -4.024   7.396  -0.318  1.00  0.00     0.031 A 
ATOM     38  C   UNL     1      -5.108   7.004   0.653  1.00  0.00     0.074 A 
ATOM     39  C   UNL     1      -4.319   8.200  -1.359  1.00  0.00     0.049 A 
ATOM     40  N   UNL     1      -6.362   7.378   0.685  1.00  0.00    -0.248 NA
ATOM     41  C   UNL     1      -4.746   6.047   1.712  1.00  0.00     0.031 C 
ATOM     42  C   UNL     1      -3.386   8.589  -2.419  1.00  0.00     0.029 A 
ATOM     43  N   UNL     1      -5.492   8.823  -1.708  1.00  0.00    -0.354 N 
ATOM     44  C   UNL     1      -6.942   6.683   1.739  1.00  0.00     0.074 A 
ATOM     45  C   UNL     1      -5.915   5.832   2.297  1.00  0.00     0.031 C 
ATOM     46  C   UNL     1      -4.017   9.395  -3.288  1.00  0.00     0.029 A 
ATOM     47  C   UNL     1      -5.404   9.560  -2.866  1.00  0.00     0.049 A 
ATOM     48  H   UNL     1      -6.319   8.749  -1.178  1.00  0.00     0.167 HD
ATOM     49  C   UNL     1      -8.205   6.766   2.224  1.00  0.00     0.034 A 
ATOM     50  C   UNL     1      -6.334  10.289  -3.514  1.00  0.00     0.034 A 
ATOM     51  C   UNL     1      -9.217   7.640   1.692  1.00  0.00     0.049 A 
ATOM     52  C   UNL     1      -7.714  10.405  -2.926  1.00  0.00     0.074 A 
ATOM     53  C   UNL     1     -10.501   7.855   2.160  1.00  0.00     0.029 A 
ATOM     54  N   UNL     1      -9.064   8.437   0.569  1.00  0.00    -0.354 N 
ATOM     55  N   UNL     1      -8.197   9.861  -1.835  1.00  0.00    -0.248 NA
ATOM     56  C   UNL     1      -8.665  11.274  -3.635  1.00  0.00     0.031 C 
ATOM     57  C   UNL     1     -11.134   8.763   1.304  1.00  0.00     0.029 A 
ATOM     58  C   UNL     1     -10.230   9.143   0.325  1.00  0.00     0.049 A 
ATOM     59  H   UNL     1      -8.246   8.493   0.024  1.00  0.00     0.167 HD
ATOM     60  C   UNL     1      -9.490  10.356  -1.703  1.00  0.00     0.074 A 
ATOM     61  C   UNL     1      -9.705  11.260  -2.814  1.00  0.00     0.031 C 
ATOM     62  C   UNL     1     -10.418  10.079  -0.754  1.00  0.00     0.034 A 
BRANCH  49  63
ATOM     63  C   UNL     1      -8.552   5.921   3.424  1.00  0.00     0.023 A 
ATOM     64  C   UNL     1      -7.989   6.229   4.680  1.00  0.00     0.012 A 
ATOM     65  C   UNL     1      -9.473   4.859   3.323  1.00  0.00     0.148 A 
ATOM     66  C   UNL     1      -8.305   5.471   5.808  1.00  0.00     0.002 A 
ATOM     67  C   UNL     1      -9.820   4.140   4.461  1.00  0.00     0.091 A 
ATOM     68  F   UNL     1      -9.983   4.567   2.119  1.00  0.00    -0.205 F 
ATOM     69  C   UNL     1      -9.228   4.435   5.700  1.00  0.00     0.022 A 
BRANCH  67  70
ATOM     70  S   UNL     1     -11.061   2.841   4.446  1.00  0.00     0.127 S 
ATOM     71  O   UNL     1     -10.242   1.649   4.661  1.00  0.00    -0.237 OA
ATOM     72  O   UNL     1     -11.907   3.211   5.581  1.00  0.00    -0.237 OA
ATOM     73  O   UNL     1     -11.715   2.923   3.148  1.00  0.00    -0.744 OA
ENDBRANCH  67  70
ENDBRANCH  49  63
BRANCH  50  74
ATOM     74  C   UNL     1      -5.970  11.029  -4.756  1.00  0.00     0.023 A 
ATOM     75  C   UNL     1      -5.909  12.436  -4.734  1.00  0.00     0.012 A 
ATOM     76  C   UNL     1      -5.670  10.348  -5.951  1.00  0.00     0.148 A 
ATOM     77  C   UNL     1      -5.597  13.154  -5.888  1.00  0.00     0.002 A 
ATOM     78  C   UNL     1      -5.303  11.066  -7.083  1.00  0.00     0.091 A 
ATOM     79  F   UNL     1      -5.741   9.009  -5.954  1.00  0.00    -0.205 F 
ATOM     80  C   UNL     1      -5.285  12.470  -7.060  1.00  0.00     0.022 A 
BRANCH  78  81
ATOM     81  S   UNL     1      -4.759  10.267  -8.596  1.00  0.00     0.127 S 
ATOM     82  O   UNL     1      -5.862  10.567  -9.506  1.00  0.00    -0.237 OA
ATOM     83  O   UNL     1      -3.513  10.981  -8.882  1.00  0.00    -0.237 OA
ATOM     84  O   UNL     1      -4.582   8.863  -8.258  1.00  0.00    -0.744 OA
ENDBRANCH  78  81
ENDBRANCH  50  74
BRANCH  62  85
ATOM     85  C   UNL     1     -11.738  10.803  -0.839  1.00  0.00     0.023 A 
ATOM     86  C   UNL     1     -12.647  10.502  -1.872  1.00  0.00     0.012 A 
ATOM     87  C   UNL     1     -12.094  11.755   0.138  1.00  0.00     0.148 A 
ATOM     88  C   UNL     1     -13.867  11.173  -1.962  1.00  0.00     0.002 A 
ATOM     89  C   UNL     1     -13.334  12.379   0.073  1.00  0.00     0.091 A 
ATOM     90  F   UNL     1     -11.210  12.044   1.104  1.00  0.00    -0.205 F 
ATOM     91  C   UNL     1     -14.214  12.103  -0.984  1.00  0.00     0.022 A 
BRANCH  89  92
ATOM     92  S   UNL     1     -13.902  13.512   1.346  1.00  0.00     0.127 S 
ATOM     93  O   UNL     1     -13.746  14.806   0.684  1.00  0.00    -0.237 OA
ATOM     94  O   UNL     1     -15.290  13.091   1.542  1.00  0.00    -0.237 OA
ATOM     95  O   UNL     1     -13.037  13.286   2.496  1.00  0.00    -0.744 OA
ENDBRANCH  89  92
ENDBRANCH  62  85
ENDBRANCH  36  37
ENDBRANCH  28  31
ENDBRANCH  26  27
ENDBRANCH   1  26
TORSDOF 16
