REMARK SMILES CCc1[nH]nc(-n2cccc2)c1C(=O)NCCCNC(=O)c1ccc(-c2c3nc(c(-c4cccc(S(=O)(=O)[O-])c4F)c4ccc([nH]4)c(-c4cccc(S(=O)(=O)[O-])c4F)c4nc(c(-c5cccc(S(=O)(=O)[O-])c5F)c5ccc2[nH]5)C=C4)C=C3)cc1
REMARK SMILES IDX 18 1 17 2 16 3 15 4 13 5 14 6 12 8 3 9 4 10 5 11 6 13 2 14
REMARK SMILES IDX 1 15 7 16 8 17 11 18 9 19 10 20 19 21 20 22 21 24 22 25
REMARK SMILES IDX 23 26 84 27 24 28 83 29 25 30 26 31 27 32 77 33 28 34 82 35
REMARK SMILES IDX 76 36 78 37 29 38 81 39 75 40 74 41 30 43 62 44 42 45 61 46
REMARK SMILES IDX 43 47 46 48 60 49 79 50 44 51 45 52 59 54 80 55 47 56 31 57
REMARK SMILES IDX 32 58 40 59 33 60 35 61 41 62 34 63 36 64 37 65 38 66 39 67
REMARK SMILES IDX 63 68 64 69 72 70 65 71 67 72 73 73 66 74 68 75 69 76 70 77
REMARK SMILES IDX 71 78 48 79 49 80 57 81 50 82 52 83 58 84 51 85 53 86 54 87
REMARK SMILES IDX 55 88 56 89
REMARK H PARENT 15 7 4 12 19 23 78 42 46 53
REMARK Flexibility Score: inf
ROOT
ATOM      1  C   UNL     1      -1.464  -0.103  -4.805  1.00  0.00     0.118 C 
ENDROOT
BRANCH   1   2
ATOM      2  C   UNL     1      -0.272  -0.601  -4.016  1.00  0.00     0.042 C 
BRANCH   2   3
ATOM      3  C   UNL     1      -0.661  -1.179  -2.667  1.00  0.00     0.118 C 
BRANCH   3   4
ATOM      4  N   UNL     1      -0.922  -2.587  -2.614  1.00  0.00    -0.352 N 
ATOM      5  C   UNL     1      -0.579  -3.526  -1.672  1.00  0.00     0.256 C 
ATOM      6  O   UNL     1      -1.286  -4.537  -1.690  1.00  0.00    -0.269 OA
ATOM      7  H   UNL     1      -1.431  -2.939  -3.379  1.00  0.00     0.163 HD
BRANCH   5   8
ATOM      8  C   UNL     1       0.532  -3.421  -0.705  1.00  0.00     0.105 A 
ATOM      9  C   UNL     1       1.174  -2.361  -0.031  1.00  0.00     0.050 A 
ATOM     10  N   UNL     1       2.078  -2.953   0.816  1.00  0.00    -0.280 N 
ATOM     11  N   UNL     1       1.989  -4.273   0.896  1.00  0.00    -0.156 NA
ATOM     12  H   UNL     1       2.744  -2.435   1.325  1.00  0.00     0.190 HD
ATOM     13  C   UNL     1       1.129  -4.578  -0.081  1.00  0.00     0.171 A 
BRANCH   9  14
ATOM     14  C   UNL     1       1.069  -0.862  -0.021  1.00  0.00     0.053 C 
ATOM     15  C   UNL     1       1.729  -0.135   1.142  1.00  0.00     0.011 C 
ENDBRANCH   9  14
BRANCH  13  16
ATOM     16  N   UNL     1       0.935  -5.974  -0.339  1.00  0.00    -0.307 N 
ATOM     17  C   UNL     1       0.708  -6.592  -1.553  1.00  0.00     0.093 A 
ATOM     18  C   UNL     1       1.014  -6.977   0.617  1.00  0.00     0.093 A 
ATOM     19  C   UNL     1       0.571  -7.949  -1.353  1.00  0.00     0.020 A 
ATOM     20  C   UNL     1       0.737  -8.190   0.028  1.00  0.00     0.020 A 
ENDBRANCH  13  16
ENDBRANCH   5   8
ENDBRANCH   3   4
ENDBRANCH   2   3
ENDBRANCH   1   2
BRANCH   1  21
ATOM     21  N   UNL     1      -2.198   0.949  -4.101  1.00  0.00    -0.352 N 
ATOM     22  C   UNL     1      -3.333   1.606  -4.528  1.00  0.00     0.251 C 
ATOM     23  H   UNL     1      -1.842   1.217  -3.223  1.00  0.00     0.163 HD
ATOM     24  O   UNL     1      -3.757   2.580  -3.934  1.00  0.00    -0.269 OA
BRANCH  22  25
ATOM     25  C   UNL     1      -3.961   1.133  -5.775  1.00  0.00     0.039 A 
ATOM     26  C   UNL     1      -4.074   2.034  -6.835  1.00  0.00     0.014 A 
ATOM     27  C   UNL     1      -4.298  -0.216  -5.920  1.00  0.00     0.014 A 
ATOM     28  C   UNL     1      -4.439   1.552  -8.083  1.00  0.00     0.010 A 
ATOM     29  C   UNL     1      -4.591  -0.709  -7.179  1.00  0.00     0.010 A 
ATOM     30  C   UNL     1      -4.657   0.177  -8.258  1.00  0.00    -0.014 A 
BRANCH  30  31
ATOM     31  C   UNL     1      -4.928  -0.331  -9.617  1.00  0.00     0.031 A 
ATOM     32  C   UNL     1      -3.678  -0.322 -10.503  1.00  0.00     0.074 A 
ATOM     33  C   UNL     1      -6.229  -0.657  -9.875  1.00  0.00     0.049 A 
ATOM     34  N   UNL     1      -3.537   0.092 -11.727  1.00  0.00    -0.248 NA
ATOM     35  C   UNL     1      -2.366  -0.675  -9.902  1.00  0.00     0.031 C 
ATOM     36  C   UNL     1      -7.313  -0.617  -8.867  1.00  0.00     0.029 A 
ATOM     37  N   UNL     1      -6.916  -1.079 -10.994  1.00  0.00    -0.354 N 
ATOM     38  C   UNL     1      -2.191  -0.149 -12.102  1.00  0.00     0.074 A 
ATOM     39  C   UNL     1      -1.491  -0.473 -10.895  1.00  0.00     0.031 C 
ATOM     40  C   UNL     1      -8.499  -0.931  -9.421  1.00  0.00     0.029 A 
ATOM     41  C   UNL     1      -8.315  -1.206 -10.832  1.00  0.00     0.049 A 
ATOM     42  H   UNL     1      -6.464  -1.277 -11.846  1.00  0.00     0.167 HD
ATOM     43  C   UNL     1      -1.788  -0.228 -13.408  1.00  0.00     0.034 A 
ATOM     44  C   UNL     1      -9.283  -1.450 -11.766  1.00  0.00     0.034 A 
ATOM     45  C   UNL     1      -2.944  -0.202 -14.248  1.00  0.00     0.049 A 
ATOM     46  C   UNL     1      -8.586  -1.624 -13.049  1.00  0.00     0.074 A 
ATOM     47  C   UNL     1      -3.792   0.782 -14.677  1.00  0.00     0.029 A 
ATOM     48  N   UNL     1      -3.510  -1.433 -14.488  1.00  0.00    -0.354 N 
ATOM     49  N   UNL     1      -7.885  -2.667 -13.383  1.00  0.00    -0.248 NA
ATOM     50  C   UNL     1      -8.543  -0.492 -13.986  1.00  0.00     0.031 C 
ATOM     51  C   UNL     1      -5.033   0.122 -14.813  1.00  0.00     0.029 A 
ATOM     52  C   UNL     1      -4.863  -1.252 -14.596  1.00  0.00     0.049 A 
ATOM     53  H   UNL     1      -3.029  -2.288 -14.568  1.00  0.00     0.167 HD
ATOM     54  C   UNL     1      -7.057  -2.160 -14.357  1.00  0.00     0.074 A 
ATOM     55  C   UNL     1      -7.717  -0.995 -14.896  1.00  0.00     0.031 C 
ATOM     56  C   UNL     1      -5.718  -2.374 -14.279  1.00  0.00     0.034 A 
BRANCH  43  57
ATOM     57  C   UNL     1      -0.499  -0.596 -14.119  1.00  0.00     0.023 A 
ATOM     58  C   UNL     1      -0.428  -0.183 -15.485  1.00  0.00     0.012 A 
ATOM     59  C   UNL     1       0.478  -1.502 -13.679  1.00  0.00     0.148 A 
ATOM     60  C   UNL     1       0.471  -0.731 -16.397  1.00  0.00     0.002 A 
ATOM     61  C   UNL     1       1.416  -2.013 -14.589  1.00  0.00     0.091 A 
ATOM     62  F   UNL     1       0.454  -1.934 -12.414  1.00  0.00    -0.205 F 
ATOM     63  C   UNL     1       1.388  -1.660 -15.949  1.00  0.00     0.022 A 
BRANCH  61  64
ATOM     64  S   UNL     1       2.720  -3.155 -14.111  1.00  0.00     0.127 S 
ATOM     65  O   UNL     1       2.202  -4.430 -14.599  1.00  0.00    -0.237 OA
ATOM     66  O   UNL     1       3.868  -2.640 -14.863  1.00  0.00    -0.237 OA
ATOM     67  O   UNL     1       2.850  -3.012 -12.667  1.00  0.00    -0.744 OA
ENDBRANCH  61  64
ENDBRANCH  43  57
BRANCH  44  68
ATOM     68  C   UNL     1     -10.791  -1.379 -11.770  1.00  0.00     0.023 A 
ATOM     69  C   UNL     1     -11.583  -1.467 -10.614  1.00  0.00     0.012 A 
ATOM     70  C   UNL     1     -11.496  -1.147 -12.985  1.00  0.00     0.148 A 
ATOM     71  C   UNL     1     -12.966  -1.206 -10.648  1.00  0.00     0.002 A 
ATOM     72  C   UNL     1     -12.837  -0.783 -13.005  1.00  0.00     0.091 A 
ATOM     73  F   UNL     1     -10.876  -1.322 -14.156  1.00  0.00    -0.205 F 
ATOM     74  C   UNL     1     -13.584  -0.815 -11.832  1.00  0.00     0.022 A 
BRANCH  72  75
ATOM     75  S   UNL     1     -13.614  -0.122 -14.491  1.00  0.00     0.127 S 
ATOM     76  O   UNL     1     -14.740  -1.032 -14.684  1.00  0.00    -0.237 OA
ATOM     77  O   UNL     1     -13.979   1.226 -14.054  1.00  0.00    -0.237 OA
ATOM     78  O   UNL     1     -12.599  -0.160 -15.536  1.00  0.00    -0.744 OA
ENDBRANCH  72  75
ENDBRANCH  44  68
BRANCH  56  79
ATOM     79  C   UNL     1      -5.329  -3.637 -13.512  1.00  0.00     0.023 A 
ATOM     80  C   UNL     1      -5.786  -4.871 -14.014  1.00  0.00     0.012 A 
ATOM     81  C   UNL     1      -4.661  -3.655 -12.265  1.00  0.00     0.148 A 
ATOM     82  C   UNL     1      -5.607  -6.062 -13.303  1.00  0.00     0.002 A 
ATOM     83  C   UNL     1      -4.490  -4.842 -11.546  1.00  0.00     0.091 A 
ATOM     84  F   UNL     1      -4.198  -2.509 -11.778  1.00  0.00    -0.205 F 
ATOM     85  C   UNL     1      -4.964  -6.049 -12.070  1.00  0.00     0.022 A 
BRANCH  83  86
ATOM     86  S   UNL     1      -3.749  -4.915  -9.898  1.00  0.00     0.127 S 
ATOM     87  O   UNL     1      -4.716  -5.724  -9.152  1.00  0.00    -0.237 OA
ATOM     88  O   UNL     1      -2.481  -5.588 -10.161  1.00  0.00    -0.237 OA
ATOM     89  O   UNL     1      -3.644  -3.540  -9.422  1.00  0.00    -0.744 OA
ENDBRANCH  83  86
ENDBRANCH  56  79
ENDBRANCH  30  31
ENDBRANCH  22  25
ENDBRANCH   1  21
TORSDOF 15
