REMARK SMILES Cc1noc(C)c1[C@@H](C)NC(=O)N[C@H](CO)C(=O)NCCCNC(=O)c1ccc(-c2c3nc(c(-c4cccc(S(=O)(=O)[O-])c4F)c4ccc([nH]4)c(-c4cccc(S(=O)(=O)[O-])c4F)c4nc(c(-c5cccc(S(=O)(=O)[O-])c5F)c5ccc2[nH]5)C=C4)C=C3)cc1
REMARK SMILES IDX 21 1 20 2 19 3 17 4 18 5 14 7 13 8 10 9 11 10 12 12 8 14
REMARK SMILES IDX 9 15 7 16 1 17 2 18 3 19 4 20 5 21 6 22 15 23 16 24 22 26
REMARK SMILES IDX 23 27 24 28 25 30 26 31 27 32 88 33 28 34 87 35 29 36 30 37
REMARK SMILES IDX 31 38 81 39 32 40 86 41 80 42 82 43 33 44 85 45 79 46 78 47
REMARK SMILES IDX 34 49 66 50 46 51 65 52 47 53 50 54 64 55 83 56 48 57 49 58
REMARK SMILES IDX 63 60 84 61 51 62 35 63 36 64 44 65 37 66 39 67 45 68 38 69
REMARK SMILES IDX 40 70 41 71 42 72 43 73 67 74 68 75 76 76 69 77 71 78 77 79
REMARK SMILES IDX 70 80 72 81 73 82 74 83 75 84 52 85 53 86 61 87 54 88 56 89
REMARK SMILES IDX 62 90 55 91 57 92 58 93 59 94 60 95
REMARK H PARENT 19 6 10 11 13 13 16 25 23 29 82 48 50 59
REMARK Flexibility Score: inf
ROOT
ATOM      1  C   UNL     1       5.848   5.390   2.528  1.00  0.00     0.042 C 
ENDROOT
BRANCH   1   2
ATOM      2  C   UNL     1       5.518   4.729   1.181  1.00  0.00     0.117 C 
BRANCH   2   3
ATOM      3  N   UNL     1       4.725   3.507   1.256  1.00  0.00    -0.354 N 
ATOM      4  C   UNL     1       3.462   3.179   0.861  1.00  0.00     0.245 C 
ATOM      5  O   UNL     1       3.224   1.965   0.780  1.00  0.00    -0.273 OA
ATOM      6  H   UNL     1       5.203   2.761   1.684  1.00  0.00     0.163 HD
BRANCH   4   7
ATOM      7  C   UNL     1       2.375   4.180   0.403  1.00  0.00     0.198 C 
BRANCH   7   8
ATOM      8  N   UNL     1       2.552   5.604   0.663  1.00  0.00    -0.324 N 
ATOM      9  N   UNL     1       2.622   5.990   2.993  1.00  0.00    -0.331 N 
ATOM     10  C   UNL     1       2.710   6.383   1.727  1.00  0.00     0.315 C 
ATOM     11  H   UNL     1       3.079   6.612   3.604  1.00  0.00     0.165 HD
ATOM     12  O   UNL     1       3.018   7.555   1.502  1.00  0.00    -0.249 OA
ATOM     13  H   UNL     1       2.554   6.126  -0.172  1.00  0.00     0.166 HD
BRANCH   9  14
ATOM     14  C   UNL     1       2.022   4.871   3.705  1.00  0.00     0.116 C 
ATOM     15  C   UNL     1       0.804   5.396   4.461  1.00  0.00     0.036 C 
BRANCH  14  16
ATOM     16  C   UNL     1       3.013   4.200   4.611  1.00  0.00     0.040 A 
ATOM     17  C   UNL     1       3.818   6.122   6.239  1.00  0.00     0.071 C 
ATOM     18  C   UNL     1       3.746   4.736   5.718  1.00  0.00     0.086 A 
ATOM     19  N   UNL     1       4.483   3.795   6.316  1.00  0.00    -0.085 NA
ATOM     20  O   UNL     1       4.281   2.641   5.613  1.00  0.00    -0.361 OA
ATOM     21  C   UNL     1       3.401   2.867   4.608  1.00  0.00     0.139 A 
ATOM     22  C   UNL     1       3.099   1.665   3.809  1.00  0.00     0.091 C 
ENDBRANCH  14  16
ENDBRANCH   9  14
ENDBRANCH   7   8
BRANCH   7  23
ATOM     23  C   UNL     1       0.945   3.644   0.677  1.00  0.00     0.191 C 
BRANCH  23  24
ATOM     24  O   UNL     1      -0.014   4.673   0.928  1.00  0.00    -0.394 OA
ATOM     25  H   UNL     1       0.240   5.165   1.725  1.00  0.00     0.210 HD
ENDBRANCH  23  24
ENDBRANCH   7  23
ENDBRANCH   4   7
ENDBRANCH   2   3
ENDBRANCH   1   2
BRANCH   1  26
ATOM     26  C   UNL     1       6.738   4.595   3.492  1.00  0.00     0.118 C 
BRANCH  26  27
ATOM     27  N   UNL     1       8.012   5.267   3.699  1.00  0.00    -0.352 N 
ATOM     28  C   UNL     1       8.525   5.952   4.775  1.00  0.00     0.251 C 
ATOM     29  H   UNL     1       8.619   5.224   2.925  1.00  0.00     0.163 HD
ATOM     30  O   UNL     1       9.480   6.701   4.554  1.00  0.00    -0.269 OA
BRANCH  28  31
ATOM     31  C   UNL     1       8.024   5.831   6.176  1.00  0.00     0.039 A 
ATOM     32  C   UNL     1       8.197   6.933   7.029  1.00  0.00     0.014 A 
ATOM     33  C   UNL     1       7.545   4.642   6.728  1.00  0.00     0.014 A 
ATOM     34  C   UNL     1       7.907   6.844   8.400  1.00  0.00     0.010 A 
ATOM     35  C   UNL     1       7.198   4.572   8.093  1.00  0.00     0.010 A 
ATOM     36  C   UNL     1       7.400   5.660   8.957  1.00  0.00    -0.014 A 
BRANCH  36  37
ATOM     37  C   UNL     1       7.122   5.566  10.428  1.00  0.00     0.031 A 
ATOM     38  C   UNL     1       7.890   4.608  11.312  1.00  0.00     0.074 A 
ATOM     39  C   UNL     1       6.172   6.340  10.995  1.00  0.00     0.049 A 
ATOM     40  N   UNL     1       7.815   4.436  12.610  1.00  0.00    -0.248 NA
ATOM     41  C   UNL     1       8.864   3.723  10.654  1.00  0.00     0.031 C 
ATOM     42  C   UNL     1       5.308   7.278  10.278  1.00  0.00     0.029 A 
ATOM     43  N   UNL     1       5.763   6.454  12.306  1.00  0.00    -0.354 N 
ATOM     44  C   UNL     1       8.704   3.412  12.919  1.00  0.00     0.074 A 
ATOM     45  C   UNL     1       9.290   2.982  11.668  1.00  0.00     0.031 C 
ATOM     46  C   UNL     1       4.479   7.871  11.152  1.00  0.00     0.029 A 
ATOM     47  C   UNL     1       4.728   7.342  12.491  1.00  0.00     0.049 A 
ATOM     48  H   UNL     1       6.174   5.946  13.043  1.00  0.00     0.167 HD
ATOM     49  C   UNL     1       9.029   2.888  14.129  1.00  0.00     0.034 A 
ATOM     50  C   UNL     1       4.047   7.693  13.602  1.00  0.00     0.034 A 
ATOM     51  C   UNL     1       8.477   3.324  15.386  1.00  0.00     0.049 A 
ATOM     52  C   UNL     1       4.432   7.104  14.935  1.00  0.00     0.074 A 
ATOM     53  C   UNL     1       8.812   2.903  16.663  1.00  0.00     0.029 A 
ATOM     54  N   UNL     1       7.466   4.260  15.530  1.00  0.00    -0.354 N 
ATOM     55  N   UNL     1       5.389   6.256  15.218  1.00  0.00    -0.248 NA
ATOM     56  C   UNL     1       3.666   7.553  16.109  1.00  0.00     0.031 C 
ATOM     57  C   UNL     1       7.977   3.556  17.576  1.00  0.00     0.029 A 
ATOM     58  C   UNL     1       7.152   4.416  16.872  1.00  0.00     0.049 A 
ATOM     59  H   UNL     1       7.035   4.744  14.790  1.00  0.00     0.167 HD
ATOM     60  C   UNL     1       5.365   6.100  16.601  1.00  0.00     0.074 A 
ATOM     61  C   UNL     1       4.313   6.958  17.101  1.00  0.00     0.031 C 
ATOM     62  C   UNL     1       6.140   5.306  17.381  1.00  0.00     0.034 A 
BRANCH  49  63
ATOM     63  C   UNL     1      10.073   1.797  14.167  1.00  0.00     0.023 A 
ATOM     64  C   UNL     1      11.422   2.113  13.908  1.00  0.00     0.012 A 
ATOM     65  C   UNL     1       9.733   0.479  14.535  1.00  0.00     0.148 A 
ATOM     66  C   UNL     1      12.410   1.131  13.977  1.00  0.00     0.002 A 
ATOM     67  C   UNL     1      10.729  -0.485  14.647  1.00  0.00     0.091 A 
ATOM     68  F   UNL     1       8.444   0.192  14.769  1.00  0.00    -0.205 F 
ATOM     69  C   UNL     1      12.065  -0.164  14.355  1.00  0.00     0.022 A 
BRANCH  67  70
ATOM     70  S   UNL     1      10.404  -2.160  15.210  1.00  0.00     0.127 S 
ATOM     71  O   UNL     1      10.614  -2.929  13.984  1.00  0.00    -0.237 OA
ATOM     72  O   UNL     1      11.435  -2.348  16.230  1.00  0.00    -0.237 OA
ATOM     73  O   UNL     1       9.039  -2.157  15.718  1.00  0.00    -0.744 OA
ENDBRANCH  67  70
ENDBRANCH  49  63
BRANCH  50  74
ATOM     74  C   UNL     1       2.946   8.697  13.514  1.00  0.00     0.023 A 
ATOM     75  C   UNL     1       3.108   9.965  14.106  1.00  0.00     0.012 A 
ATOM     76  C   UNL     1       1.743   8.401  12.844  1.00  0.00     0.148 A 
ATOM     77  C   UNL     1       2.079  10.907  14.062  1.00  0.00     0.002 A 
ATOM     78  C   UNL     1       0.747   9.366  12.751  1.00  0.00     0.091 A 
ATOM     79  F   UNL     1       1.601   7.184  12.301  1.00  0.00    -0.205 F 
ATOM     80  C   UNL     1       0.904  10.612  13.376  1.00  0.00     0.022 A 
BRANCH  78  81
ATOM     81  S   UNL     1      -0.741   9.124  11.775  1.00  0.00     0.127 S 
ATOM     82  O   UNL     1      -1.769   9.049  12.806  1.00  0.00    -0.237 OA
ATOM     83  O   UNL     1      -0.767  10.339  10.961  1.00  0.00    -0.237 OA
ATOM     84  O   UNL     1      -0.518   7.899  11.012  1.00  0.00    -0.744 OA
ENDBRANCH  78  81
ENDBRANCH  50  74
BRANCH  62  85
ATOM     85  C   UNL     1       5.921   5.348  18.874  1.00  0.00     0.023 A 
ATOM     86  C   UNL     1       4.753   4.792  19.433  1.00  0.00     0.012 A 
ATOM     87  C   UNL     1       6.907   5.880  19.730  1.00  0.00     0.148 A 
ATOM     88  C   UNL     1       4.554   4.798  20.815  1.00  0.00     0.002 A 
ATOM     89  C   UNL     1       6.726   5.836  21.107  1.00  0.00     0.091 A 
ATOM     90  F   UNL     1       8.005   6.421  19.181  1.00  0.00    -0.205 F 
ATOM     91  C   UNL     1       5.544   5.308  21.651  1.00  0.00     0.022 A 
BRANCH  89  92
ATOM     92  S   UNL     1       7.985   6.382  22.267  1.00  0.00     0.127 S 
ATOM     93  O   UNL     1       7.386   7.601  22.807  1.00  0.00    -0.237 OA
ATOM     94  O   UNL     1       8.045   5.263  23.209  1.00  0.00    -0.237 OA
ATOM     95  O   UNL     1       9.197   6.578  21.483  1.00  0.00    -0.744 OA
ENDBRANCH  89  92
ENDBRANCH  62  85
ENDBRANCH  36  37
ENDBRANCH  28  31
ENDBRANCH  26  27
ENDBRANCH   1  26
TORSDOF 18
