REMARK SMILES O=C(NCCCNC(=O)[C@@H]1[C@H](C(=O)Nc2ccc(Cn3cncn3)cc2)[C@@H]2C=C[C@H]1CC2)c1ccc(-c2c3nc(c(-c4cccc(S(=O)(=O)[O-])c4F)c4ccc([nH]4)c(-c4cccc(S(=O)(=O)[O-])c4F)c4nc(c(-c5cccc(S(=O)(=O)[O-])c5F)c5ccc2[nH]5)C=C4)C=C3)cc1
REMARK SMILES IDX 5 1 4 2 3 3 1 4 2 5 33 7 34 8 95 9 35 10 94 11 36 12 37 13
REMARK SMILES IDX 38 14 88 15 39 16 93 17 87 18 89 19 40 20 92 21 86 22 85 23
REMARK SMILES IDX 41 25 73 26 53 27 72 28 54 29 57 30 71 31 90 32 55 33 56 34
REMARK SMILES IDX 70 36 91 37 58 38 42 39 43 40 51 41 44 42 46 43 52 44 45 45
REMARK SMILES IDX 47 46 48 47 49 48 50 49 74 50 75 51 83 52 76 53 78 54 84 55
REMARK SMILES IDX 77 56 79 57 80 58 81 59 82 60 59 61 60 62 68 63 61 64 63 65
REMARK SMILES IDX 69 66 62 67 64 68 65 69 66 70 67 71 6 72 7 73 8 74 9 76
REMARK SMILES IDX 10 77 11 78 30 79 27 80 29 81 31 82 28 83 32 84 12 85 13 86
REMARK SMILES IDX 14 87 15 89 16 90 26 91 17 92 25 93 18 94 19 95 20 96 21 97
REMARK SMILES IDX 24 98 22 99 23 100
REMARK H PARENT 3 6 89 24 57 35 7 75 14 88
REMARK Flexibility Score: inf
ROOT
ATOM      1  C   UNL     1       5.312  -1.162   1.211  1.00  0.00     0.042 C 
ENDROOT
BRANCH   1   2
ATOM      2  C   UNL     1       4.871  -0.765  -0.203  1.00  0.00     0.118 C 
BRANCH   2   3
ATOM      3  N   UNL     1       3.447  -0.838  -0.488  1.00  0.00    -0.352 N 
ATOM      4  O   UNL     1       1.401  -0.135  -0.984  1.00  0.00    -0.269 OA
ATOM      5  C   UNL     1       2.391   0.012  -0.265  1.00  0.00     0.251 C 
ATOM      6  H   UNL     1       3.183  -1.675  -0.935  1.00  0.00     0.163 HD
BRANCH   5   7
ATOM      7  C   UNL     1       2.350   1.021   0.825  1.00  0.00     0.039 A 
ATOM      8  C   UNL     1       3.473   1.591   1.420  1.00  0.00     0.014 A 
ATOM      9  C   UNL     1       1.073   1.410   1.274  1.00  0.00     0.014 A 
ATOM     10  C   UNL     1       3.336   2.452   2.501  1.00  0.00     0.010 A 
ATOM     11  C   UNL     1       0.927   2.311   2.325  1.00  0.00     0.010 A 
ATOM     12  C   UNL     1       2.064   2.817   2.950  1.00  0.00    -0.014 A 
BRANCH  12  13
ATOM     13  C   UNL     1       1.990   3.943   3.881  1.00  0.00     0.031 A 
ATOM     14  C   UNL     1       2.495   5.223   3.302  1.00  0.00     0.074 A 
ATOM     15  C   UNL     1       1.385   3.913   5.083  1.00  0.00     0.049 A 
ATOM     16  N   UNL     1       3.483   5.954   3.707  1.00  0.00    -0.248 NA
ATOM     17  C   UNL     1       1.908   5.662   2.025  1.00  0.00     0.031 C 
ATOM     18  C   UNL     1       0.580   2.823   5.634  1.00  0.00     0.029 A 
ATOM     19  N   UNL     1       1.238   4.914   6.005  1.00  0.00    -0.354 N 
ATOM     20  C   UNL     1       3.479   7.071   2.870  1.00  0.00     0.074 A 
ATOM     21  C   UNL     1       2.641   6.739   1.752  1.00  0.00     0.031 C 
ATOM     22  C   UNL     1      -0.166   3.301   6.654  1.00  0.00     0.029 A 
ATOM     23  C   UNL     1       0.191   4.690   6.895  1.00  0.00     0.049 A 
ATOM     24  H   UNL     1       1.813   5.712   6.035  1.00  0.00     0.167 HD
ATOM     25  C   UNL     1       3.932   8.281   3.299  1.00  0.00     0.034 A 
ATOM     26  C   UNL     1      -0.404   5.602   7.702  1.00  0.00     0.034 A 
ATOM     27  C   UNL     1       4.793   8.149   4.447  1.00  0.00     0.049 A 
ATOM     28  C   UNL     1       0.512   6.754   7.844  1.00  0.00     0.074 A 
ATOM     29  C   UNL     1       5.956   7.467   4.741  1.00  0.00     0.029 A 
ATOM     30  N   UNL     1       4.282   8.562   5.651  1.00  0.00    -0.354 N 
ATOM     31  N   UNL     1       1.632   6.721   8.507  1.00  0.00    -0.248 NA
ATOM     32  C   UNL     1       0.341   7.894   6.958  1.00  0.00     0.031 C 
ATOM     33  C   UNL     1       5.852   7.129   6.122  1.00  0.00     0.029 A 
ATOM     34  C   UNL     1       4.651   7.654   6.601  1.00  0.00     0.049 A 
ATOM     35  H   UNL     1       3.744   9.372   5.804  1.00  0.00     0.167 HD
ATOM     36  C   UNL     1       2.477   7.559   7.794  1.00  0.00     0.074 A 
ATOM     37  C   UNL     1       1.591   8.361   6.956  1.00  0.00     0.031 C 
ATOM     38  C   UNL     1       3.818   7.309   7.732  1.00  0.00     0.034 A 
BRANCH  25  39
ATOM     39  C   UNL     1       3.262   9.609   2.972  1.00  0.00     0.023 A 
ATOM     40  C   UNL     1       3.878  10.778   3.478  1.00  0.00     0.012 A 
ATOM     41  C   UNL     1       1.936   9.749   2.496  1.00  0.00     0.148 A 
ATOM     42  C   UNL     1       3.179  11.983   3.610  1.00  0.00     0.002 A 
ATOM     43  C   UNL     1       1.273  10.970   2.554  1.00  0.00     0.091 A 
ATOM     44  F   UNL     1       1.242   8.683   2.097  1.00  0.00    -0.205 F 
ATOM     45  C   UNL     1       1.873  12.079   3.149  1.00  0.00     0.022 A 
BRANCH  43  46
ATOM     46  S   UNL     1      -0.400  11.160   1.921  1.00  0.00     0.127 S 
ATOM     47  O   UNL     1      -1.171  11.220   3.159  1.00  0.00    -0.237 OA
ATOM     48  O   UNL     1      -0.299  12.423   1.189  1.00  0.00    -0.237 OA
ATOM     49  O   UNL     1      -0.632   9.998   1.073  1.00  0.00    -0.744 OA
ENDBRANCH  43  46
ENDBRANCH  25  39
BRANCH  26  50
ATOM     50  C   UNL     1      -1.794   5.661   8.214  1.00  0.00     0.023 A 
ATOM     51  C   UNL     1      -2.090   6.467   9.333  1.00  0.00     0.012 A 
ATOM     52  C   UNL     1      -2.874   5.147   7.463  1.00  0.00     0.148 A 
ATOM     53  C   UNL     1      -3.413   6.777   9.671  1.00  0.00     0.002 A 
ATOM     54  C   UNL     1      -4.188   5.442   7.815  1.00  0.00     0.091 A 
ATOM     55  F   UNL     1      -2.616   4.448   6.350  1.00  0.00    -0.205 F 
ATOM     56  C   UNL     1      -4.461   6.269   8.910  1.00  0.00     0.022 A 
BRANCH  54  57
ATOM     57  S   UNL     1      -5.587   4.815   6.876  1.00  0.00     0.127 S 
ATOM     58  O   UNL     1      -6.490   4.365   7.937  1.00  0.00    -0.237 OA
ATOM     59  O   UNL     1      -6.031   6.007   6.159  1.00  0.00    -0.237 OA
ATOM     60  O   UNL     1      -5.056   3.736   6.051  1.00  0.00    -0.744 OA
ENDBRANCH  54  57
ENDBRANCH  26  50
BRANCH  38  61
ATOM     61  C   UNL     1       4.419   6.371   8.745  1.00  0.00     0.023 A 
ATOM     62  C   UNL     1       4.010   5.029   8.873  1.00  0.00     0.012 A 
ATOM     63  C   UNL     1       5.526   6.819   9.487  1.00  0.00     0.148 A 
ATOM     64  C   UNL     1       4.667   4.162   9.749  1.00  0.00     0.002 A 
ATOM     65  C   UNL     1       6.210   5.940  10.318  1.00  0.00     0.091 A 
ATOM     66  F   UNL     1       5.906   8.099   9.357  1.00  0.00    -0.205 F 
ATOM     67  C   UNL     1       5.776   4.614  10.461  1.00  0.00     0.022 A 
BRANCH  65  68
ATOM     68  S   UNL     1       7.723   6.436  11.145  1.00  0.00     0.127 S 
ATOM     69  O   UNL     1       7.249   6.724  12.501  1.00  0.00    -0.237 OA
ATOM     70  O   UNL     1       8.553   5.231  11.036  1.00  0.00    -0.237 OA
ATOM     71  O   UNL     1       8.230   7.571  10.397  1.00  0.00    -0.744 OA
ENDBRANCH  65  68
ENDBRANCH  38  61
ENDBRANCH  12  13
ENDBRANCH   5   7
ENDBRANCH   2   3
ENDBRANCH   1   2
BRANCH   1  72
ATOM     72  C   UNL     1       5.048  -2.621   1.550  1.00  0.00     0.117 C 
BRANCH  72  73
ATOM     73  N   UNL     1       6.091  -3.519   1.088  1.00  0.00    -0.356 N 
ATOM     74  C   UNL     1       6.439  -4.778   1.444  1.00  0.00     0.224 C 
ATOM     75  H   UNL     1       6.656  -3.137   0.377  1.00  0.00     0.163 HD
ATOM     76  O   UNL     1       7.101  -5.388   0.592  1.00  0.00    -0.275 OA
BRANCH  74  77
ATOM     77  C   UNL     1       6.206  -5.446   2.799  1.00  0.00     0.098 C 
ATOM     78  C   UNL     1       5.887  -6.978   2.722  1.00  0.00     0.098 C 
ATOM     79  C   UNL     1       5.464  -4.829   4.020  1.00  0.00     0.025 C 
ATOM     80  C   UNL     1       5.085  -7.412   3.988  1.00  0.00     0.025 C 
ATOM     81  C   UNL     1       4.015  -5.262   4.067  1.00  0.00    -0.027 C 
ATOM     82  C   UNL     1       6.073  -5.476   5.303  1.00  0.00     0.009 C 
ATOM     83  C   UNL     1       3.822  -6.592   4.081  1.00  0.00    -0.027 C 
ATOM     84  C   UNL     1       5.916  -7.018   5.240  1.00  0.00     0.009 C 
BRANCH  78  85
ATOM     85  C   UNL     1       5.441  -7.723   1.436  1.00  0.00     0.228 C 
ATOM     86  O   UNL     1       6.233  -8.539   0.933  1.00  0.00    -0.274 OA
ATOM     87  N   UNL     1       4.178  -7.760   0.915  1.00  0.00    -0.326 N 
ATOM     88  H   UNL     1       4.022  -8.532   0.325  1.00  0.00     0.169 HD
BRANCH  87  89
ATOM     89  C   UNL     1       3.063  -6.930   1.046  1.00  0.00     0.041 A 
ATOM     90  C   UNL     1       1.785  -7.487   1.095  1.00  0.00     0.026 A 
ATOM     91  C   UNL     1       3.180  -5.555   1.070  1.00  0.00     0.026 A 
ATOM     92  C   UNL     1       0.675  -6.680   1.394  1.00  0.00     0.008 A 
ATOM     93  C   UNL     1       2.085  -4.743   1.360  1.00  0.00     0.008 A 
ATOM     94  C   UNL     1       0.834  -5.305   1.600  1.00  0.00    -0.026 A 
BRANCH  94  95
ATOM     95  C   UNL     1      -0.289  -4.412   2.061  1.00  0.00     0.181 C 
BRANCH  95  96
ATOM     96  N   UNL     1      -0.854  -3.668   0.957  1.00  0.00    -0.249 N 
ATOM     97  C   UNL     1      -1.734  -4.115   0.024  1.00  0.00     0.220 A 
ATOM     98  N   UNL     1      -0.529  -2.382   0.745  1.00  0.00    -0.160 NA
ATOM     99  N   UNL     1      -1.995  -3.152  -0.828  1.00  0.00    -0.224 NA
ATOM    100  C   UNL     1      -1.237  -2.112  -0.356  1.00  0.00     0.246 A 
ENDBRANCH  95  96
ENDBRANCH  94  95
ENDBRANCH  87  89
ENDBRANCH  78  85
ENDBRANCH  74  77
ENDBRANCH  72  73
ENDBRANCH   1  72
TORSDOF 17
