REMARK SMILES CCCc1cc(OC(F)(F)F)cc2c1O[C@H](C(F)(F)F)C(C(=O)NCCCNC(=O)c1ccc(-c3c4nc(c(-c5cccc(S(=O)(=O)[O-])c5F)c5ccc([nH]5)c(-c5cccc(S(=O)(=O)[O-])c5F)c5nc(c(-c6cccc(S(=O)(=O)[O-])c6F)c6ccc3[nH]6)C=C5)C=C4)cc1)=C2
REMARK SMILES IDX 26 1 25 2 24 3 22 4 23 5 21 7 4 8 5 9 14 10 6 11 13 12 15 13
REMARK SMILES IDX 12 14 94 15 16 16 3 17 2 18 1 19 7 20 8 21 9 22 10 23 11 24
REMARK SMILES IDX 17 25 18 26 19 27 20 28 27 29 28 30 29 31 30 33 31 34 32 35
REMARK SMILES IDX 93 36 33 37 92 38 34 39 35 40 36 41 86 42 37 43 91 44 85 45
REMARK SMILES IDX 87 46 38 47 90 48 84 49 83 50 39 52 71 53 51 54 70 55 52 56
REMARK SMILES IDX 55 57 69 58 88 59 53 60 54 61 68 63 89 64 56 65 40 66 41 67
REMARK SMILES IDX 49 68 42 69 44 70 50 71 43 72 45 73 46 74 47 75 48 76 72 77
REMARK SMILES IDX 73 78 81 79 74 80 76 81 82 82 75 83 77 84 78 85 79 86 80 87
REMARK SMILES IDX 57 88 58 89 66 90 59 91 61 92 67 93 60 94 62 95 63 96 64 97
REMARK SMILES IDX 65 98
REMARK H PARENT 24 6 28 32 87 51 55 62
REMARK Flexibility Score: inf
ROOT
ATOM      1  C   UNL     1      -4.082   6.225  -1.509  1.00  0.00     0.042 C 
ENDROOT
BRANCH   1   2
ATOM      2  C   UNL     1      -4.639   5.172  -0.555  1.00  0.00     0.118 C 
BRANCH   2   3
ATOM      3  N   UNL     1      -4.754   3.884  -1.210  1.00  0.00    -0.352 N 
ATOM      4  C   UNL     1      -3.930   2.811  -1.276  1.00  0.00     0.251 C 
ATOM      5  O   UNL     1      -4.356   1.813  -1.858  1.00  0.00    -0.270 OA
ATOM      6  H   UNL     1      -5.596   3.766  -1.705  1.00  0.00     0.163 HD
BRANCH   4   7
ATOM      7  C   UNL     1      -2.615   2.743  -0.579  1.00  0.00     0.067 C 
ATOM      8  C   UNL     1       0.679   1.933   1.915  1.00  0.00    -0.002 A 
ATOM      9  C   UNL     1       1.448   3.023   2.378  1.00  0.00     0.054 A 
ATOM     10  C   UNL     1      -0.422   2.198   1.085  1.00  0.00     0.131 A 
ATOM     11  C   UNL     1       1.157   4.334   1.995  1.00  0.00     0.130 A 
ATOM     12  C   UNL     1      -0.699   3.504   0.668  1.00  0.00     0.021 A 
ATOM     13  O   UNL     1      -1.260   1.163   0.769  1.00  0.00    -0.475 OA
ATOM     14  C   UNL     1       0.092   4.563   1.123  1.00  0.00     0.058 A 
ATOM     15  C   UNL     1      -1.877   3.775  -0.149  1.00  0.00     0.025 C 
ATOM     16  C   UNL     1      -2.094   1.329  -0.410  1.00  0.00     0.314 C 
BRANCH   8  17
ATOM     17  C   UNL     1       1.057   0.544   2.393  1.00  0.00     0.039 C 
BRANCH  17  18
ATOM     18  C   UNL     1       0.961  -0.622   1.399  1.00  0.00     0.001 C 
ATOM     19  C   UNL     1       1.744  -0.402   0.113  1.00  0.00     0.004 C 
ENDBRANCH  17  18
ENDBRANCH   8  17
BRANCH  11  20
ATOM     20  O   UNL     1       1.801   5.467   2.399  1.00  0.00    -0.406 OA
BRANCH  20  21
ATOM     21  C   UNL     1       2.895   5.332   3.288  1.00  0.00     0.573 C 
ATOM     22  F   UNL     1       2.508   4.763   4.452  1.00  0.00    -0.132 F 
ATOM     23  F   UNL     1       3.886   4.598   2.740  1.00  0.00    -0.132 F 
ATOM     24  F   UNL     1       3.384   6.560   3.572  1.00  0.00    -0.132 F 
ENDBRANCH  20  21
ENDBRANCH  11  20
BRANCH  16  25
ATOM     25  C   UNL     1      -1.361   0.816  -1.668  1.00  0.00     0.429 C 
ATOM     26  F   UNL     1      -2.136   0.805  -2.774  1.00  0.00    -0.167 F 
ATOM     27  F   UNL     1      -0.268   1.560  -1.959  1.00  0.00    -0.167 F 
ATOM     28  F   UNL     1      -0.936  -0.461  -1.486  1.00  0.00    -0.167 F 
ENDBRANCH  16  25
ENDBRANCH   4   7
ENDBRANCH   2   3
ENDBRANCH   1   2
BRANCH   1  29
ATOM     29  C   UNL     1      -5.120   6.701  -2.519  1.00  0.00     0.118 C 
BRANCH  29  30
ATOM     30  N   UNL     1      -6.195   7.444  -1.871  1.00  0.00    -0.352 N 
ATOM     31  C   UNL     1      -6.583   8.748  -2.057  1.00  0.00     0.251 C 
ATOM     32  H   UNL     1      -6.716   6.939  -1.206  1.00  0.00     0.163 HD
ATOM     33  O   UNL     1      -7.330   9.287  -1.250  1.00  0.00    -0.269 OA
BRANCH  31  34
ATOM     34  C   UNL     1      -6.090   9.487  -3.235  1.00  0.00     0.039 A 
ATOM     35  C   UNL     1      -5.632  10.798  -3.082  1.00  0.00     0.014 A 
ATOM     36  C   UNL     1      -6.084   8.874  -4.490  1.00  0.00     0.014 A 
ATOM     37  C   UNL     1      -5.107  11.475  -4.185  1.00  0.00     0.010 A 
ATOM     38  C   UNL     1      -5.490   9.519  -5.565  1.00  0.00     0.010 A 
ATOM     39  C   UNL     1      -5.004  10.828  -5.426  1.00  0.00    -0.014 A 
BRANCH  39  40
ATOM     40  C   UNL     1      -4.398  11.484  -6.610  1.00  0.00     0.031 A 
ATOM     41  C   UNL     1      -5.229  11.696  -7.845  1.00  0.00     0.074 A 
ATOM     42  C   UNL     1      -3.079  11.761  -6.618  1.00  0.00     0.049 A 
ATOM     43  N   UNL     1      -4.857  12.091  -9.033  1.00  0.00    -0.248 NA
ATOM     44  C   UNL     1      -6.666  11.387  -7.738  1.00  0.00     0.031 C 
ATOM     45  C   UNL     1      -2.160  11.538  -5.500  1.00  0.00     0.029 A 
ATOM     46  N   UNL     1      -2.274  12.249  -7.617  1.00  0.00    -0.354 N 
ATOM     47  C   UNL     1      -5.996  12.029  -9.826  1.00  0.00     0.074 A 
ATOM     48  C   UNL     1      -7.068  11.533  -8.992  1.00  0.00     0.031 C 
ATOM     49  C   UNL     1      -0.917  11.878  -5.877  1.00  0.00     0.029 A 
ATOM     50  C   UNL     1      -0.943  12.301  -7.274  1.00  0.00     0.049 A 
ATOM     51  H   UNL     1      -2.617  12.535  -8.494  1.00  0.00     0.167 HD
ATOM     52  C   UNL     1      -6.141  12.377 -11.127  1.00  0.00     0.034 A 
ATOM     53  C   UNL     1       0.138  12.627  -8.010  1.00  0.00     0.034 A 
ATOM     54  C   UNL     1      -5.080  12.912 -11.934  1.00  0.00     0.049 A 
ATOM     55  C   UNL     1      -0.056  13.036  -9.445  1.00  0.00     0.074 A 
ATOM     56  C   UNL     1      -5.141  13.380 -13.233  1.00  0.00     0.029 A 
ATOM     57  N   UNL     1      -3.763  13.042 -11.521  1.00  0.00    -0.354 N 
ATOM     58  N   UNL     1      -1.166  13.108 -10.139  1.00  0.00    -0.248 NA
ATOM     59  C   UNL     1       1.145  13.438 -10.192  1.00  0.00     0.031 C 
ATOM     60  C   UNL     1      -3.854  13.767 -13.617  1.00  0.00     0.029 A 
ATOM     61  C   UNL     1      -2.999  13.575 -12.543  1.00  0.00     0.049 A 
ATOM     62  H   UNL     1      -3.422  12.793 -10.632  1.00  0.00     0.167 HD
ATOM     63  C   UNL     1      -0.805  13.604 -11.386  1.00  0.00     0.074 A 
ATOM     64  C   UNL     1       0.626  13.825 -11.350  1.00  0.00     0.031 C 
ATOM     65  C   UNL     1      -1.587  13.847 -12.467  1.00  0.00     0.034 A 
BRANCH  52  66
ATOM     66  C   UNL     1      -7.507  12.229 -11.745  1.00  0.00     0.023 A 
ATOM     67  C   UNL     1      -8.551  13.090 -11.349  1.00  0.00     0.012 A 
ATOM     68  C   UNL     1      -7.744  11.278 -12.757  1.00  0.00     0.148 A 
ATOM     69  C   UNL     1      -9.818  12.982 -11.920  1.00  0.00     0.002 A 
ATOM     70  C   UNL     1      -8.995  11.209 -13.357  1.00  0.00     0.091 A 
ATOM     71  F   UNL     1      -6.745  10.454 -13.107  1.00  0.00    -0.205 F 
ATOM     72  C   UNL     1     -10.037  12.050 -12.931  1.00  0.00     0.022 A 
BRANCH  70  73
ATOM     73  S   UNL     1      -9.356  10.101 -14.723  1.00  0.00     0.127 S 
ATOM     74  O   UNL     1     -10.260   9.139 -14.093  1.00  0.00    -0.237 OA
ATOM     75  O   UNL     1      -9.996  10.998 -15.685  1.00  0.00    -0.237 OA
ATOM     76  O   UNL     1      -8.074   9.562 -15.154  1.00  0.00    -0.744 OA
ENDBRANCH  70  73
ENDBRANCH  52  66
BRANCH  53  77
ATOM     77  C   UNL     1       1.492  12.630  -7.388  1.00  0.00     0.023 A 
ATOM     78  C   UNL     1       2.148  13.857  -7.169  1.00  0.00     0.012 A 
ATOM     79  C   UNL     1       2.121  11.434  -6.988  1.00  0.00     0.148 A 
ATOM     80  C   UNL     1       3.420  13.892  -6.596  1.00  0.00     0.002 A 
ATOM     81  C   UNL     1       3.364  11.480  -6.367  1.00  0.00     0.091 A 
ATOM     82  F   UNL     1       1.483  10.276  -7.211  1.00  0.00    -0.205 F 
ATOM     83  C   UNL     1       4.023  12.706  -6.187  1.00  0.00     0.022 A 
BRANCH  81  84
ATOM     84  S   UNL     1       4.158  10.019  -5.688  1.00  0.00     0.127 S 
ATOM     85  O   UNL     1       5.292   9.848  -6.591  1.00  0.00    -0.237 OA
ATOM     86  O   UNL     1       4.505  10.465  -4.338  1.00  0.00    -0.237 OA
ATOM     87  O   UNL     1       3.150   8.968  -5.731  1.00  0.00    -0.744 OA
ENDBRANCH  81  84
ENDBRANCH  53  77
BRANCH  65  88
ATOM     88  C   UNL     1      -0.936  14.437 -13.690  1.00  0.00     0.023 A 
ATOM     89  C   UNL     1      -0.118  13.637 -14.510  1.00  0.00     0.012 A 
ATOM     90  C   UNL     1      -1.232  15.758 -14.081  1.00  0.00     0.148 A 
ATOM     91  C   UNL     1       0.414  14.150 -15.692  1.00  0.00     0.002 A 
ATOM     92  C   UNL     1      -0.742  16.245 -15.285  1.00  0.00     0.091 A 
ATOM     93  F   UNL     1      -2.001  16.505 -13.275  1.00  0.00    -0.205 F 
ATOM     94  C   UNL     1       0.090  15.447 -16.087  1.00  0.00     0.022 A 
BRANCH  92  95
ATOM     95  S   UNL     1      -1.189  17.863 -15.925  1.00  0.00     0.127 S 
ATOM     96  O   UNL     1       0.084  18.578 -15.842  1.00  0.00    -0.237 OA
ATOM     97  O   UNL     1      -1.623  17.546 -17.286  1.00  0.00    -0.237 OA
ATOM     98  O   UNL     1      -2.241  18.367 -15.054  1.00  0.00    -0.744 OA
ENDBRANCH  92  95
ENDBRANCH  65  88
ENDBRANCH  39  40
ENDBRANCH  31  34
ENDBRANCH  29  30
ENDBRANCH   1  29
TORSDOF 18
