REMARK SMILES O=C(NCCCNC(=O)[C@H]1CC2=c3ccccc3=N[C@H]2[C@@H](c2ccccc2)[NH2+]1)c1ccc(-c2c3nc(c(-c4cccc(S(=O)(=O)[O-])c4F)c4ccc([nH]4)c(-c4cccc(S(=O)(=O)[O-])c4F)c4nc(c(-c5cccc(S(=O)(=O)[O-])c5F)c5ccc2[nH]5)C=C4)C=C3)cc1
REMARK SMILES IDX 4 1 3 2 1 3 2 4 29 6 30 7 91 8 31 9 90 10 32 11 33 12 34 13
REMARK SMILES IDX 84 14 35 15 89 16 83 17 85 18 36 19 88 20 82 21 81 22 37 24
REMARK SMILES IDX 69 25 49 26 68 27 50 28 53 29 67 30 86 31 51 32 52 33 66 35
REMARK SMILES IDX 87 36 54 37 38 38 39 39 47 40 40 41 42 42 48 43 41 44 43 45
REMARK SMILES IDX 44 46 45 47 46 48 70 49 71 50 79 51 72 52 74 53 80 54 73 55
REMARK SMILES IDX 75 56 76 57 77 58 78 59 55 60 56 61 64 62 57 63 59 64 65 65
REMARK SMILES IDX 58 66 60 67 61 68 62 69 63 70 5 71 6 72 7 73 8 74 9 76 10 77
REMARK SMILES IDX 11 78 28 79 12 80 21 81 13 84 20 85 14 86 18 87 19 88 15 89
REMARK SMILES IDX 17 90 16 91 22 92 23 93 27 94 24 95 26 96 25 97
REMARK H PARENT 3 5 85 23 53 34 7 75 28 82 28 83
REMARK Flexibility Score: inf
ROOT
ATOM      1  C   UNL     1       4.352  -1.161  -0.770  1.00  0.00     0.118 C 
ENDROOT
BRANCH   1   2
ATOM      2  N   UNL     1       2.934  -0.846  -0.798  1.00  0.00    -0.352 N 
ATOM      3  O   UNL     1       1.009   0.079  -0.141  1.00  0.00    -0.269 OA
ATOM      4  C   UNL     1       2.232   0.183  -0.223  1.00  0.00     0.251 C 
ATOM      5  H   UNL     1       2.384  -1.477  -1.316  1.00  0.00     0.163 HD
BRANCH   4   6
ATOM      6  C   UNL     1       2.900   1.407   0.285  1.00  0.00     0.039 A 
ATOM      7  C   UNL     1       2.302   2.105   1.342  1.00  0.00     0.014 A 
ATOM      8  C   UNL     1       4.030   1.946  -0.334  1.00  0.00     0.014 A 
ATOM      9  C   UNL     1       2.827   3.331   1.762  1.00  0.00     0.010 A 
ATOM     10  C   UNL     1       4.616   3.112   0.154  1.00  0.00     0.010 A 
ATOM     11  C   UNL     1       3.987   3.848   1.166  1.00  0.00    -0.014 A 
BRANCH  11  12
ATOM     12  C   UNL     1       4.489   5.208   1.495  1.00  0.00     0.031 A 
ATOM     13  C   UNL     1       4.517   6.270   0.423  1.00  0.00     0.074 A 
ATOM     14  C   UNL     1       4.953   5.487   2.727  1.00  0.00     0.049 A 
ATOM     15  N   UNL     1       4.978   7.492   0.484  1.00  0.00    -0.248 NA
ATOM     16  C   UNL     1       3.984   5.902  -0.902  1.00  0.00     0.031 C 
ATOM     17  C   UNL     1       5.026   4.540   3.840  1.00  0.00     0.029 A 
ATOM     18  N   UNL     1       5.464   6.652   3.245  1.00  0.00    -0.354 N 
ATOM     19  C   UNL     1       4.842   8.013  -0.797  1.00  0.00     0.074 A 
ATOM     20  C   UNL     1       4.282   6.971  -1.625  1.00  0.00     0.031 C 
ATOM     21  C   UNL     1       5.529   5.167   4.915  1.00  0.00     0.029 A 
ATOM     22  C   UNL     1       5.841   6.550   4.562  1.00  0.00     0.049 A 
ATOM     23  H   UNL     1       5.551   7.481   2.722  1.00  0.00     0.167 HD
ATOM     24  C   UNL     1       5.118   9.261  -1.240  1.00  0.00     0.034 A 
ATOM     25  C   UNL     1       6.375   7.466   5.394  1.00  0.00     0.034 A 
ATOM     26  C   UNL     1       5.582  10.328  -0.401  1.00  0.00     0.049 A 
ATOM     27  C   UNL     1       6.625   8.862   4.897  1.00  0.00     0.074 A 
ATOM     28  C   UNL     1       5.790  11.653  -0.736  1.00  0.00     0.029 A 
ATOM     29  N   UNL     1       5.898  10.196   0.941  1.00  0.00    -0.354 N 
ATOM     30  N   UNL     1       6.386   9.365   3.710  1.00  0.00    -0.248 NA
ATOM     31  C   UNL     1       7.195   9.822   5.853  1.00  0.00     0.031 C 
ATOM     32  C   UNL     1       6.239  12.324   0.405  1.00  0.00     0.029 A 
ATOM     33  C   UNL     1       6.304  11.415   1.450  1.00  0.00     0.049 A 
ATOM     34  H   UNL     1       5.841   9.358   1.456  1.00  0.00     0.167 HD
ATOM     35  C   UNL     1       6.758  10.702   3.780  1.00  0.00     0.074 A 
ATOM     36  C   UNL     1       7.227  10.937   5.130  1.00  0.00     0.031 C 
ATOM     37  C   UNL     1       6.726  11.644   2.807  1.00  0.00     0.034 A 
BRANCH  24  38
ATOM     38  C   UNL     1       4.856   9.565  -2.689  1.00  0.00     0.023 A 
ATOM     39  C   UNL     1       3.531   9.761  -3.125  1.00  0.00     0.012 A 
ATOM     40  C   UNL     1       5.919   9.724  -3.599  1.00  0.00     0.148 A 
ATOM     41  C   UNL     1       3.263  10.089  -4.453  1.00  0.00     0.002 A 
ATOM     42  C   UNL     1       5.646  10.085  -4.913  1.00  0.00     0.091 A 
ATOM     43  F   UNL     1       7.169   9.515  -3.164  1.00  0.00    -0.205 F 
ATOM     44  C   UNL     1       4.320  10.260  -5.343  1.00  0.00     0.022 A 
BRANCH  42  45
ATOM     45  S   UNL     1       6.936  10.385  -6.126  1.00  0.00     0.127 S 
ATOM     46  O   UNL     1       6.730   9.274  -7.055  1.00  0.00    -0.237 OA
ATOM     47  O   UNL     1       6.562  11.697  -6.653  1.00  0.00    -0.237 OA
ATOM     48  O   UNL     1       8.194  10.356  -5.394  1.00  0.00    -0.744 OA
ENDBRANCH  42  45
ENDBRANCH  24  38
BRANCH  25  49
ATOM     49  C   UNL     1       6.624   7.092   6.812  1.00  0.00     0.023 A 
ATOM     50  C   UNL     1       5.717   7.519   7.800  1.00  0.00     0.012 A 
ATOM     51  C   UNL     1       7.686   6.239   7.169  1.00  0.00     0.148 A 
ATOM     52  C   UNL     1       5.862   7.103   9.123  1.00  0.00     0.002 A 
ATOM     53  C   UNL     1       7.802   5.797   8.482  1.00  0.00     0.091 A 
ATOM     54  F   UNL     1       8.531   5.844   6.207  1.00  0.00    -0.205 F 
ATOM     55  C   UNL     1       6.897   6.235   9.462  1.00  0.00     0.022 A 
BRANCH  53  56
ATOM     56  S   UNL     1       9.033   4.594   8.996  1.00  0.00     0.127 S 
ATOM     57  O   UNL     1       9.769   5.336  10.018  1.00  0.00    -0.237 OA
ATOM     58  O   UNL     1       8.190   3.512   9.508  1.00  0.00    -0.237 OA
ATOM     59  O   UNL     1       9.791   4.263   7.801  1.00  0.00    -0.744 OA
ENDBRANCH  53  56
ENDBRANCH  25  49
BRANCH  37  60
ATOM     60  C   UNL     1       7.204  13.030   3.139  1.00  0.00     0.023 A 
ATOM     61  C   UNL     1       8.586  13.294   3.150  1.00  0.00     0.012 A 
ATOM     62  C   UNL     1       6.289  14.091   3.281  1.00  0.00     0.148 A 
ATOM     63  C   UNL     1       9.053  14.599   3.299  1.00  0.00     0.002 A 
ATOM     64  C   UNL     1       6.761  15.393   3.396  1.00  0.00     0.091 A 
ATOM     65  F   UNL     1       4.978  13.809   3.270  1.00  0.00    -0.205 F 
ATOM     66  C   UNL     1       8.143  15.648   3.409  1.00  0.00     0.022 A 
BRANCH  64  67
ATOM     67  S   UNL     1       5.670  16.819   3.461  1.00  0.00     0.127 S 
ATOM     68  O   UNL     1       5.918  17.322   4.811  1.00  0.00    -0.237 OA
ATOM     69  O   UNL     1       6.199  17.660   2.388  1.00  0.00    -0.237 OA
ATOM     70  O   UNL     1       4.324  16.310   3.229  1.00  0.00    -0.744 OA
ENDBRANCH  64  67
ENDBRANCH  37  60
ENDBRANCH  11  12
ENDBRANCH   4   6
ENDBRANCH   1   2
BRANCH   1  71
ATOM     71  C   UNL     1       4.660  -2.278   0.214  1.00  0.00     0.042 C 
BRANCH  71  72
ATOM     72  C   UNL     1       4.154  -3.647  -0.221  1.00  0.00     0.118 C 
BRANCH  72  73
ATOM     73  N   UNL     1       4.876  -4.149  -1.378  1.00  0.00    -0.351 N 
ATOM     74  C   UNL     1       5.831  -5.118  -1.500  1.00  0.00     0.278 C 
ATOM     75  H   UNL     1       4.633  -3.713  -2.227  1.00  0.00     0.163 HD
ATOM     76  O   UNL     1       6.355  -5.259  -2.609  1.00  0.00    -0.268 OA
BRANCH  74  77
ATOM     77  C   UNL     1       6.239  -6.013  -0.308  1.00  0.00     0.277 C 
ATOM     78  C   UNL     1       6.972  -5.203   0.788  1.00  0.00     0.109 C 
ATOM     79  N   UNL     1       5.072  -6.837   0.091  1.00  0.00    -0.327 N 
ATOM     80  C   UNL     1       6.370  -5.436   2.130  1.00  0.00    -0.024 C 
ATOM     81  C   UNL     1       5.266  -7.597   1.350  1.00  0.00     0.243 C 
ATOM     82  H   UNL     1       4.878  -7.501  -0.657  1.00  0.00     0.347 HD
ATOM     83  H   UNL     1       4.300  -6.191   0.256  1.00  0.00     0.347 HD
ATOM     84  C   UNL     1       5.959  -4.586   3.065  1.00  0.00     0.002 A 
ATOM     85  C   UNL     1       6.047  -6.856   2.497  1.00  0.00     0.196 C 
ATOM     86  C   UNL     1       5.982  -3.173   3.245  1.00  0.00     0.010 A 
ATOM     87  C   UNL     1       5.278  -5.476   4.020  1.00  0.00     0.066 A 
ATOM     88  N   UNL     1       5.307  -6.752   3.786  1.00  0.00    -0.270 NA
ATOM     89  C   UNL     1       5.312  -2.643   4.282  1.00  0.00     0.001 A 
ATOM     90  C   UNL     1       4.570  -4.822   5.140  1.00  0.00     0.028 A 
ATOM     91  C   UNL     1       4.586  -3.481   5.222  1.00  0.00     0.002 A 
BRANCH  81  92
ATOM     92  C   UNL     1       3.934  -8.206   1.782  1.00  0.00     0.012 A 
ATOM     93  C   UNL     1       3.794  -9.598   1.885  1.00  0.00     0.010 A 
ATOM     94  C   UNL     1       2.830  -7.397   2.109  1.00  0.00     0.010 A 
ATOM     95  C   UNL     1       2.592 -10.163   2.316  1.00  0.00     0.001 A 
ATOM     96  C   UNL     1       1.629  -7.963   2.539  1.00  0.00     0.001 A 
ATOM     97  C   UNL     1       1.511  -9.346   2.644  1.00  0.00     0.000 A 
ENDBRANCH  81  92
ENDBRANCH  74  77
ENDBRANCH  72  73
ENDBRANCH  71  72
ENDBRANCH   1  71
TORSDOF 14
