REMARK SMILES CC(=O)Nc1cccc(NC(=O)N[C@H](C(=O)NCCCNC(=O)c2ccc(-c3c4nc(c(-c5cccc(S(=O)(=O)[O-])c5F)c5ccc([nH]5)c(-c5cccc(S(=O)(=O)[O-])c5F)c5nc(c(-c6cccc(S(=O)(=O)[O-])c6F)c6ccc3[nH]6)C=C5)C=C4)cc2)C(C)C)c1
REMARK SMILES IDX 19 1 18 2 17 3 15 4 16 5 14 7 13 8 10 9 11 10 12 12 9 14
REMARK SMILES IDX 5 15 6 16 90 17 7 18 8 19 4 20 1 21 2 22 3 23 87 25 88 26
REMARK SMILES IDX 89 27 20 28 21 29 22 30 23 32 24 33 25 34 86 35 26 36 85 37
REMARK SMILES IDX 27 38 28 39 29 40 79 41 30 42 84 43 78 44 80 45 31 46 83 47
REMARK SMILES IDX 77 48 76 49 32 51 64 52 44 53 63 54 45 55 48 56 62 57 81 58
REMARK SMILES IDX 46 59 47 60 61 62 82 63 49 64 33 65 34 66 42 67 35 68 37 69
REMARK SMILES IDX 43 70 36 71 38 72 39 73 40 74 41 75 65 76 66 77 74 78 67 79
REMARK SMILES IDX 69 80 75 81 68 82 70 83 71 84 72 85 73 86 50 87 51 88 59 89
REMARK SMILES IDX 52 90 54 91 60 92 53 93 55 94 56 95 57 96 58 97
REMARK H PARENT 17 6 10 11 13 13 4 24 21 31 80 50 48 61
REMARK Flexibility Score: inf
ROOT
ATOM      1  C   UNL     1       3.488   4.539   1.744  1.00  0.00     0.042 C 
ENDROOT
BRANCH   1   2
ATOM      2  C   UNL     1       3.840   5.124   0.385  1.00  0.00     0.117 C 
BRANCH   2   3
ATOM      3  N   UNL     1       4.673   4.229  -0.397  1.00  0.00    -0.354 N 
ATOM      4  C   UNL     1       4.800   4.128  -1.755  1.00  0.00     0.242 C 
ATOM      5  O   UNL     1       5.475   3.183  -2.167  1.00  0.00    -0.273 OA
ATOM      6  H   UNL     1       5.227   3.605   0.125  1.00  0.00     0.163 HD
BRANCH   4   7
ATOM      7  C   UNL     1       3.946   5.039  -2.680  1.00  0.00     0.175 C 
BRANCH   7   8
ATOM      8  N   UNL     1       3.857   6.466  -2.312  1.00  0.00    -0.326 N 
ATOM      9  N   UNL     1       5.941   7.303  -1.512  1.00  0.00    -0.308 N 
ATOM     10  C   UNL     1       4.674   7.451  -1.927  1.00  0.00     0.319 C 
ATOM     11  H   UNL     1       6.188   7.974  -0.836  1.00  0.00     0.171 HD
ATOM     12  O   UNL     1       4.147   8.557  -1.757  1.00  0.00    -0.248 OA
ATOM     13  H   UNL     1       2.926   6.784  -2.364  1.00  0.00     0.166 HD
BRANCH   9  14
ATOM     14  C   UNL     1       7.000   6.435  -1.798  1.00  0.00     0.044 A 
ATOM     15  C   UNL     1       9.130   5.499  -1.061  1.00  0.00     0.043 A 
ATOM     16  C   UNL     1       9.223   4.819  -2.280  1.00  0.00     0.026 A 
ATOM     17  C   UNL     1       8.021   6.317  -0.837  1.00  0.00     0.052 A 
ATOM     18  C   UNL     1       8.238   4.967  -3.255  1.00  0.00     0.004 A 
ATOM     19  C   UNL     1       7.142   5.794  -3.019  1.00  0.00     0.026 A 
BRANCH  15  20
ATOM     20  N   UNL     1      10.220   5.354  -0.185  1.00  0.00    -0.326 N 
ATOM     21  C   UNL     1       9.292   6.045   2.030  1.00  0.00     0.114 C 
ATOM     22  C   UNL     1      10.429   5.678   1.121  1.00  0.00     0.221 C 
ATOM     23  O   UNL     1      11.584   5.626   1.554  1.00  0.00    -0.275 OA
ATOM     24  H   UNL     1      11.000   4.925  -0.607  1.00  0.00     0.169 HD
ENDBRANCH  15  20
ENDBRANCH   9  14
ENDBRANCH   7   8
BRANCH   7  25
ATOM     25  C   UNL     1       4.005   4.895  -4.231  1.00  0.00     0.015 C 
ATOM     26  C   UNL     1       4.612   3.603  -4.774  1.00  0.00     0.010 C 
ATOM     27  C   UNL     1       2.588   5.040  -4.822  1.00  0.00     0.010 C 
ENDBRANCH   7  25
ENDBRANCH   4   7
ENDBRANCH   2   3
ENDBRANCH   1   2
BRANCH   1  28
ATOM     28  C   UNL     1       4.680   4.414   2.685  1.00  0.00     0.118 C 
BRANCH  28  29
ATOM     29  N   UNL     1       5.102   5.692   3.244  1.00  0.00    -0.352 N 
ATOM     30  C   UNL     1       5.258   6.044   4.566  1.00  0.00     0.251 C 
ATOM     31  H   UNL     1       5.302   6.398   2.589  1.00  0.00     0.163 HD
ATOM     32  O   UNL     1       5.501   7.210   4.865  1.00  0.00    -0.269 OA
BRANCH  30  33
ATOM     33  C   UNL     1       5.101   5.018   5.622  1.00  0.00     0.039 A 
ATOM     34  C   UNL     1       4.288   5.295   6.724  1.00  0.00     0.014 A 
ATOM     35  C   UNL     1       5.727   3.775   5.506  1.00  0.00     0.014 A 
ATOM     36  C   UNL     1       4.048   4.297   7.675  1.00  0.00     0.010 A 
ATOM     37  C   UNL     1       5.420   2.760   6.407  1.00  0.00     0.010 A 
ATOM     38  C   UNL     1       4.585   3.011   7.506  1.00  0.00    -0.014 A 
BRANCH  38  39
ATOM     39  C   UNL     1       4.300   1.914   8.469  1.00  0.00     0.031 A 
ATOM     40  C   UNL     1       5.426   1.281   9.243  1.00  0.00     0.074 A 
ATOM     41  C   UNL     1       3.050   1.419   8.575  1.00  0.00     0.049 A 
ATOM     42  N   UNL     1       5.392   0.266  10.067  1.00  0.00    -0.248 NA
ATOM     43  C   UNL     1       6.774   1.837   9.036  1.00  0.00     0.031 C 
ATOM     44  C   UNL     1       1.889   1.876   7.809  1.00  0.00     0.029 A 
ATOM     45  N   UNL     1       2.554   0.401   9.351  1.00  0.00    -0.354 N 
ATOM     46  C   UNL     1       6.712   0.029  10.433  1.00  0.00     0.074 A 
ATOM     47  C   UNL     1       7.526   0.986   9.717  1.00  0.00     0.031 C 
ATOM     48  C   UNL     1       0.816   1.146   8.158  1.00  0.00     0.029 A 
ATOM     49  C   UNL     1       1.213   0.161   9.160  1.00  0.00     0.049 A 
ATOM     50  H   UNL     1       3.107  -0.111   9.985  1.00  0.00     0.167 HD
ATOM     51  C   UNL     1       7.202  -0.876  11.312  1.00  0.00     0.034 A 
ATOM     52  C   UNL     1       0.394  -0.742   9.734  1.00  0.00     0.034 A 
ATOM     53  C   UNL     1       6.385  -1.769  12.087  1.00  0.00     0.049 A 
ATOM     54  C   UNL     1       0.944  -1.656  10.797  1.00  0.00     0.074 A 
ATOM     55  C   UNL     1       6.775  -2.656  13.075  1.00  0.00     0.029 A 
ATOM     56  N   UNL     1       5.008  -1.877  11.973  1.00  0.00    -0.354 N 
ATOM     57  N   UNL     1       2.171  -1.750  11.248  1.00  0.00    -0.248 NA
ATOM     58  C   UNL     1      -0.011  -2.555  11.463  1.00  0.00     0.031 C 
ATOM     59  C   UNL     1       5.630  -3.294  13.565  1.00  0.00     0.029 A 
ATOM     60  C   UNL     1       4.529  -2.803  12.882  1.00  0.00     0.049 A 
ATOM     61  H   UNL     1       4.452  -1.369  11.338  1.00  0.00     0.167 HD
ATOM     62  C   UNL     1       2.129  -2.687  12.275  1.00  0.00     0.074 A 
ATOM     63  C   UNL     1       0.751  -3.118  12.392  1.00  0.00     0.031 C 
ATOM     64  C   UNL     1       3.143  -3.162  13.038  1.00  0.00     0.034 A 
BRANCH  51  65
ATOM     65  C   UNL     1       8.689  -0.885  11.544  1.00  0.00     0.023 A 
ATOM     66  C   UNL     1       9.276   0.162  12.284  1.00  0.00     0.012 A 
ATOM     67  C   UNL     1       9.498  -1.937  11.074  1.00  0.00     0.148 A 
ATOM     68  C   UNL     1      10.649   0.182  12.523  1.00  0.00     0.002 A 
ATOM     69  C   UNL     1      10.861  -1.931  11.351  1.00  0.00     0.091 A 
ATOM     70  F   UNL     1       8.928  -2.911  10.350  1.00  0.00    -0.205 F 
ATOM     71  C   UNL     1      11.439  -0.869  12.065  1.00  0.00     0.022 A 
BRANCH  69  72
ATOM     72  S   UNL     1      11.945  -3.280  10.867  1.00  0.00     0.127 S 
ATOM     73  O   UNL     1      12.619  -2.714   9.700  1.00  0.00    -0.237 OA
ATOM     74  O   UNL     1      12.798  -3.436  12.046  1.00  0.00    -0.237 OA
ATOM     75  O   UNL     1      11.071  -4.414  10.603  1.00  0.00    -0.744 OA
ENDBRANCH  69  72
ENDBRANCH  51  65
BRANCH  52  76
ATOM     76  C   UNL     1      -1.058  -0.747   9.399  1.00  0.00     0.023 A 
ATOM     77  C   UNL     1      -1.979  -0.254  10.344  1.00  0.00     0.012 A 
ATOM     78  C   UNL     1      -1.530  -1.192   8.150  1.00  0.00     0.148 A 
ATOM     79  C   UNL     1      -3.345  -0.233  10.065  1.00  0.00     0.002 A 
ATOM     80  C   UNL     1      -2.889  -1.122   7.859  1.00  0.00     0.091 A 
ATOM     81  F   UNL     1      -0.642  -1.672   7.267  1.00  0.00    -0.205 F 
ATOM     82  C   UNL     1      -3.799  -0.657   8.819  1.00  0.00     0.022 A 
BRANCH  80  83
ATOM     83  S   UNL     1      -3.537  -1.525   6.231  1.00  0.00     0.127 S 
ATOM     84  O   UNL     1      -4.085  -2.861   6.448  1.00  0.00    -0.237 OA
ATOM     85  O   UNL     1      -4.535  -0.474   6.027  1.00  0.00    -0.237 OA
ATOM     86  O   UNL     1      -2.394  -1.440   5.332  1.00  0.00    -0.744 OA
ENDBRANCH  80  83
ENDBRANCH  52  76
BRANCH  64  87
ATOM     87  C   UNL     1       2.806  -4.175  14.099  1.00  0.00     0.023 A 
ATOM     88  C   UNL     1       2.535  -5.506  13.727  1.00  0.00     0.012 A 
ATOM     89  C   UNL     1       2.839  -3.829  15.463  1.00  0.00     0.148 A 
ATOM     90  C   UNL     1       2.278  -6.473  14.697  1.00  0.00     0.002 A 
ATOM     91  C   UNL     1       2.621  -4.808  16.427  1.00  0.00     0.091 A 
ATOM     92  F   UNL     1       3.074  -2.552  15.798  1.00  0.00    -0.205 F 
ATOM     93  C   UNL     1       2.333  -6.128  16.046  1.00  0.00     0.022 A 
BRANCH  91  94
ATOM     94  S   UNL     1       2.764  -4.451  18.182  1.00  0.00     0.127 S 
ATOM     95  O   UNL     1       1.372  -4.205  18.553  1.00  0.00    -0.237 OA
ATOM     96  O   UNL     1       3.326  -5.693  18.716  1.00  0.00    -0.237 OA
ATOM     97  O   UNL     1       3.659  -3.305  18.273  1.00  0.00    -0.744 OA
ENDBRANCH  91  94
ENDBRANCH  64  87
ENDBRANCH  38  39
ENDBRANCH  30  33
ENDBRANCH  28  29
ENDBRANCH   1  28
TORSDOF 17
