REMARK SMILES C#Cc1cc(Cl)cc2c1O[C@H](C(F)(F)F)C(C(=O)NCCCNC(=O)c1ccc(-c3c4nc(c(-c5cccc(S(=O)(=O)[O-])c5F)c5ccc([nH]5)c(-c5cccc(S(=O)(=O)[O-])c5F)c5nc(c(-c6cccc(S(=O)(=O)[O-])c6F)c6ccc3[nH]6)C=C5)C=C4)cc1)=C2
REMARK SMILES IDX 22 1 21 2 20 3 19 4 17 5 18 6 16 8 3 9 4 10 9 11 5 12 8 13
REMARK SMILES IDX 10 14 6 15 7 16 89 17 11 18 2 19 1 20 12 21 13 22 14 23
REMARK SMILES IDX 15 24 23 25 24 26 25 28 26 29 27 30 88 31 28 32 87 33 29 34
REMARK SMILES IDX 30 35 31 36 81 37 32 38 86 39 80 40 82 41 33 42 85 43 79 44
REMARK SMILES IDX 78 45 34 47 66 48 46 49 65 50 47 51 50 52 64 53 83 54 48 55
REMARK SMILES IDX 49 56 63 58 84 59 51 60 35 61 36 62 44 63 37 64 39 65 45 66
REMARK SMILES IDX 38 67 40 68 41 69 42 70 43 71 67 72 68 73 76 74 69 75 71 76
REMARK SMILES IDX 77 77 70 78 72 79 73 80 74 81 75 82 52 83 53 84 61 85 54 86
REMARK SMILES IDX 56 87 62 88 55 89 57 90 58 91 59 92 60 93
REMARK H PARENT 19 7 23 27 82 46 50 57
REMARK Flexibility Score: inf
ROOT
ATOM      1  C   UNL     1      -2.828  -8.475   1.378  1.00  0.00     0.118 C 
ENDROOT
BRANCH   1   2
ATOM      2  C   UNL     1      -2.252  -7.079   1.213  1.00  0.00     0.042 C 
BRANCH   2   3
ATOM      3  C   UNL     1      -2.731  -6.430  -0.071  1.00  0.00     0.118 C 
BRANCH   3   4
ATOM      4  N   UNL     1      -4.084  -5.903   0.051  1.00  0.00    -0.352 N 
ATOM      5  C   UNL     1      -4.675  -4.685   0.081  1.00  0.00     0.251 C 
ATOM      6  O   UNL     1      -5.907  -4.689   0.159  1.00  0.00    -0.270 OA
ATOM      7  H   UNL     1      -4.746  -6.627   0.134  1.00  0.00     0.163 HD
BRANCH   5   8
ATOM      8  C   UNL     1      -3.942  -3.388   0.016  1.00  0.00     0.067 C 
ATOM      9  C   UNL     1      -1.929   0.298   0.084  1.00  0.00     0.068 A 
ATOM     10  C   UNL     1      -2.656   1.487   0.056  1.00  0.00     0.041 A 
ATOM     11  C   UNL     1      -2.608  -0.927   0.105  1.00  0.00     0.143 A 
ATOM     12  C   UNL     1      -4.050   1.439   0.056  1.00  0.00     0.043 A 
ATOM     13  C   UNL     1      -4.006  -0.977   0.108  1.00  0.00     0.020 A 
ATOM     14  O   UNL     1      -1.847  -2.058   0.172  1.00  0.00    -0.474 OA
ATOM     15  Cl  UNL     1      -4.947   2.909   0.024  1.00  0.00    -0.084 Cl
ATOM     16  C   UNL     1      -4.729   0.218   0.083  1.00  0.00     0.032 A 
ATOM     17  C   UNL     1      -4.677  -2.271   0.175  1.00  0.00     0.025 C 
ATOM     18  C   UNL     1      -2.468  -3.293  -0.240  1.00  0.00     0.314 C 
BRANCH   9  19
ATOM     19  C   UNL     1      -0.496   0.329   0.084  1.00  0.00    -0.067 C 
ATOM     20  C   UNL     1       0.705   0.278   0.089  1.00  0.00     0.010 C 
ENDBRANCH   9  19
BRANCH  18  21
ATOM     21  C   UNL     1      -2.111  -3.575  -1.713  1.00  0.00     0.429 C 
ATOM     22  F   UNL     1      -0.797  -3.886  -1.838  1.00  0.00    -0.167 F 
ATOM     23  F   UNL     1      -2.801  -4.620  -2.232  1.00  0.00    -0.167 F 
ATOM     24  F   UNL     1      -2.357  -2.516  -2.519  1.00  0.00    -0.167 F 
ENDBRANCH  18  21
ENDBRANCH   5   8
ENDBRANCH   3   4
ENDBRANCH   2   3
ENDBRANCH   1   2
BRANCH   1  25
ATOM     25  N   UNL     1      -2.392  -9.373   0.307  1.00  0.00    -0.352 N 
ATOM     26  C   UNL     1      -1.482 -10.402   0.337  1.00  0.00     0.251 C 
ATOM     27  H   UNL     1      -2.815  -9.216  -0.567  1.00  0.00     0.163 HD
ATOM     28  O   UNL     1      -1.049 -10.873  -0.709  1.00  0.00    -0.269 OA
BRANCH  26  29
ATOM     29  C   UNL     1      -1.031 -10.918   1.640  1.00  0.00     0.039 A 
ATOM     30  C   UNL     1       0.322 -11.186   1.846  1.00  0.00     0.014 A 
ATOM     31  C   UNL     1      -1.957 -11.094   2.670  1.00  0.00     0.014 A 
ATOM     32  C   UNL     1       0.753 -11.556   3.119  1.00  0.00     0.010 A 
ATOM     33  C   UNL     1      -1.510 -11.332   3.958  1.00  0.00     0.010 A 
ATOM     34  C   UNL     1      -0.153 -11.587   4.193  1.00  0.00    -0.014 A 
BRANCH  34  35
ATOM     35  C   UNL     1       0.298 -11.904   5.568  1.00  0.00     0.031 A 
ATOM     36  C   UNL     1      -0.261 -13.103   6.282  1.00  0.00     0.074 A 
ATOM     37  C   UNL     1       1.173 -11.084   6.184  1.00  0.00     0.049 A 
ATOM     38  N   UNL     1       0.022 -13.548   7.477  1.00  0.00    -0.248 NA
ATOM     39  C   UNL     1      -1.289 -13.892   5.580  1.00  0.00     0.031 C 
ATOM     40  C   UNL     1       1.719  -9.849   5.615  1.00  0.00     0.029 A 
ATOM     41  N   UNL     1       1.756 -11.163   7.423  1.00  0.00    -0.354 N 
ATOM     42  C   UNL     1      -0.798 -14.651   7.672  1.00  0.00     0.074 A 
ATOM     43  C   UNL     1      -1.639 -14.773   6.505  1.00  0.00     0.031 C 
ATOM     44  C   UNL     1       2.587  -9.310   6.485  1.00  0.00     0.029 A 
ATOM     45  C   UNL     1       2.631 -10.135   7.688  1.00  0.00     0.049 A 
ATOM     46  H   UNL     1       1.566 -11.887   8.062  1.00  0.00     0.167 HD
ATOM     47  C   UNL     1      -0.816 -15.516   8.711  1.00  0.00     0.034 A 
ATOM     48  C   UNL     1       3.387  -9.889   8.776  1.00  0.00     0.034 A 
ATOM     49  C   UNL     1       0.050 -15.408   9.850  1.00  0.00     0.049 A 
ATOM     50  C   UNL     1       3.350 -10.868   9.919  1.00  0.00     0.074 A 
ATOM     51  C   UNL     1       0.160 -16.270  10.925  1.00  0.00     0.029 A 
ATOM     52  N   UNL     1       0.949 -14.375  10.066  1.00  0.00    -0.354 N 
ATOM     53  N   UNL     1       2.677 -11.989  10.021  1.00  0.00    -0.248 NA
ATOM     54  C   UNL     1       4.196 -10.569  11.084  1.00  0.00     0.031 C 
ATOM     55  C   UNL     1       1.092 -15.734  11.815  1.00  0.00     0.029 A 
ATOM     56  C   UNL     1       1.601 -14.565  11.270  1.00  0.00     0.049 A 
ATOM     57  H   UNL     1       1.099 -13.618   9.455  1.00  0.00     0.167 HD
ATOM     58  C   UNL     1       3.040 -12.544  11.242  1.00  0.00     0.074 A 
ATOM     59  C   UNL     1       4.009 -11.646  11.836  1.00  0.00     0.031 C 
ATOM     60  C   UNL     1       2.600 -13.687  11.824  1.00  0.00     0.034 A 
BRANCH  47  61
ATOM     61  C   UNL     1      -1.756 -16.690   8.639  1.00  0.00     0.023 A 
ATOM     62  C   UNL     1      -1.513 -17.720   7.706  1.00  0.00     0.012 A 
ATOM     63  C   UNL     1      -2.823 -16.821   9.549  1.00  0.00     0.148 A 
ATOM     64  C   UNL     1      -2.330 -18.848   7.662  1.00  0.00     0.002 A 
ATOM     65  C   UNL     1      -3.599 -17.973   9.536  1.00  0.00     0.091 A 
ATOM     66  F   UNL     1      -3.051 -15.821  10.413  1.00  0.00    -0.205 F 
ATOM     67  C   UNL     1      -3.363 -18.981   8.587  1.00  0.00     0.022 A 
BRANCH  65  68
ATOM     68  S   UNL     1      -4.892 -18.285  10.742  1.00  0.00     0.127 S 
ATOM     69  O   UNL     1      -6.087 -18.290   9.898  1.00  0.00    -0.237 OA
ATOM     70  O   UNL     1      -4.510 -19.597  11.265  1.00  0.00    -0.237 OA
ATOM     71  O   UNL     1      -4.820 -17.196  11.705  1.00  0.00    -0.744 OA
ENDBRANCH  65  68
ENDBRANCH  47  61
BRANCH  48  72
ATOM     72  C   UNL     1       4.297  -8.707   8.795  1.00  0.00     0.023 A 
ATOM     73  C   UNL     1       5.691  -8.905   8.762  1.00  0.00     0.012 A 
ATOM     74  C   UNL     1       3.792  -7.392   8.788  1.00  0.00     0.148 A 
ATOM     75  C   UNL     1       6.566  -7.817   8.747  1.00  0.00     0.002 A 
ATOM     76  C   UNL     1       4.666  -6.314   8.711  1.00  0.00     0.091 A 
ATOM     77  F   UNL     1       2.463  -7.224   8.826  1.00  0.00    -0.205 F 
ATOM     78  C   UNL     1       6.054  -6.523   8.710  1.00  0.00     0.022 A 
BRANCH  76  79
ATOM     79  S   UNL     1       4.098  -4.621   8.516  1.00  0.00     0.127 S 
ATOM     80  O   UNL     1       4.551  -4.007   9.762  1.00  0.00    -0.237 OA
ATOM     81  O   UNL     1       4.827  -4.199   7.319  1.00  0.00    -0.237 OA
ATOM     82  O   UNL     1       2.655  -4.704   8.345  1.00  0.00    -0.744 OA
ENDBRANCH  76  79
ENDBRANCH  48  72
BRANCH  60  83
ATOM     83  C   UNL     1       3.162 -14.067  13.169  1.00  0.00     0.023 A 
ATOM     84  C   UNL     1       2.770 -13.352  14.317  1.00  0.00     0.012 A 
ATOM     85  C   UNL     1       3.948 -15.229  13.309  1.00  0.00     0.148 A 
ATOM     86  C   UNL     1       3.161 -13.781  15.584  1.00  0.00     0.002 A 
ATOM     87  C   UNL     1       4.284 -15.683  14.578  1.00  0.00     0.091 A 
ATOM     88  F   UNL     1       4.317 -15.888  12.201  1.00  0.00    -0.205 F 
ATOM     89  C   UNL     1       3.901 -14.955  15.716  1.00  0.00     0.022 A 
BRANCH  87  90
ATOM     90  S   UNL     1       5.131 -17.243  14.856  1.00  0.00     0.127 S 
ATOM     91  O   UNL     1       6.393 -16.795  15.445  1.00  0.00    -0.237 OA
ATOM     92  O   UNL     1       4.229 -17.919  15.788  1.00  0.00    -0.237 OA
ATOM     93  O   UNL     1       5.251 -17.879  13.551  1.00  0.00    -0.744 OA
ENDBRANCH  87  90
ENDBRANCH  60  83
ENDBRANCH  34  35
ENDBRANCH  26  29
ENDBRANCH   1  25
TORSDOF 15
