REMARK SMILES C[C@H](NS(=O)(=O)c1ccc(-c2cc(-c3ccccc3)c3cc([N+](=O)[O-])ccc3n2)cc1)C(=O)NCCCNC(=O)c1ccc(-c2c3nc(c(-c4cccc(S(=O)(=O)[O-])c4F)c4ccc([nH]4)c(-c4cccc(S(=O)(=O)[O-])c4F)c4nc(c(-c5cccc(S(=O)(=O)[O-])c5F)c5ccc2[nH]5)C=C4)C=C3)cc1
REMARK SMILES IDX 35 1 34 2 32 3 33 4 2 6 1 7 3 8 4 10 5 11 6 12 7 13 8 14
REMARK SMILES IDX 31 15 9 16 30 17 10 18 11 19 12 20 29 21 13 22 28 23 20 24
REMARK SMILES IDX 27 25 21 26 26 27 22 28 14 29 15 30 19 31 16 32 18 33 17 34
REMARK SMILES IDX 23 35 24 36 25 37 36 38 37 39 38 40 39 41 40 43 41 44 42 45
REMARK SMILES IDX 103 46 43 47 102 48 44 49 45 50 46 51 96 52 47 53 101 54
REMARK SMILES IDX 95 55 97 56 48 57 100 58 94 59 93 60 49 62 81 63 61 64 80 65
REMARK SMILES IDX 62 66 65 67 79 68 98 69 63 70 64 71 78 73 99 74 66 75 50 76
REMARK SMILES IDX 51 77 59 78 52 79 54 80 60 81 53 82 55 83 56 84 57 85 58 86
REMARK SMILES IDX 82 87 83 88 91 89 84 90 86 91 92 92 85 93 87 94 88 95 89 96
REMARK SMILES IDX 90 97 67 98 68 99 76 100 69 101 71 102 77 103 70 104 72 105
REMARK SMILES IDX 73 106 74 107 75 108
REMARK H PARENT 34 5 3 9 38 42 97 61 65 72
REMARK Flexibility Score: inf
ROOT
ATOM      1  C   UNL     1      -0.876  -1.807  -1.514  1.00  0.00     0.117 C 
ENDROOT
BRANCH   1   2
ATOM      2  N   UNL     1      -1.254  -0.453  -1.154  1.00  0.00    -0.355 N 
ATOM      3  C   UNL     1      -0.471   0.578  -0.735  1.00  0.00     0.237 C 
ATOM      4  O   UNL     1      -1.042   1.576  -0.285  1.00  0.00    -0.273 OA
ATOM      5  H   UNL     1      -2.215  -0.252  -1.222  1.00  0.00     0.163 HD
BRANCH   3   6
ATOM      6  C   UNL     1       1.060   0.536  -0.865  1.00  0.00     0.155 C 
ATOM      7  C   UNL     1       1.447   0.355  -2.327  1.00  0.00     0.036 C 
BRANCH   6   8
ATOM      8  N   UNL     1       1.674  -0.421   0.065  1.00  0.00    -0.199 NA
ATOM      9  H   UNL     1       1.260  -1.328  -0.152  1.00  0.00     0.142 HD
BRANCH   8  10
ATOM     10  S   UNL     1       3.334  -0.680   0.154  1.00  0.00     0.241 S 
ATOM     11  O   UNL     1       3.545  -1.488   1.326  1.00  0.00    -0.207 OA
ATOM     12  O   UNL     1       3.785  -1.111  -1.157  1.00  0.00    -0.207 OA
BRANCH  10  13
ATOM     13  C   UNL     1       4.061   0.920   0.469  1.00  0.00     0.082 A 
ATOM     14  C   UNL     1       4.145   1.410   1.775  1.00  0.00     0.022 A 
ATOM     15  C   UNL     1       4.569   1.677  -0.588  1.00  0.00     0.022 A 
ATOM     16  C   UNL     1       4.521   2.746   1.992  1.00  0.00     0.012 A 
ATOM     17  C   UNL     1       4.969   3.000  -0.363  1.00  0.00     0.012 A 
ATOM     18  C   UNL     1       4.791   3.603   0.906  1.00  0.00     0.000 A 
BRANCH  18  19
ATOM     19  C   UNL     1       4.224   5.007   0.946  1.00  0.00     0.072 A 
ATOM     20  C   UNL     1       4.725   6.042   0.156  1.00  0.00     0.038 A 
ATOM     21  N   UNL     1       2.874   4.851   0.994  1.00  0.00    -0.248 NA
ATOM     22  C   UNL     1       3.925   6.447  -0.914  1.00  0.00    -0.007 A 
ATOM     23  C   UNL     1       2.267   4.899  -0.191  1.00  0.00     0.072 A 
ATOM     24  C   UNL     1       2.881   5.565  -1.246  1.00  0.00     0.015 A 
ATOM     25  C   UNL     1       1.112   4.178  -0.448  1.00  0.00     0.036 A 
ATOM     26  C   UNL     1       2.507   5.290  -2.577  1.00  0.00     0.096 A 
ATOM     27  C   UNL     1       0.711   3.915  -1.766  1.00  0.00     0.088 A 
ATOM     28  C   UNL     1       1.475   4.397  -2.826  1.00  0.00     0.270 A 
BRANCH  22  29
ATOM     29  C   UNL     1       3.999   7.708  -1.684  1.00  0.00    -0.018 A 
ATOM     30  C   UNL     1       2.764   8.351  -1.977  1.00  0.00     0.009 A 
ATOM     31  C   UNL     1       5.154   8.256  -2.237  1.00  0.00     0.009 A 
ATOM     32  C   UNL     1       2.661   9.391  -2.893  1.00  0.00     0.001 A 
ATOM     33  C   UNL     1       5.055   9.333  -3.136  1.00  0.00     0.001 A 
ATOM     34  C   UNL     1       3.813   9.873  -3.488  1.00  0.00     0.000 A 
ENDBRANCH  22  29
BRANCH  28  35
ATOM     35  N   UNL     1       1.274   3.890  -4.185  1.00  0.00     0.062 N 
ATOM     36  O   UNL     1       2.129   4.176  -5.036  1.00  0.00    -0.258 OA
ATOM     37  O   UNL     1       0.292   3.165  -4.390  1.00  0.00    -0.258 OA
ENDBRANCH  28  35
ENDBRANCH  18  19
ENDBRANCH  10  13
ENDBRANCH   8  10
ENDBRANCH   6   8
ENDBRANCH   3   6
ENDBRANCH   1   2
BRANCH   1  38
ATOM     38  C   UNL     1      -1.355  -2.802  -0.469  1.00  0.00     0.042 C 
BRANCH  38  39
ATOM     39  C   UNL     1      -2.872  -2.904  -0.373  1.00  0.00     0.118 C 
BRANCH  39  40
ATOM     40  N   UNL     1      -3.475  -3.420  -1.594  1.00  0.00    -0.352 N 
ATOM     41  C   UNL     1      -4.116  -4.613  -1.824  1.00  0.00     0.251 C 
ATOM     42  H   UNL     1      -3.415  -2.822  -2.374  1.00  0.00     0.163 HD
ATOM     43  O   UNL     1      -4.354  -4.956  -2.979  1.00  0.00    -0.269 OA
BRANCH  41  44
ATOM     44  C   UNL     1      -4.513  -5.480  -0.694  1.00  0.00     0.039 A 
ATOM     45  C   UNL     1      -4.390  -6.865  -0.824  1.00  0.00     0.014 A 
ATOM     46  C   UNL     1      -5.039  -4.934   0.479  1.00  0.00     0.014 A 
ATOM     47  C   UNL     1      -4.761  -7.695   0.237  1.00  0.00     0.010 A 
ATOM     48  C   UNL     1      -5.300  -5.752   1.572  1.00  0.00     0.010 A 
ATOM     49  C   UNL     1      -5.201  -7.144   1.452  1.00  0.00    -0.014 A 
BRANCH  49  50
ATOM     50  C   UNL     1      -5.608  -8.012   2.586  1.00  0.00     0.031 A 
ATOM     51  C   UNL     1      -7.021  -7.957   3.110  1.00  0.00     0.074 A 
ATOM     52  C   UNL     1      -4.698  -8.809   3.178  1.00  0.00     0.049 A 
ATOM     53  N   UNL     1      -7.566  -8.639   4.084  1.00  0.00    -0.248 NA
ATOM     54  C   UNL     1      -7.934  -6.985   2.483  1.00  0.00     0.031 C 
ATOM     55  C   UNL     1      -3.278  -8.881   2.826  1.00  0.00     0.029 A 
ATOM     56  N   UNL     1      -4.829  -9.703   4.210  1.00  0.00    -0.354 N 
ATOM     57  C   UNL     1      -8.864  -8.156   4.208  1.00  0.00     0.074 A 
ATOM     58  C   UNL     1      -9.011  -7.087   3.247  1.00  0.00     0.031 C 
ATOM     59  C   UNL     1      -2.675  -9.787   3.614  1.00  0.00     0.029 A 
ATOM     60  C   UNL     1      -3.657 -10.342   4.539  1.00  0.00     0.049 A 
ATOM     61  H   UNL     1      -5.682  -9.871   4.672  1.00  0.00     0.167 HD
ATOM     62  C   UNL     1      -9.860  -8.586   5.019  1.00  0.00     0.034 A 
ATOM     63  C   UNL     1      -3.405 -11.279   5.474  1.00  0.00     0.034 A 
ATOM     64  C   UNL     1      -9.724  -9.684   5.936  1.00  0.00     0.049 A 
ATOM     65  C   UNL     1      -4.546 -11.794   6.310  1.00  0.00     0.074 A 
ATOM     66  C   UNL     1     -10.690 -10.258   6.743  1.00  0.00     0.029 A 
ATOM     67  N   UNL     1      -8.546 -10.376   6.169  1.00  0.00    -0.354 N 
ATOM     68  N   UNL     1      -5.806 -11.433   6.301  1.00  0.00    -0.248 NA
ATOM     69  C   UNL     1      -4.239 -12.882   7.249  1.00  0.00     0.031 C 
ATOM     70  C   UNL     1     -10.089 -11.284   7.480  1.00  0.00     0.029 A 
ATOM     71  C   UNL     1      -8.758 -11.372   7.106  1.00  0.00     0.049 A 
ATOM     72  H   UNL     1      -7.684 -10.187   5.731  1.00  0.00     0.167 HD
ATOM     73  C   UNL     1      -6.452 -12.277   7.197  1.00  0.00     0.074 A 
ATOM     74  C   UNL     1      -5.444 -13.181   7.714  1.00  0.00     0.031 C 
ATOM     75  C   UNL     1      -7.756 -12.298   7.568  1.00  0.00     0.034 A 
BRANCH  62  76
ATOM     76  C   UNL     1     -11.199  -7.903   4.906  1.00  0.00     0.023 A 
ATOM     77  C   UNL     1     -11.979  -8.083   3.744  1.00  0.00     0.012 A 
ATOM     78  C   UNL     1     -11.707  -7.121   5.962  1.00  0.00     0.148 A 
ATOM     79  C   UNL     1     -13.222  -7.463   3.617  1.00  0.00     0.002 A 
ATOM     80  C   UNL     1     -12.968  -6.547   5.848  1.00  0.00     0.091 A 
ATOM     81  F   UNL     1     -10.944  -6.941   7.049  1.00  0.00    -0.205 F 
ATOM     82  C   UNL     1     -13.720  -6.705   4.672  1.00  0.00     0.022 A 
BRANCH  80  83
ATOM     83  S   UNL     1     -13.737  -5.622   7.182  1.00  0.00     0.127 S 
ATOM     84  O   UNL     1     -13.714  -4.261   6.649  1.00  0.00    -0.237 OA
ATOM     85  O   UNL     1     -15.067  -6.228   7.250  1.00  0.00    -0.237 OA
ATOM     86  O   UNL     1     -12.906  -5.846   8.357  1.00  0.00    -0.744 OA
ENDBRANCH  80  83
ENDBRANCH  62  76
BRANCH  63  87
ATOM     87  C   UNL     1      -2.037 -11.854   5.606  1.00  0.00     0.023 A 
ATOM     88  C   UNL     1      -1.802 -13.185   5.210  1.00  0.00     0.012 A 
ATOM     89  C   UNL     1      -0.966 -11.086   6.100  1.00  0.00     0.148 A 
ATOM     90  C   UNL     1      -0.535 -13.754   5.341  1.00  0.00     0.002 A 
ATOM     91  C   UNL     1       0.307 -11.641   6.175  1.00  0.00     0.091 A 
ATOM     92  F   UNL     1      -1.211  -9.823   6.478  1.00  0.00    -0.205 F 
ATOM     93  C   UNL     1       0.521 -12.980   5.814  1.00  0.00     0.022 A 
BRANCH  91  94
ATOM     94  S   UNL     1       1.749 -10.682   6.650  1.00  0.00     0.127 S 
ATOM     95  O   UNL     1       2.063 -11.244   7.961  1.00  0.00    -0.237 OA
ATOM     96  O   UNL     1       2.699 -11.021   5.590  1.00  0.00    -0.237 OA
ATOM     97  O   UNL     1       1.315  -9.292   6.645  1.00  0.00    -0.744 OA
ENDBRANCH  91  94
ENDBRANCH  63  87
BRANCH  75  98
ATOM     98  C   UNL     1      -8.185 -13.366   8.540  1.00  0.00     0.023 A 
ATOM     99  C   UNL     1      -7.770 -13.306   9.885  1.00  0.00     0.012 A 
ATOM    100  C   UNL     1      -9.041 -14.404   8.126  1.00  0.00     0.148 A 
ATOM    101  C   UNL     1      -8.162 -14.292  10.791  1.00  0.00     0.002 A 
ATOM    102  C   UNL     1      -9.472 -15.351   9.046  1.00  0.00     0.091 A 
ATOM    103  F   UNL     1      -9.411 -14.457   6.837  1.00  0.00    -0.205 F 
ATOM    104  C   UNL     1      -9.020 -15.307  10.375  1.00  0.00     0.022 A 
BRANCH 102 105
ATOM    105  S   UNL     1     -10.658 -16.629   8.616  1.00  0.00     0.127 S 
ATOM    106  O   UNL     1      -9.797 -17.803   8.481  1.00  0.00    -0.237 OA
ATOM    107  O   UNL     1     -11.536 -16.649   9.788  1.00  0.00    -0.237 OA
ATOM    108  O   UNL     1     -11.303 -16.176   7.391  1.00  0.00    -0.744 OA
ENDBRANCH 102 105
ENDBRANCH  75  98
ENDBRANCH  49  50
ENDBRANCH  41  44
ENDBRANCH  39  40
ENDBRANCH  38  39
ENDBRANCH   1  38
TORSDOF 19
