REMARK SMILES C[C@H](C(=O)NCCCNC(=O)c1ccc(-c2c3nc(c(-c4cccc(S(=O)(=O)[O-])c4F)c4ccc([nH]4)c(-c4cccc(S(=O)(=O)[O-])c4F)c4nc(c(-c5cccc(S(=O)(=O)[O-])c5F)c5ccc2[nH]5)C=C4)C=C3)cc1)[C@H](C)[S@@](=O)C(C)(C)C
REMARK SMILES IDX 7 1 6 2 5 3 3 4 4 5 2 7 1 8 75 9 76 10 77 11 78 12 79 13
REMARK SMILES IDX 80 14 81 15 82 16 8 17 9 18 10 19 11 21 12 22 13 23 74 24
REMARK SMILES IDX 14 25 73 26 15 27 16 28 17 29 67 30 18 31 72 32 66 33 68 34
REMARK SMILES IDX 19 35 71 36 65 37 64 38 20 40 52 41 32 42 51 43 33 44 36 45
REMARK SMILES IDX 50 46 69 47 34 48 35 49 49 51 70 52 37 53 21 54 22 55 30 56
REMARK SMILES IDX 23 57 25 58 31 59 24 60 26 61 27 62 28 63 29 64 53 65 54 66
REMARK SMILES IDX 62 67 55 68 57 69 63 70 56 71 58 72 59 73 60 74 61 75 38 76
REMARK SMILES IDX 39 77 47 78 40 79 42 80 48 81 41 82 43 83 44 84 45 85 46 86
REMARK H PARENT 5 6 9 20 68 39 36 50
REMARK Flexibility Score: inf
ROOT
ATOM      1  C   UNL     1      -1.246  -1.176  -4.654  1.00  0.00     0.042 C 
ENDROOT
BRANCH   1   2
ATOM      2  C   UNL     1      -1.957  -1.793  -3.459  1.00  0.00     0.117 C 
BRANCH   2   3
ATOM      3  N   UNL     1      -1.036  -2.483  -2.581  1.00  0.00    -0.356 N 
ATOM      4  C   UNL     1      -0.687  -2.269  -1.291  1.00  0.00     0.224 C 
ATOM      5  O   UNL     1       0.340  -2.844  -0.930  1.00  0.00    -0.275 OA
ATOM      6  H   UNL     1      -0.578  -3.248  -2.999  1.00  0.00     0.163 HD
BRANCH   4   7
ATOM      7  C   UNL     1      -1.494  -1.359  -0.369  1.00  0.00     0.090 C 
ATOM      8  C   UNL     1      -3.001  -1.649  -0.393  1.00  0.00     0.019 C 
BRANCH   7   9
ATOM      9  C   UNL     1      -0.955  -1.294   1.087  1.00  0.00     0.089 C 
ATOM     10  C   UNL     1       0.503  -0.854   1.260  1.00  0.00     0.023 C 
BRANCH   9  11
ATOM     11  S   UNL     1      -1.475  -2.522   2.330  1.00  0.00     0.030 S 
ATOM     12  O   UNL     1      -2.971  -2.555   2.420  1.00  0.00    -0.259 OA
BRANCH  11  13
ATOM     13  C   UNL     1      -0.861  -4.195   1.925  1.00  0.00     0.038 C 
ATOM     14  C   UNL     1      -1.546  -4.822   0.710  1.00  0.00     0.025 C 
ATOM     15  C   UNL     1       0.666  -4.240   1.853  1.00  0.00     0.025 C 
ATOM     16  C   UNL     1      -1.269  -5.085   3.131  1.00  0.00     0.025 C 
ENDBRANCH  11  13
ENDBRANCH   9  11
ENDBRANCH   7   9
ENDBRANCH   4   7
ENDBRANCH   2   3
ENDBRANCH   1   2
BRANCH   1  17
ATOM     17  C   UNL     1      -0.373  -2.135  -5.450  1.00  0.00     0.118 C 
BRANCH  17  18
ATOM     18  N   UNL     1      -1.115  -3.250  -6.025  1.00  0.00    -0.352 N 
ATOM     19  C   UNL     1      -1.257  -3.609  -7.345  1.00  0.00     0.251 C 
ATOM     20  H   UNL     1      -1.579  -3.828  -5.377  1.00  0.00     0.163 HD
ATOM     21  O   UNL     1      -2.041  -4.501  -7.658  1.00  0.00    -0.269 OA
BRANCH  19  22
ATOM     22  C   UNL     1      -0.485  -2.896  -8.383  1.00  0.00     0.039 A 
ATOM     23  C   UNL     1      -1.143  -2.442  -9.529  1.00  0.00     0.014 A 
ATOM     24  C   UNL     1       0.879  -2.648  -8.209  1.00  0.00     0.014 A 
ATOM     25  C   UNL     1      -0.448  -1.671 -10.464  1.00  0.00     0.010 A 
ATOM     26  C   UNL     1       1.543  -1.805  -9.092  1.00  0.00     0.010 A 
ATOM     27  C   UNL     1       0.891  -1.315 -10.233  1.00  0.00    -0.014 A 
BRANCH  27  28
ATOM     28  C   UNL     1       1.638  -0.436 -11.170  1.00  0.00     0.031 A 
ATOM     29  C   UNL     1       2.877  -0.951 -11.854  1.00  0.00     0.074 A 
ATOM     30  C   UNL     1       1.270   0.852 -11.320  1.00  0.00     0.049 A 
ATOM     31  N   UNL     1       3.720  -0.315 -12.623  1.00  0.00    -0.248 NA
ATOM     32  C   UNL     1       3.234  -2.359 -11.610  1.00  0.00     0.031 C 
ATOM     33  C   UNL     1       0.141   1.495 -10.645  1.00  0.00     0.029 A 
ATOM     34  N   UNL     1       1.829   1.860 -12.066  1.00  0.00    -0.354 N 
ATOM     35  C   UNL     1       4.728  -1.225 -12.915  1.00  0.00     0.074 A 
ATOM     36  C   UNL     1       4.412  -2.447 -12.210  1.00  0.00     0.031 C 
ATOM     37  C   UNL     1       0.089   2.787 -11.008  1.00  0.00     0.029 A 
ATOM     38  C   UNL     1       1.195   3.072 -11.917  1.00  0.00     0.049 A 
ATOM     39  H   UNL     1       2.609   1.728 -12.652  1.00  0.00     0.167 HD
ATOM     40  C   UNL     1       5.803  -1.072 -13.724  1.00  0.00     0.034 A 
ATOM     41  C   UNL     1       1.477   4.278 -12.449  1.00  0.00     0.034 A 
ATOM     42  C   UNL     1       6.080   0.123 -14.472  1.00  0.00     0.049 A 
ATOM     43  C   UNL     1       2.639   4.406 -13.396  1.00  0.00     0.074 A 
ATOM     44  C   UNL     1       7.084   0.345 -15.398  1.00  0.00     0.029 A 
ATOM     45  N   UNL     1       5.351   1.298 -14.382  1.00  0.00    -0.354 N 
ATOM     46  N   UNL     1       3.488   3.487 -13.788  1.00  0.00    -0.248 NA
ATOM     47  C   UNL     1       2.860   5.726 -14.005  1.00  0.00     0.031 C 
ATOM     48  C   UNL     1       6.970   1.661 -15.857  1.00  0.00     0.029 A 
ATOM     49  C   UNL     1       5.883   2.252 -15.231  1.00  0.00     0.049 A 
ATOM     50  H   UNL     1       4.569   1.434 -13.799  1.00  0.00     0.167 HD
ATOM     51  C   UNL     1       4.321   4.106 -14.713  1.00  0.00     0.074 A 
ATOM     52  C   UNL     1       3.861   5.474 -14.838  1.00  0.00     0.031 C 
ATOM     53  C   UNL     1       5.379   3.592 -15.387  1.00  0.00     0.034 A 
BRANCH  40  54
ATOM     54  C   UNL     1       6.724  -2.253 -13.888  1.00  0.00     0.023 A 
ATOM     55  C   UNL     1       6.284  -3.381 -14.612  1.00  0.00     0.012 A 
ATOM     56  C   UNL     1       8.031  -2.236 -13.365  1.00  0.00     0.148 A 
ATOM     57  C   UNL     1       7.114  -4.489 -14.777  1.00  0.00     0.002 A 
ATOM     58  C   UNL     1       8.869  -3.326 -13.573  1.00  0.00     0.091 A 
ATOM     59  F   UNL     1       8.425  -1.167 -12.658  1.00  0.00    -0.205 F 
ATOM     60  C   UNL     1       8.409  -4.457 -14.267  1.00  0.00     0.022 A 
BRANCH  58  61
ATOM     61  S   UNL     1      10.579  -3.347 -13.023  1.00  0.00     0.127 S 
ATOM     62  O   UNL     1      10.509  -4.253 -11.877  1.00  0.00    -0.237 OA
ATOM     63  O   UNL     1      11.273  -3.893 -14.190  1.00  0.00    -0.237 OA
ATOM     64  O   UNL     1      10.915  -1.965 -12.712  1.00  0.00    -0.744 OA
ENDBRANCH  58  61
ENDBRANCH  40  54
BRANCH  41  65
ATOM     65  C   UNL     1       0.591   5.441 -12.156  1.00  0.00     0.023 A 
ATOM     66  C   UNL     1      -0.254   5.934 -13.170  1.00  0.00     0.012 A 
ATOM     67  C   UNL     1       0.547   6.031 -10.878  1.00  0.00     0.148 A 
ATOM     68  C   UNL     1      -1.107   7.011 -12.925  1.00  0.00     0.002 A 
ATOM     69  C   UNL     1      -0.343   7.068 -10.626  1.00  0.00     0.091 A 
ATOM     70  F   UNL     1       1.367   5.554  -9.931  1.00  0.00    -0.205 F 
ATOM     71  C   UNL     1      -1.159   7.570 -11.651  1.00  0.00     0.022 A 
BRANCH  69  72
ATOM     72  S   UNL     1      -0.576   7.761  -8.984  1.00  0.00     0.127 S 
ATOM     73  O   UNL     1       0.018   9.087  -9.132  1.00  0.00    -0.237 OA
ATOM     74  O   UNL     1      -2.034   7.748  -8.854  1.00  0.00    -0.237 OA
ATOM     75  O   UNL     1       0.114   6.856  -8.075  1.00  0.00    -0.744 OA
ENDBRANCH  69  72
ENDBRANCH  41  65
BRANCH  53  76
ATOM     76  C   UNL     1       6.101   4.497 -16.351  1.00  0.00     0.023 A 
ATOM     77  C   UNL     1       6.940   5.516 -15.859  1.00  0.00     0.012 A 
ATOM     78  C   UNL     1       6.016   4.280 -17.741  1.00  0.00     0.148 A 
ATOM     79  C   UNL     1       7.662   6.324 -16.736  1.00  0.00     0.002 A 
ATOM     80  C   UNL     1       6.774   5.058 -18.607  1.00  0.00     0.091 A 
ATOM     81  F   UNL     1       5.197   3.318 -18.189  1.00  0.00    -0.205 F 
ATOM     82  C   UNL     1       7.589   6.087 -18.108  1.00  0.00     0.022 A 
BRANCH  80  83
ATOM     83  S   UNL     1       6.816   4.761 -20.378  1.00  0.00     0.127 S 
ATOM     84  O   UNL     1       6.017   5.874 -20.886  1.00  0.00    -0.237 OA
ATOM     85  O   UNL     1       8.246   4.851 -20.675  1.00  0.00    -0.237 OA
ATOM     86  O   UNL     1       6.243   3.436 -20.574  1.00  0.00    -0.744 OA
ENDBRANCH  80  83
ENDBRANCH  53  76
ENDBRANCH  27  28
ENDBRANCH  19  22
ENDBRANCH  17  18
ENDBRANCH   1  17
TORSDOF 16
