REMARK SMILES O=C(CCn1ccnc1)N[C@H]1C=C[C@@H](C(=O)NCCCNC(=O)c2ccc(-c3c4nc(c(-c5cccc(S(=O)(=O)[O-])c5F)c5ccc([nH]5)c(-c5cccc(S(=O)(=O)[O-])c5F)c5nc(c(-c6cccc(S(=O)(=O)[O-])c6F)c6ccc3[nH]6)C=C5)C=C4)cc2)C1
REMARK SMILES IDX 18 1 17 2 15 3 16 4 14 6 11 7 12 8 87 9 13 10 10 11 1 12
REMARK SMILES IDX 2 13 3 15 4 16 5 17 6 18 9 19 7 20 8 21 19 22 20 23 21 24
REMARK SMILES IDX 22 25 23 27 24 28 25 29 86 30 26 31 85 32 27 33 28 34 29 35
REMARK SMILES IDX 79 36 30 37 84 38 78 39 80 40 31 41 83 42 77 43 76 44 32 46
REMARK SMILES IDX 64 47 44 48 63 49 45 50 48 51 62 52 81 53 46 54 47 55 61 57
REMARK SMILES IDX 82 58 49 59 33 60 34 61 42 62 35 63 37 64 43 65 36 66 38 67
REMARK SMILES IDX 39 68 40 69 41 70 65 71 66 72 74 73 67 74 69 75 75 76 68 77
REMARK SMILES IDX 70 78 71 79 72 80 73 81 50 82 51 83 59 84 52 85 54 86 60 87
REMARK SMILES IDX 53 88 55 89 56 90 57 91 58 92
REMARK H PARENT 17 5 10 14 21 26 80 45 48 56
REMARK Flexibility Score: inf
ROOT
ATOM      1  C   UNL     1       5.215  -4.317   1.172  1.00  0.00     0.117 C 
ENDROOT
BRANCH   1   2
ATOM      2  N   UNL     1       4.793  -4.858   2.453  1.00  0.00    -0.356 N 
ATOM      3  C   UNL     1       3.573  -4.904   3.057  1.00  0.00     0.227 C 
ATOM      4  O   UNL     1       3.471  -5.596   4.073  1.00  0.00    -0.274 OA
ATOM      5  H   UNL     1       5.520  -5.264   2.980  1.00  0.00     0.163 HD
BRANCH   3   6
ATOM      6  C   UNL     1       2.352  -4.141   2.541  1.00  0.00     0.103 C 
ATOM      7  C   UNL     1       1.808  -2.057   1.378  1.00  0.00     0.106 C 
ATOM      8  C   UNL     1       1.756  -3.238   0.460  1.00  0.00    -0.006 C 
ATOM      9  C   UNL     1       2.478  -2.617   2.639  1.00  0.00     0.047 C 
ATOM     10  C   UNL     1       2.021  -4.382   1.101  1.00  0.00    -0.016 C 
BRANCH   7  11
ATOM     11  N   UNL     1       2.570  -1.004   0.741  1.00  0.00    -0.350 N 
ATOM     12  O   UNL     1       0.730   0.211   0.117  1.00  0.00    -0.275 OA
ATOM     13  C   UNL     1       1.949   0.054   0.122  1.00  0.00     0.222 C 
ATOM     14  H   UNL     1       3.553  -1.046   0.752  1.00  0.00     0.164 HD
BRANCH  13  15
ATOM     15  C   UNL     1       2.844   1.007  -0.644  1.00  0.00     0.122 C 
BRANCH  15  16
ATOM     16  C   UNL     1       3.733   1.881   0.233  1.00  0.00     0.133 C 
BRANCH  16  17
ATOM     17  N   UNL     1       4.974   1.293   0.696  1.00  0.00    -0.337 N 
ATOM     18  C   UNL     1       5.681   1.719   1.788  1.00  0.00     0.107 A 
ATOM     19  C   UNL     1       5.684   0.279   0.128  1.00  0.00     0.199 A 
ATOM     20  C   UNL     1       6.733   0.841   1.899  1.00  0.00     0.130 A 
ATOM     21  N   UNL     1       6.725  -0.046   0.857  1.00  0.00    -0.245 NA
ENDBRANCH  16  17
ENDBRANCH  15  16
ENDBRANCH  13  15
ENDBRANCH   7  11
ENDBRANCH   3   6
ENDBRANCH   1   2
BRANCH   1  22
ATOM     22  C   UNL     1       5.984  -3.006   1.277  1.00  0.00     0.042 C 
BRANCH  22  23
ATOM     23  C   UNL     1       7.423  -3.207   1.700  1.00  0.00     0.118 C 
BRANCH  23  24
ATOM     24  N   UNL     1       8.290  -3.701   0.613  1.00  0.00    -0.352 N 
ATOM     25  C   UNL     1       9.671  -3.824   0.616  1.00  0.00     0.251 C 
ATOM     26  H   UNL     1       7.833  -3.975  -0.214  1.00  0.00     0.163 HD
ATOM     27  O   UNL     1      10.299  -3.906  -0.444  1.00  0.00    -0.269 OA
BRANCH  25  28
ATOM     28  C   UNL     1      10.373  -3.875   1.910  1.00  0.00     0.039 A 
ATOM     29  C   UNL     1      11.652  -3.357   2.135  1.00  0.00     0.014 A 
ATOM     30  C   UNL     1       9.661  -4.435   2.957  1.00  0.00     0.014 A 
ATOM     31  C   UNL     1      12.163  -3.405   3.433  1.00  0.00     0.010 A 
ATOM     32  C   UNL     1       9.994  -4.122   4.232  1.00  0.00     0.010 A 
ATOM     33  C   UNL     1      11.312  -3.805   4.475  1.00  0.00    -0.014 A 
BRANCH  33  34
ATOM     34  C   UNL     1      11.688  -3.839   5.877  1.00  0.00     0.031 A 
ATOM     35  C   UNL     1      12.054  -2.504   6.389  1.00  0.00     0.074 A 
ATOM     36  C   UNL     1      11.425  -4.906   6.669  1.00  0.00     0.049 A 
ATOM     37  N   UNL     1      13.245  -2.047   6.592  1.00  0.00    -0.248 NA
ATOM     38  C   UNL     1      11.002  -1.475   6.436  1.00  0.00     0.031 C 
ATOM     39  C   UNL     1      10.705  -6.146   6.322  1.00  0.00     0.029 A 
ATOM     40  N   UNL     1      11.613  -5.053   8.007  1.00  0.00    -0.354 N 
ATOM     41  C   UNL     1      13.046  -0.770   7.104  1.00  0.00     0.074 A 
ATOM     42  C   UNL     1      11.733  -0.383   6.671  1.00  0.00     0.031 C 
ATOM     43  C   UNL     1      10.316  -6.782   7.450  1.00  0.00     0.029 A 
ATOM     44  C   UNL     1      10.895  -6.099   8.589  1.00  0.00     0.049 A 
ATOM     45  H   UNL     1      12.211  -4.468   8.526  1.00  0.00     0.167 HD
ATOM     46  C   UNL     1      13.809  -0.321   8.140  1.00  0.00     0.034 A 
ATOM     47  C   UNL     1      10.759  -6.351   9.917  1.00  0.00     0.034 A 
ATOM     48  C   UNL     1      14.950  -1.195   8.336  1.00  0.00     0.049 A 
ATOM     49  C   UNL     1      11.860  -5.634  10.599  1.00  0.00     0.074 A 
ATOM     50  C   UNL     1      15.996  -1.643   7.554  1.00  0.00     0.029 A 
ATOM     51  N   UNL     1      14.855  -2.078   9.386  1.00  0.00    -0.354 N 
ATOM     52  N   UNL     1      13.118  -5.936  10.443  1.00  0.00    -0.248 NA
ATOM     53  C   UNL     1      11.591  -4.294  11.092  1.00  0.00     0.031 C 
ATOM     54  C   UNL     1      16.188  -3.006   7.934  1.00  0.00     0.029 A 
ATOM     55  C   UNL     1      15.315  -3.300   8.985  1.00  0.00     0.049 A 
ATOM     56  H   UNL     1      14.510  -1.863  10.283  1.00  0.00     0.167 HD
ATOM     57  C   UNL     1      13.750  -4.704  10.339  1.00  0.00     0.074 A 
ATOM     58  C   UNL     1      12.787  -3.740  10.873  1.00  0.00     0.031 C 
ATOM     59  C   UNL     1      14.853  -4.552   9.547  1.00  0.00     0.034 A 
BRANCH  46  60
ATOM     60  C   UNL     1      13.323   0.578   9.273  1.00  0.00     0.023 A 
ATOM     61  C   UNL     1      14.278   0.889  10.270  1.00  0.00     0.012 A 
ATOM     62  C   UNL     1      11.977   0.889   9.577  1.00  0.00     0.148 A 
ATOM     63  C   UNL     1      13.906   1.356  11.534  1.00  0.00     0.002 A 
ATOM     64  C   UNL     1      11.614   1.404  10.818  1.00  0.00     0.091 A 
ATOM     65  F   UNL     1      10.999   0.612   8.719  1.00  0.00    -0.205 F 
ATOM     66  C   UNL     1      12.570   1.602  11.813  1.00  0.00     0.022 A 
BRANCH  64  67
ATOM     67  S   UNL     1       9.899   1.772  11.226  1.00  0.00     0.127 S 
ATOM     68  O   UNL     1       9.613   0.743  12.221  1.00  0.00    -0.237 OA
ATOM     69  O   UNL     1      10.008   3.133  11.752  1.00  0.00    -0.237 OA
ATOM     70  O   UNL     1       9.156   1.672   9.976  1.00  0.00    -0.744 OA
ENDBRANCH  64  67
ENDBRANCH  46  60
BRANCH  47  71
ATOM     71  C   UNL     1       9.636  -6.940  10.688  1.00  0.00     0.023 A 
ATOM     72  C   UNL     1       9.863  -7.441  11.988  1.00  0.00     0.012 A 
ATOM     73  C   UNL     1       8.299  -6.729  10.285  1.00  0.00     0.148 A 
ATOM     74  C   UNL     1       8.801  -7.681  12.871  1.00  0.00     0.002 A 
ATOM     75  C   UNL     1       7.246  -6.969  11.166  1.00  0.00     0.091 A 
ATOM     76  F   UNL     1       8.070  -6.205   9.074  1.00  0.00    -0.205 F 
ATOM     77  C   UNL     1       7.494  -7.433  12.464  1.00  0.00     0.022 A 
BRANCH  75  78
ATOM     78  S   UNL     1       5.533  -6.632  10.733  1.00  0.00     0.127 S 
ATOM     79  O   UNL     1       4.883  -7.896  11.076  1.00  0.00    -0.237 OA
ATOM     80  O   UNL     1       5.212  -5.518  11.621  1.00  0.00    -0.237 OA
ATOM     81  O   UNL     1       5.540  -6.322   9.310  1.00  0.00    -0.744 OA
ENDBRANCH  75  78
ENDBRANCH  47  71
BRANCH  59  82
ATOM     82  C   UNL     1      15.531  -5.802   9.039  1.00  0.00     0.023 A 
ATOM     83  C   UNL     1      14.917  -6.700   8.140  1.00  0.00     0.012 A 
ATOM     84  C   UNL     1      16.885  -5.984   9.359  1.00  0.00     0.148 A 
ATOM     85  C   UNL     1      15.637  -7.766   7.589  1.00  0.00     0.002 A 
ATOM     86  C   UNL     1      17.609  -7.015   8.774  1.00  0.00     0.091 A 
ATOM     87  F   UNL     1      17.453  -5.121  10.215  1.00  0.00    -0.205 F 
ATOM     88  C   UNL     1      16.987  -7.915   7.896  1.00  0.00     0.022 A 
BRANCH  86  89
ATOM     89  S   UNL     1      19.375  -7.179   9.037  1.00  0.00     0.127 S 
ATOM     90  O   UNL     1      19.445  -8.335   9.928  1.00  0.00    -0.237 OA
ATOM     91  O   UNL     1      19.873  -7.419   7.682  1.00  0.00    -0.237 OA
ATOM     92  O   UNL     1      19.815  -5.915   9.616  1.00  0.00    -0.744 OA
ENDBRANCH  86  89
ENDBRANCH  59  82
ENDBRANCH  33  34
ENDBRANCH  25  28
ENDBRANCH  23  24
ENDBRANCH  22  23
ENDBRANCH   1  22
TORSDOF 17
