REMARK SMILES CCCCCCNC(=O)Oc1cccc(-c2ccc([C@@H](C)C(=O)NCCCNC(=O)c3ccc(-c4c5nc(c(-c6cccc(S(=O)(=O)[O-])c6F)c6ccc([nH]6)c(-c6cccc(S(=O)(=O)[O-])c6F)c6nc(c(-c7cccc(S(=O)(=O)[O-])c7F)c7ccc4[nH]7)C=C6)C=C5)cc3)cc2)c1
REMARK SMILES IDX 20 1 21 2 19 3 16 4 17 5 95 6 18 7 94 8 15 9 11 10 12 11
REMARK SMILES IDX 96 12 13 13 14 14 10 15 8 16 7 17 9 19 6 20 5 21 4 22 3 23
REMARK SMILES IDX 2 24 1 25 22 26 23 27 24 28 25 30 26 31 27 32 28 33 29 34
REMARK SMILES IDX 30 36 31 37 32 38 93 39 33 40 92 41 34 42 35 43 36 44 86 45
REMARK SMILES IDX 37 46 91 47 85 48 87 49 38 50 90 51 84 52 83 53 39 55 71 56
REMARK SMILES IDX 51 57 70 58 52 59 55 60 69 61 88 62 53 63 54 64 68 66 89 67
REMARK SMILES IDX 56 68 40 69 41 70 49 71 42 72 44 73 50 74 43 75 45 76 46 77
REMARK SMILES IDX 47 78 48 79 72 80 73 81 81 82 74 83 76 84 82 85 75 86 77 87
REMARK SMILES IDX 78 88 79 89 80 90 57 91 58 92 66 93 59 94 61 95 67 96 60 97
REMARK SMILES IDX 62 98 63 99 64 100 65 101
REMARK H PARENT 7 18 24 29 28 35 87 54 55 65
REMARK Flexibility Score: inf
ROOT
ATOM      1  C   UNL     1      -4.661   4.093 -13.063  1.00  0.00     0.105 C 
ATOM      2  C   UNL     1      -5.828   4.446 -13.983  1.00  0.00     0.023 C 
ENDROOT
BRANCH   1   3
ATOM      3  C   UNL     1      -4.923   4.261 -11.575  1.00  0.00    -0.036 A 
ATOM      4  C   UNL     1      -5.161   4.608  -8.750  1.00  0.00    -0.018 A 
ATOM      5  C   UNL     1      -5.594   5.590  -9.652  1.00  0.00     0.009 A 
ATOM      6  C   UNL     1      -4.655   3.420  -9.298  1.00  0.00     0.009 A 
ATOM      7  C   UNL     1      -5.514   5.404 -11.036  1.00  0.00     0.005 A 
ATOM      8  C   UNL     1      -4.517   3.257 -10.684  1.00  0.00     0.005 A 
BRANCH   4   9
ATOM      9  C   UNL     1      -5.205   4.848  -7.291  1.00  0.00    -0.015 A 
ATOM     10  C   UNL     1      -4.204   4.681  -5.081  1.00  0.00     0.133 A 
ATOM     11  C   UNL     1      -5.231   5.430  -4.518  1.00  0.00     0.047 A 
ATOM     12  C   UNL     1      -4.185   4.381  -6.444  1.00  0.00     0.056 A 
ATOM     13  C   UNL     1      -6.256   5.891  -5.335  1.00  0.00     0.004 A 
ATOM     14  C   UNL     1      -6.247   5.594  -6.701  1.00  0.00     0.009 A 
BRANCH  10  15
ATOM     15  O   UNL     1      -3.249   4.153  -4.201  1.00  0.00    -0.410 OA
BRANCH  15  16
ATOM     16  C   UNL     1      -1.909   4.399  -4.459  1.00  0.00     0.412 C 
ATOM     17  N   UNL     1      -1.081   3.832  -3.530  1.00  0.00    -0.321 N 
ATOM     18  H   UNL     1      -0.117   4.006  -3.631  1.00  0.00     0.167 HD
ATOM     19  O   UNL     1      -1.453   5.024  -5.407  1.00  0.00    -0.224 OA
BRANCH  17  20
ATOM     20  C   UNL     1      -1.478   3.001  -2.412  1.00  0.00     0.119 C 
BRANCH  20  21
ATOM     21  C   UNL     1      -0.897   1.591  -2.533  1.00  0.00     0.021 C 
BRANCH  21  22
ATOM     22  C   UNL     1       0.633   1.525  -2.450  1.00  0.00     0.002 C 
BRANCH  22  23
ATOM     23  C   UNL     1       1.242   2.067  -1.152  1.00  0.00    -0.000 C 
BRANCH  23  24
ATOM     24  C   UNL     1       0.762   1.384   0.131  1.00  0.00    -0.003 C 
ATOM     25  C   UNL     1       1.127  -0.090   0.197  1.00  0.00     0.004 C 
ENDBRANCH  23  24
ENDBRANCH  22  23
ENDBRANCH  21  22
ENDBRANCH  20  21
ENDBRANCH  17  20
ENDBRANCH  15  16
ENDBRANCH  10  15
ENDBRANCH   4   9
ENDBRANCH   1   3
BRANCH   1  26
ATOM     26  C   UNL     1      -3.305   4.654 -13.519  1.00  0.00     0.227 C 
ATOM     27  O   UNL     1      -2.382   3.878 -13.798  1.00  0.00    -0.274 OA
ATOM     28  N   UNL     1      -3.039   5.980 -13.669  1.00  0.00    -0.356 N 
ATOM     29  H   UNL     1      -2.135   6.172 -14.009  1.00  0.00     0.163 HD
BRANCH  28  30
ATOM     30  C   UNL     1      -3.840   7.162 -13.422  1.00  0.00     0.117 C 
BRANCH  30  31
ATOM     31  C   UNL     1      -3.513   7.824 -12.087  1.00  0.00     0.042 C 
BRANCH  31  32
ATOM     32  C   UNL     1      -2.298   8.740 -12.133  1.00  0.00     0.118 C 
BRANCH  32  33
ATOM     33  N   UNL     1      -2.528   9.915 -12.963  1.00  0.00    -0.352 N 
ATOM     34  C   UNL     1      -2.518  11.250 -12.646  1.00  0.00     0.251 C 
ATOM     35  H   UNL     1      -2.723   9.719 -13.908  1.00  0.00     0.163 HD
ATOM     36  O   UNL     1      -2.966  12.053 -13.463  1.00  0.00    -0.269 OA
BRANCH  34  37
ATOM     37  C   UNL     1      -1.982  11.734 -11.352  1.00  0.00     0.039 A 
ATOM     38  C   UNL     1      -2.562  12.865 -10.768  1.00  0.00     0.014 A 
ATOM     39  C   UNL     1      -0.877  11.135 -10.744  1.00  0.00     0.014 A 
ATOM     40  C   UNL     1      -2.053  13.372  -9.569  1.00  0.00     0.010 A 
ATOM     41  C   UNL     1      -0.434  11.580  -9.501  1.00  0.00     0.010 A 
ATOM     42  C   UNL     1      -0.994  12.722  -8.915  1.00  0.00    -0.014 A 
BRANCH  42  43
ATOM     43  C   UNL     1      -0.441  13.247  -7.640  1.00  0.00     0.031 A 
ATOM     44  C   UNL     1       0.996  13.698  -7.564  1.00  0.00     0.074 A 
ATOM     45  C   UNL     1      -1.213  13.265  -6.536  1.00  0.00     0.049 A 
ATOM     46  N   UNL     1       1.660  14.171  -6.541  1.00  0.00    -0.248 NA
ATOM     47  C   UNL     1       1.803  13.576  -8.790  1.00  0.00     0.031 C 
ATOM     48  C   UNL     1      -2.592  12.777  -6.461  1.00  0.00     0.029 A 
ATOM     49  N   UNL     1      -0.943  13.692  -5.260  1.00  0.00    -0.354 N 
ATOM     50  C   UNL     1       2.963  14.364  -6.986  1.00  0.00     0.074 A 
ATOM     51  C   UNL     1       3.008  13.921  -8.361  1.00  0.00     0.031 C 
ATOM     52  C   UNL     1      -3.050  12.943  -5.210  1.00  0.00     0.029 A 
ATOM     53  C   UNL     1      -1.993  13.522  -4.388  1.00  0.00     0.049 A 
ATOM     54  H   UNL     1      -0.080  14.083  -4.994  1.00  0.00     0.167 HD
ATOM     55  C   UNL     1       4.020  14.893  -6.324  1.00  0.00     0.034 A 
ATOM     56  C   UNL     1      -2.092  13.802  -3.074  1.00  0.00     0.034 A 
ATOM     57  C   UNL     1       3.958  15.372  -4.970  1.00  0.00     0.049 A 
ATOM     58  C   UNL     1      -0.923  14.445  -2.378  1.00  0.00     0.074 A 
ATOM     59  C   UNL     1       4.945  16.000  -4.232  1.00  0.00     0.029 A 
ATOM     60  N   UNL     1       2.847  15.271  -4.146  1.00  0.00    -0.354 N 
ATOM     61  N   UNL     1       0.254  14.764  -2.862  1.00  0.00    -0.248 NA
ATOM     62  C   UNL     1      -1.110  14.810  -0.967  1.00  0.00     0.031 C 
ATOM     63  C   UNL     1       4.439  16.256  -2.953  1.00  0.00     0.029 A 
ATOM     64  C   UNL     1       3.124  15.821  -2.907  1.00  0.00     0.049 A 
ATOM     65  H   UNL     1       1.987  14.866  -4.405  1.00  0.00     0.167 HD
ATOM     66  C   UNL     1       0.930  15.404  -1.830  1.00  0.00     0.074 A 
ATOM     67  C   UNL     1       0.022  15.446  -0.701  1.00  0.00     0.031 C 
ATOM     68  C   UNL     1       2.192  15.902  -1.812  1.00  0.00     0.034 A 
BRANCH  55  69
ATOM     69  C   UNL     1       5.323  15.026  -7.072  1.00  0.00     0.023 A 
ATOM     70  C   UNL     1       5.434  15.967  -8.118  1.00  0.00     0.012 A 
ATOM     71  C   UNL     1       6.450  14.265  -6.709  1.00  0.00     0.148 A 
ATOM     72  C   UNL     1       6.632  16.118  -8.816  1.00  0.00     0.002 A 
ATOM     73  C   UNL     1       7.656  14.457  -7.375  1.00  0.00     0.091 A 
ATOM     74  F   UNL     1       6.323  13.362  -5.726  1.00  0.00    -0.205 F 
ATOM     75  C   UNL     1       7.744  15.372  -8.437  1.00  0.00     0.022 A 
BRANCH  73  76
ATOM     76  S   UNL     1       9.169  13.608  -6.910  1.00  0.00     0.127 S 
ATOM     77  O   UNL     1       9.370  12.716  -8.051  1.00  0.00    -0.237 OA
ATOM     78  O   UNL     1      10.126  14.712  -6.825  1.00  0.00    -0.237 OA
ATOM     79  O   UNL     1       8.888  12.948  -5.643  1.00  0.00    -0.744 OA
ENDBRANCH  73  76
ENDBRANCH  55  69
BRANCH  56  80
ATOM     80  C   UNL     1      -3.372  13.550  -2.352  1.00  0.00     0.023 A 
ATOM     81  C   UNL     1      -4.151  14.643  -1.924  1.00  0.00     0.012 A 
ATOM     82  C   UNL     1      -3.832  12.241  -2.107  1.00  0.00     0.148 A 
ATOM     83  C   UNL     1      -5.345  14.438  -1.230  1.00  0.00     0.002 A 
ATOM     84  C   UNL     1      -5.050  12.044  -1.465  1.00  0.00     0.091 A 
ATOM     85  F   UNL     1      -3.075  11.214  -2.516  1.00  0.00    -0.205 F 
ATOM     86  C   UNL     1      -5.798  13.141  -1.009  1.00  0.00     0.022 A 
BRANCH  84  87
ATOM     87  S   UNL     1      -5.777  10.415  -1.248  1.00  0.00     0.127 S 
ATOM     88  O   UNL     1      -5.679  10.234   0.198  1.00  0.00    -0.237 OA
ATOM     89  O   UNL     1      -7.135  10.621  -1.752  1.00  0.00    -0.237 OA
ATOM     90  O   UNL     1      -4.970   9.508  -2.052  1.00  0.00    -0.744 OA
ENDBRANCH  84  87
ENDBRANCH  56  80
BRANCH  68  91
ATOM     91  C   UNL     1       2.652  16.586  -0.550  1.00  0.00     0.023 A 
ATOM     92  C   UNL     1       2.901  15.832   0.614  1.00  0.00     0.012 A 
ATOM     93  C   UNL     1       2.887  17.975  -0.536  1.00  0.00     0.148 A 
ATOM     94  C   UNL     1       3.332  16.456   1.784  1.00  0.00     0.002 A 
ATOM     95  C   UNL     1       3.369  18.582   0.617  1.00  0.00     0.091 A 
ATOM     96  F   UNL     1       2.627  18.680  -1.647  1.00  0.00    -0.205 F 
ATOM     97  C   UNL     1       3.577  17.827   1.782  1.00  0.00     0.022 A 
BRANCH  95  98
ATOM     98  S   UNL     1       3.808  20.323   0.671  1.00  0.00     0.127 S 
ATOM     99  O   UNL     1       2.691  20.888   1.425  1.00  0.00    -0.237 OA
ATOM    100  O   UNL     1       5.081  20.301   1.392  1.00  0.00    -0.237 OA
ATOM    101  O   UNL     1       3.910  20.753  -0.717  1.00  0.00    -0.744 OA
ENDBRANCH  95  98
ENDBRANCH  68  91
ENDBRANCH  42  43
ENDBRANCH  34  37
ENDBRANCH  32  33
ENDBRANCH  31  32
ENDBRANCH  30  31
ENDBRANCH  28  30
ENDBRANCH   1  26
TORSDOF 22
