REMARK SMILES CC(C)(C)OC(=O)CSc1ccnc(C(=O)NCCCNC(=O)c2ccc(-c3c4nc(c(-c5cccc(S(=O)(=O)[O-])c5F)c5ccc([nH]5)c(-c5cccc(S(=O)(=O)[O-])c5F)c5nc(c(-c6cccc(S(=O)(=O)[O-])c6F)c6ccc3[nH]6)C=C5)C=C4)cc2)c1
REMARK SMILES IDX 18 1 17 2 15 3 16 4 14 6 10 7 11 8 87 9 12 10 13 11 9 12
REMARK SMILES IDX 8 13 6 14 7 15 5 16 2 17 1 18 3 19 4 20 19 21 20 22 21 23
REMARK SMILES IDX 22 24 23 26 24 27 25 28 86 29 26 30 85 31 27 32 28 33 29 34
REMARK SMILES IDX 79 35 30 36 84 37 78 38 80 39 31 40 83 41 77 42 76 43 32 45
REMARK SMILES IDX 64 46 44 47 63 48 45 49 48 50 62 51 81 52 46 53 47 54 61 56
REMARK SMILES IDX 82 57 49 58 33 59 34 60 42 61 35 62 37 63 43 64 36 65 38 66
REMARK SMILES IDX 39 67 40 68 41 69 65 70 66 71 74 72 67 73 69 74 75 75 68 76
REMARK SMILES IDX 70 77 71 78 72 79 73 80 50 81 51 82 59 83 52 84 54 85 60 86
REMARK SMILES IDX 53 87 55 88 56 89 57 90 58 91
REMARK H PARENT 17 5 21 25 80 44 48 55
REMARK Flexibility Score: inf
ROOT
ATOM      1  C   UNL     1      -2.078  -8.929  -2.197  1.00  0.00     0.118 C 
ENDROOT
BRANCH   1   2
ATOM      2  N   UNL     1      -3.410  -8.455  -1.876  1.00  0.00    -0.351 N 
ATOM      3  C   UNL     1      -3.942  -7.211  -1.621  1.00  0.00     0.269 C 
ATOM      4  O   UNL     1      -5.156  -7.184  -1.402  1.00  0.00    -0.268 OA
ATOM      5  H   UNL     1      -4.077  -9.177  -1.831  1.00  0.00     0.163 HD
BRANCH   3   6
ATOM      6  C   UNL     1      -3.157  -5.924  -1.654  1.00  0.00     0.129 A 
ATOM      7  C   UNL     1      -1.162  -4.606  -1.768  1.00  0.00     0.012 A 
ATOM      8  C   UNL     1      -1.942  -3.474  -1.968  1.00  0.00     0.035 A 
ATOM      9  C   UNL     1      -1.777  -5.840  -1.555  1.00  0.00     0.049 A 
ATOM     10  C   UNL     1      -3.313  -3.624  -1.953  1.00  0.00     0.113 A 
ATOM     11  N   UNL     1      -3.928  -4.815  -1.829  1.00  0.00    -0.251 NA
BRANCH   7  12
ATOM     12  S   UNL     1       0.614  -4.495  -1.910  1.00  0.00    -0.114 SA
BRANCH  12  13
ATOM     13  C   UNL     1       1.096  -4.700  -0.162  1.00  0.00     0.197 C 
BRANCH  13  14
ATOM     14  C   UNL     1       0.553  -3.585   0.700  1.00  0.00     0.316 C 
ATOM     15  O   UNL     1      -0.126  -3.776   1.696  1.00  0.00    -0.251 OA
BRANCH  14  16
ATOM     16  O   UNL     1       0.934  -2.369   0.219  1.00  0.00    -0.459 OA
BRANCH  16  17
ATOM     17  C   UNL     1       0.506  -1.145   0.865  1.00  0.00     0.104 C 
ATOM     18  C   UNL     1       1.095  -0.024  -0.006  1.00  0.00     0.056 C 
ATOM     19  C   UNL     1       1.089  -1.034   2.276  1.00  0.00     0.056 C 
ATOM     20  C   UNL     1      -1.020  -1.007   0.862  1.00  0.00     0.056 C 
ENDBRANCH  16  17
ENDBRANCH  14  16
ENDBRANCH  13  14
ENDBRANCH  12  13
ENDBRANCH   7  12
ENDBRANCH   3   6
ENDBRANCH   1   2
BRANCH   1  21
ATOM     21  C   UNL     1      -1.374  -9.468  -0.952  1.00  0.00     0.042 C 
BRANCH  21  22
ATOM     22  C   UNL     1      -1.861 -10.859  -0.547  1.00  0.00     0.118 C 
BRANCH  22  23
ATOM     23  N   UNL     1      -1.532 -11.857  -1.558  1.00  0.00    -0.352 N 
ATOM     24  C   UNL     1      -0.763 -12.987  -1.479  1.00  0.00     0.251 C 
ATOM     25  H   UNL     1      -1.929 -11.690  -2.443  1.00  0.00     0.163 HD
ATOM     26  O   UNL     1      -0.396 -13.527  -2.521  1.00  0.00    -0.269 OA
BRANCH  24  27
ATOM     27  C   UNL     1      -0.382 -13.566  -0.172  1.00  0.00     0.039 A 
ATOM     28  C   UNL     1       0.866 -14.186  -0.056  1.00  0.00     0.014 A 
ATOM     29  C   UNL     1      -1.266 -13.574   0.909  1.00  0.00     0.014 A 
ATOM     30  C   UNL     1       1.233 -14.786   1.150  1.00  0.00     0.010 A 
ATOM     31  C   UNL     1      -0.865 -14.099   2.136  1.00  0.00     0.010 A 
ATOM     32  C   UNL     1       0.380 -14.730   2.264  1.00  0.00    -0.014 A 
BRANCH  32  33
ATOM     33  C   UNL     1       0.789 -15.328   3.560  1.00  0.00     0.031 A 
ATOM     34  C   UNL     1       0.011 -16.468   4.163  1.00  0.00     0.074 A 
ATOM     35  C   UNL     1       1.842 -14.807   4.220  1.00  0.00     0.049 A 
ATOM     36  N   UNL     1       0.242 -17.129   5.268  1.00  0.00    -0.248 NA
ATOM     37  C   UNL     1      -1.198 -16.910   3.447  1.00  0.00     0.031 C 
ATOM     38  C   UNL     1       2.618 -13.643   3.784  1.00  0.00     0.029 A 
ATOM     39  N   UNL     1       2.434 -15.177   5.400  1.00  0.00    -0.354 N 
ATOM     40  C   UNL     1      -0.802 -18.038   5.397  1.00  0.00     0.074 A 
ATOM     41  C   UNL     1      -1.691 -17.817   4.278  1.00  0.00     0.031 C 
ATOM     42  C   UNL     1       3.597 -13.409   4.672  1.00  0.00     0.029 A 
ATOM     43  C   UNL     1       3.503 -14.386   5.751  1.00  0.00     0.049 A 
ATOM     44  H   UNL     1       2.124 -15.937   5.944  1.00  0.00     0.167 HD
ATOM     45  C   UNL     1      -0.988 -18.991   6.341  1.00  0.00     0.034 A 
ATOM     46  C   UNL     1       4.319 -14.444   6.821  1.00  0.00     0.034 A 
ATOM     47  C   UNL     1      -0.082 -19.228   7.433  1.00  0.00     0.049 A 
ATOM     48  C   UNL     1       4.125 -15.550   7.822  1.00  0.00     0.074 A 
ATOM     49  C   UNL     1      -0.133 -20.219   8.397  1.00  0.00     0.029 A 
ATOM     50  N   UNL     1       1.038 -18.458   7.713  1.00  0.00    -0.354 N 
ATOM     51  N   UNL     1       3.226 -16.503   7.836  1.00  0.00    -0.248 NA
ATOM     52  C   UNL     1       5.088 -15.614   8.930  1.00  0.00     0.031 C 
ATOM     53  C   UNL     1       0.940 -20.032   9.276  1.00  0.00     0.029 A 
ATOM     54  C   UNL     1       1.682 -18.947   8.837  1.00  0.00     0.049 A 
ATOM     55  H   UNL     1       1.332 -17.679   7.188  1.00  0.00     0.167 HD
ATOM     56  C   UNL     1       3.534 -17.301   8.932  1.00  0.00     0.074 A 
ATOM     57  C   UNL     1       4.722 -16.734   9.537  1.00  0.00     0.031 C 
ATOM     58  C   UNL     1       2.886 -18.396   9.404  1.00  0.00     0.034 A 
BRANCH  45  59
ATOM     59  C   UNL     1      -2.197 -19.884   6.207  1.00  0.00     0.023 A 
ATOM     60  C   UNL     1      -2.255 -20.827   5.159  1.00  0.00     0.012 A 
ATOM     61  C   UNL     1      -3.248 -19.831   7.144  1.00  0.00     0.148 A 
ATOM     62  C   UNL     1      -3.355 -21.674   5.022  1.00  0.00     0.002 A 
ATOM     63  C   UNL     1      -4.319 -20.712   7.029  1.00  0.00     0.091 A 
ATOM     64  F   UNL     1      -3.188 -18.918   8.123  1.00  0.00    -0.205 F 
ATOM     65  C   UNL     1      -4.380 -21.623   5.962  1.00  0.00     0.022 A 
BRANCH  63  66
ATOM     66  S   UNL     1      -5.649 -20.786   8.233  1.00  0.00     0.127 S 
ATOM     67  O   UNL     1      -6.774 -20.258   7.463  1.00  0.00    -0.237 OA
ATOM     68  O   UNL     1      -5.726 -22.219   8.518  1.00  0.00    -0.237 OA
ATOM     69  O   UNL     1      -5.222 -19.965   9.357  1.00  0.00    -0.744 OA
ENDBRANCH  63  66
ENDBRANCH  45  59
BRANCH  46  70
ATOM     70  C   UNL     1       5.442 -13.473   6.955  1.00  0.00     0.023 A 
ATOM     71  C   UNL     1       6.769 -13.921   6.808  1.00  0.00     0.012 A 
ATOM     72  C   UNL     1       5.202 -12.107   7.199  1.00  0.00     0.148 A 
ATOM     73  C   UNL     1       7.838 -13.035   6.940  1.00  0.00     0.002 A 
ATOM     74  C   UNL     1       6.268 -11.219   7.269  1.00  0.00     0.091 A 
ATOM     75  F   UNL     1       3.932 -11.702   7.342  1.00  0.00    -0.205 F 
ATOM     76  C   UNL     1       7.588 -11.683   7.161  1.00  0.00     0.022 A 
BRANCH  74  77
ATOM     77  S   UNL     1       6.034  -9.444   7.410  1.00  0.00     0.127 S 
ATOM     78  O   UNL     1       6.501  -9.188   8.770  1.00  0.00    -0.237 OA
ATOM     79  O   UNL     1       6.909  -8.940   6.351  1.00  0.00    -0.237 OA
ATOM     80  O   UNL     1       4.615  -9.214   7.174  1.00  0.00    -0.744 OA
ENDBRANCH  74  77
ENDBRANCH  46  70
BRANCH  58  81
ATOM     81  C   UNL     1       3.472 -19.074  10.616  1.00  0.00     0.023 A 
ATOM     82  C   UNL     1       3.423 -18.439  11.873  1.00  0.00     0.012 A 
ATOM     83  C   UNL     1       4.042 -20.358  10.514  1.00  0.00     0.148 A 
ATOM     84  C   UNL     1       3.980 -19.047  12.998  1.00  0.00     0.002 A 
ATOM     85  C   UNL     1       4.545 -20.982  11.649  1.00  0.00     0.091 A 
ATOM     86  F   UNL     1       4.097 -20.942   9.307  1.00  0.00    -0.205 F 
ATOM     87  C   UNL     1       4.531 -20.321  12.888  1.00  0.00     0.022 A 
BRANCH  85  88
ATOM     88  S   UNL     1       5.180 -22.661  11.616  1.00  0.00     0.127 S 
ATOM     89  O   UNL     1       6.623 -22.435  11.671  1.00  0.00    -0.237 OA
ATOM     90  O   UNL     1       4.606 -23.236  12.834  1.00  0.00    -0.237 OA
ATOM     91  O   UNL     1       4.682 -23.251  10.381  1.00  0.00    -0.744 OA
ENDBRANCH  85  88
ENDBRANCH  58  81
ENDBRANCH  32  33
ENDBRANCH  24  27
ENDBRANCH  22  23
ENDBRANCH  21  22
ENDBRANCH   1  21
TORSDOF 18
