REMARK SMILES COc1c(C(=O)NCCCNC(=O)c2ccc(-c3c4nc(c(-c5cccc(S(=O)(=O)[O-])c5F)c5ccc([nH]5)c(-c5cccc(S(=O)(=O)[O-])c5F)c5nc(c(-c6cccc(S(=O)(=O)[O-])c6F)c6ccc3[nH]6)C=C5)C=C4)cc2)cccc1-c1cc(C)ccc1C
REMARK SMILES IDX 10 1 9 2 8 3 7 4 5 5 6 6 4 8 3 9 80 10 77 11 79 12 78 13
REMARK SMILES IDX 2 14 1 15 81 16 82 17 87 18 83 19 86 20 88 21 84 22 85 23
REMARK SMILES IDX 11 24 12 25 13 27 14 28 15 29 76 30 16 31 75 32 17 33 18 34
REMARK SMILES IDX 19 35 69 36 20 37 74 38 68 39 70 40 21 41 73 42 67 43 66 44
REMARK SMILES IDX 22 46 54 47 34 48 53 49 35 50 38 51 52 52 71 53 36 54 37 55
REMARK SMILES IDX 51 57 72 58 39 59 23 60 24 61 32 62 25 63 27 64 33 65 26 66
REMARK SMILES IDX 28 67 29 68 30 69 31 70 55 71 56 72 64 73 57 74 59 75 65 76
REMARK SMILES IDX 58 77 60 78 61 79 62 80 63 81 40 82 41 83 49 84 42 85 44 86
REMARK SMILES IDX 50 87 43 88 45 89 46 90 47 91 48 92
REMARK H PARENT 7 7 11 26 70 45 38 56
REMARK Flexibility Score: inf
ROOT
ATOM      1  C   UNL     1      -3.771  -0.531  -0.461  1.00  0.00     0.118 C 
ENDROOT
BRANCH   1   2
ATOM      2  C   UNL     1      -2.528  -1.308  -0.062  1.00  0.00     0.042 C 
BRANCH   2   3
ATOM      3  C   UNL     1      -1.519  -0.497   0.728  1.00  0.00     0.118 C 
BRANCH   3   4
ATOM      4  N   UNL     1      -1.964   0.050   1.985  1.00  0.00    -0.352 N 
ATOM      5  C   UNL     1      -1.208   0.432   3.066  1.00  0.00     0.255 C 
ATOM      6  O   UNL     1      -1.784   1.034   3.977  1.00  0.00    -0.269 OA
ATOM      7  H   UNL     1      -2.937   0.166   2.080  1.00  0.00     0.163 HD
BRANCH   5   8
ATOM      8  C   UNL     1       0.225   0.052   3.256  1.00  0.00     0.082 A 
ATOM      9  C   UNL     1       1.274   0.140   2.310  1.00  0.00     0.139 A 
ATOM     10  C   UNL     1       2.595  -0.230   2.690  1.00  0.00     0.025 A 
ATOM     11  C   UNL     1       0.508  -0.402   4.561  1.00  0.00     0.018 A 
ATOM     12  C   UNL     1       2.824  -0.679   4.009  1.00  0.00     0.012 A 
ATOM     13  C   UNL     1       1.794  -0.765   4.938  1.00  0.00     0.002 A 
BRANCH   9  14
ATOM     14  O   UNL     1       1.004   0.697   1.078  1.00  0.00    -0.495 OA
ATOM     15  C   UNL     1       1.432  -0.073  -0.057  1.00  0.00     0.278 C 
ENDBRANCH   9  14
BRANCH  10  16
ATOM     16  C   UNL     1       3.749  -0.231   1.765  1.00  0.00    -0.011 A 
ATOM     17  C   UNL     1       4.304  -1.485   1.423  1.00  0.00     0.012 A 
ATOM     18  C   UNL     1       4.267   0.926   1.145  1.00  0.00    -0.043 A 
ATOM     19  C   UNL     1       5.295  -1.617   0.445  1.00  0.00    -0.050 A 
ATOM     20  C   UNL     1       5.248   0.784   0.146  1.00  0.00     0.004 A 
ATOM     21  C   UNL     1       3.719   2.305   1.405  1.00  0.00     0.045 C 
ATOM     22  C   UNL     1       5.814  -2.980   0.095  1.00  0.00     0.044 C 
ATOM     23  C   UNL     1       5.751  -0.471  -0.203  1.00  0.00     0.004 A 
ENDBRANCH  10  16
ENDBRANCH   5   8
ENDBRANCH   3   4
ENDBRANCH   2   3
ENDBRANCH   1   2
BRANCH   1  24
ATOM     24  N   UNL     1      -3.539   0.512  -1.456  1.00  0.00    -0.352 N 
ATOM     25  C   UNL     1      -3.554   0.523  -2.836  1.00  0.00     0.251 C 
ATOM     26  H   UNL     1      -3.329   1.389  -1.061  1.00  0.00     0.163 HD
ATOM     27  O   UNL     1      -3.245   1.551  -3.420  1.00  0.00    -0.269 OA
BRANCH  25  28
ATOM     28  C   UNL     1      -3.878  -0.694  -3.623  1.00  0.00     0.039 A 
ATOM     29  C   UNL     1      -3.208  -0.919  -4.834  1.00  0.00     0.014 A 
ATOM     30  C   UNL     1      -4.839  -1.608  -3.209  1.00  0.00     0.014 A 
ATOM     31  C   UNL     1      -3.427  -2.100  -5.555  1.00  0.00     0.010 A 
ATOM     32  C   UNL     1      -4.954  -2.837  -3.846  1.00  0.00     0.010 A 
ATOM     33  C   UNL     1      -4.257  -3.102  -5.033  1.00  0.00    -0.014 A 
BRANCH  33  34
ATOM     34  C   UNL     1      -4.448  -4.430  -5.681  1.00  0.00     0.031 A 
ATOM     35  C   UNL     1      -5.845  -4.924  -5.970  1.00  0.00     0.074 A 
ATOM     36  C   UNL     1      -3.396  -5.257  -5.857  1.00  0.00     0.049 A 
ATOM     37  N   UNL     1      -6.253  -6.129  -6.270  1.00  0.00    -0.248 NA
ATOM     38  C   UNL     1      -6.935  -3.940  -5.842  1.00  0.00     0.031 C 
ATOM     39  C   UNL     1      -2.000  -4.938  -5.552  1.00  0.00     0.029 A 
ATOM     40  N   UNL     1      -3.346  -6.559  -6.294  1.00  0.00    -0.354 N 
ATOM     41  C   UNL     1      -7.643  -6.066  -6.281  1.00  0.00     0.074 A 
ATOM     42  C   UNL     1      -8.008  -4.712  -5.931  1.00  0.00     0.031 C 
ATOM     43  C   UNL     1      -1.233  -6.009  -5.811  1.00  0.00     0.029 A 
ATOM     44  C   UNL     1      -2.084  -7.108  -6.254  1.00  0.00     0.049 A 
ATOM     45  H   UNL     1      -4.138  -7.053  -6.607  1.00  0.00     0.167 HD
ATOM     46  C   UNL     1      -8.536  -7.037  -6.585  1.00  0.00     0.034 A 
ATOM     47  C   UNL     1      -1.660  -8.359  -6.524  1.00  0.00     0.034 A 
ATOM     48  C   UNL     1      -8.166  -8.349  -7.040  1.00  0.00     0.049 A 
ATOM     49  C   UNL     1      -2.664  -9.391  -6.964  1.00  0.00     0.074 A 
ATOM     50  C   UNL     1      -8.987  -9.370  -7.482  1.00  0.00     0.029 A 
ATOM     51  N   UNL     1      -6.863  -8.812  -7.133  1.00  0.00    -0.354 N 
ATOM     52  N   UNL     1      -3.964  -9.275  -7.088  1.00  0.00    -0.248 NA
ATOM     53  C   UNL     1      -2.142 -10.715  -7.333  1.00  0.00     0.031 C 
ATOM     54  C   UNL     1      -8.179 -10.453  -7.844  1.00  0.00     0.029 A 
ATOM     55  C   UNL     1      -6.855 -10.099  -7.639  1.00  0.00     0.049 A 
ATOM     56  H   UNL     1      -6.062  -8.301  -6.876  1.00  0.00     0.167 HD
ATOM     57  C   UNL     1      -4.408 -10.492  -7.593  1.00  0.00     0.074 A 
ATOM     58  C   UNL     1      -3.238 -11.329  -7.760  1.00  0.00     0.031 C 
ATOM     59  C   UNL     1      -5.673 -10.886  -7.877  1.00  0.00     0.034 A 
BRANCH  46  60
ATOM     60  C   UNL     1     -10.002  -6.696  -6.510  1.00  0.00     0.023 A 
ATOM     61  C   UNL     1     -10.563  -5.824  -7.465  1.00  0.00     0.012 A 
ATOM     62  C   UNL     1     -10.835  -7.274  -5.531  1.00  0.00     0.148 A 
ATOM     63  C   UNL     1     -11.918  -5.499  -7.423  1.00  0.00     0.002 A 
ATOM     64  C   UNL     1     -12.195  -6.982  -5.524  1.00  0.00     0.091 A 
ATOM     65  F   UNL     1     -10.283  -8.085  -4.617  1.00  0.00    -0.205 F 
ATOM     66  C   UNL     1     -12.735  -6.085  -6.461  1.00  0.00     0.022 A 
BRANCH  64  67
ATOM     67  S   UNL     1     -13.344  -7.753  -4.378  1.00  0.00     0.127 S 
ATOM     68  O   UNL     1     -13.625  -6.652  -3.458  1.00  0.00    -0.237 OA
ATOM     69  O   UNL     1     -14.459  -8.114  -5.254  1.00  0.00    -0.237 OA
ATOM     70  O   UNL     1     -12.634  -8.887  -3.804  1.00  0.00    -0.744 OA
ENDBRANCH  64  67
ENDBRANCH  46  60
BRANCH  47  71
ATOM     71  C   UNL     1      -0.205  -8.680  -6.468  1.00  0.00     0.023 A 
ATOM     72  C   UNL     1       0.492  -8.895  -7.673  1.00  0.00     0.012 A 
ATOM     73  C   UNL     1       0.498  -8.737  -5.250  1.00  0.00     0.148 A 
ATOM     74  C   UNL     1       1.855  -9.192  -7.666  1.00  0.00     0.002 A 
ATOM     75  C   UNL     1       1.868  -8.981  -5.252  1.00  0.00     0.091 A 
ATOM     76  F   UNL     1      -0.183  -8.540  -4.112  1.00  0.00    -0.205 F 
ATOM     77  C   UNL     1       2.545  -9.225  -6.457  1.00  0.00     0.022 A 
BRANCH  75  78
ATOM     78  S   UNL     1       2.861  -8.909  -3.756  1.00  0.00     0.127 S 
ATOM     79  O   UNL     1       3.146 -10.321  -3.517  1.00  0.00    -0.237 OA
ATOM     80  O   UNL     1       4.010  -8.113  -4.190  1.00  0.00    -0.237 OA
ATOM     81  O   UNL     1       2.023  -8.251  -2.762  1.00  0.00    -0.744 OA
ENDBRANCH  75  78
ENDBRANCH  47  71
BRANCH  59  82
ATOM     82  C   UNL     1      -5.872 -12.258  -8.462  1.00  0.00     0.023 A 
ATOM     83  C   UNL     1      -5.779 -13.393  -7.635  1.00  0.00     0.012 A 
ATOM     84  C   UNL     1      -6.261 -12.408  -9.808  1.00  0.00     0.148 A 
ATOM     85  C   UNL     1      -6.054 -14.661  -8.144  1.00  0.00     0.002 A 
ATOM     86  C   UNL     1      -6.576 -13.669 -10.297  1.00  0.00     0.091 A 
ATOM     87  F   UNL     1      -6.322 -11.313 -10.582  1.00  0.00    -0.205 F 
ATOM     88  C   UNL     1      -6.466 -14.798  -9.469  1.00  0.00     0.022 A 
BRANCH  86  89
ATOM     89  S   UNL     1      -7.209 -13.925 -11.959  1.00  0.00     0.127 S 
ATOM     90  O   UNL     1      -6.061 -14.541 -12.622  1.00  0.00    -0.237 OA
ATOM     91  O   UNL     1      -8.336 -14.829 -11.727  1.00  0.00    -0.237 OA
ATOM     92  O   UNL     1      -7.584 -12.607 -12.453  1.00  0.00    -0.744 OA
ENDBRANCH  86  89
ENDBRANCH  59  82
ENDBRANCH  33  34
ENDBRANCH  25  28
ENDBRANCH   1  24
TORSDOF 15
