REMARK SMILES C[C@H]1CCCCC[C@@H]1[NH2+]Cc1cc(C(=O)NCCCNC(=O)c2ccc(-c3c4nc(c(-c5cccc(S(=O)(=O)[O-])c5F)c5ccc([nH]5)c(-c5cccc(S(=O)(=O)[O-])c5F)c5nc(c(-c6cccc(S(=O)(=O)[O-])c6F)c6ccc3[nH]6)C=C5)C=C4)cc2)cs1
REMARK SMILES IDX 14 1 15 2 16 3 13 5 11 6 12 7 87 8 86 9 10 10 9 11 8 14 2 15
REMARK SMILES IDX 1 16 3 17 7 19 6 20 5 21 4 22 17 24 18 25 19 26 20 27 21 28
REMARK SMILES IDX 22 30 23 31 24 32 85 33 25 34 84 35 26 36 27 37 28 38 78 39
REMARK SMILES IDX 29 40 83 41 77 42 79 43 30 44 82 45 76 46 75 47 31 49 63 50
REMARK SMILES IDX 43 51 62 52 44 53 47 54 61 55 80 56 45 57 46 58 60 60 81 61
REMARK SMILES IDX 48 62 32 63 33 64 41 65 34 66 36 67 42 68 35 69 37 70 38 71
REMARK SMILES IDX 39 72 40 73 64 74 65 75 73 76 66 77 68 78 74 79 67 80 69 81
REMARK SMILES IDX 70 82 71 83 72 84 49 85 50 86 58 87 51 88 53 89 59 90 52 91
REMARK SMILES IDX 54 92 55 93 56 94 57 95
REMARK H PARENT 16 4 9 12 9 13 20 29 79 48 47 59
REMARK Flexibility Score: 80.00
ROOT
ATOM      1  C   UNL     1      -5.282  -0.543  -2.811  1.00  0.00     0.252 C 
ATOM      2  O   UNL     1      -6.333  -0.310  -3.409  1.00  0.00    -0.269 OA
ATOM      3  N   UNL     1      -4.848  -1.845  -2.807  1.00  0.00    -0.352 N 
ATOM      4  H   UNL     1      -5.492  -2.483  -3.193  1.00  0.00     0.163 HD
ENDROOT
BRANCH   1   5
ATOM      5  C   UNL     1      -4.518   0.531  -2.170  1.00  0.00     0.051 A 
ATOM      6  C   UNL     1      -2.939   1.683  -0.840  1.00  0.00     0.059 A 
ATOM      7  C   UNL     1      -3.484   0.461  -1.190  1.00  0.00     0.035 A 
ATOM      8  S   UNL     1      -3.747   2.957  -1.631  1.00  0.00    -0.142 S 
ATOM      9  C   UNL     1      -4.789   1.865  -2.441  1.00  0.00     0.079 A 
BRANCH   6  10
ATOM     10  C   UNL     1      -1.806   1.927   0.123  1.00  0.00     0.308 C 
BRANCH  10  11
ATOM     11  N   UNL     1      -1.847   0.874   1.134  1.00  0.00    -0.339 N 
ATOM     12  H   UNL     1      -2.693   1.005   1.689  1.00  0.00     0.346 HD
ATOM     13  H   UNL     1      -1.823  -0.007   0.619  1.00  0.00     0.346 HD
BRANCH  11  14
ATOM     14  C   UNL     1      -0.706   0.830   2.054  1.00  0.00     0.185 C 
BRANCH  14  15
ATOM     15  C   UNL     1       0.353  -0.183   1.549  1.00  0.00     0.044 C 
ATOM     16  C   UNL     1       1.706   0.038   2.246  1.00  0.00     0.014 C 
BRANCH  15  17
ATOM     17  C   UNL     1      -0.083  -1.665   1.598  1.00  0.00     0.009 CG0
ATOM     18  G   UNL     1      -0.146  -2.301   2.987  1.00  0.00     0.000 G0
ENDBRANCH  15  17
ENDBRANCH  14  15
BRANCH  14  19
ATOM     19  C   UNL     1      -1.235   0.526   3.473  1.00  0.00     0.065 C 
BRANCH  19  20
ATOM     20  C   UNL     1      -2.128  -0.713   3.594  1.00  0.00     0.006 C 
BRANCH  20  21
ATOM     21  C   UNL     1      -1.402  -2.033   3.808  1.00  0.00     0.000 C 
BRANCH  21  22
ATOM     22  C   UNL     1      -0.146  -2.301   2.987  1.00  0.00     0.001 CG0
ATOM     23  G   UNL     1      -0.083  -1.665   1.598  1.00  0.00     0.000 G0
ENDBRANCH  21  22
ENDBRANCH  20  21
ENDBRANCH  19  20
ENDBRANCH  14  19
ENDBRANCH  11  14
ENDBRANCH  10  11
ENDBRANCH   6  10
ENDBRANCH   1   5
BRANCH   3  24
ATOM     24  C   UNL     1      -3.617  -2.460  -2.342  1.00  0.00     0.118 C 
BRANCH  24  25
ATOM     25  C   UNL     1      -3.799  -3.161  -0.996  1.00  0.00     0.042 C 
BRANCH  25  26
ATOM     26  C   UNL     1      -4.467  -4.531  -1.117  1.00  0.00     0.118 C 
BRANCH  26  27
ATOM     27  N   UNL     1      -3.636  -5.478  -1.854  1.00  0.00    -0.352 N 
ATOM     28  C   UNL     1      -3.151  -6.708  -1.491  1.00  0.00     0.251 C 
ATOM     29  H   UNL     1      -3.383  -5.186  -2.760  1.00  0.00     0.163 HD
ATOM     30  O   UNL     1      -2.280  -7.234  -2.180  1.00  0.00    -0.269 OA
BRANCH  28  31
ATOM     31  C   UNL     1      -3.664  -7.402  -0.291  1.00  0.00     0.039 A 
ATOM     32  C   UNL     1      -2.767  -8.122   0.504  1.00  0.00     0.014 A 
ATOM     33  C   UNL     1      -5.025  -7.394   0.021  1.00  0.00     0.014 A 
ATOM     34  C   UNL     1      -3.229  -8.794   1.637  1.00  0.00     0.010 A 
ATOM     35  C   UNL     1      -5.472  -8.001   1.191  1.00  0.00     0.010 A 
ATOM     36  C   UNL     1      -4.582  -8.717   2.005  1.00  0.00    -0.014 A 
BRANCH  36  37
ATOM     37  C   UNL     1      -5.081  -9.364   3.244  1.00  0.00     0.031 A 
ATOM     38  C   UNL     1      -6.120 -10.449   3.175  1.00  0.00     0.074 A 
ATOM     39  C   UNL     1      -4.671  -8.899   4.440  1.00  0.00     0.049 A 
ATOM     40  N   UNL     1      -6.717 -11.083   4.151  1.00  0.00    -0.248 NA
ATOM     41  C   UNL     1      -6.571 -10.852   1.833  1.00  0.00     0.031 C 
ATOM     42  C   UNL     1      -3.741  -7.786   4.638  1.00  0.00     0.029 A 
ATOM     43  N   UNL     1      -5.013  -9.279   5.714  1.00  0.00    -0.354 N 
ATOM     44  C   UNL     1      -7.641 -11.926   3.547  1.00  0.00     0.074 A 
ATOM     45  C   UNL     1      -7.551 -11.695   2.121  1.00  0.00     0.031 C 
ATOM     46  C   UNL     1      -3.592  -7.567   5.952  1.00  0.00     0.029 A 
ATOM     47  C   UNL     1      -4.437  -8.501   6.690  1.00  0.00     0.049 A 
ATOM     48  H   UNL     1      -5.613 -10.034   5.909  1.00  0.00     0.167 HD
ATOM     49  C   UNL     1      -8.472 -12.829   4.122  1.00  0.00     0.034 A 
ATOM     50  C   UNL     1      -4.582  -8.525   8.029  1.00  0.00     0.034 A 
ATOM     51  C   UNL     1      -8.531 -13.075   5.538  1.00  0.00     0.049 A 
ATOM     52  C   UNL     1      -5.463  -9.572   8.650  1.00  0.00     0.074 A 
ATOM     53  C   UNL     1      -9.256 -14.040   6.216  1.00  0.00     0.029 A 
ATOM     54  N   UNL     1      -7.853 -12.338   6.498  1.00  0.00    -0.354 N 
ATOM     55  N   UNL     1      -6.197 -10.484   8.061  1.00  0.00    -0.248 NA
ATOM     56  C   UNL     1      -5.505  -9.621  10.118  1.00  0.00     0.031 C 
ATOM     57  C   UNL     1      -9.041 -13.864   7.588  1.00  0.00     0.029 A 
ATOM     58  C   UNL     1      -8.155 -12.813   7.764  1.00  0.00     0.049 A 
ATOM     59  H   UNL     1      -7.246 -11.587   6.308  1.00  0.00     0.167 HD
ATOM     60  C   UNL     1      -6.769 -11.233   9.083  1.00  0.00     0.074 A 
ATOM     61  C   UNL     1      -6.276 -10.680  10.329  1.00  0.00     0.031 C 
ATOM     62  C   UNL     1      -7.632 -12.277   8.996  1.00  0.00     0.034 A 
BRANCH  49  63
ATOM     63  C   UNL     1      -9.354 -13.642   3.207  1.00  0.00     0.023 A 
ATOM     64  C   UNL     1      -8.775 -14.597   2.344  1.00  0.00     0.012 A 
ATOM     65  C   UNL     1     -10.752 -13.478   3.211  1.00  0.00     0.148 A 
ATOM     66  C   UNL     1      -9.566 -15.332   1.462  1.00  0.00     0.002 A 
ATOM     67  C   UNL     1     -11.539 -14.251   2.364  1.00  0.00     0.091 A 
ATOM     68  F   UNL     1     -11.288 -12.553   4.020  1.00  0.00    -0.205 F 
ATOM     69  C   UNL     1     -10.947 -15.166   1.478  1.00  0.00     0.022 A 
BRANCH  67  70
ATOM     70  S   UNL     1     -13.334 -14.168   2.372  1.00  0.00     0.127 S 
ATOM     71  O   UNL     1     -13.600 -13.406   1.153  1.00  0.00    -0.237 OA
ATOM     72  O   UNL     1     -13.710 -15.580   2.302  1.00  0.00    -0.237 OA
ATOM     73  O   UNL     1     -13.695 -13.509   3.620  1.00  0.00    -0.744 OA
ENDBRANCH  67  70
ENDBRANCH  49  63
BRANCH  50  74
ATOM     74  C   UNL     1      -3.819  -7.552   8.859  1.00  0.00     0.023 A 
ATOM     75  C   UNL     1      -2.717  -7.996   9.614  1.00  0.00     0.012 A 
ATOM     76  C   UNL     1      -4.128  -6.177   8.832  1.00  0.00     0.148 A 
ATOM     77  C   UNL     1      -1.946  -7.090  10.343  1.00  0.00     0.002 A 
ATOM     78  C   UNL     1      -3.320  -5.274   9.513  1.00  0.00     0.091 A 
ATOM     79  F   UNL     1      -5.183  -5.779   8.108  1.00  0.00    -0.205 F 
ATOM     80  C   UNL     1      -2.239  -5.730  10.282  1.00  0.00     0.022 A 
BRANCH  78  81
ATOM     81  S   UNL     1      -3.530  -3.495   9.375  1.00  0.00     0.127 S 
ATOM     82  O   UNL     1      -3.906  -3.132  10.739  1.00  0.00    -0.237 OA
ATOM     83  O   UNL     1      -2.191  -3.067   8.970  1.00  0.00    -0.237 OA
ATOM     84  O   UNL     1      -4.558  -3.293   8.364  1.00  0.00    -0.744 OA
ENDBRANCH  78  81
ENDBRANCH  50  74
BRANCH  62  85
ATOM     85  C   UNL     1      -8.089 -12.913  10.284  1.00  0.00     0.023 A 
ATOM     86  C   UNL     1      -8.992 -12.230  11.123  1.00  0.00     0.012 A 
ATOM     87  C   UNL     1      -7.683 -14.218  10.623  1.00  0.00     0.148 A 
ATOM     88  C   UNL     1      -9.457 -12.823  12.296  1.00  0.00     0.002 A 
ATOM     89  C   UNL     1      -8.190 -14.823  11.767  1.00  0.00     0.091 A 
ATOM     90  F   UNL     1      -6.808 -14.845   9.823  1.00  0.00    -0.205 F 
ATOM     91  C   UNL     1      -9.067 -14.123  12.611  1.00  0.00     0.022 A 
BRANCH  89  92
ATOM     92  S   UNL     1      -7.820 -16.527  12.201  1.00  0.00     0.127 S 
ATOM     93  O   UNL     1      -6.937 -16.356  13.353  1.00  0.00    -0.237 OA
ATOM     94  O   UNL     1      -9.145 -17.060  12.521  1.00  0.00    -0.237 OA
ATOM     95  O   UNL     1      -7.201 -17.116  11.021  1.00  0.00    -0.744 OA
ENDBRANCH  89  92
ENDBRANCH  62  85
ENDBRANCH  36  37
ENDBRANCH  28  31
ENDBRANCH  26  27
ENDBRANCH  25  26
ENDBRANCH  24  25
ENDBRANCH   3  24
TORSDOF 16
