REMARK SMILES C[NH+]1CCC(C(=O)N2C[C@@H](C(=O)NCCCNC(=O)c3ccc(-c4c5nc(c(-c6cccc(S(=O)(=O)[O-])c6F)c6ccc([nH]6)c(-c6cccc(S(=O)(=O)[O-])c6F)c6nc(c(-c7cccc(S(=O)(=O)[O-])c7F)c7ccc4[nH]7)C=C6)C=C5)cc3)[C@H](c3ccc4c(c3)OCO4)C2)CC1
REMARK SMILES IDX 15 1 14 2 13 3 11 4 12 5 10 7 8 8 9 9 93 10 83 11 6 12 7 13
REMARK SMILES IDX 5 14 1 15 2 16 3 17 95 18 4 20 94 21 84 22 85 23 89 24 86 25
REMARK SMILES IDX 88 26 87 27 90 28 92 29 91 30 16 31 17 32 18 33 19 35 20 36
REMARK SMILES IDX 21 37 82 38 22 39 81 40 23 41 24 42 25 43 75 44 26 45 80 46
REMARK SMILES IDX 74 47 76 48 27 49 79 50 73 51 72 52 28 54 60 55 40 56 59 57
REMARK SMILES IDX 41 58 44 59 58 60 77 61 42 62 43 63 57 65 78 66 45 67 29 68
REMARK SMILES IDX 30 69 38 70 31 71 33 72 39 73 32 74 34 75 35 76 36 77 37 78
REMARK SMILES IDX 61 79 62 80 70 81 63 82 65 83 71 84 64 85 66 86 67 87 68 88
REMARK SMILES IDX 69 89 46 90 47 91 55 92 48 93 50 94 56 95 49 96 51 97 52 98
REMARK SMILES IDX 53 99 54 100
REMARK H PARENT 13 6 2 19 17 34 76 53 44 64
REMARK Flexibility Score: inf
ROOT
ATOM      1  C   UNL     1       0.332   0.732   6.925  1.00  0.00     0.042 C 
ENDROOT
BRANCH   1   2
ATOM      2  C   UNL     1       1.699   0.774   6.273  1.00  0.00     0.117 C 
BRANCH   2   3
ATOM      3  N   UNL     1       2.285  -0.537   6.040  1.00  0.00    -0.356 N 
ATOM      4  C   UNL     1       3.054  -0.958   4.996  1.00  0.00     0.225 C 
ATOM      5  O   UNL     1       3.628  -2.043   5.090  1.00  0.00    -0.275 OA
ATOM      6  H   UNL     1       2.100  -1.213   6.731  1.00  0.00     0.163 HD
BRANCH   4   7
ATOM      7  C   UNL     1       3.176  -0.090   3.768  1.00  0.00     0.107 C 
ATOM      8  N   UNL     1       3.679  -0.025   1.521  1.00  0.00    -0.341 N 
ATOM      9  C   UNL     1       3.219  -0.955   2.526  1.00  0.00     0.133 C 
ATOM     10  C   UNL     1       4.672   0.867   2.119  1.00  0.00     0.128 C 
ATOM     11  C   UNL     1       4.505   0.696   3.653  1.00  0.00     0.053 C 
BRANCH   8  12
ATOM     12  C   UNL     1       3.322   0.101   0.203  1.00  0.00     0.226 C 
ATOM     13  O   UNL     1       4.133   0.573  -0.605  1.00  0.00    -0.275 OA
BRANCH  12  14
ATOM     14  C   UNL     1       1.857  -0.048  -0.239  1.00  0.00     0.090 C 
ATOM     15  C   UNL     1      -2.445   0.014  -0.221  1.00  0.00     0.332 C 
ATOM     16  N   UNL     1      -1.026  -0.043   0.128  1.00  0.00    -0.337 N 
ATOM     17  C   UNL     1      -0.348   1.200  -0.250  1.00  0.00     0.262 C 
ATOM     18  C   UNL     1      -0.371  -1.210  -0.474  1.00  0.00     0.262 C 
ATOM     19  H   UNL     1      -0.957  -0.145   1.141  1.00  0.00     0.347 HD
ATOM     20  C   UNL     1       1.093   1.190   0.254  1.00  0.00     0.075 C 
ATOM     21  C   UNL     1       1.062  -1.318   0.059  1.00  0.00     0.075 C 
ENDBRANCH  12  14
ENDBRANCH   8  12
BRANCH  11  22
ATOM     22  C   UNL     1       4.465   1.938   4.529  1.00  0.00    -0.038 A 
ATOM     23  C   UNL     1       3.876   3.153   4.108  1.00  0.00     0.008 A 
ATOM     24  C   UNL     1       4.849   1.801   5.880  1.00  0.00     0.054 A 
ATOM     25  C   UNL     1       3.615   4.187   5.019  1.00  0.00     0.051 A 
ATOM     26  C   UNL     1       4.523   2.812   6.762  1.00  0.00     0.166 A 
ATOM     27  C   UNL     1       3.911   3.967   6.345  1.00  0.00     0.165 A 
ATOM     28  O   UNL     1       4.618   2.739   8.119  1.00  0.00    -0.454 OA
ATOM     29  O   UNL     1       3.571   4.775   7.386  1.00  0.00    -0.454 OA
ATOM     30  C   UNL     1       3.822   3.884   8.497  1.00  0.00     0.468 C 
ENDBRANCH  11  22
ENDBRANCH   4   7
ENDBRANCH   2   3
ENDBRANCH   1   2
BRANCH   1  31
ATOM     31  C   UNL     1       0.335   0.092   8.306  1.00  0.00     0.118 C 
BRANCH  31  32
ATOM     32  N   UNL     1       1.199   0.782   9.264  1.00  0.00    -0.352 N 
ATOM     33  C   UNL     1       0.872   1.513  10.383  1.00  0.00     0.251 C 
ATOM     34  H   UNL     1       2.164   0.712   9.080  1.00  0.00     0.163 HD
ATOM     35  O   UNL     1       1.732   2.173  10.960  1.00  0.00    -0.269 OA
BRANCH  33  36
ATOM     36  C   UNL     1      -0.525   1.526  10.861  1.00  0.00     0.039 A 
ATOM     37  C   UNL     1      -1.126   2.741  11.206  1.00  0.00     0.014 A 
ATOM     38  C   UNL     1      -1.255   0.340  10.919  1.00  0.00     0.014 A 
ATOM     39  C   UNL     1      -2.493   2.776  11.499  1.00  0.00     0.010 A 
ATOM     40  C   UNL     1      -2.629   0.392  11.106  1.00  0.00     0.010 A 
ATOM     41  C   UNL     1      -3.266   1.610  11.392  1.00  0.00    -0.014 A 
BRANCH  41  42
ATOM     42  C   UNL     1      -4.742   1.599  11.557  1.00  0.00     0.031 A 
ATOM     43  C   UNL     1      -5.356   0.695  12.592  1.00  0.00     0.074 A 
ATOM     44  C   UNL     1      -5.525   2.252  10.675  1.00  0.00     0.049 A 
ATOM     45  N   UNL     1      -6.599   0.320  12.730  1.00  0.00    -0.248 NA
ATOM     46  C   UNL     1      -4.433   0.088  13.568  1.00  0.00     0.031 C 
ATOM     47  C   UNL     1      -5.051   3.108   9.586  1.00  0.00     0.029 A 
ATOM     48  N   UNL     1      -6.891   2.255  10.525  1.00  0.00    -0.354 N 
ATOM     49  C   UNL     1      -6.597  -0.618  13.756  1.00  0.00     0.074 A 
ATOM     50  C   UNL     1      -5.227  -0.769  14.192  1.00  0.00     0.031 C 
ATOM     51  C   UNL     1      -6.104   3.542   8.874  1.00  0.00     0.029 A 
ATOM     52  C   UNL     1      -7.323   2.961   9.425  1.00  0.00     0.049 A 
ATOM     53  H   UNL     1      -7.503   1.795  11.145  1.00  0.00     0.167 HD
ATOM     54  C   UNL     1      -7.646  -1.277  14.302  1.00  0.00     0.034 A 
ATOM     55  C   UNL     1      -8.559   3.104   8.905  1.00  0.00     0.034 A 
ATOM     56  C   UNL     1      -9.013  -1.057  13.920  1.00  0.00     0.049 A 
ATOM     57  C   UNL     1      -9.718   2.423   9.581  1.00  0.00     0.074 A 
ATOM     58  C   UNL     1     -10.158  -1.596  14.477  1.00  0.00     0.029 A 
ATOM     59  N   UNL     1      -9.420  -0.219  12.894  1.00  0.00    -0.354 N 
ATOM     60  N   UNL     1      -9.713   1.638  10.631  1.00  0.00    -0.248 NA
ATOM     61  C   UNL     1     -11.057   2.669   9.024  1.00  0.00     0.031 C 
ATOM     62  C   UNL     1     -11.260  -1.085  13.784  1.00  0.00     0.029 A 
ATOM     63  C   UNL     1     -10.800  -0.217  12.806  1.00  0.00     0.049 A 
ATOM     64  H   UNL     1      -8.816   0.299  12.314  1.00  0.00     0.167 HD
ATOM     65  C   UNL     1     -11.045   1.334  10.887  1.00  0.00     0.074 A 
ATOM     66  C   UNL     1     -11.832   2.024   9.886  1.00  0.00     0.031 C 
ATOM     67  C   UNL     1     -11.568   0.543  11.855  1.00  0.00     0.034 A 
BRANCH  54  68
ATOM     68  C   UNL     1      -7.362  -2.250  15.414  1.00  0.00     0.023 A 
ATOM     69  C   UNL     1      -6.977  -1.765  16.680  1.00  0.00     0.012 A 
ATOM     70  C   UNL     1      -7.526  -3.637  15.226  1.00  0.00     0.148 A 
ATOM     71  C   UNL     1      -6.723  -2.644  17.731  1.00  0.00     0.002 A 
ATOM     72  C   UNL     1      -7.315  -4.505  16.292  1.00  0.00     0.091 A 
ATOM     73  F   UNL     1      -7.870  -4.082  14.009  1.00  0.00    -0.205 F 
ATOM     74  C   UNL     1      -6.902  -4.011  17.540  1.00  0.00     0.022 A 
BRANCH  72  75
ATOM     75  S   UNL     1      -7.598  -6.274  16.166  1.00  0.00     0.127 S 
ATOM     76  O   UNL     1      -6.231  -6.790  16.130  1.00  0.00    -0.237 OA
ATOM     77  O   UNL     1      -8.325  -6.560  17.404  1.00  0.00    -0.237 OA
ATOM     78  O   UNL     1      -8.375  -6.468  14.950  1.00  0.00    -0.744 OA
ENDBRANCH  72  75
ENDBRANCH  54  68
BRANCH  55  79
ATOM     79  C   UNL     1      -8.771   3.985   7.720  1.00  0.00     0.023 A 
ATOM     80  C   UNL     1      -9.425   5.220   7.896  1.00  0.00     0.012 A 
ATOM     81  C   UNL     1      -8.302   3.634   6.439  1.00  0.00     0.148 A 
ATOM     82  C   UNL     1      -9.635   6.076   6.815  1.00  0.00     0.002 A 
ATOM     83  C   UNL     1      -8.468   4.515   5.375  1.00  0.00     0.091 A 
ATOM     84  F   UNL     1      -7.691   2.450   6.287  1.00  0.00    -0.205 F 
ATOM     85  C   UNL     1      -9.148   5.729   5.558  1.00  0.00     0.022 A 
BRANCH  83  86
ATOM     86  S   UNL     1      -7.759   4.209   3.753  1.00  0.00     0.127 S 
ATOM     87  O   UNL     1      -8.941   3.865   2.968  1.00  0.00    -0.237 OA
ATOM     88  O   UNL     1      -7.161   5.506   3.432  1.00  0.00    -0.237 OA
ATOM     89  O   UNL     1      -6.790   3.138   3.946  1.00  0.00    -0.744 OA
ENDBRANCH  83  86
ENDBRANCH  55  79
BRANCH  67  90
ATOM     90  C   UNL     1     -13.065   0.419  11.937  1.00  0.00     0.023 A 
ATOM     91  C   UNL     1     -13.750  -0.402  11.022  1.00  0.00     0.012 A 
ATOM     92  C   UNL     1     -13.769   1.016  13.001  1.00  0.00     0.148 A 
ATOM     93  C   UNL     1     -15.121  -0.617  11.158  1.00  0.00     0.002 A 
ATOM     94  C   UNL     1     -15.126   0.762  13.155  1.00  0.00     0.091 A 
ATOM     95  F   UNL     1     -13.096   1.808  13.848  1.00  0.00    -0.205 F 
ATOM     96  C   UNL     1     -15.805  -0.049  12.230  1.00  0.00     0.022 A 
BRANCH  94  97
ATOM     97  S   UNL     1     -16.067   1.370  14.559  1.00  0.00     0.127 S 
ATOM     98  O   UNL     1     -16.924   2.374  13.931  1.00  0.00    -0.237 OA
ATOM     99  O   UNL     1     -16.766   0.166  15.009  1.00  0.00    -0.237 OA
ATOM    100  O   UNL     1     -15.089   1.890  15.505  1.00  0.00    -0.744 OA
ENDBRANCH  94  97
ENDBRANCH  67  90
ENDBRANCH  41  42
ENDBRANCH  33  36
ENDBRANCH  31  32
ENDBRANCH   1  31
TORSDOF 16
