REMARK SMILES O=C(NCCCNC(=O)[C@@H](Cc1cccc(F)c1)[C@H]1CCOC2(CCC2)C1)c1ccc(-c2c3nc(c(-c4cccc(S(=O)(=O)[O-])c4F)c4ccc([nH]4)c(-c4cccc(S(=O)(=O)[O-])c4F)c4nc(c(-c5cccc(S(=O)(=O)[O-])c5F)c5ccc2[nH]5)C=C4)C=C3)cc1
REMARK SMILES IDX 4 1 3 2 1 3 2 4 28 6 29 7 90 8 30 9 89 10 31 11 32 12 33 13
REMARK SMILES IDX 83 14 34 15 88 16 82 17 84 18 35 19 87 20 81 21 80 22 36 24
REMARK SMILES IDX 68 25 48 26 67 27 49 28 52 29 66 30 85 31 50 32 51 33 65 35
REMARK SMILES IDX 86 36 53 37 37 38 38 39 46 40 39 41 41 42 47 43 40 44 42 45
REMARK SMILES IDX 43 46 44 47 45 48 69 49 70 50 78 51 71 52 73 53 79 54 72 55
REMARK SMILES IDX 74 56 75 57 76 58 77 59 54 60 55 61 63 62 56 63 58 64 64 65
REMARK SMILES IDX 57 66 59 67 60 68 61 69 62 70 5 71 6 72 7 73 8 74 9 76 10 77
REMARK SMILES IDX 11 78 12 79 13 80 18 81 14 82 16 83 15 84 17 85 19 86 20 87
REMARK SMILES IDX 27 88 21 89 23 90 22 91 24 92 26 93 25 94
REMARK H PARENT 3 5 84 23 52 34 7 75
REMARK Flexibility Score: inf
ROOT
ATOM      1  C   UNL     1       7.791 -11.130  -1.468  1.00  0.00     0.118 C 
ENDROOT
BRANCH   1   2
ATOM      2  N   UNL     1       8.136 -10.883  -0.071  1.00  0.00    -0.352 N 
ATOM      3  O   UNL     1       8.177 -10.955   2.154  1.00  0.00    -0.269 OA
ATOM      4  C   UNL     1       7.803 -11.501   1.116  1.00  0.00     0.251 C 
ATOM      5  H   UNL     1       8.734 -10.111   0.050  1.00  0.00     0.163 HD
BRANCH   4   6
ATOM      6  C   UNL     1       6.984 -12.744   1.200  1.00  0.00     0.039 A 
ATOM      7  C   UNL     1       6.867 -13.648   0.152  1.00  0.00     0.014 A 
ATOM      8  C   UNL     1       6.332 -13.050   2.407  1.00  0.00     0.014 A 
ATOM      9  C   UNL     1       6.002 -14.733   0.233  1.00  0.00     0.010 A 
ATOM     10  C   UNL     1       5.566 -14.221   2.537  1.00  0.00     0.010 A 
ATOM     11  C   UNL     1       5.368 -15.064   1.437  1.00  0.00    -0.014 A 
BRANCH  11  12
ATOM     12  C   UNL     1       4.578 -16.326   1.495  1.00  0.00     0.031 A 
ATOM     13  C   UNL     1       3.116 -16.322   1.852  1.00  0.00     0.074 A 
ATOM     14  C   UNL     1       5.180 -17.488   1.158  1.00  0.00     0.049 A 
ATOM     15  N   UNL     1       2.279 -17.328   1.881  1.00  0.00    -0.248 NA
ATOM     16  C   UNL     1       2.512 -15.036   2.237  1.00  0.00     0.031 C 
ATOM     17  C   UNL     1       6.603 -17.632   0.829  1.00  0.00     0.029 A 
ATOM     18  N   UNL     1       4.683 -18.759   1.005  1.00  0.00    -0.354 N 
ATOM     19  C   UNL     1       1.070 -16.810   2.326  1.00  0.00     0.074 A 
ATOM     20  C   UNL     1       1.280 -15.400   2.568  1.00  0.00     0.031 C 
ATOM     21  C   UNL     1       6.847 -18.893   0.451  1.00  0.00     0.029 A 
ATOM     22  C   UNL     1       5.624 -19.674   0.588  1.00  0.00     0.049 A 
ATOM     23  H   UNL     1       3.743 -18.994   1.178  1.00  0.00     0.167 HD
ATOM     24  C   UNL     1      -0.113 -17.448   2.496  1.00  0.00     0.034 A 
ATOM     25  C   UNL     1       5.530 -20.999   0.359  1.00  0.00     0.034 A 
ATOM     26  C   UNL     1      -0.331 -18.838   2.199  1.00  0.00     0.049 A 
ATOM     27  C   UNL     1       4.202 -21.674   0.542  1.00  0.00     0.074 A 
ATOM     28  C   UNL     1      -1.514 -19.552   2.277  1.00  0.00     0.029 A 
ATOM     29  N   UNL     1       0.644 -19.725   1.771  1.00  0.00    -0.354 N 
ATOM     30  N   UNL     1       3.048 -21.140   0.859  1.00  0.00    -0.248 NA
ATOM     31  C   UNL     1       4.153 -23.127   0.327  1.00  0.00     0.031 C 
ATOM     32  C   UNL     1      -1.247 -20.878   1.930  1.00  0.00     0.029 A 
ATOM     33  C   UNL     1       0.094 -20.984   1.600  1.00  0.00     0.049 A 
ATOM     34  H   UNL     1       1.588 -19.494   1.613  1.00  0.00     0.167 HD
ATOM     35  C   UNL     1       2.134 -22.185   0.868  1.00  0.00     0.074 A 
ATOM     36  C   UNL     1       2.861 -23.380   0.494  1.00  0.00     0.031 C 
ATOM     37  C   UNL     1       0.816 -22.158   1.181  1.00  0.00     0.034 A 
BRANCH  24  38
ATOM     38  C   UNL     1      -1.292 -16.651   2.990  1.00  0.00     0.023 A 
ATOM     39  C   UNL     1      -1.937 -15.748   2.121  1.00  0.00     0.012 A 
ATOM     40  C   UNL     1      -1.835 -16.888   4.269  1.00  0.00     0.148 A 
ATOM     41  C   UNL     1      -3.094 -15.081   2.523  1.00  0.00     0.002 A 
ATOM     42  C   UNL     1      -3.014 -16.254   4.645  1.00  0.00     0.091 A 
ATOM     43  F   UNL     1      -1.199 -17.741   5.085  1.00  0.00    -0.205 F 
ATOM     44  C   UNL     1      -3.639 -15.345   3.777  1.00  0.00     0.022 A 
BRANCH  42  45
ATOM     45  S   UNL     1      -3.846 -16.590   6.202  1.00  0.00     0.127 S 
ATOM     46  O   UNL     1      -3.728 -15.300   6.883  1.00  0.00    -0.237 OA
ATOM     47  O   UNL     1      -5.201 -16.922   5.758  1.00  0.00    -0.237 OA
ATOM     48  O   UNL     1      -3.120 -17.687   6.822  1.00  0.00    -0.744 OA
ENDBRANCH  42  45
ENDBRANCH  24  38
BRANCH  25  49
ATOM     49  C   UNL     1       6.733 -21.759  -0.089  1.00  0.00     0.023 A 
ATOM     50  C   UNL     1       6.776 -22.296  -1.390  1.00  0.00     0.012 A 
ATOM     51  C   UNL     1       7.859 -21.898   0.747  1.00  0.00     0.148 A 
ATOM     52  C   UNL     1       7.912 -22.970  -1.843  1.00  0.00     0.002 A 
ATOM     53  C   UNL     1       9.010 -22.510   0.266  1.00  0.00     0.091 A 
ATOM     54  F   UNL     1       7.793 -21.396   1.988  1.00  0.00    -0.205 F 
ATOM     55  C   UNL     1       9.033 -23.063  -1.022  1.00  0.00     0.022 A 
BRANCH  53  56
ATOM     56  S   UNL     1      10.546 -22.533   1.197  1.00  0.00     0.127 S 
ATOM     57  O   UNL     1      10.675 -23.951   1.525  1.00  0.00    -0.237 OA
ATOM     58  O   UNL     1      11.505 -22.040   0.206  1.00  0.00    -0.237 OA
ATOM     59  O   UNL     1      10.338 -21.639   2.325  1.00  0.00    -0.744 OA
ENDBRANCH  53  56
ENDBRANCH  25  49
BRANCH  37  60
ATOM     60  C   UNL     1       0.049 -23.451   1.129  1.00  0.00     0.023 A 
ATOM     61  C   UNL     1       0.234 -24.411   2.143  1.00  0.00     0.012 A 
ATOM     62  C   UNL     1      -0.950 -23.653   0.155  1.00  0.00     0.148 A 
ATOM     63  C   UNL     1      -0.556 -25.558   2.183  1.00  0.00     0.002 A 
ATOM     64  C   UNL     1      -1.767 -24.773   0.231  1.00  0.00     0.091 A 
ATOM     65  F   UNL     1      -1.098 -22.732  -0.808  1.00  0.00    -0.205 F 
ATOM     66  C   UNL     1      -1.566 -25.732   1.239  1.00  0.00     0.022 A 
BRANCH  64  67
ATOM     67  S   UNL     1      -3.161 -25.034  -0.872  1.00  0.00     0.127 S 
ATOM     68  O   UNL     1      -2.740 -26.223  -1.609  1.00  0.00    -0.237 OA
ATOM     69  O   UNL     1      -4.260 -25.253   0.067  1.00  0.00    -0.237 OA
ATOM     70  O   UNL     1      -3.276 -23.819  -1.672  1.00  0.00    -0.744 OA
ENDBRANCH  64  67
ENDBRANCH  37  60
ENDBRANCH  11  12
ENDBRANCH   4   6
ENDBRANCH   1   2
BRANCH   1  71
ATOM     71  C   UNL     1       6.339 -10.789  -1.789  1.00  0.00     0.042 C 
BRANCH  71  72
ATOM     72  C   UNL     1       6.185  -9.292  -2.014  1.00  0.00     0.117 C 
BRANCH  72  73
ATOM     73  N   UNL     1       6.294  -8.881  -3.406  1.00  0.00    -0.356 N 
ATOM     74  C   UNL     1       5.726  -7.882  -4.132  1.00  0.00     0.223 C 
ATOM     75  H   UNL     1       6.907  -9.444  -3.932  1.00  0.00     0.163 HD
ATOM     76  O   UNL     1       6.169  -7.745  -5.282  1.00  0.00    -0.275 OA
BRANCH  74  77
ATOM     77  C   UNL     1       4.610  -6.928  -3.656  1.00  0.00     0.086 C 
BRANCH  77  78
ATOM     78  C   UNL     1       3.202  -7.587  -3.577  1.00  0.00     0.049 C 
BRANCH  78  79
ATOM     79  C   UNL     1       2.858  -8.551  -2.470  1.00  0.00    -0.044 A 
ATOM     80  C   UNL     1       2.395  -8.092  -1.226  1.00  0.00     0.004 A 
ATOM     81  C   UNL     1       3.018  -9.934  -2.650  1.00  0.00     0.043 A 
ATOM     82  C   UNL     1       2.224  -8.973  -0.153  1.00  0.00     0.003 A 
ATOM     83  C   UNL     1       2.828 -10.806  -1.579  1.00  0.00     0.123 A 
ATOM     84  C   UNL     1       2.460 -10.335  -0.326  1.00  0.00     0.039 A 
ATOM     85  F   UNL     1       3.074 -12.111  -1.746  1.00  0.00    -0.207 F 
ENDBRANCH  78  79
ENDBRANCH  77  78
BRANCH  77  86
ATOM     86  C   UNL     1       5.068  -5.850  -2.614  1.00  0.00     0.007 C 
ATOM     87  C   UNL     1       4.082  -4.684  -2.451  1.00  0.00     0.033 C 
ATOM     88  C   UNL     1       5.415  -6.447  -1.266  1.00  0.00     0.040 C 
ATOM     89  C   UNL     1       4.600  -3.715  -1.393  1.00  0.00     0.161 C 
ATOM     90  C   UNL     1       5.579  -5.519  -0.074  1.00  0.00     0.069 C 
ATOM     91  O   UNL     1       4.685  -4.386  -0.140  1.00  0.00    -0.375 OA
ATOM     92  C   UNL     1       5.420  -6.381   1.214  1.00  0.00     0.035 C 
ATOM     93  C   UNL     1       7.047  -5.245   0.346  1.00  0.00     0.035 C 
ATOM     94  C   UNL     1       6.794  -5.929   1.697  1.00  0.00     0.006 C 
ENDBRANCH  77  86
ENDBRANCH  74  77
ENDBRANCH  72  73
ENDBRANCH  71  72
ENDBRANCH   1  71
TORSDOF 16
