REMARK SMILES CCc1cccc(CC)c1N1/C(=[NH+]/C(=O)CCCC(=O)NCCCNC(=O)c2ccc(-c3c4nc(c(-c5cccc(S(=O)(=O)[O-])c5F)c5ccc([nH]5)c(-c5cccc(S(=O)(=O)[O-])c5F)c5nc(c(-c6cccc(S(=O)(=O)[O-])c6F)c6ccc3[nH]6)C=C5)C=C4)cc2)S[C@@H]2CS(=O)(=O)C[C@@H]21
REMARK SMILES IDX 22 1 21 2 19 3 20 4 18 6 17 7 16 8 14 9 11 10 12 11 98 12
REMARK SMILES IDX 13 13 91 14 92 15 97 16 93 18 94 19 15 20 95 21 96 22 10 23
REMARK SMILES IDX 3 24 4 25 5 26 7 27 6 28 2 29 1 30 8 31 9 32 23 33 24 34
REMARK SMILES IDX 25 35 26 36 27 38 28 39 29 40 90 41 30 42 89 43 31 44 32 45
REMARK SMILES IDX 33 46 83 47 34 48 88 49 82 50 84 51 35 52 87 53 81 54 80 55
REMARK SMILES IDX 36 57 68 58 48 59 67 60 49 61 52 62 66 63 85 64 50 65 51 66
REMARK SMILES IDX 65 68 86 69 53 70 37 71 38 72 46 73 39 74 41 75 47 76 40 77
REMARK SMILES IDX 42 78 43 79 44 80 45 81 69 82 70 83 78 84 71 85 73 86 79 87
REMARK SMILES IDX 72 88 74 89 75 90 76 91 77 92 54 93 55 94 63 95 56 96 58 97
REMARK SMILES IDX 64 98 57 99 59 100 60 101 61 102 62 103
REMARK H PARENT 21 5 13 17 25 37 84 56 52 67
REMARK Flexibility Score: inf
ROOT
ATOM      1  C   UNL     1      -3.700   1.738   2.090  1.00  0.00     0.117 C 
ENDROOT
BRANCH   1   2
ATOM      2  N   UNL     1      -3.835   0.800   3.186  1.00  0.00    -0.356 N 
ATOM      3  C   UNL     1      -3.451  -0.507   3.242  1.00  0.00     0.220 C 
ATOM      4  O   UNL     1      -3.758  -1.177   4.227  1.00  0.00    -0.275 OA
ATOM      5  H   UNL     1      -4.261   1.154   4.000  1.00  0.00     0.163 HD
BRANCH   3   6
ATOM      6  C   UNL     1      -2.577  -1.073   2.145  1.00  0.00     0.100 C 
BRANCH   6   7
ATOM      7  C   UNL     1      -3.263  -1.707   0.936  1.00  0.00     0.022 C 
BRANCH   7   8
ATOM      8  C   UNL     1      -3.556  -0.832  -0.287  1.00  0.00     0.128 C 
BRANCH   8   9
ATOM      9  C   UNL     1      -2.369  -0.236  -1.038  1.00  0.00     0.307 C 
ATOM     10  N   UNL     1       0.286   2.141  -0.223  1.00  0.00    -0.216 N 
ATOM     11  C   UNL     1      -0.828   1.498  -0.768  1.00  0.00     0.319 C 
ATOM     12  C   UNL     1       1.117   2.900  -1.198  1.00  0.00     0.212 C 
ATOM     13  N   UNL     1      -1.483   0.498  -0.284  1.00  0.00    -0.204 N 
ATOM     14  S   UNL     1      -1.180   2.263  -2.336  1.00  0.00    -0.029 SA
ATOM     15  C   UNL     1       0.574   2.587  -2.605  1.00  0.00     0.120 C 
ATOM     16  C   UNL     1       2.607   2.561  -1.167  1.00  0.00     0.188 C 
ATOM     17  H   UNL     1      -1.345   0.252   0.659  1.00  0.00     0.316 HD
ATOM     18  C   UNL     1       1.271   1.345  -3.131  1.00  0.00     0.156 C 
ATOM     19  S   UNL     1       2.948   1.580  -2.611  1.00  0.00     0.155 S 
ATOM     20  O   UNL     1      -2.214  -0.491  -2.231  1.00  0.00    -0.247 OA
ATOM     21  O   UNL     1       3.520   0.315  -2.215  1.00  0.00    -0.229 OA
ATOM     22  O   UNL     1       3.598   2.440  -3.584  1.00  0.00    -0.229 OA
BRANCH  10  23
ATOM     23  C   UNL     1       0.651   2.217   1.148  1.00  0.00     0.134 A 
ATOM     24  C   UNL     1       1.064   1.068   1.888  1.00  0.00    -0.001 A 
ATOM     25  C   UNL     1       1.592   1.232   3.191  1.00  0.00     0.008 A 
ATOM     26  C   UNL     1       1.748   2.481   3.770  1.00  0.00     0.001 A 
ATOM     27  C   UNL     1       0.723   3.494   1.807  1.00  0.00    -0.001 A 
ATOM     28  C   UNL     1       1.320   3.600   3.082  1.00  0.00     0.008 A 
BRANCH  24  29
ATOM     29  C   UNL     1       0.969  -0.376   1.433  1.00  0.00     0.036 C 
ATOM     30  C   UNL     1       1.747  -0.778   0.204  1.00  0.00     0.009 C 
ENDBRANCH  24  29
BRANCH  27  31
ATOM     31  C   UNL     1       0.188   4.793   1.218  1.00  0.00     0.036 C 
ATOM     32  C   UNL     1      -0.728   5.592   2.147  1.00  0.00     0.009 C 
ENDBRANCH  27  31
ENDBRANCH  10  23
ENDBRANCH   8   9
ENDBRANCH   7   8
ENDBRANCH   6   7
ENDBRANCH   3   6
ENDBRANCH   1   2
BRANCH   1  33
ATOM     33  C   UNL     1      -5.015   1.872   1.339  1.00  0.00     0.042 C 
BRANCH  33  34
ATOM     34  C   UNL     1      -5.948   2.867   1.990  1.00  0.00     0.118 C 
BRANCH  34  35
ATOM     35  N   UNL     1      -5.509   4.237   1.770  1.00  0.00    -0.352 N 
ATOM     36  C   UNL     1      -6.194   5.286   1.207  1.00  0.00     0.251 C 
ATOM     37  H   UNL     1      -4.593   4.441   2.067  1.00  0.00     0.163 HD
ATOM     38  O   UNL     1      -5.592   6.316   0.918  1.00  0.00    -0.269 OA
BRANCH  36  39
ATOM     39  C   UNL     1      -7.643   5.158   0.933  1.00  0.00     0.039 A 
ATOM     40  C   UNL     1      -8.165   5.709  -0.239  1.00  0.00     0.014 A 
ATOM     41  C   UNL     1      -8.483   4.483   1.821  1.00  0.00     0.014 A 
ATOM     42  C   UNL     1      -9.517   5.536  -0.540  1.00  0.00     0.010 A 
ATOM     43  C   UNL     1      -9.794   4.205   1.460  1.00  0.00     0.010 A 
ATOM     44  C   UNL     1     -10.336   4.755   0.292  1.00  0.00    -0.014 A 
BRANCH  44  45
ATOM     45  C   UNL     1     -11.768   4.521  -0.021  1.00  0.00     0.031 A 
ATOM     46  C   UNL     1     -12.832   4.963   0.949  1.00  0.00     0.074 A 
ATOM     47  C   UNL     1     -12.107   3.840  -1.132  1.00  0.00     0.049 A 
ATOM     48  N   UNL     1     -14.129   4.813   0.877  1.00  0.00    -0.248 NA
ATOM     49  C   UNL     1     -12.377   5.629   2.182  1.00  0.00     0.031 C 
ATOM     50  C   UNL     1     -11.164   3.289  -2.108  1.00  0.00     0.029 A 
ATOM     51  N   UNL     1     -13.337   3.478  -1.618  1.00  0.00    -0.354 N 
ATOM     52  C   UNL     1     -14.636   5.322   2.067  1.00  0.00     0.074 A 
ATOM     53  C   UNL     1     -13.505   5.738   2.865  1.00  0.00     0.031 C 
ATOM     54  C   UNL     1     -11.851   2.684  -3.090  1.00  0.00     0.029 A 
ATOM     55  C   UNL     1     -13.278   2.768  -2.794  1.00  0.00     0.049 A 
ATOM     56  H   UNL     1     -14.182   3.704  -1.167  1.00  0.00     0.167 HD
ATOM     57  C   UNL     1     -15.927   5.462   2.451  1.00  0.00     0.034 A 
ATOM     58  C   UNL     1     -14.263   2.245  -3.550  1.00  0.00     0.034 A 
ATOM     59  C   UNL     1     -17.047   5.081   1.635  1.00  0.00     0.049 A 
ATOM     60  C   UNL     1     -15.691   2.437  -3.120  1.00  0.00     0.074 A 
ATOM     61  C   UNL     1     -18.395   5.267   1.882  1.00  0.00     0.029 A 
ATOM     62  N   UNL     1     -16.950   4.419   0.420  1.00  0.00    -0.354 N 
ATOM     63  N   UNL     1     -16.159   3.064  -2.068  1.00  0.00    -0.248 NA
ATOM     64  C   UNL     1     -16.727   1.878  -3.999  1.00  0.00     0.031 C 
ATOM     65  C   UNL     1     -19.114   4.680   0.835  1.00  0.00     0.029 A 
ATOM     66  C   UNL     1     -18.213   4.169  -0.087  1.00  0.00     0.049 A 
ATOM     67  H   UNL     1     -16.106   4.165  -0.018  1.00  0.00     0.167 HD
ATOM     68  C   UNL     1     -17.544   3.009  -2.176  1.00  0.00     0.074 A 
ATOM     69  C   UNL     1     -17.837   2.300  -3.406  1.00  0.00     0.031 C 
ATOM     70  C   UNL     1     -18.488   3.495  -1.331  1.00  0.00     0.034 A 
BRANCH  57  71
ATOM     71  C   UNL     1     -16.186   6.082   3.801  1.00  0.00     0.023 A 
ATOM     72  C   UNL     1     -15.868   7.439   4.026  1.00  0.00     0.012 A 
ATOM     73  C   UNL     1     -16.753   5.327   4.847  1.00  0.00     0.148 A 
ATOM     74  C   UNL     1     -16.054   8.016   5.282  1.00  0.00     0.002 A 
ATOM     75  C   UNL     1     -16.986   5.925   6.080  1.00  0.00     0.091 A 
ATOM     76  F   UNL     1     -17.030   4.034   4.627  1.00  0.00    -0.205 F 
ATOM     77  C   UNL     1     -16.620   7.263   6.305  1.00  0.00     0.022 A 
BRANCH  75  78
ATOM     78  S   UNL     1     -17.790   5.062   7.434  1.00  0.00     0.127 S 
ATOM     79  O   UNL     1     -16.669   4.831   8.343  1.00  0.00    -0.237 OA
ATOM     80  O   UNL     1     -18.757   6.056   7.901  1.00  0.00    -0.237 OA
ATOM     81  O   UNL     1     -18.384   3.868   6.851  1.00  0.00    -0.744 OA
ENDBRANCH  75  78
ENDBRANCH  57  71
BRANCH  58  82
ATOM     82  C   UNL     1     -13.928   1.565  -4.832  1.00  0.00     0.023 A 
ATOM     83  C   UNL     1     -14.243   2.201  -6.049  1.00  0.00     0.012 A 
ATOM     84  C   UNL     1     -13.256   0.328  -4.856  1.00  0.00     0.148 A 
ATOM     85  C   UNL     1     -13.917   1.605  -7.268  1.00  0.00     0.002 A 
ATOM     86  C   UNL     1     -12.887  -0.235  -6.072  1.00  0.00     0.091 A 
ATOM     87  F   UNL     1     -12.968  -0.259  -3.686  1.00  0.00    -0.205 F 
ATOM     88  C   UNL     1     -13.231   0.394  -7.279  1.00  0.00     0.022 A 
BRANCH  86  89
ATOM     89  S   UNL     1     -11.894  -1.727  -6.188  1.00  0.00     0.127 S 
ATOM     90  O   UNL     1     -12.819  -2.651  -6.839  1.00  0.00    -0.237 OA
ATOM     91  O   UNL     1     -10.780  -1.278  -7.023  1.00  0.00    -0.237 OA
ATOM     92  O   UNL     1     -11.527  -2.066  -4.820  1.00  0.00    -0.744 OA
ENDBRANCH  86  89
ENDBRANCH  58  82
BRANCH  70  93
ATOM     93  C   UNL     1     -19.933   3.315  -1.720  1.00  0.00     0.023 A 
ATOM     94  C   UNL     1     -20.524   2.038  -1.669  1.00  0.00     0.012 A 
ATOM     95  C   UNL     1     -20.723   4.430  -2.065  1.00  0.00     0.148 A 
ATOM     96  C   UNL     1     -21.871   1.868  -1.990  1.00  0.00     0.002 A 
ATOM     97  C   UNL     1     -22.076   4.261  -2.329  1.00  0.00     0.091 A 
ATOM     98  F   UNL     1     -20.137   5.635  -2.124  1.00  0.00    -0.205 F 
ATOM     99  C   UNL     1     -22.648   2.979  -2.306  1.00  0.00     0.022 A 
BRANCH  97 100
ATOM    100  S   UNL     1     -23.176   5.645  -2.644  1.00  0.00     0.127 S 
ATOM    101  O   UNL     1     -23.476   5.470  -4.065  1.00  0.00    -0.237 OA
ATOM    102  O   UNL     1     -24.295   5.361  -1.745  1.00  0.00    -0.237 OA
ATOM    103  O   UNL     1     -22.421   6.845  -2.311  1.00  0.00    -0.744 OA
ENDBRANCH  97 100
ENDBRANCH  70  93
ENDBRANCH  44  45
ENDBRANCH  36  39
ENDBRANCH  34  35
ENDBRANCH  33  34
ENDBRANCH   1  33
TORSDOF 19
