REMARK SMILES C[N@@H+]1CCN(C(=O)c2cnn3c2CCCC3)C[C@@H]1C(=O)NCCCNC(=O)c1ccc(-c2c3nc(c(-c4cccc(S(=O)(=O)[O-])c4F)c4ccc([nH]4)c(-c4cccc(S(=O)(=O)[O-])c4F)c4nc(c(-c5cccc(S(=O)(=O)[O-])c5F)c5ccc2[nH]5)C=C4)C=C3)cc1
REMARK SMILES IDX 23 1 22 2 21 3 19 4 20 5 18 7 1 8 2 9 3 10 4 12 17 13 5 14
REMARK SMILES IDX 6 15 7 16 8 17 9 18 12 19 10 20 11 21 13 22 16 23 14 24
REMARK SMILES IDX 15 25 24 26 25 27 26 28 27 30 28 31 29 32 90 33 30 34 89 35
REMARK SMILES IDX 31 36 32 37 33 38 83 39 34 40 88 41 82 42 84 43 35 44 87 45
REMARK SMILES IDX 81 46 80 47 36 49 68 50 48 51 67 52 49 53 52 54 66 55 85 56
REMARK SMILES IDX 50 57 51 58 65 60 86 61 53 62 37 63 38 64 46 65 39 66 41 67
REMARK SMILES IDX 47 68 40 69 42 70 43 71 44 72 45 73 69 74 70 75 78 76 71 77
REMARK SMILES IDX 73 78 79 79 72 80 74 81 75 82 76 83 77 84 54 85 55 86 63 87
REMARK SMILES IDX 56 88 58 89 64 90 57 91 59 92 60 93 61 94 62 95
REMARK H PARENT 21 6 2 11 25 29 84 48 52 59
REMARK Flexibility Score: inf
ROOT
ATOM      1  C   UNL     1       4.046  -2.153   1.620  1.00  0.00     0.042 C 
ENDROOT
BRANCH   1   2
ATOM      2  C   UNL     1       2.641  -2.737   1.455  1.00  0.00     0.118 C 
BRANCH   2   3
ATOM      3  N   UNL     1       1.602  -1.969   2.117  1.00  0.00    -0.351 N 
ATOM      4  C   UNL     1       0.516  -1.305   1.622  1.00  0.00     0.280 C 
ATOM      5  O   UNL     1      -0.306  -0.916   2.453  1.00  0.00    -0.268 OA
ATOM      6  H   UNL     1       1.696  -1.919   3.096  1.00  0.00     0.163 HD
BRANCH   4   7
ATOM      7  C   UNL     1       0.335  -1.078   0.104  1.00  0.00     0.293 C 
ATOM      8  C   UNL     1       2.328   0.363  -0.159  1.00  0.00     0.333 C 
ATOM      9  N   UNL     1       0.903   0.210  -0.393  1.00  0.00    -0.324 N 
ATOM     10  C   UNL     1       0.165   1.367   0.158  1.00  0.00     0.284 C 
ATOM     11  H   UNL     1       0.786   0.180  -1.406  1.00  0.00     0.348 HD
ATOM     12  C   UNL     1      -1.327   1.313  -0.195  1.00  0.00     0.181 C 
ATOM     13  C   UNL     1      -1.176  -1.155  -0.238  1.00  0.00     0.195 C 
ATOM     14  N   UNL     1      -1.935   0.036   0.167  1.00  0.00    -0.326 N 
BRANCH  14  15
ATOM     15  C   UNL     1      -3.219   0.051   0.700  1.00  0.00     0.257 C 
ATOM     16  O   UNL     1      -3.878   1.087   0.784  1.00  0.00    -0.269 OA
BRANCH  15  17
ATOM     17  C   UNL     1      -3.837  -1.220   1.022  1.00  0.00     0.081 A 
ATOM     18  C   UNL     1      -3.458  -2.245   1.921  1.00  0.00     0.149 A 
ATOM     19  C   UNL     1      -5.046  -1.653   0.513  1.00  0.00     0.051 A 
ATOM     20  N   UNL     1      -4.306  -3.284   1.907  1.00  0.00    -0.180 NA
ATOM     21  N   UNL     1      -5.288  -2.863   1.093  1.00  0.00    -0.269 N 
ATOM     22  C   UNL     1      -6.007  -1.008  -0.420  1.00  0.00     0.057 C 
ATOM     23  C   UNL     1      -6.443  -3.696   0.823  1.00  0.00     0.144 C 
ATOM     24  C   UNL     1      -7.010  -2.019  -0.977  1.00  0.00     0.008 C 
ATOM     25  C   UNL     1      -7.565  -2.907   0.141  1.00  0.00     0.024 C 
ENDBRANCH  15  17
ENDBRANCH  14  15
ENDBRANCH   4   7
ENDBRANCH   2   3
ENDBRANCH   1   2
BRANCH   1  26
ATOM     26  C   UNL     1       4.529  -2.136   3.058  1.00  0.00     0.118 C 
BRANCH  26  27
ATOM     27  N   UNL     1       4.859  -3.466   3.570  1.00  0.00    -0.352 N 
ATOM     28  C   UNL     1       5.455  -3.774   4.783  1.00  0.00     0.251 C 
ATOM     29  H   UNL     1       4.631  -4.227   2.988  1.00  0.00     0.163 HD
ATOM     30  O   UNL     1       5.986  -4.854   4.966  1.00  0.00    -0.269 OA
BRANCH  28  31
ATOM     31  C   UNL     1       5.422  -2.751   5.847  1.00  0.00     0.039 A 
ATOM     32  C   UNL     1       6.533  -2.493   6.655  1.00  0.00     0.014 A 
ATOM     33  C   UNL     1       4.249  -2.016   5.987  1.00  0.00     0.014 A 
ATOM     34  C   UNL     1       6.468  -1.436   7.561  1.00  0.00     0.010 A 
ATOM     35  C   UNL     1       4.255  -0.871   6.733  1.00  0.00     0.010 A 
ATOM     36  C   UNL     1       5.326  -0.624   7.583  1.00  0.00    -0.014 A 
BRANCH  36  37
ATOM     37  C   UNL     1       5.244   0.558   8.430  1.00  0.00     0.031 A 
ATOM     38  C   UNL     1       6.288   1.584   8.159  1.00  0.00     0.074 A 
ATOM     39  C   UNL     1       4.155   0.801   9.194  1.00  0.00     0.049 A 
ATOM     40  N   UNL     1       7.251   1.961   8.934  1.00  0.00    -0.248 NA
ATOM     41  C   UNL     1       6.366   2.148   6.801  1.00  0.00     0.031 C 
ATOM     42  C   UNL     1       2.903   0.028   9.251  1.00  0.00     0.029 A 
ATOM     43  N   UNL     1       3.861   1.889   9.954  1.00  0.00    -0.354 N 
ATOM     44  C   UNL     1       7.900   2.991   8.251  1.00  0.00     0.074 A 
ATOM     45  C   UNL     1       7.470   2.892   6.883  1.00  0.00     0.031 C 
ATOM     46  C   UNL     1       1.919   0.800   9.759  1.00  0.00     0.029 A 
ATOM     47  C   UNL     1       2.505   2.037  10.233  1.00  0.00     0.049 A 
ATOM     48  H   UNL     1       4.547   2.517  10.278  1.00  0.00     0.167 HD
ATOM     49  C   UNL     1       8.517   4.006   8.921  1.00  0.00     0.034 A 
ATOM     50  C   UNL     1       1.898   3.125  10.767  1.00  0.00     0.034 A 
ATOM     51  C   UNL     1       8.667   3.680  10.318  1.00  0.00     0.049 A 
ATOM     52  C   UNL     1       2.954   3.939  11.406  1.00  0.00     0.074 A 
ATOM     53  C   UNL     1       9.294   2.679  11.030  1.00  0.00     0.029 A 
ATOM     54  N   UNL     1       7.763   4.255  11.177  1.00  0.00    -0.354 N 
ATOM     55  N   UNL     1       3.641   3.544  12.442  1.00  0.00    -0.248 NA
ATOM     56  C   UNL     1       3.558   5.003  10.620  1.00  0.00     0.031 C 
ATOM     57  C   UNL     1       8.410   2.397  12.113  1.00  0.00     0.029 A 
ATOM     58  C   UNL     1       7.337   3.289  12.045  1.00  0.00     0.049 A 
ATOM     59  H   UNL     1       7.473   5.196  11.169  1.00  0.00     0.167 HD
ATOM     60  C   UNL     1       4.936   3.964  12.173  1.00  0.00     0.074 A 
ATOM     61  C   UNL     1       4.801   4.954  11.105  1.00  0.00     0.031 C 
ATOM     62  C   UNL     1       6.012   3.256  12.626  1.00  0.00     0.034 A 
BRANCH  49  63
ATOM     63  C   UNL     1       8.632   5.445   8.452  1.00  0.00     0.023 A 
ATOM     64  C   UNL     1       9.368   6.327   9.280  1.00  0.00     0.012 A 
ATOM     65  C   UNL     1       7.850   6.039   7.436  1.00  0.00     0.148 A 
ATOM     66  C   UNL     1       9.263   7.718   9.161  1.00  0.00     0.002 A 
ATOM     67  C   UNL     1       7.807   7.421   7.272  1.00  0.00     0.091 A 
ATOM     68  F   UNL     1       7.032   5.295   6.691  1.00  0.00    -0.205 F 
ATOM     69  C   UNL     1       8.482   8.266   8.155  1.00  0.00     0.022 A 
BRANCH  67  70
ATOM     70  S   UNL     1       6.852   8.184   5.953  1.00  0.00     0.127 S 
ATOM     71  O   UNL     1       5.733   8.755   6.697  1.00  0.00    -0.237 OA
ATOM     72  O   UNL     1       7.805   9.158   5.420  1.00  0.00    -0.237 OA
ATOM     73  O   UNL     1       6.524   7.105   5.030  1.00  0.00    -0.744 OA
ENDBRANCH  67  70
ENDBRANCH  49  63
BRANCH  50  74
ATOM     74  C   UNL     1       0.527   3.641  10.559  1.00  0.00     0.023 A 
ATOM     75  C   UNL     1      -0.069   4.464  11.534  1.00  0.00     0.012 A 
ATOM     76  C   UNL     1      -0.088   3.555   9.290  1.00  0.00     0.148 A 
ATOM     77  C   UNL     1      -1.226   5.199  11.247  1.00  0.00     0.002 A 
ATOM     78  C   UNL     1      -1.239   4.285   9.010  1.00  0.00     0.091 A 
ATOM     79  F   UNL     1       0.509   2.827   8.336  1.00  0.00    -0.205 F 
ATOM     80  C   UNL     1      -1.806   5.117   9.984  1.00  0.00     0.022 A 
BRANCH  78  81
ATOM     81  S   UNL     1      -2.027   4.263   7.394  1.00  0.00     0.127 S 
ATOM     82  O   UNL     1      -3.409   3.934   7.742  1.00  0.00    -0.237 OA
ATOM     83  O   UNL     1      -1.819   5.636   6.941  1.00  0.00    -0.237 OA
ATOM     84  O   UNL     1      -1.332   3.236   6.630  1.00  0.00    -0.744 OA
ENDBRANCH  78  81
ENDBRANCH  50  74
BRANCH  62  85
ATOM     85  C   UNL     1       5.778   2.171  13.646  1.00  0.00     0.023 A 
ATOM     86  C   UNL     1       5.069   0.988  13.351  1.00  0.00     0.012 A 
ATOM     87  C   UNL     1       6.485   2.259  14.855  1.00  0.00     0.148 A 
ATOM     88  C   UNL     1       5.066  -0.084  14.249  1.00  0.00     0.002 A 
ATOM     89  C   UNL     1       6.526   1.173  15.718  1.00  0.00     0.091 A 
ATOM     90  F   UNL     1       7.151   3.394  15.116  1.00  0.00    -0.205 F 
ATOM     91  C   UNL     1       5.811   0.002  15.424  1.00  0.00     0.022 A 
BRANCH  89  92
ATOM     92  S   UNL     1       7.590   1.171  17.162  1.00  0.00     0.127 S 
ATOM     93  O   UNL     1       6.626   1.317  18.251  1.00  0.00    -0.237 OA
ATOM     94  O   UNL     1       8.227  -0.144  17.080  1.00  0.00    -0.237 OA
ATOM     95  O   UNL     1       8.510   2.288  16.986  1.00  0.00    -0.744 OA
ENDBRANCH  89  92
ENDBRANCH  62  85
ENDBRANCH  36  37
ENDBRANCH  28  31
ENDBRANCH  26  27
ENDBRANCH   1  26
TORSDOF 15
