REMARK SMILES CC(C)C[C@H](NC(=O)[C@H]1CCCCC[C@H]1[NH3+])C(=O)NCCCNC(=O)c1ccc(-c2c3nc(c(-c4cccc(S(=O)(=O)[O-])c4F)c4ccc([nH]4)c(-c4cccc(S(=O)(=O)[O-])c4F)c4nc(c(-c5cccc(S(=O)(=O)[O-])c5F)c5ccc2[nH]5)C=C4)C=C3)cc1
REMARK SMILES IDX 20 1 19 2 17 3 18 4 5 6 4 7 2 8 1 9 3 10 6 11 7 12 8 14 9 15
REMARK SMILES IDX 10 16 11 17 12 18 15 20 14 21 13 22 16 24 21 28 22 29 23 30
REMARK SMILES IDX 24 31 25 33 26 34 27 35 88 36 28 37 87 38 29 39 30 40 31 41
REMARK SMILES IDX 81 42 32 43 86 44 80 45 82 46 33 47 85 48 79 49 78 50 34 52
REMARK SMILES IDX 66 53 46 54 65 55 47 56 50 57 64 58 83 59 48 60 49 61 63 63
REMARK SMILES IDX 84 64 51 65 35 66 36 67 44 68 37 69 39 70 45 71 38 72 40 73
REMARK SMILES IDX 41 74 42 75 43 76 67 77 68 78 76 79 69 80 71 81 77 82 70 83
REMARK SMILES IDX 72 84 73 85 74 86 75 87 52 88 53 89 61 90 54 91 56 92 62 93
REMARK SMILES IDX 55 94 57 95 58 96 59 97 60 98
REMARK H PARENT 19 5 6 13 16 25 16 26 16 27 23 32 82 51 50 62
REMARK Flexibility Score: 90.00
ROOT
ATOM      1  C   UNL     1      -1.858  -4.788   2.310  1.00  0.00     0.117 C 
ENDROOT
BRANCH   1   2
ATOM      2  N   UNL     1      -2.882  -4.556   1.327  1.00  0.00    -0.354 N 
ATOM      3  C   UNL     1      -4.233  -4.687   1.527  1.00  0.00     0.242 C 
ATOM      4  O   UNL     1      -4.979  -3.966   0.857  1.00  0.00    -0.273 OA
ATOM      5  H   UNL     1      -2.587  -4.279   0.430  1.00  0.00     0.163 HD
BRANCH   3   6
ATOM      6  C   UNL     1      -4.810  -5.589   2.666  1.00  0.00     0.171 C 
BRANCH   6   7
ATOM      7  C   UNL     1      -4.803  -4.705   3.955  1.00  0.00     0.038 C 
BRANCH   7   8
ATOM      8  C   UNL     1      -4.240  -5.140   5.340  1.00  0.00    -0.015 C 
ATOM      9  C   UNL     1      -2.753  -5.497   5.485  1.00  0.00     0.007 C 
ATOM     10  C   UNL     1      -4.463  -3.950   6.298  1.00  0.00     0.007 C 
ENDBRANCH   7   8
ENDBRANCH   6   7
BRANCH   6  11
ATOM     11  N   UNL     1      -4.185  -6.904   2.805  1.00  0.00    -0.344 N 
ATOM     12  C   UNL     1      -4.238  -8.114   2.203  1.00  0.00     0.229 C 
ATOM     13  H   UNL     1      -3.541  -6.910   3.549  1.00  0.00     0.164 HD
ATOM     14  O   UNL     1      -3.463  -8.927   2.732  1.00  0.00    -0.275 OA
BRANCH  12  15
ATOM     15  C   UNL     1      -5.171  -8.588   1.055  1.00  0.00     0.136 C 
BRANCH  15  16
ATOM     16  C   UNL     1      -5.699  -7.560   0.050  1.00  0.00     0.020 C 
BRANCH  16  17
ATOM     17  C   UNL     1      -4.616  -6.737  -0.624  1.00  0.00     0.001 C 
BRANCH  17  18
ATOM     18  C   UNL     1      -3.899  -7.279  -1.842  1.00  0.00     0.000 CG0
ATOM     19  G   UNL     1      -3.538  -8.754  -1.854  1.00  0.00     0.000 G0
ENDBRANCH  17  18
ENDBRANCH  16  17
ENDBRANCH  15  16
BRANCH  15  20
ATOM     20  C   UNL     1      -4.540  -9.785   0.263  1.00  0.00     0.193 C 
BRANCH  20  21
ATOM     21  C   UNL     1      -3.250  -9.408  -0.501  1.00  0.00     0.066 C 
BRANCH  21  22
ATOM     22  C   UNL     1      -3.538  -8.754  -1.854  1.00  0.00     0.006 CG0
ATOM     23  G   UNL     1      -3.899  -7.279  -1.842  1.00  0.00     0.000 G0
ENDBRANCH  21  22
ENDBRANCH  20  21
BRANCH  20  24
ATOM     24  N   UNL     1      -4.312 -10.959   1.119  1.00  0.00    -0.354 N 
ATOM     25  H   UNL     1      -3.619 -10.730   1.832  1.00  0.00     0.344 HD
ATOM     26  H   UNL     1      -3.973 -11.734   0.551  1.00  0.00     0.344 HD
ATOM     27  H   UNL     1      -5.188 -11.225   1.571  1.00  0.00     0.344 HD
ENDBRANCH  20  24
ENDBRANCH  15  20
ENDBRANCH  12  15
ENDBRANCH   6  11
ENDBRANCH   3   6
ENDBRANCH   1   2
BRANCH   1  28
ATOM     28  C   UNL     1      -0.858  -5.884   2.005  1.00  0.00     0.042 C 
BRANCH  28  29
ATOM     29  C   UNL     1       0.191  -5.510   0.971  1.00  0.00     0.118 C 
BRANCH  29  30
ATOM     30  N   UNL     1       0.853  -4.241   1.260  1.00  0.00    -0.352 N 
ATOM     31  C   UNL     1       2.162  -3.941   1.529  1.00  0.00     0.251 C 
ATOM     32  H   UNL     1       0.251  -3.462   1.262  1.00  0.00     0.163 HD
ATOM     33  O   UNL     1       2.436  -2.811   1.944  1.00  0.00    -0.269 OA
BRANCH  31  34
ATOM     34  C   UNL     1       3.237  -4.935   1.333  1.00  0.00     0.039 A 
ATOM     35  C   UNL     1       4.342  -4.915   2.189  1.00  0.00     0.014 A 
ATOM     36  C   UNL     1       3.187  -5.860   0.289  1.00  0.00     0.014 A 
ATOM     37  C   UNL     1       5.360  -5.857   2.029  1.00  0.00     0.010 A 
ATOM     38  C   UNL     1       4.140  -6.869   0.205  1.00  0.00     0.010 A 
ATOM     39  C   UNL     1       5.248  -6.867   1.058  1.00  0.00    -0.014 A 
BRANCH  39  40
ATOM     40  C   UNL     1       6.281  -7.926   0.935  1.00  0.00     0.031 A 
ATOM     41  C   UNL     1       7.048  -8.106  -0.349  1.00  0.00     0.074 A 
ATOM     42  C   UNL     1       6.481  -8.770   1.966  1.00  0.00     0.049 A 
ATOM     43  N   UNL     1       7.995  -8.965  -0.628  1.00  0.00    -0.248 NA
ATOM     44  C   UNL     1       6.688  -7.233  -1.479  1.00  0.00     0.031 C 
ATOM     45  C   UNL     1       5.725  -8.764   3.222  1.00  0.00     0.029 A 
ATOM     46  N   UNL     1       7.370  -9.803   2.121  1.00  0.00    -0.354 N 
ATOM     47  C   UNL     1       8.317  -8.759  -1.964  1.00  0.00     0.074 A 
ATOM     48  C   UNL     1       7.434  -7.726  -2.457  1.00  0.00     0.031 C 
ATOM     49  C   UNL     1       6.202  -9.725   4.028  1.00  0.00     0.029 A 
ATOM     50  C   UNL     1       7.273 -10.435   3.339  1.00  0.00     0.049 A 
ATOM     51  H   UNL     1       8.015 -10.067   1.427  1.00  0.00     0.167 HD
ATOM     52  C   UNL     1       9.284  -9.349  -2.707  1.00  0.00     0.034 A 
ATOM     53  C   UNL     1       7.973 -11.468   3.845  1.00  0.00     0.034 A 
ATOM     54  C   UNL     1      10.183 -10.350  -2.199  1.00  0.00     0.049 A 
ATOM     55  C   UNL     1       9.084 -12.060   3.024  1.00  0.00     0.074 A 
ATOM     56  C   UNL     1      11.253 -10.951  -2.838  1.00  0.00     0.029 A 
ATOM     57  N   UNL     1      10.112 -10.906  -0.931  1.00  0.00    -0.354 N 
ATOM     58  N   UNL     1       9.483 -11.736   1.818  1.00  0.00    -0.248 NA
ATOM     59  C   UNL     1       9.870 -13.130   3.651  1.00  0.00     0.031 C 
ATOM     60  C   UNL     1      11.810 -11.893  -1.966  1.00  0.00     0.029 A 
ATOM     61  C   UNL     1      11.113 -11.849  -0.769  1.00  0.00     0.049 A 
ATOM     62  H   UNL     1       9.447 -10.666  -0.246  1.00  0.00     0.167 HD
ATOM     63  C   UNL     1      10.589 -12.535   1.556  1.00  0.00     0.074 A 
ATOM     64  C   UNL     1      10.812 -13.337   2.742  1.00  0.00     0.031 C 
ATOM     65  C   UNL     1      11.345 -12.610   0.432  1.00  0.00     0.034 A 
BRANCH  52  66
ATOM     66  C   UNL     1       9.451  -8.891  -4.134  1.00  0.00     0.023 A 
ATOM     67  C   UNL     1       9.945  -7.597  -4.400  1.00  0.00     0.012 A 
ATOM     68  C   UNL     1       9.171  -9.755  -5.211  1.00  0.00     0.148 A 
ATOM     69  C   UNL     1      10.121  -7.156  -5.712  1.00  0.00     0.002 A 
ATOM     70  C   UNL     1       9.397  -9.327  -6.514  1.00  0.00     0.091 A 
ATOM     71  F   UNL     1       8.682 -10.974  -4.942  1.00  0.00    -0.205 F 
ATOM     72  C   UNL     1       9.858  -8.024  -6.767  1.00  0.00     0.022 A 
BRANCH  70  73
ATOM     73  S   UNL     1       9.171 -10.396  -7.940  1.00  0.00     0.127 S 
ATOM     74  O   UNL     1       8.009  -9.784  -8.585  1.00  0.00    -0.237 OA
ATOM     75  O   UNL     1      10.432 -10.216  -8.661  1.00  0.00    -0.237 OA
ATOM     76  O   UNL     1       8.957 -11.735  -7.411  1.00  0.00    -0.744 OA
ENDBRANCH  70  73
ENDBRANCH  52  66
BRANCH  53  77
ATOM     77  C   UNL     1       7.694 -11.951   5.226  1.00  0.00     0.023 A 
ATOM     78  C   UNL     1       8.641 -11.731   6.245  1.00  0.00     0.012 A 
ATOM     79  C   UNL     1       6.485 -12.602   5.541  1.00  0.00     0.148 A 
ATOM     80  C   UNL     1       8.408 -12.184   7.544  1.00  0.00     0.002 A 
ATOM     81  C   UNL     1       6.233 -12.997   6.849  1.00  0.00     0.091 A 
ATOM     82  F   UNL     1       5.600 -12.807   4.556  1.00  0.00    -0.205 F 
ATOM     83  C   UNL     1       7.201 -12.808   7.848  1.00  0.00     0.022 A 
BRANCH  81  84
ATOM     84  S   UNL     1       4.654 -13.683   7.359  1.00  0.00     0.127 S 
ATOM     85  O   UNL     1       5.009 -15.071   7.643  1.00  0.00    -0.237 OA
ATOM     86  O   UNL     1       4.342 -12.873   8.538  1.00  0.00    -0.237 OA
ATOM     87  O   UNL     1       3.754 -13.476   6.234  1.00  0.00    -0.744 OA
ENDBRANCH  81  84
ENDBRANCH  53  77
BRANCH  65  88
ATOM     88  C   UNL     1      12.512 -13.563   0.449  1.00  0.00     0.023 A 
ATOM     89  C   UNL     1      12.289 -14.955   0.456  1.00  0.00     0.012 A 
ATOM     90  C   UNL     1      13.834 -13.076   0.424  1.00  0.00     0.148 A 
ATOM     91  C   UNL     1      13.362 -15.844   0.495  1.00  0.00     0.002 A 
ATOM     92  C   UNL     1      14.897 -13.969   0.405  1.00  0.00     0.091 A 
ATOM     93  F   UNL     1      14.028 -11.749   0.435  1.00  0.00    -0.205 F 
ATOM     94  C   UNL     1      14.665 -15.352   0.460  1.00  0.00     0.022 A 
BRANCH  92  95
ATOM     95  S   UNL     1      16.602 -13.424   0.257  1.00  0.00     0.127 S 
ATOM     96  O   UNL     1      17.095 -13.611   1.620  1.00  0.00    -0.237 OA
ATOM     97  O   UNL     1      17.145 -14.364  -0.724  1.00  0.00    -0.237 OA
ATOM     98  O   UNL     1      16.540 -12.043  -0.205  1.00  0.00    -0.744 OA
ENDBRANCH  92  95
ENDBRANCH  65  88
ENDBRANCH  39  40
ENDBRANCH  31  34
ENDBRANCH  29  30
ENDBRANCH  28  29
ENDBRANCH   1  28
TORSDOF 18
