REMARK SMILES C[C@@H](CC(=O)NCCCNC(=O)c1ccc(-c2c3nc(c(-c4cccc(S(=O)(=O)[O-])c4F)c4ccc([nH]4)c(-c4cccc(S(=O)(=O)[O-])c4F)c4nc(c(-c5cccc(S(=O)(=O)[O-])c5F)c5ccc2[nH]5)C=C4)C=C3)cc1)NC(=O)/C=C/c1cccnc1
REMARK SMILES IDX 7 1 6 2 4 3 5 4 3 6 2 7 1 8 76 9 77 10 78 12 79 13 80 14
REMARK SMILES IDX 81 15 82 16 86 17 83 18 85 19 84 20 8 21 9 22 10 23 11 24
REMARK SMILES IDX 12 26 13 27 14 28 75 29 15 30 74 31 16 32 17 33 18 34 68 35
REMARK SMILES IDX 19 36 73 37 67 38 69 39 20 40 72 41 66 42 65 43 21 45 53 46
REMARK SMILES IDX 33 47 52 48 34 49 37 50 51 51 70 52 35 53 36 54 50 56 71 57
REMARK SMILES IDX 38 58 22 59 23 60 31 61 24 62 26 63 32 64 25 65 27 66 28 67
REMARK SMILES IDX 29 68 30 69 54 70 55 71 63 72 56 73 58 74 64 75 57 76 59 77
REMARK SMILES IDX 60 78 61 79 62 80 39 81 40 82 48 83 41 84 43 85 49 86 42 87
REMARK SMILES IDX 44 88 45 89 46 90 47 91
REMARK H PARENT 6 5 76 11 10 25 69 44 37 55
REMARK Flexibility Score: inf
ROOT
ATOM      1  C   UNL     1       1.938   2.348  -1.096  1.00  0.00     0.117 C 
ENDROOT
BRANCH   1   2
ATOM      2  N   UNL     1       0.866   3.009  -0.368  1.00  0.00    -0.356 N 
ATOM      3  C   UNL     1       0.316   2.742   0.847  1.00  0.00     0.222 C 
ATOM      4  O   UNL     1      -0.687   3.376   1.180  1.00  0.00    -0.275 OA
ATOM      5  H   UNL     1       0.471   3.780  -0.835  1.00  0.00     0.163 HD
BRANCH   3   6
ATOM      6  C   UNL     1       0.952   1.749   1.790  1.00  0.00     0.124 C 
BRANCH   6   7
ATOM      7  C   UNL     1       0.455   0.299   1.725  1.00  0.00     0.088 C 
ATOM      8  C   UNL     1       0.754  -0.392   0.402  1.00  0.00     0.031 C 
BRANCH   7   9
ATOM      9  N   UNL     1      -0.966   0.137   2.017  1.00  0.00    -0.350 N 
ATOM     10  C   UNL     1      -1.633  -0.883   2.634  1.00  0.00     0.244 C 
ATOM     11  H   UNL     1      -1.535   0.883   1.722  1.00  0.00     0.164 HD
ATOM     12  O   UNL     1      -2.862  -0.879   2.651  1.00  0.00    -0.270 OA
BRANCH  10  13
ATOM     13  C   UNL     1      -0.908  -1.919   3.419  1.00  0.00     0.072 C 
ATOM     14  C   UNL     1       0.244  -2.506   3.075  1.00  0.00     0.015 C 
BRANCH  14  15
ATOM     15  C   UNL     1       1.027  -3.404   3.911  1.00  0.00    -0.007 A 
ATOM     16  C   UNL     1       0.798  -4.774   3.928  1.00  0.00     0.011 A 
ATOM     17  C   UNL     1       2.140  -2.915   4.594  1.00  0.00     0.119 A 
ATOM     18  C   UNL     1       1.695  -5.600   4.600  1.00  0.00     0.021 A 
ATOM     19  N   UNL     1       3.023  -3.691   5.263  1.00  0.00    -0.264 NA
ATOM     20  C   UNL     1       2.783  -5.019   5.237  1.00  0.00     0.111 A 
ENDBRANCH  14  15
ENDBRANCH  10  13
ENDBRANCH   7   9
ENDBRANCH   6   7
ENDBRANCH   3   6
ENDBRANCH   1   2
BRANCH   1  21
ATOM     21  C   UNL     1       1.397   1.560  -2.285  1.00  0.00     0.042 C 
BRANCH  21  22
ATOM     22  C   UNL     1       0.820   2.434  -3.382  1.00  0.00     0.118 C 
BRANCH  22  23
ATOM     23  N   UNL     1       1.859   3.022  -4.205  1.00  0.00    -0.352 N 
ATOM     24  C   UNL     1       2.142   2.783  -5.530  1.00  0.00     0.251 C 
ATOM     25  H   UNL     1       2.438   3.680  -3.756  1.00  0.00     0.163 HD
ATOM     26  O   UNL     1       3.201   3.176  -6.005  1.00  0.00    -0.269 OA
BRANCH  24  27
ATOM     27  C   UNL     1       1.175   2.032  -6.365  1.00  0.00     0.039 A 
ATOM     28  C   UNL     1       1.651   1.072  -7.262  1.00  0.00     0.014 A 
ATOM     29  C   UNL     1      -0.198   2.273  -6.264  1.00  0.00     0.014 A 
ATOM     30  C   UNL     1       0.746   0.324  -8.020  1.00  0.00     0.010 A 
ATOM     31  C   UNL     1      -1.097   1.455  -6.937  1.00  0.00     0.010 A 
ATOM     32  C   UNL     1      -0.637   0.490  -7.845  1.00  0.00    -0.014 A 
BRANCH  32  33
ATOM     33  C   UNL     1      -1.630  -0.289  -8.631  1.00  0.00     0.031 A 
ATOM     34  C   UNL     1      -2.605   0.440  -9.522  1.00  0.00     0.074 A 
ATOM     35  C   UNL     1      -1.712  -1.627  -8.489  1.00  0.00     0.049 A 
ATOM     36  N   UNL     1      -3.622  -0.030 -10.194  1.00  0.00    -0.248 NA
ATOM     37  C   UNL     1      -2.430   1.899  -9.648  1.00  0.00     0.031 C 
ATOM     38  C   UNL     1      -0.864  -2.443  -7.618  1.00  0.00     0.029 A 
ATOM     39  N   UNL     1      -2.574  -2.535  -9.054  1.00  0.00    -0.354 N 
ATOM     40  C   UNL     1      -4.225   1.071 -10.791  1.00  0.00     0.074 A 
ATOM     41  C   UNL     1      -3.492   2.241 -10.362  1.00  0.00     0.031 C 
ATOM     42  C   UNL     1      -1.244  -3.728  -7.709  1.00  0.00     0.029 A 
ATOM     43  C   UNL     1      -2.389  -3.824  -8.609  1.00  0.00     0.049 A 
ATOM     44  H   UNL     1      -3.260  -2.287  -9.715  1.00  0.00     0.167 HD
ATOM     45  C   UNL     1      -5.270   1.108 -11.652  1.00  0.00     0.034 A 
ATOM     46  C   UNL     1      -3.076  -4.951  -8.883  1.00  0.00     0.034 A 
ATOM     47  C   UNL     1      -5.970  -0.059 -12.110  1.00  0.00     0.049 A 
ATOM     48  C   UNL     1      -4.236  -4.881  -9.844  1.00  0.00     0.074 A 
ATOM     49  C   UNL     1      -7.009  -0.137 -13.019  1.00  0.00     0.029 A 
ATOM     50  N   UNL     1      -5.699  -1.354 -11.696  1.00  0.00    -0.354 N 
ATOM     51  N   UNL     1      -4.713  -3.845 -10.490  1.00  0.00    -0.248 NA
ATOM     52  C   UNL     1      -4.931  -6.143 -10.140  1.00  0.00     0.031 C 
ATOM     53  C   UNL     1      -7.381  -1.479 -13.140  1.00  0.00     0.029 A 
ATOM     54  C   UNL     1      -6.549  -2.239 -12.334  1.00  0.00     0.049 A 
ATOM     55  H   UNL     1      -5.005  -1.607 -11.045  1.00  0.00     0.167 HD
ATOM     56  C   UNL     1      -5.725  -4.338 -11.306  1.00  0.00     0.074 A 
ATOM     57  C   UNL     1      -5.785  -5.767 -11.082  1.00  0.00     0.031 C 
ATOM     58  C   UNL     1      -6.541  -3.668 -12.155  1.00  0.00     0.034 A 
BRANCH  45  59
ATOM     59  C   UNL     1      -5.678   2.450 -12.204  1.00  0.00     0.023 A 
ATOM     60  C   UNL     1      -4.830   3.108 -13.119  1.00  0.00     0.012 A 
ATOM     61  C   UNL     1      -6.917   3.030 -11.871  1.00  0.00     0.148 A 
ATOM     62  C   UNL     1      -5.191   4.338 -13.666  1.00  0.00     0.002 A 
ATOM     63  C   UNL     1      -7.292   4.233 -12.459  1.00  0.00     0.091 A 
ATOM     64  F   UNL     1      -7.702   2.398 -10.988  1.00  0.00    -0.205 F 
ATOM     65  C   UNL     1      -6.425   4.894 -13.345  1.00  0.00     0.022 A 
BRANCH  63  66
ATOM     66  S   UNL     1      -8.893   4.996 -12.177  1.00  0.00     0.127 S 
ATOM     67  O   UNL     1      -8.518   6.209 -11.450  1.00  0.00    -0.237 OA
ATOM     68  O   UNL     1      -9.366   5.226 -13.542  1.00  0.00    -0.237 OA
ATOM     69  O   UNL     1      -9.672   4.031 -11.414  1.00  0.00    -0.744 OA
ENDBRANCH  63  66
ENDBRANCH  45  59
BRANCH  46  70
ATOM     70  C   UNL     1      -2.666  -6.255  -8.286  1.00  0.00     0.023 A 
ATOM     71  C   UNL     1      -2.157  -7.270  -9.121  1.00  0.00     0.012 A 
ATOM     72  C   UNL     1      -2.792  -6.506  -6.906  1.00  0.00     0.148 A 
ATOM     73  C   UNL     1      -1.832  -8.525  -8.604  1.00  0.00     0.002 A 
ATOM     74  C   UNL     1      -2.410  -7.738  -6.387  1.00  0.00     0.091 A 
ATOM     75  F   UNL     1      -3.286  -5.534  -6.125  1.00  0.00    -0.205 F 
ATOM     76  C   UNL     1      -1.952  -8.757  -7.237  1.00  0.00     0.022 A 
BRANCH  74  77
ATOM     77  S   UNL     1      -2.407  -8.080  -4.623  1.00  0.00     0.127 S 
ATOM     78  O   UNL     1      -3.545  -8.986  -4.492  1.00  0.00    -0.237 OA
ATOM     79  O   UNL     1      -1.097  -8.704  -4.437  1.00  0.00    -0.237 OA
ATOM     80  O   UNL     1      -2.548  -6.783  -3.974  1.00  0.00    -0.744 OA
ENDBRANCH  74  77
ENDBRANCH  46  70
BRANCH  58  81
ATOM     81  C   UNL     1      -7.521  -4.469 -12.972  1.00  0.00     0.023 A 
ATOM     82  C   UNL     1      -8.656  -5.036 -12.361  1.00  0.00     0.012 A 
ATOM     83  C   UNL     1      -7.357  -4.576 -14.367  1.00  0.00     0.148 A 
ATOM     84  C   UNL     1      -9.599  -5.723 -13.124  1.00  0.00     0.002 A 
ATOM     85  C   UNL     1      -8.328  -5.214 -15.128  1.00  0.00     0.091 A 
ATOM     86  F   UNL     1      -6.260  -4.042 -14.925  1.00  0.00    -0.205 F 
ATOM     87  C   UNL     1      -9.443  -5.800 -14.507  1.00  0.00     0.022 A 
BRANCH  85  88
ATOM     88  S   UNL     1      -8.264  -5.274 -16.922  1.00  0.00     0.127 S 
ATOM     89  O   UNL     1      -8.021  -6.695 -17.163  1.00  0.00    -0.237 OA
ATOM     90  O   UNL     1      -9.602  -4.812 -17.292  1.00  0.00    -0.237 OA
ATOM     91  O   UNL     1      -7.182  -4.383 -17.318  1.00  0.00    -0.744 OA
ENDBRANCH  85  88
ENDBRANCH  58  81
ENDBRANCH  32  33
ENDBRANCH  24  27
ENDBRANCH  22  23
ENDBRANCH  21  22
ENDBRANCH   1  21
TORSDOF 17
