REMARK SMILES O=C(NCCCNC(=O)[C@@]1([C@@H]2CCC[C@@H]2O)CCCc2ccccc21)c1ccc(-c2c3nc(c(-c4cccc(S(=O)(=O)[O-])c4F)c4ccc([nH]4)c(-c4cccc(S(=O)(=O)[O-])c4F)c4nc(c(-c5cccc(S(=O)(=O)[O-])c5F)c5ccc2[nH]5)C=C4)C=C3)cc1
REMARK SMILES IDX 4 1 3 2 1 3 2 4 26 6 27 7 88 8 28 9 87 10 29 11 30 12 31 13
REMARK SMILES IDX 81 14 32 15 86 16 80 17 82 18 33 19 85 20 79 21 78 22 34 24
REMARK SMILES IDX 66 25 46 26 65 27 47 28 50 29 64 30 83 31 48 32 49 33 63 35
REMARK SMILES IDX 84 36 51 37 35 38 36 39 44 40 37 41 39 42 45 43 38 44 40 45
REMARK SMILES IDX 41 46 42 47 43 48 67 49 68 50 76 51 69 52 71 53 77 54 70 55
REMARK SMILES IDX 72 56 73 57 74 58 75 59 52 60 53 61 61 62 54 63 56 64 62 65
REMARK SMILES IDX 55 66 57 67 58 68 59 69 60 70 5 71 6 72 7 73 8 74 9 76 10 77
REMARK SMILES IDX 17 78 25 79 18 80 20 81 24 82 19 83 21 84 23 85 22 86 11 87
REMARK SMILES IDX 12 88 15 89 13 90 14 91 16 92
REMARK H PARENT 3 5 82 23 50 34 7 75 16 93
REMARK Flexibility Score: inf
ROOT
ATOM      1  C   UNL     1       7.583   7.909  -4.128  1.00  0.00     0.118 C 
ENDROOT
BRANCH   1   2
ATOM      2  N   UNL     1       8.069   7.549  -5.447  1.00  0.00    -0.352 N 
ATOM      3  O   UNL     1       8.536   7.926  -7.609  1.00  0.00    -0.269 OA
ATOM      4  C   UNL     1       8.489   8.372  -6.464  1.00  0.00     0.251 C 
ATOM      5  H   UNL     1       8.104   6.584  -5.638  1.00  0.00     0.163 HD
BRANCH   4   6
ATOM      6  C   UNL     1       8.871   9.780  -6.194  1.00  0.00     0.039 A 
ATOM      7  C   UNL     1       9.596  10.124  -5.050  1.00  0.00     0.014 A 
ATOM      8  C   UNL     1       8.580  10.764  -7.145  1.00  0.00     0.014 A 
ATOM      9  C   UNL     1       9.932  11.452  -4.803  1.00  0.00     0.010 A 
ATOM     10  C   UNL     1       9.009  12.082  -6.946  1.00  0.00     0.010 A 
ATOM     11  C   UNL     1       9.688  12.439  -5.771  1.00  0.00    -0.014 A 
BRANCH  11  12
ATOM     12  C   UNL     1      10.296  13.785  -5.600  1.00  0.00     0.031 A 
ATOM     13  C   UNL     1       9.460  15.029  -5.492  1.00  0.00     0.074 A 
ATOM     14  C   UNL     1      11.643  13.872  -5.569  1.00  0.00     0.049 A 
ATOM     15  N   UNL     1       9.854  16.267  -5.330  1.00  0.00    -0.248 NA
ATOM     16  C   UNL     1       8.000  14.874  -5.587  1.00  0.00     0.031 C 
ATOM     17  C   UNL     1      12.562  12.740  -5.732  1.00  0.00     0.029 A 
ATOM     18  N   UNL     1      12.477  14.947  -5.397  1.00  0.00    -0.354 N 
ATOM     19  C   UNL     1       8.702  17.043  -5.344  1.00  0.00     0.074 A 
ATOM     20  C   UNL     1       7.589  16.136  -5.530  1.00  0.00     0.031 C 
ATOM     21  C   UNL     1      13.825  13.174  -5.624  1.00  0.00     0.029 A 
ATOM     22  C   UNL     1      13.813  14.620  -5.444  1.00  0.00     0.049 A 
ATOM     23  H   UNL     1      12.151  15.865  -5.255  1.00  0.00     0.167 HD
ATOM     24  C   UNL     1       8.586  18.386  -5.204  1.00  0.00     0.034 A 
ATOM     25  C   UNL     1      14.912  15.394  -5.372  1.00  0.00     0.034 A 
ATOM     26  C   UNL     1       9.695  19.276  -4.977  1.00  0.00     0.049 A 
ATOM     27  C   UNL     1      14.744  16.872  -5.178  1.00  0.00     0.074 A 
ATOM     28  C   UNL     1       9.666  20.640  -4.738  1.00  0.00     0.029 A 
ATOM     29  N   UNL     1      11.029  18.900  -4.972  1.00  0.00    -0.354 N 
ATOM     30  N   UNL     1      13.639  17.563  -5.040  1.00  0.00    -0.248 NA
ATOM     31  C   UNL     1      15.971  17.675  -5.104  1.00  0.00     0.031 C 
ATOM     32  C   UNL     1      10.983  21.092  -4.609  1.00  0.00     0.029 A 
ATOM     33  C   UNL     1      11.833  20.007  -4.749  1.00  0.00     0.049 A 
ATOM     34  H   UNL     1      11.358  17.982  -5.107  1.00  0.00     0.167 HD
ATOM     35  C   UNL     1      14.037  18.879  -4.846  1.00  0.00     0.074 A 
ATOM     36  C   UNL     1      15.486  18.882  -4.847  1.00  0.00     0.031 C 
ATOM     37  C   UNL     1      13.272  19.988  -4.705  1.00  0.00     0.034 A 
BRANCH  24  38
ATOM     38  C   UNL     1       7.207  18.991  -5.243  1.00  0.00     0.023 A 
ATOM     39  C   UNL     1       6.362  18.865  -4.123  1.00  0.00     0.012 A 
ATOM     40  C   UNL     1       6.793  19.777  -6.338  1.00  0.00     0.148 A 
ATOM     41  C   UNL     1       5.121  19.500  -4.095  1.00  0.00     0.002 A 
ATOM     42  C   UNL     1       5.570  20.436  -6.288  1.00  0.00     0.091 A 
ATOM     43  F   UNL     1       7.605  19.871  -7.400  1.00  0.00    -0.205 F 
ATOM     44  C   UNL     1       4.730  20.294  -5.171  1.00  0.00     0.022 A 
BRANCH  42  45
ATOM     45  S   UNL     1       5.005  21.542  -7.588  1.00  0.00     0.127 S 
ATOM     46  O   UNL     1       3.888  20.787  -8.151  1.00  0.00    -0.237 OA
ATOM     47  O   UNL     1       4.617  22.733  -6.832  1.00  0.00    -0.237 OA
ATOM     48  O   UNL     1       6.142  21.729  -8.479  1.00  0.00    -0.744 OA
ENDBRANCH  42  45
ENDBRANCH  24  38
BRANCH  25  49
ATOM     49  C   UNL     1      16.264  14.773  -5.450  1.00  0.00     0.023 A 
ATOM     50  C   UNL     1      17.091  14.762  -4.311  1.00  0.00     0.012 A 
ATOM     51  C   UNL     1      16.720  14.161  -6.634  1.00  0.00     0.148 A 
ATOM     52  C   UNL     1      18.358  14.178  -4.357  1.00  0.00     0.002 A 
ATOM     53  C   UNL     1      17.956  13.527  -6.655  1.00  0.00     0.091 A 
ATOM     54  F   UNL     1      15.931  14.199  -7.717  1.00  0.00    -0.205 F 
ATOM     55  C   UNL     1      18.785  13.549  -5.524  1.00  0.00     0.022 A 
BRANCH  53  56
ATOM     56  S   UNL     1      18.500  12.569  -8.074  1.00  0.00     0.127 S 
ATOM     57  O   UNL     1      19.392  13.508  -8.747  1.00  0.00    -0.237 OA
ATOM     58  O   UNL     1      19.168  11.430  -7.442  1.00  0.00    -0.237 OA
ATOM     59  O   UNL     1      17.278  12.218  -8.787  1.00  0.00    -0.744 OA
ENDBRANCH  53  56
ENDBRANCH  25  49
BRANCH  37  60
ATOM     60  C   UNL     1      13.987  21.300  -4.525  1.00  0.00     0.023 A 
ATOM     61  C   UNL     1      14.637  21.893  -5.625  1.00  0.00     0.012 A 
ATOM     62  C   UNL     1      13.969  21.970  -3.286  1.00  0.00     0.148 A 
ATOM     63  C   UNL     1      15.287  23.119  -5.487  1.00  0.00     0.002 A 
ATOM     64  C   UNL     1      14.580  23.213  -3.168  1.00  0.00     0.091 A 
ATOM     65  F   UNL     1      13.364  21.378  -2.246  1.00  0.00    -0.205 F 
ATOM     66  C   UNL     1      15.248  23.783  -4.264  1.00  0.00     0.022 A 
BRANCH  64  67
ATOM     67  S   UNL     1      14.501  24.178  -1.655  1.00  0.00     0.127 S 
ATOM     68  O   UNL     1      15.853  24.008  -1.123  1.00  0.00    -0.237 OA
ATOM     69  O   UNL     1      14.210  25.523  -2.158  1.00  0.00    -0.237 OA
ATOM     70  O   UNL     1      13.435  23.589  -0.861  1.00  0.00    -0.744 OA
ENDBRANCH  64  67
ENDBRANCH  37  60
ENDBRANCH  11  12
ENDBRANCH   4   6
ENDBRANCH   1   2
BRANCH   1  71
ATOM     71  C   UNL     1       6.064   8.010  -4.115  1.00  0.00     0.042 C 
BRANCH  71  72
ATOM     72  C   UNL     1       5.360   6.724  -3.676  1.00  0.00     0.117 C 
BRANCH  72  73
ATOM     73  N   UNL     1       5.823   6.211  -2.390  1.00  0.00    -0.355 N 
ATOM     74  C   UNL     1       5.333   5.965  -1.146  1.00  0.00     0.231 C 
ATOM     75  H   UNL     1       6.777   5.972  -2.438  1.00  0.00     0.163 HD
ATOM     76  O   UNL     1       6.190   5.452  -0.405  1.00  0.00    -0.274 OA
BRANCH  74  77
ATOM     77  C   UNL     1       3.890   6.322  -0.577  1.00  0.00     0.080 C 
ATOM     78  C   UNL     1       3.733   5.393   0.678  1.00  0.00     0.022 C 
ATOM     79  C   UNL     1       3.873   7.789  -0.060  1.00  0.00    -0.029 A 
ATOM     80  C   UNL     1       2.588   5.736   1.616  1.00  0.00     0.006 C 
ATOM     81  C   UNL     1       3.249   8.162   1.148  1.00  0.00    -0.044 A 
ATOM     82  C   UNL     1       4.492   8.810  -0.796  1.00  0.00     0.005 A 
ATOM     83  C   UNL     1       2.683   7.165   2.124  1.00  0.00     0.036 C 
ATOM     84  C   UNL     1       3.226   9.518   1.540  1.00  0.00     0.004 A 
ATOM     85  C   UNL     1       4.489  10.146  -0.393  1.00  0.00     0.000 A 
ATOM     86  C   UNL     1       3.838  10.505   0.773  1.00  0.00     0.000 A 
BRANCH  77  87
ATOM     87  C   UNL     1       2.757   6.107  -1.652  1.00  0.00     0.038 C 
ATOM     88  C   UNL     1       1.288   6.426  -1.292  1.00  0.00     0.008 C 
ATOM     89  C   UNL     1       2.642   4.713  -2.305  1.00  0.00     0.119 C 
ATOM     90  C   UNL     1       0.507   5.109  -1.288  1.00  0.00     0.003 C 
ATOM     91  C   UNL     1       1.518   4.013  -1.560  1.00  0.00     0.032 C 
BRANCH  89  92
ATOM     92  O   UNL     1       3.820   3.941  -2.269  1.00  0.00    -0.393 OA
ATOM     93  H   UNL     1       4.074   3.782  -1.346  1.00  0.00     0.210 HD
ENDBRANCH  89  92
ENDBRANCH  77  87
ENDBRANCH  74  77
ENDBRANCH  72  73
ENDBRANCH  71  72
ENDBRANCH   1  71
TORSDOF 15
