REMARK SMILES Cc1cccc(N2CCN(C(=O)[C@@H]3CC=CC[C@@H]3C(=O)NCCCNC(=O)c3ccc(-c4c5nc(c(-c6cccc(S(=O)(=O)[O-])c6F)c6ccc([nH]6)c(-c6cccc(S(=O)(=O)[O-])c6F)c6nc(c(-c7cccc(S(=O)(=O)[O-])c7F)c7ccc4[nH]7)C=C6)C=C5)cc3)CC2)c1C
REMARK SMILES IDX 23 1 22 2 21 3 19 4 20 5 18 7 13 8 14 9 15 10 17 11 16 12
REMARK SMILES IDX 11 13 7 14 8 15 92 16 9 17 91 18 10 19 12 20 6 21 1 22 2 23
REMARK SMILES IDX 3 24 93 25 4 26 94 27 5 28 24 29 25 30 26 31 27 33 28 34
REMARK SMILES IDX 29 35 90 36 30 37 89 38 31 39 32 40 33 41 83 42 34 43 88 44
REMARK SMILES IDX 82 45 84 46 35 47 87 48 81 49 80 50 36 52 68 53 48 54 67 55
REMARK SMILES IDX 49 56 52 57 66 58 85 59 50 60 51 61 65 63 86 64 53 65 37 66
REMARK SMILES IDX 38 67 46 68 39 69 41 70 47 71 40 72 42 73 43 74 44 75 45 76
REMARK SMILES IDX 69 77 70 78 78 79 71 80 73 81 79 82 72 83 74 84 75 85 76 86
REMARK SMILES IDX 77 87 54 88 55 89 63 90 56 91 58 92 64 93 57 94 59 95 60 96
REMARK SMILES IDX 61 97 62 98
REMARK H PARENT 21 6 25 32 84 51 52 62
REMARK Flexibility Score: inf
ROOT
ATOM      1  C   UNL     1      -2.203 -10.657   1.122  1.00  0.00     0.042 C 
ENDROOT
BRANCH   1   2
ATOM      2  C   UNL     1      -1.571 -10.007  -0.097  1.00  0.00     0.117 C 
BRANCH   2   3
ATOM      3  N   UNL     1      -2.496  -9.271  -0.932  1.00  0.00    -0.356 N 
ATOM      4  C   UNL     1      -2.348  -8.273  -1.833  1.00  0.00     0.224 C 
ATOM      5  O   UNL     1      -3.375  -7.997  -2.472  1.00  0.00    -0.275 OA
ATOM      6  H   UNL     1      -3.431  -9.558  -0.820  1.00  0.00     0.163 HD
BRANCH   4   7
ATOM      7  C   UNL     1      -1.045  -7.537  -2.198  1.00  0.00     0.095 C 
ATOM      8  C   UNL     1       0.262  -7.767  -1.446  1.00  0.00     0.095 C 
ATOM      9  C   UNL     1       0.253  -7.104  -0.022  1.00  0.00     0.041 C 
ATOM     10  C   UNL     1      -0.726  -5.975   0.163  1.00  0.00    -0.030 C 
ATOM     11  C   UNL     1      -1.354  -6.018  -2.223  1.00  0.00     0.041 C 
ATOM     12  C   UNL     1      -1.443  -5.457  -0.842  1.00  0.00    -0.030 C 
BRANCH   8  13
ATOM     13  C   UNL     1       0.976  -9.145  -1.468  1.00  0.00     0.226 C 
ATOM     14  N   UNL     1       0.111 -12.881  -2.990  1.00  0.00    -0.368 N 
ATOM     15  C   UNL     1       1.331 -12.503  -2.248  1.00  0.00     0.138 C 
ATOM     16  C   UNL     1      -0.817 -11.764  -3.325  1.00  0.00     0.138 C 
ATOM     17  C   UNL     1       1.890 -11.115  -2.591  1.00  0.00     0.141 C 
ATOM     18  C   UNL     1      -0.194 -10.348  -3.457  1.00  0.00     0.141 C 
ATOM     19  N   UNL     1       0.873 -10.071  -2.496  1.00  0.00    -0.339 N 
ATOM     20  O   UNL     1       1.789  -9.361  -0.556  1.00  0.00    -0.275 OA
BRANCH  14  21
ATOM     21  C   UNL     1      -0.461 -14.182  -2.863  1.00  0.00     0.040 A 
ATOM     22  C   UNL     1      -0.047 -17.806  -1.469  1.00  0.00     0.044 C 
ATOM     23  C   UNL     1      -0.591 -16.580  -2.167  1.00  0.00    -0.046 A 
ATOM     24  C   UNL     1      -1.866 -16.701  -2.725  1.00  0.00     0.004 A 
ATOM     25  C   UNL     1       0.126 -15.330  -2.228  1.00  0.00    -0.025 A 
ATOM     26  C   UNL     1      -2.437 -15.625  -3.366  1.00  0.00     0.002 A 
ATOM     27  C   UNL     1       1.512 -15.345  -1.619  1.00  0.00     0.047 C 
ATOM     28  C   UNL     1      -1.746 -14.412  -3.432  1.00  0.00     0.026 A 
ENDBRANCH  14  21
ENDBRANCH   8  13
ENDBRANCH   4   7
ENDBRANCH   2   3
ENDBRANCH   1   2
BRANCH   1  29
ATOM     29  C   UNL     1      -2.469 -12.132   0.888  1.00  0.00     0.118 C 
BRANCH  29  30
ATOM     30  N   UNL     1      -1.245 -12.919   0.725  1.00  0.00    -0.352 N 
ATOM     31  C   UNL     1      -1.052 -14.264   0.927  1.00  0.00     0.251 C 
ATOM     32  H   UNL     1      -0.452 -12.415   0.431  1.00  0.00     0.163 HD
ATOM     33  O   UNL     1       0.086 -14.725   0.954  1.00  0.00    -0.269 OA
BRANCH  31  34
ATOM     34  C   UNL     1      -2.205 -15.123   1.270  1.00  0.00     0.039 A 
ATOM     35  C   UNL     1      -2.031 -16.040   2.309  1.00  0.00     0.014 A 
ATOM     36  C   UNL     1      -3.473 -14.887   0.739  1.00  0.00     0.014 A 
ATOM     37  C   UNL     1      -3.150 -16.555   2.950  1.00  0.00     0.010 A 
ATOM     38  C   UNL     1      -4.586 -15.291   1.459  1.00  0.00     0.010 A 
ATOM     39  C   UNL     1      -4.425 -16.085   2.601  1.00  0.00    -0.014 A 
BRANCH  39  40
ATOM     40  C   UNL     1      -5.564 -16.311   3.516  1.00  0.00     0.031 A 
ATOM     41  C   UNL     1      -6.762 -17.085   3.066  1.00  0.00     0.074 A 
ATOM     42  C   UNL     1      -5.521 -15.736   4.737  1.00  0.00     0.049 A 
ATOM     43  N   UNL     1      -7.806 -17.447   3.759  1.00  0.00    -0.248 NA
ATOM     44  C   UNL     1      -6.814 -17.476   1.647  1.00  0.00     0.031 C 
ATOM     45  C   UNL     1      -4.459 -14.838   5.211  1.00  0.00     0.029 A 
ATOM     46  N   UNL     1      -6.377 -15.815   5.804  1.00  0.00    -0.354 N 
ATOM     47  C   UNL     1      -8.649 -18.086   2.860  1.00  0.00     0.074 A 
ATOM     48  C   UNL     1      -8.019 -18.019   1.561  1.00  0.00     0.031 C 
ATOM     49  C   UNL     1      -4.701 -14.496   6.486  1.00  0.00     0.029 A 
ATOM     50  C   UNL     1      -5.938 -15.133   6.917  1.00  0.00     0.049 A 
ATOM     51  H   UNL     1      -7.226 -16.313   5.777  1.00  0.00     0.167 HD
ATOM     52  C   UNL     1      -9.825 -18.708   3.110  1.00  0.00     0.034 A 
ATOM     53  C   UNL     1      -6.461 -15.062   8.156  1.00  0.00     0.034 A 
ATOM     54  C   UNL     1     -10.407 -18.791   4.420  1.00  0.00     0.049 A 
ATOM     55  C   UNL     1      -7.701 -15.865   8.437  1.00  0.00     0.074 A 
ATOM     56  C   UNL     1     -11.554 -19.451   4.817  1.00  0.00     0.029 A 
ATOM     57  N   UNL     1      -9.876 -18.187   5.552  1.00  0.00    -0.354 N 
ATOM     58  N   UNL     1      -8.393 -16.621   7.617  1.00  0.00    -0.248 NA
ATOM     59  C   UNL     1      -8.210 -15.847   9.814  1.00  0.00     0.031 C 
ATOM     60  C   UNL     1     -11.718 -19.242   6.191  1.00  0.00     0.029 A 
ATOM     61  C   UNL     1     -10.668 -18.462   6.652  1.00  0.00     0.049 A 
ATOM     62  H   UNL     1      -9.056 -17.643   5.570  1.00  0.00     0.167 HD
ATOM     63  C   UNL     1      -9.405 -17.186   8.380  1.00  0.00     0.074 A 
ATOM     64  C   UNL     1      -9.214 -16.710   9.737  1.00  0.00     0.031 C 
ATOM     65  C   UNL     1     -10.416 -18.005   7.995  1.00  0.00     0.034 A 
BRANCH  52  66
ATOM     66  C   UNL     1     -10.501 -19.389   1.951  1.00  0.00     0.023 A 
ATOM     67  C   UNL     1      -9.932 -20.564   1.414  1.00  0.00     0.012 A 
ATOM     68  C   UNL     1     -11.686 -18.878   1.389  1.00  0.00     0.148 A 
ATOM     69  C   UNL     1     -10.505 -21.193   0.310  1.00  0.00     0.002 A 
ATOM     70  C   UNL     1     -12.274 -19.534   0.312  1.00  0.00     0.091 A 
ATOM     71  F   UNL     1     -12.198 -17.747   1.894  1.00  0.00    -0.205 F 
ATOM     72  C   UNL     1     -11.679 -20.683  -0.236  1.00  0.00     0.022 A 
BRANCH  70  73
ATOM     73  S   UNL     1     -13.817 -18.990  -0.430  1.00  0.00     0.127 S 
ATOM     74  O   UNL     1     -13.357 -18.463  -1.714  1.00  0.00    -0.237 OA
ATOM     75  O   UNL     1     -14.572 -20.240  -0.520  1.00  0.00    -0.237 OA
ATOM     76  O   UNL     1     -14.377 -18.007   0.486  1.00  0.00    -0.744 OA
ENDBRANCH  70  73
ENDBRANCH  52  66
BRANCH  53  77
ATOM     77  C   UNL     1      -5.745 -14.314   9.230  1.00  0.00     0.023 A 
ATOM     78  C   UNL     1      -5.114 -15.031  10.266  1.00  0.00     0.012 A 
ATOM     79  C   UNL     1      -5.630 -12.911   9.206  1.00  0.00     0.148 A 
ATOM     80  C   UNL     1      -4.407 -14.366  11.270  1.00  0.00     0.002 A 
ATOM     81  C   UNL     1      -4.880 -12.257  10.179  1.00  0.00     0.091 A 
ATOM     82  F   UNL     1      -6.245 -12.238   8.222  1.00  0.00    -0.205 F 
ATOM     83  C   UNL     1      -4.280 -12.980  11.220  1.00  0.00     0.022 A 
BRANCH  81  84
ATOM     84  S   UNL     1      -4.553 -10.490  10.104  1.00  0.00     0.127 S 
ATOM     85  O   UNL     1      -5.502  -9.967  11.082  1.00  0.00    -0.237 OA
ATOM     86  O   UNL     1      -3.148 -10.416  10.508  1.00  0.00    -0.237 OA
ATOM     87  O   UNL     1      -4.792 -10.116   8.716  1.00  0.00    -0.744 OA
ENDBRANCH  81  84
ENDBRANCH  53  77
BRANCH  65  88
ATOM     88  C   UNL     1     -11.387 -18.436   9.057  1.00  0.00     0.023 A 
ATOM     89  C   UNL     1     -12.346 -17.520   9.531  1.00  0.00     0.012 A 
ATOM     90  C   UNL     1     -11.403 -19.764   9.521  1.00  0.00     0.148 A 
ATOM     91  C   UNL     1     -13.293 -17.914  10.473  1.00  0.00     0.002 A 
ATOM     92  C   UNL     1     -12.379 -20.162  10.426  1.00  0.00     0.091 A 
ATOM     93  F   UNL     1     -10.464 -20.612   9.075  1.00  0.00    -0.205 F 
ATOM     94  C   UNL     1     -13.318 -19.236  10.910  1.00  0.00     0.022 A 
BRANCH  92  95
ATOM     95  S   UNL     1     -12.538 -21.868  10.962  1.00  0.00     0.127 S 
ATOM     96  O   UNL     1     -11.915 -21.825  12.283  1.00  0.00    -0.237 OA
ATOM     97  O   UNL     1     -13.989 -22.059  10.977  1.00  0.00    -0.237 OA
ATOM     98  O   UNL     1     -11.840 -22.663   9.960  1.00  0.00    -0.744 OA
ENDBRANCH  92  95
ENDBRANCH  65  88
ENDBRANCH  39  40
ENDBRANCH  31  34
ENDBRANCH  29  30
ENDBRANCH   1  29
TORSDOF 15
