REMARK SMILES C[C@H]1CC[C@H](CNC(=O)NCc2ccc(C(=O)NCCCNC(=O)c3ccc(-c4c5nc(c(-c6cccc(S(=O)(=O)[O-])c6F)c6ccc([nH]6)c(-c6cccc(S(=O)(=O)[O-])c6F)c6nc(c(-c7cccc(S(=O)(=O)[O-])c7F)c7ccc4[nH]7)C=C6)C=C5)cc3)o2)CC1
REMARK SMILES IDX 19 1 18 2 16 3 17 4 15 6 12 7 13 8 88 9 14 10 11 11 10 12
REMARK SMILES IDX 7 13 8 14 9 16 6 18 5 19 1 20 2 21 90 22 3 23 89 24 4 25
REMARK SMILES IDX 20 26 21 27 22 28 23 29 24 31 25 32 26 33 87 34 27 35 86 36
REMARK SMILES IDX 28 37 29 38 30 39 80 40 31 41 85 42 79 43 81 44 32 45 84 46
REMARK SMILES IDX 78 47 77 48 33 50 65 51 45 52 64 53 46 54 49 55 63 56 82 57
REMARK SMILES IDX 47 58 48 59 62 61 83 62 50 63 34 64 35 65 43 66 36 67 38 68
REMARK SMILES IDX 44 69 37 70 39 71 40 72 41 73 42 74 66 75 67 76 75 77 68 78
REMARK SMILES IDX 70 79 76 80 69 81 71 82 72 83 73 84 74 85 51 86 52 87 60 88
REMARK SMILES IDX 53 89 55 90 61 91 54 92 56 93 57 94 58 95 59 96
REMARK H PARENT 18 5 7 15 10 17 22 30 81 49 49 60
REMARK Flexibility Score: inf
ROOT
ATOM      1  C   UNL     1      -9.000  -5.300   2.029  1.00  0.00     0.118 C 
ENDROOT
BRANCH   1   2
ATOM      2  N   UNL     1      -9.096  -3.877   2.296  1.00  0.00    -0.349 N 
ATOM      3  C   UNL     1      -8.400  -2.822   1.757  1.00  0.00     0.286 C 
ATOM      4  O   UNL     1      -8.853  -1.695   2.013  1.00  0.00    -0.266 OA
ATOM      5  H   UNL     1      -9.768  -3.628   2.972  1.00  0.00     0.163 HD
BRANCH   3   6
ATOM      6  C   UNL     1      -7.226  -3.029   0.934  1.00  0.00     0.191 A 
ATOM      7  C   UNL     1      -5.744  -2.384  -0.591  1.00  0.00     0.124 A 
ATOM      8  C   UNL     1      -5.339  -3.626  -0.154  1.00  0.00     0.048 A 
ATOM      9  O   UNL     1      -6.891  -2.027   0.054  1.00  0.00    -0.454 OA
ATOM     10  C   UNL     1      -6.274  -4.030   0.832  1.00  0.00     0.056 A 
BRANCH   7  11
ATOM     11  C   UNL     1      -5.180  -1.440  -1.595  1.00  0.00     0.193 C 
BRANCH  11  12
ATOM     12  N   UNL     1      -5.736  -0.115  -1.448  1.00  0.00    -0.331 N 
ATOM     13  N   UNL     1      -4.106   1.150  -0.305  1.00  0.00    -0.338 N 
ATOM     14  C   UNL     1      -5.242   1.044  -1.007  1.00  0.00     0.315 C 
ATOM     15  H   UNL     1      -3.745   2.065  -0.281  1.00  0.00     0.165 HD
ATOM     16  O   UNL     1      -5.857   2.080  -1.269  1.00  0.00    -0.249 OA
ATOM     17  H   UNL     1      -6.676  -0.054  -1.734  1.00  0.00     0.165 HD
BRANCH  13  18
ATOM     18  C   UNL     1      -3.300   0.190   0.427  1.00  0.00     0.121 C 
BRANCH  18  19
ATOM     19  C   UNL     1      -1.872   0.112  -0.136  1.00  0.00     0.008 C 
ATOM     20  C   UNL     1       2.517  -0.076  -0.180  1.00  0.00     0.007 C 
ATOM     21  C   UNL     1       1.074   0.004   0.312  1.00  0.00    -0.014 C 
ATOM     22  C   UNL     1       0.280  -1.237  -0.114  1.00  0.00     0.003 C 
ATOM     23  C   UNL     1       0.394   1.276  -0.205  1.00  0.00     0.003 C 
ATOM     24  C   UNL     1      -1.171  -1.162   0.359  1.00  0.00     0.006 C 
ATOM     25  C   UNL     1      -1.061   1.362   0.252  1.00  0.00     0.006 C 
ENDBRANCH  18  19
ENDBRANCH  13  18
ENDBRANCH  11  12
ENDBRANCH   7  11
ENDBRANCH   3   6
ENDBRANCH   1   2
BRANCH   1  26
ATOM     26  C   UNL     1      -8.333  -6.065   3.170  1.00  0.00     0.042 C 
BRANCH  26  27
ATOM     27  C   UNL     1      -9.227  -6.264   4.396  1.00  0.00     0.118 C 
BRANCH  27  28
ATOM     28  N   UNL     1     -10.361  -7.135   4.117  1.00  0.00    -0.352 N 
ATOM     29  C   UNL     1     -10.756  -8.313   4.702  1.00  0.00     0.251 C 
ATOM     30  H   UNL     1     -10.943  -6.827   3.385  1.00  0.00     0.163 HD
ATOM     31  O   UNL     1     -11.636  -8.975   4.154  1.00  0.00    -0.269 OA
BRANCH  29  32
ATOM     32  C   UNL     1     -10.149  -8.801   5.962  1.00  0.00     0.039 A 
ATOM     33  C   UNL     1      -9.961 -10.179   6.121  1.00  0.00     0.014 A 
ATOM     34  C   UNL     1      -9.834  -7.937   7.014  1.00  0.00     0.014 A 
ATOM     35  C   UNL     1      -9.422 -10.682   7.309  1.00  0.00     0.010 A 
ATOM     36  C   UNL     1      -9.236  -8.433   8.174  1.00  0.00     0.010 A 
ATOM     37  C   UNL     1      -9.033  -9.811   8.339  1.00  0.00    -0.014 A 
BRANCH  37  38
ATOM     38  C   UNL     1      -8.404 -10.330   9.582  1.00  0.00     0.031 A 
ATOM     39  C   UNL     1      -9.093 -10.185  10.914  1.00  0.00     0.074 A 
ATOM     40  C   UNL     1      -7.173 -10.874   9.522  1.00  0.00     0.049 A 
ATOM     41  N   UNL     1      -8.686 -10.566  12.098  1.00  0.00    -0.248 NA
ATOM     42  C   UNL     1     -10.397  -9.503  10.920  1.00  0.00     0.031 C 
ATOM     43  C   UNL     1      -6.362 -10.995   8.309  1.00  0.00     0.029 A 
ATOM     44  N   UNL     1      -6.378 -11.406  10.506  1.00  0.00    -0.354 N 
ATOM     45  C   UNL     1      -9.662 -10.143  12.992  1.00  0.00     0.074 A 
ATOM     46  C   UNL     1     -10.668  -9.448  12.217  1.00  0.00     0.031 C 
ATOM     47  C   UNL     1      -5.191 -11.572   8.618  1.00  0.00     0.029 A 
ATOM     48  C   UNL     1      -5.156 -11.846  10.051  1.00  0.00     0.049 A 
ATOM     49  H   UNL     1      -6.655 -11.468  11.449  1.00  0.00     0.167 HD
ATOM     50  C   UNL     1      -9.734 -10.341  14.331  1.00  0.00     0.034 A 
ATOM     51  C   UNL     1      -4.127 -12.412  10.711  1.00  0.00     0.034 A 
ATOM     52  C   UNL     1      -8.759 -11.075  15.093  1.00  0.00     0.049 A 
ATOM     53  C   UNL     1      -4.262 -12.683  12.185  1.00  0.00     0.074 A 
ATOM     54  C   UNL     1      -8.786 -11.405  16.437  1.00  0.00     0.029 A 
ATOM     55  N   UNL     1      -7.581 -11.595  14.579  1.00  0.00    -0.354 N 
ATOM     56  N   UNL     1      -5.270 -12.424  12.982  1.00  0.00    -0.248 NA
ATOM     57  C   UNL     1      -3.137 -13.365  12.841  1.00  0.00     0.031 C 
ATOM     58  C   UNL     1      -7.619 -12.118  16.737  1.00  0.00     0.029 A 
ATOM     59  C   UNL     1      -6.872 -12.242  15.577  1.00  0.00     0.049 A 
ATOM     60  H   UNL     1      -7.291 -11.515  13.642  1.00  0.00     0.167 HD
ATOM     61  C   UNL     1      -4.915 -12.937  14.224  1.00  0.00     0.074 A 
ATOM     62  C   UNL     1      -3.610 -13.546  14.066  1.00  0.00     0.031 C 
ATOM     63  C   UNL     1      -5.599 -12.891  15.395  1.00  0.00     0.034 A 
BRANCH  50  64
ATOM     64  C   UNL     1     -10.949  -9.811  15.050  1.00  0.00     0.023 A 
ATOM     65  C   UNL     1     -12.191 -10.454  14.870  1.00  0.00     0.012 A 
ATOM     66  C   UNL     1     -10.860  -8.720  15.936  1.00  0.00     0.148 A 
ATOM     67  C   UNL     1     -13.331 -10.000  15.531  1.00  0.00     0.002 A 
ATOM     68  C   UNL     1     -11.993  -8.298  16.624  1.00  0.00     0.091 A 
ATOM     69  F   UNL     1      -9.677  -8.105  16.079  1.00  0.00    -0.205 F 
ATOM     70  C   UNL     1     -13.230  -8.929  16.415  1.00  0.00     0.022 A 
BRANCH  68  71
ATOM     71  S   UNL     1     -11.947  -6.974  17.838  1.00  0.00     0.127 S 
ATOM     72  O   UNL     1     -12.564  -5.874  17.099  1.00  0.00    -0.237 OA
ATOM     73  O   UNL     1     -12.770  -7.517  18.921  1.00  0.00    -0.237 OA
ATOM     74  O   UNL     1     -10.543  -6.796  18.179  1.00  0.00    -0.744 OA
ENDBRANCH  68  71
ENDBRANCH  50  64
BRANCH  51  75
ATOM     75  C   UNL     1      -2.918 -12.849   9.958  1.00  0.00     0.023 A 
ATOM     76  C   UNL     1      -2.691 -14.226   9.765  1.00  0.00     0.012 A 
ATOM     77  C   UNL     1      -2.023 -11.920   9.395  1.00  0.00     0.148 A 
ATOM     78  C   UNL     1      -1.579 -14.671   9.049  1.00  0.00     0.002 A 
ATOM     79  C   UNL     1      -0.947 -12.368   8.636  1.00  0.00     0.091 A 
ATOM     80  F   UNL     1      -2.248 -10.614   9.601  1.00  0.00    -0.205 F 
ATOM     81  C   UNL     1      -0.715 -13.743   8.475  1.00  0.00     0.022 A 
BRANCH  79  82
ATOM     82  S   UNL     1       0.134 -11.241   7.747  1.00  0.00     0.127 S 
ATOM     83  O   UNL     1       1.346 -11.284   8.560  1.00  0.00    -0.237 OA
ATOM     84  O   UNL     1       0.245 -11.891   6.441  1.00  0.00    -0.237 OA
ATOM     85  O   UNL     1      -0.571  -9.966   7.720  1.00  0.00    -0.744 OA
ENDBRANCH  79  82
ENDBRANCH  51  75
BRANCH  63  86
ATOM     86  C   UNL     1      -4.958 -13.534  16.597  1.00  0.00     0.023 A 
ATOM     87  C   UNL     1      -3.860 -12.908  17.218  1.00  0.00     0.012 A 
ATOM     88  C   UNL     1      -5.474 -14.725  17.143  1.00  0.00     0.148 A 
ATOM     89  C   UNL     1      -3.262 -13.475  18.343  1.00  0.00     0.002 A 
ATOM     90  C   UNL     1      -4.901 -15.262  18.291  1.00  0.00     0.091 A 
ATOM     91  F   UNL     1      -6.505 -15.322  16.527  1.00  0.00    -0.205 F 
ATOM     92  C   UNL     1      -3.789 -14.645  18.886  1.00  0.00     0.022 A 
BRANCH  90  93
ATOM     93  S   UNL     1      -5.579 -16.716  19.100  1.00  0.00     0.127 S 
ATOM     94  O   UNL     1      -4.701 -17.773  18.601  1.00  0.00    -0.237 OA
ATOM     95  O   UNL     1      -5.406 -16.400  20.519  1.00  0.00    -0.237 OA
ATOM     96  O   UNL     1      -6.969 -16.791  18.669  1.00  0.00    -0.744 OA
ENDBRANCH  90  93
ENDBRANCH  63  86
ENDBRANCH  37  38
ENDBRANCH  29  32
ENDBRANCH  27  28
ENDBRANCH  26  27
ENDBRANCH   1  26
TORSDOF 17
