REMARK SMILES O=C(CCCCc1nc2cccc(Cl)c2s1)NCCCNC(=O)c1ccc(-c2c3nc(c(-c4cccc(S(=O)(=O)[O-])c4F)c4ccc([nH]4)c(-c4cccc(S(=O)(=O)[O-])c4F)c4nc(c(-c5cccc(S(=O)(=O)[O-])c5F)c5ccc2[nH]5)C=C4)C=C3)cc1
REMARK SMILES IDX 18 1 17 2 1 3 2 4 3 6 4 7 5 8 6 9 7 10 8 11 16 12 9 13 15 14
REMARK SMILES IDX 10 15 13 16 11 17 12 18 14 19 19 20 20 21 21 22 22 23 23 25
REMARK SMILES IDX 24 26 25 27 86 28 26 29 85 30 27 31 28 32 29 33 79 34 30 35
REMARK SMILES IDX 84 36 78 37 80 38 31 39 83 40 77 41 76 42 32 44 64 45 44 46
REMARK SMILES IDX 63 47 45 48 48 49 62 50 81 51 46 52 47 53 61 55 82 56 49 57
REMARK SMILES IDX 33 58 34 59 42 60 35 61 37 62 43 63 36 64 38 65 39 66 40 67
REMARK SMILES IDX 41 68 65 69 66 70 74 71 67 72 69 73 75 74 68 75 70 76 71 77
REMARK SMILES IDX 72 78 73 79 50 80 51 81 59 82 52 83 54 84 60 85 53 86 55 87
REMARK SMILES IDX 56 88 57 89 58 90
REMARK H PARENT 17 5 21 24 80 43 48 54
REMARK Flexibility Score: inf
ROOT
ATOM      1  C   UNL     1       1.873   1.976   1.573  1.00  0.00     0.117 C 
ENDROOT
BRANCH   1   2
ATOM      2  N   UNL     1       2.579   0.926   0.867  1.00  0.00    -0.356 N 
ATOM      3  O   UNL     1       0.820   0.276  -0.458  1.00  0.00    -0.275 OA
ATOM      4  C   UNL     1       1.999   0.182  -0.134  1.00  0.00     0.219 C 
ATOM      5  H   UNL     1       3.513   0.737   1.113  1.00  0.00     0.163 HD
BRANCH   4   6
ATOM      6  C   UNL     1       2.958  -0.766  -0.826  1.00  0.00     0.100 C 
BRANCH   6   7
ATOM      7  C   UNL     1       3.857  -0.056  -1.840  1.00  0.00     0.010 C 
BRANCH   7   8
ATOM      8  C   UNL     1       5.030   0.761  -1.268  1.00  0.00     0.008 C 
BRANCH   8   9
ATOM      9  C   UNL     1       6.003  -0.009  -0.363  1.00  0.00     0.068 C 
BRANCH   9  10
ATOM     10  C   UNL     1       6.603  -1.172  -1.082  1.00  0.00     0.094 A 
ATOM     11  N   UNL     1       7.364  -1.045  -2.144  1.00  0.00    -0.241 NA
ATOM     12  S   UNL     1       6.209  -2.773  -0.620  1.00  0.00    -0.117 S 
ATOM     13  C   UNL     1       7.728  -2.304  -2.600  1.00  0.00     0.083 A 
ATOM     14  C   UNL     1       7.135  -3.384  -1.938  1.00  0.00     0.073 A 
ATOM     15  C   UNL     1       8.599  -2.558  -3.679  1.00  0.00     0.030 A 
ATOM     16  C   UNL     1       7.345  -4.703  -2.370  1.00  0.00     0.060 A 
ATOM     17  C   UNL     1       8.837  -3.871  -4.090  1.00  0.00     0.004 A 
ATOM     18  C   UNL     1       8.201  -4.930  -3.453  1.00  0.00     0.022 A 
ATOM     19  Cl  UNL     1       6.536  -6.044  -1.646  1.00  0.00    -0.083 Cl
ENDBRANCH   9  10
ENDBRANCH   8   9
ENDBRANCH   7   8
ENDBRANCH   6   7
ENDBRANCH   4   6
ENDBRANCH   1   2
BRANCH   1  20
ATOM     20  C   UNL     1       2.146   1.958   3.076  1.00  0.00     0.042 C 
BRANCH  20  21
ATOM     21  C   UNL     1       3.577   2.337   3.422  1.00  0.00     0.118 C 
BRANCH  21  22
ATOM     22  N   UNL     1       3.866   3.750   3.195  1.00  0.00    -0.352 N 
ATOM     23  C   UNL     1       4.944   4.478   3.660  1.00  0.00     0.251 C 
ATOM     24  H   UNL     1       3.215   4.243   2.645  1.00  0.00     0.163 HD
ATOM     25  O   UNL     1       4.919   5.697   3.664  1.00  0.00    -0.269 OA
BRANCH  23  26
ATOM     26  C   UNL     1       6.141   3.750   4.128  1.00  0.00     0.039 A 
ATOM     27  C   UNL     1       6.876   4.206   5.228  1.00  0.00     0.014 A 
ATOM     28  C   UNL     1       6.546   2.621   3.414  1.00  0.00     0.014 A 
ATOM     29  C   UNL     1       8.005   3.495   5.624  1.00  0.00     0.010 A 
ATOM     30  C   UNL     1       7.582   1.854   3.874  1.00  0.00     0.010 A 
ATOM     31  C   UNL     1       8.347   2.327   4.933  1.00  0.00    -0.014 A 
BRANCH  31  32
ATOM     32  C   UNL     1       9.495   1.527   5.316  1.00  0.00     0.031 A 
ATOM     33  C   UNL     1       9.338   0.776   6.592  1.00  0.00     0.074 A 
ATOM     34  C   UNL     1      10.481   1.278   4.428  1.00  0.00     0.049 A 
ATOM     35  N   UNL     1      10.018   0.912   7.683  1.00  0.00    -0.248 NA
ATOM     36  C   UNL     1       8.204  -0.157   6.710  1.00  0.00     0.031 C 
ATOM     37  C   UNL     1      10.553   1.665   3.012  1.00  0.00     0.029 A 
ATOM     38  N   UNL     1      11.563   0.473   4.568  1.00  0.00    -0.354 N 
ATOM     39  C   UNL     1       9.532  -0.061   8.555  1.00  0.00     0.074 A 
ATOM     40  C   UNL     1       8.308  -0.555   7.979  1.00  0.00     0.031 C 
ATOM     41  C   UNL     1      11.467   0.892   2.382  1.00  0.00     0.029 A 
ATOM     42  C   UNL     1      12.146   0.072   3.369  1.00  0.00     0.049 A 
ATOM     43  H   UNL     1      11.908   0.195   5.447  1.00  0.00     0.167 HD
ATOM     44  C   UNL     1      10.277  -0.558   9.580  1.00  0.00     0.034 A 
ATOM     45  C   UNL     1      13.065  -0.916   3.221  1.00  0.00     0.034 A 
ATOM     46  C   UNL     1      11.463   0.218   9.810  1.00  0.00     0.049 A 
ATOM     47  C   UNL     1      13.650  -1.143   4.567  1.00  0.00     0.074 A 
ATOM     48  C   UNL     1      11.706   1.529  10.167  1.00  0.00     0.029 A 
ATOM     49  N   UNL     1      12.627  -0.243   9.240  1.00  0.00    -0.354 N 
ATOM     50  N   UNL     1      14.355  -0.250   5.205  1.00  0.00    -0.248 NA
ATOM     51  C   UNL     1      13.060  -2.187   5.392  1.00  0.00     0.031 C 
ATOM     52  C   UNL     1      12.800   1.929   9.346  1.00  0.00     0.029 A 
ATOM     53  C   UNL     1      13.204   0.821   8.596  1.00  0.00     0.049 A 
ATOM     54  H   UNL     1      12.978  -1.161   9.286  1.00  0.00     0.167 HD
ATOM     55  C   UNL     1      13.943  -0.361   6.527  1.00  0.00     0.074 A 
ATOM     56  C   UNL     1      13.213  -1.627   6.596  1.00  0.00     0.031 C 
ATOM     57  C   UNL     1      13.964   0.712   7.370  1.00  0.00     0.034 A 
BRANCH  44  58
ATOM     58  C   UNL     1      10.102  -1.927  10.176  1.00  0.00     0.023 A 
ATOM     59  C   UNL     1      10.640  -2.178  11.455  1.00  0.00     0.012 A 
ATOM     60  C   UNL     1       9.638  -3.038   9.437  1.00  0.00     0.148 A 
ATOM     61  C   UNL     1      10.705  -3.475  11.976  1.00  0.00     0.002 A 
ATOM     62  C   UNL     1       9.634  -4.314   9.987  1.00  0.00     0.091 A 
ATOM     63  F   UNL     1       9.313  -2.882   8.148  1.00  0.00    -0.205 F 
ATOM     64  C   UNL     1      10.186  -4.542  11.249  1.00  0.00     0.022 A 
BRANCH  62  65
ATOM     65  S   UNL     1       8.939  -5.716   9.106  1.00  0.00     0.127 S 
ATOM     66  O   UNL     1      10.143  -6.445   8.719  1.00  0.00    -0.237 OA
ATOM     67  O   UNL     1       8.133  -6.354  10.147  1.00  0.00    -0.237 OA
ATOM     68  O   UNL     1       8.160  -5.140   8.017  1.00  0.00    -0.744 OA
ENDBRANCH  62  65
ENDBRANCH  44  58
BRANCH  45  69
ATOM     69  C   UNL     1      13.304  -1.864   2.102  1.00  0.00     0.023 A 
ATOM     70  C   UNL     1      14.504  -2.607   2.070  1.00  0.00     0.012 A 
ATOM     71  C   UNL     1      12.263  -2.263   1.236  1.00  0.00     0.148 A 
ATOM     72  C   UNL     1      14.643  -3.733   1.247  1.00  0.00     0.002 A 
ATOM     73  C   UNL     1      12.409  -3.380   0.412  1.00  0.00     0.091 A 
ATOM     74  F   UNL     1      11.098  -1.605   1.285  1.00  0.00    -0.205 F 
ATOM     75  C   UNL     1      13.592  -4.127   0.427  1.00  0.00     0.022 A 
BRANCH  73  76
ATOM     76  S   UNL     1      11.088  -3.961  -0.657  1.00  0.00     0.127 S 
ATOM     77  O   UNL     1      11.764  -4.069  -1.951  1.00  0.00    -0.237 OA
ATOM     78  O   UNL     1      10.734  -5.239  -0.045  1.00  0.00    -0.237 OA
ATOM     79  O   UNL     1      10.063  -2.931  -0.592  1.00  0.00    -0.744 OA
ENDBRANCH  73  76
ENDBRANCH  45  69
BRANCH  57  80
ATOM     80  C   UNL     1      14.609   1.989   6.889  1.00  0.00     0.023 A 
ATOM     81  C   UNL     1      14.025   2.792   5.885  1.00  0.00     0.012 A 
ATOM     82  C   UNL     1      15.682   2.503   7.631  1.00  0.00     0.148 A 
ATOM     83  C   UNL     1      14.499   4.083   5.633  1.00  0.00     0.002 A 
ATOM     84  C   UNL     1      16.125   3.800   7.405  1.00  0.00     0.091 A 
ATOM     85  F   UNL     1      16.212   1.729   8.590  1.00  0.00    -0.205 F 
ATOM     86  C   UNL     1      15.539   4.594   6.405  1.00  0.00     0.022 A 
BRANCH  84  87
ATOM     87  S   UNL     1      17.376   4.563   8.439  1.00  0.00     0.127 S 
ATOM     88  O   UNL     1      18.491   4.718   7.506  1.00  0.00    -0.237 OA
ATOM     89  O   UNL     1      16.730   5.816   8.834  1.00  0.00    -0.237 OA
ATOM     90  O   UNL     1      17.613   3.638   9.541  1.00  0.00    -0.744 OA
ENDBRANCH  84  87
ENDBRANCH  57  80
ENDBRANCH  31  32
ENDBRANCH  23  26
ENDBRANCH  21  22
ENDBRANCH  20  21
ENDBRANCH   1  20
TORSDOF 17
