REMARK SMILES Cc1ccc([C@H](CC2CCCC2)C(=O)NCCCNC(=O)c2ccc(-c3c4nc(c(-c5cccc(S(=O)(=O)[O-])c5F)c5ccc([nH]5)c(-c5cccc(S(=O)(=O)[O-])c5F)c5nc(c(-c6cccc(S(=O)(=O)[O-])c6F)c6ccc3[nH]6)C=C5)C=C4)cc2)cc1
REMARK SMILES IDX 17 1 16 2 15 3 13 4 14 5 6 7 5 8 1 9 2 10 3 11 86 12 4 13
REMARK SMILES IDX 85 14 7 15 8 16 9 17 12 18 10 19 11 20 18 21 19 22 20 23
REMARK SMILES IDX 21 25 22 26 23 27 84 28 24 29 83 30 25 31 26 32 27 33 77 34
REMARK SMILES IDX 28 35 82 36 76 37 78 38 29 39 81 40 75 41 74 42 30 44 62 45
REMARK SMILES IDX 42 46 61 47 43 48 46 49 60 50 79 51 44 52 45 53 59 55 80 56
REMARK SMILES IDX 47 57 31 58 32 59 40 60 33 61 35 62 41 63 34 64 36 65 37 66
REMARK SMILES IDX 38 67 39 68 63 69 64 70 72 71 65 72 67 73 73 74 66 75 68 76
REMARK SMILES IDX 69 77 70 78 71 79 48 80 49 81 57 82 50 83 52 84 58 85 51 86
REMARK SMILES IDX 53 87 54 88 55 89 56 90
REMARK H PARENT 15 6 19 24 78 43 46 54
REMARK Flexibility Score: inf
ROOT
ATOM      1  C   UNL     1      -0.838  -2.930   0.443  1.00  0.00     0.042 C 
ENDROOT
BRANCH   1   2
ATOM      2  C   UNL     1      -2.280  -2.670   0.059  1.00  0.00     0.117 C 
BRANCH   2   3
ATOM      3  N   UNL     1      -3.021  -1.923   1.076  1.00  0.00    -0.356 N 
ATOM      4  C   UNL     1      -3.672  -0.726   0.964  1.00  0.00     0.227 C 
ATOM      5  O   UNL     1      -4.391  -0.356   1.895  1.00  0.00    -0.274 OA
ATOM      6  H   UNL     1      -3.056  -2.342   1.966  1.00  0.00     0.163 HD
BRANCH   4   7
ATOM      7  C   UNL     1      -3.502   0.137  -0.286  1.00  0.00     0.109 C 
BRANCH   7   8
ATOM      8  C   UNL     1      -4.096  -0.486  -1.568  1.00  0.00    -0.036 A 
ATOM      9  C   UNL     1      -4.759  -2.489  -5.340  1.00  0.00     0.044 C 
ATOM     10  C   UNL     1      -4.617  -1.766  -4.036  1.00  0.00    -0.051 A 
ATOM     11  C   UNL     1      -4.276  -0.412  -3.997  1.00  0.00     0.004 A 
ATOM     12  C   UNL     1      -4.858  -2.429  -2.834  1.00  0.00     0.004 A 
ATOM     13  C   UNL     1      -4.011   0.218  -2.777  1.00  0.00     0.005 A 
ATOM     14  C   UNL     1      -4.655  -1.775  -1.617  1.00  0.00     0.005 A 
ENDBRANCH   7   8
BRANCH   7  15
ATOM     15  C   UNL     1      -2.004   0.540  -0.454  1.00  0.00     0.022 C 
BRANCH  15  16
ATOM     16  C   UNL     1      -1.476   1.609   0.514  1.00  0.00    -0.010 C 
ATOM     17  C   UNL     1      -1.106   1.145   1.924  1.00  0.00     0.003 C 
ATOM     18  C   UNL     1      -0.125   2.147   0.024  1.00  0.00     0.003 C 
ATOM     19  C   UNL     1      -0.210   2.268   2.451  1.00  0.00     0.000 C 
ATOM     20  C   UNL     1       0.452   2.889   1.221  1.00  0.00     0.000 C 
ENDBRANCH  15  16
ENDBRANCH   7  15
ENDBRANCH   4   7
ENDBRANCH   2   3
ENDBRANCH   1   2
BRANCH   1  21
ATOM     21  C   UNL     1      -0.792  -3.998   1.497  1.00  0.00     0.118 C 
BRANCH  21  22
ATOM     22  N   UNL     1      -0.983  -5.332   0.982  1.00  0.00    -0.352 N 
ATOM     23  C   UNL     1      -0.920  -6.535   1.645  1.00  0.00     0.251 C 
ATOM     24  H   UNL     1      -1.186  -5.390   0.020  1.00  0.00     0.163 HD
ATOM     25  O   UNL     1      -0.924  -7.550   0.945  1.00  0.00    -0.269 OA
BRANCH  23  26
ATOM     26  C   UNL     1      -0.995  -6.621   3.131  1.00  0.00     0.039 A 
ATOM     27  C   UNL     1      -1.268  -7.875   3.696  1.00  0.00     0.014 A 
ATOM     28  C   UNL     1      -1.051  -5.496   3.948  1.00  0.00     0.014 A 
ATOM     29  C   UNL     1      -1.863  -7.962   4.951  1.00  0.00     0.010 A 
ATOM     30  C   UNL     1      -1.710  -5.559   5.138  1.00  0.00     0.010 A 
ATOM     31  C   UNL     1      -2.204  -6.782   5.578  1.00  0.00    -0.014 A 
BRANCH  31  32
ATOM     32  C   UNL     1      -3.079  -6.614   6.712  1.00  0.00     0.031 A 
ATOM     33  C   UNL     1      -2.466  -6.488   8.035  1.00  0.00     0.074 A 
ATOM     34  C   UNL     1      -4.252  -6.027   6.386  1.00  0.00     0.049 A 
ATOM     35  N   UNL     1      -3.128  -6.231   9.102  1.00  0.00    -0.248 NA
ATOM     36  C   UNL     1      -1.028  -6.627   8.258  1.00  0.00     0.031 C 
ATOM     37  C   UNL     1      -5.006  -5.017   7.117  1.00  0.00     0.029 A 
ATOM     38  N   UNL     1      -5.021  -6.236   5.252  1.00  0.00    -0.354 N 
ATOM     39  C   UNL     1      -2.210  -5.812  10.036  1.00  0.00     0.074 A 
ATOM     40  C   UNL     1      -0.934  -6.256   9.538  1.00  0.00     0.031 C 
ATOM     41  C   UNL     1      -6.216  -4.875   6.544  1.00  0.00     0.029 A 
ATOM     42  C   UNL     1      -6.350  -5.933   5.555  1.00  0.00     0.049 A 
ATOM     43  H   UNL     1      -4.686  -6.545   4.380  1.00  0.00     0.167 HD
ATOM     44  C   UNL     1      -2.642  -4.976  11.019  1.00  0.00     0.034 A 
ATOM     45  C   UNL     1      -7.230  -6.981   5.659  1.00  0.00     0.034 A 
ATOM     46  C   UNL     1      -4.114  -4.856  10.974  1.00  0.00     0.049 A 
ATOM     47  C   UNL     1      -7.647  -7.267   7.096  1.00  0.00     0.074 A 
ATOM     48  C   UNL     1      -4.980  -3.854  10.574  1.00  0.00     0.029 A 
ATOM     49  N   UNL     1      -4.885  -6.014  11.075  1.00  0.00    -0.354 N 
ATOM     50  N   UNL     1      -7.154  -6.666   8.147  1.00  0.00    -0.248 NA
ATOM     51  C   UNL     1      -8.681  -8.229   7.464  1.00  0.00     0.031 C 
ATOM     52  C   UNL     1      -6.249  -4.457  10.305  1.00  0.00     0.029 A 
ATOM     53  C   UNL     1      -6.171  -5.811  10.592  1.00  0.00     0.049 A 
ATOM     54  H   UNL     1      -4.559  -6.867  11.443  1.00  0.00     0.167 HD
ATOM     55  C   UNL     1      -7.643  -7.224   9.297  1.00  0.00     0.074 A 
ATOM     56  C   UNL     1      -8.671  -8.131   8.807  1.00  0.00     0.031 C 
ATOM     57  C   UNL     1      -7.119  -6.932  10.534  1.00  0.00     0.034 A 
BRANCH  44  58
ATOM     58  C   UNL     1      -1.763  -4.117  11.916  1.00  0.00     0.023 A 
ATOM     59  C   UNL     1      -2.421  -3.369  12.917  1.00  0.00     0.012 A 
ATOM     60  C   UNL     1      -0.360  -3.921  11.823  1.00  0.00     0.148 A 
ATOM     61  C   UNL     1      -1.742  -2.490  13.771  1.00  0.00     0.002 A 
ATOM     62  C   UNL     1       0.330  -3.099  12.722  1.00  0.00     0.091 A 
ATOM     63  F   UNL     1       0.330  -4.444  10.808  1.00  0.00    -0.205 F 
ATOM     64  C   UNL     1      -0.362  -2.370  13.689  1.00  0.00     0.022 A 
BRANCH  62  65
ATOM     65  S   UNL     1       2.128  -2.935  12.709  1.00  0.00     0.127 S 
ATOM     66  O   UNL     1       2.308  -1.546  12.287  1.00  0.00    -0.237 OA
ATOM     67  O   UNL     1       2.477  -3.194  14.107  1.00  0.00    -0.237 OA
ATOM     68  O   UNL     1       2.625  -3.935  11.771  1.00  0.00    -0.744 OA
ENDBRANCH  62  65
ENDBRANCH  44  58
BRANCH  45  69
ATOM     69  C   UNL     1      -6.978  -7.992   4.569  1.00  0.00     0.023 A 
ATOM     70  C   UNL     1      -7.170  -7.519   3.244  1.00  0.00     0.012 A 
ATOM     71  C   UNL     1      -6.115  -9.088   4.771  1.00  0.00     0.148 A 
ATOM     72  C   UNL     1      -6.367  -7.976   2.195  1.00  0.00     0.002 A 
ATOM     73  C   UNL     1      -5.333  -9.555   3.710  1.00  0.00     0.091 A 
ATOM     74  F   UNL     1      -6.010  -9.604   6.003  1.00  0.00    -0.205 F 
ATOM     75  C   UNL     1      -5.414  -8.958   2.441  1.00  0.00     0.022 A 
BRANCH  73  76
ATOM     76  S   UNL     1      -4.114 -10.861   3.933  1.00  0.00     0.127 S 
ATOM     77  O   UNL     1      -4.877 -12.045   3.547  1.00  0.00    -0.237 OA
ATOM     78  O   UNL     1      -3.058 -10.490   2.993  1.00  0.00    -0.237 OA
ATOM     79  O   UNL     1      -3.721 -10.784   5.333  1.00  0.00    -0.744 OA
ENDBRANCH  73  76
ENDBRANCH  45  69
BRANCH  57  80
ATOM     80  C   UNL     1      -7.425  -7.696  11.821  1.00  0.00     0.023 A 
ATOM     81  C   UNL     1      -8.046  -8.959  11.829  1.00  0.00     0.012 A 
ATOM     82  C   UNL     1      -6.969  -7.221  13.082  1.00  0.00     0.148 A 
ATOM     83  C   UNL     1      -8.270  -9.678  13.009  1.00  0.00     0.002 A 
ATOM     84  C   UNL     1      -7.069  -8.002  14.232  1.00  0.00     0.091 A 
ATOM     85  F   UNL     1      -6.455  -5.988  13.194  1.00  0.00    -0.205 F 
ATOM     86  C   UNL     1      -7.757  -9.213  14.209  1.00  0.00     0.022 A 
BRANCH  84  87
ATOM     87  S   UNL     1      -6.174  -7.567  15.731  1.00  0.00     0.127 S 
ATOM     88  O   UNL     1      -7.202  -6.879  16.509  1.00  0.00    -0.237 OA
ATOM     89  O   UNL     1      -5.788  -8.878  16.256  1.00  0.00    -0.237 OA
ATOM     90  O   UNL     1      -5.052  -6.753  15.283  1.00  0.00    -0.744 OA
ENDBRANCH  84  87
ENDBRANCH  57  80
ENDBRANCH  31  32
ENDBRANCH  23  26
ENDBRANCH  21  22
ENDBRANCH   1  21
TORSDOF 16
