REMARK SMILES CC(=O)N[C@H](CSCC(=O)Nc1ccc2c(c1)N1CC[NH+]=C1S2)C(=O)NCCCNC(=O)c1ccc(-c2c3nc(c(-c4cccc(S(=O)(=O)[O-])c4F)c4ccc([nH]4)c(-c4cccc(S(=O)(=O)[O-])c4F)c4nc(c(-c5cccc(S(=O)(=O)[O-])c5F)c5ccc2[nH]5)C=C4)C=C3)cc1
REMARK SMILES IDX 27 1 26 2 24 3 25 4 5 6 4 7 1 8 2 9 3 10 6 12 7 13 8 14 9 15
REMARK SMILES IDX 10 16 11 17 12 19 13 20 17 21 14 22 16 23 15 24 18 25 23 26
REMARK SMILES IDX 19 27 22 28 20 29 21 30 28 32 29 33 30 34 31 35 32 37 33 38
REMARK SMILES IDX 34 39 95 40 35 41 94 42 36 43 37 44 38 45 88 46 39 47 93 48
REMARK SMILES IDX 87 49 89 50 40 51 92 52 86 53 85 54 41 56 73 57 53 58 72 59
REMARK SMILES IDX 54 60 57 61 71 62 90 63 55 64 56 65 70 67 91 68 58 69 42 70
REMARK SMILES IDX 43 71 51 72 44 73 46 74 52 75 45 76 47 77 48 78 49 79 50 80
REMARK SMILES IDX 74 81 75 82 83 83 76 84 78 85 84 86 77 87 79 88 80 89 81 90
REMARK SMILES IDX 82 91 59 92 60 93 68 94 61 95 63 96 69 97 62 98 64 99 65 100
REMARK SMILES IDX 66 101 67 102
REMARK H PARENT 26 5 4 11 11 18 21 31 30 36 89 55 57 66
REMARK Flexibility Score: inf
ROOT
ATOM      1  C   UNL     1       1.532  -3.275   5.214  1.00  0.00     0.117 C 
ENDROOT
BRANCH   1   2
ATOM      2  N   UNL     1       1.155  -3.990   3.999  1.00  0.00    -0.354 N 
ATOM      3  C   UNL     1       1.426  -3.849   2.672  1.00  0.00     0.243 C 
ATOM      4  O   UNL     1       0.982  -4.752   1.947  1.00  0.00    -0.273 OA
ATOM      5  H   UNL     1       0.563  -4.755   4.182  1.00  0.00     0.163 HD
BRANCH   3   6
ATOM      6  C   UNL     1       2.064  -2.616   1.987  1.00  0.00     0.181 C 
BRANCH   6   7
ATOM      7  N   UNL     1       3.295  -2.115   2.596  1.00  0.00    -0.344 N 
ATOM      8  C   UNL     1       4.763  -2.833   0.732  1.00  0.00     0.114 C 
ATOM      9  C   UNL     1       4.567  -2.252   2.111  1.00  0.00     0.217 C 
ATOM     10  O   UNL     1       5.520  -1.869   2.787  1.00  0.00    -0.275 OA
ATOM     11  H   UNL     1       3.198  -1.627   3.445  1.00  0.00     0.164 HD
ENDBRANCH   6   7
BRANCH   6  12
ATOM     12  C   UNL     1       1.084  -1.500   1.592  1.00  0.00     0.105 C 
BRANCH  12  13
ATOM     13  S   UNL     1       0.007  -0.870   2.895  1.00  0.00    -0.149 SA
BRANCH  13  14
ATOM     14  C   UNL     1      -1.335  -2.089   2.847  1.00  0.00     0.169 C 
BRANCH  14  15
ATOM     15  C   UNL     1      -2.708  -1.634   2.367  1.00  0.00     0.234 C 
ATOM     16  O   UNL     1      -3.276  -2.278   1.475  1.00  0.00    -0.274 OA
ATOM     17  N   UNL     1      -3.451  -0.717   3.064  1.00  0.00    -0.325 N 
ATOM     18  H   UNL     1      -4.421  -0.737   2.895  1.00  0.00     0.169 HD
BRANCH  17  19
ATOM     19  C   UNL     1      -3.018   0.243   3.981  1.00  0.00     0.045 A 
ATOM     20  C   UNL     1      -2.119   1.258   3.604  1.00  0.00     0.027 A 
ATOM     21  C   UNL     1      -3.484   0.161   5.285  1.00  0.00     0.079 A 
ATOM     22  C   UNL     1      -1.564   2.124   4.550  1.00  0.00     0.022 A 
ATOM     23  C   UNL     1      -2.864   0.957   6.235  1.00  0.00     0.144 A 
ATOM     24  C   UNL     1      -1.931   1.950   5.865  1.00  0.00     0.067 A 
ATOM     25  N   UNL     1      -2.905   0.772   7.600  1.00  0.00    -0.216 N 
ATOM     26  S   UNL     1      -1.170   2.673   7.330  1.00  0.00     0.002 SA
ATOM     27  C   UNL     1      -3.261  -0.423   8.278  1.00  0.00     0.289 C 
ATOM     28  C   UNL     1      -1.904   1.398   8.274  1.00  0.00     0.316 C 
ATOM     29  C   UNL     1      -2.249  -0.408   9.442  1.00  0.00     0.280 C 
ATOM     30  N   UNL     1      -1.463   0.874   9.379  1.00  0.00    -0.264 N 
ATOM     31  H   UNL     1      -0.792   1.224  10.009  1.00  0.00     0.305 HD
ENDBRANCH  17  19
ENDBRANCH  14  15
ENDBRANCH  13  14
ENDBRANCH  12  13
ENDBRANCH   6  12
ENDBRANCH   3   6
ENDBRANCH   1   2
BRANCH   1  32
ATOM     32  C   UNL     1       0.372  -2.746   6.087  1.00  0.00     0.042 C 
BRANCH  32  33
ATOM     33  C   UNL     1      -0.855  -3.641   6.330  1.00  0.00     0.118 C 
BRANCH  33  34
ATOM     34  N   UNL     1      -0.711  -4.564   7.443  1.00  0.00    -0.352 N 
ATOM     35  C   UNL     1      -1.497  -4.806   8.552  1.00  0.00     0.251 C 
ATOM     36  H   UNL     1       0.100  -5.122   7.399  1.00  0.00     0.163 HD
ATOM     37  O   UNL     1      -1.072  -5.600   9.391  1.00  0.00    -0.269 OA
BRANCH  35  38
ATOM     38  C   UNL     1      -2.805  -4.129   8.806  1.00  0.00     0.039 A 
ATOM     39  C   UNL     1      -3.764  -3.916   7.817  1.00  0.00     0.014 A 
ATOM     40  C   UNL     1      -3.121  -3.757  10.125  1.00  0.00     0.014 A 
ATOM     41  C   UNL     1      -4.951  -3.219   8.124  1.00  0.00     0.010 A 
ATOM     42  C   UNL     1      -4.327  -3.096  10.437  1.00  0.00     0.010 A 
ATOM     43  C   UNL     1      -5.242  -2.765   9.433  1.00  0.00    -0.014 A 
BRANCH  43  44
ATOM     44  C   UNL     1      -6.511  -2.006   9.698  1.00  0.00     0.031 A 
ATOM     45  C   UNL     1      -6.561  -0.552  10.128  1.00  0.00     0.074 A 
ATOM     46  C   UNL     1      -7.689  -2.610   9.456  1.00  0.00     0.049 A 
ATOM     47  N   UNL     1      -7.494   0.337   9.882  1.00  0.00    -0.248 NA
ATOM     48  C   UNL     1      -5.417   0.002  10.860  1.00  0.00     0.031 C 
ATOM     49  C   UNL     1      -7.856  -4.016   9.091  1.00  0.00     0.029 A 
ATOM     50  N   UNL     1      -8.967  -2.116   9.501  1.00  0.00    -0.354 N 
ATOM     51  C   UNL     1      -6.972   1.567  10.277  1.00  0.00     0.074 A 
ATOM     52  C   UNL     1      -5.660   1.309  10.822  1.00  0.00     0.031 C 
ATOM     53  C   UNL     1      -9.164  -4.279   8.969  1.00  0.00     0.029 A 
ATOM     54  C   UNL     1      -9.925  -3.069   9.270  1.00  0.00     0.049 A 
ATOM     55  H   UNL     1      -9.175  -1.171   9.682  1.00  0.00     0.167 HD
ATOM     56  C   UNL     1      -7.538   2.796  10.211  1.00  0.00     0.034 A 
ATOM     57  C   UNL     1     -11.267  -2.990   9.329  1.00  0.00     0.034 A 
ATOM     58  C   UNL     1      -8.943   3.018  10.016  1.00  0.00     0.049 A 
ATOM     59  C   UNL     1     -11.925  -1.668   9.590  1.00  0.00     0.074 A 
ATOM     60  C   UNL     1      -9.640   4.214  10.046  1.00  0.00     0.029 A 
ATOM     61  N   UNL     1      -9.882   2.008   9.901  1.00  0.00    -0.354 N 
ATOM     62  N   UNL     1     -11.376  -0.481   9.658  1.00  0.00    -0.248 NA
ATOM     63  C   UNL     1     -13.385  -1.668   9.762  1.00  0.00     0.031 C 
ATOM     64  C   UNL     1     -11.007   3.915  10.046  1.00  0.00     0.029 A 
ATOM     65  C   UNL     1     -11.156   2.539   9.963  1.00  0.00     0.049 A 
ATOM     66  H   UNL     1      -9.674   1.052   9.792  1.00  0.00     0.167 HD
ATOM     67  C   UNL     1     -12.422   0.413   9.854  1.00  0.00     0.074 A 
ATOM     68  C   UNL     1     -13.639  -0.371   9.897  1.00  0.00     0.031 C 
ATOM     69  C   UNL     1     -12.369   1.760   9.982  1.00  0.00     0.034 A 
BRANCH  56  70
ATOM     70  C   UNL     1      -6.647   4.001  10.361  1.00  0.00     0.023 A 
ATOM     71  C   UNL     1      -6.017   4.499   9.201  1.00  0.00     0.012 A 
ATOM     72  C   UNL     1      -6.499   4.691  11.577  1.00  0.00     0.148 A 
ATOM     73  C   UNL     1      -5.243   5.658   9.251  1.00  0.00     0.002 A 
ATOM     74  C   UNL     1      -5.723   5.846  11.621  1.00  0.00     0.091 A 
ATOM     75  F   UNL     1      -7.125   4.211  12.660  1.00  0.00    -0.205 F 
ATOM     76  C   UNL     1      -5.095   6.331  10.460  1.00  0.00     0.022 A 
BRANCH  74  77
ATOM     77  S   UNL     1      -5.446   6.784  13.128  1.00  0.00     0.127 S 
ATOM     78  O   UNL     1      -3.986   6.792  13.211  1.00  0.00    -0.237 OA
ATOM     79  O   UNL     1      -6.047   8.074  12.803  1.00  0.00    -0.237 OA
ATOM     80  O   UNL     1      -6.109   6.037  14.192  1.00  0.00    -0.744 OA
ENDBRANCH  74  77
ENDBRANCH  56  70
BRANCH  57  81
ATOM     81  C   UNL     1     -12.050  -4.238   9.153  1.00  0.00     0.023 A 
ATOM     82  C   UNL     1     -12.740  -4.473   7.952  1.00  0.00     0.012 A 
ATOM     83  C   UNL     1     -12.006  -5.241  10.142  1.00  0.00     0.148 A 
ATOM     84  C   UNL     1     -13.369  -5.700   7.736  1.00  0.00     0.002 A 
ATOM     85  C   UNL     1     -12.597  -6.472   9.903  1.00  0.00     0.091 A 
ATOM     86  F   UNL     1     -11.342  -4.980  11.278  1.00  0.00    -0.205 F 
ATOM     87  C   UNL     1     -13.286  -6.702   8.702  1.00  0.00     0.022 A 
BRANCH  85  88
ATOM     88  S   UNL     1     -12.444  -7.854  11.039  1.00  0.00     0.127 S 
ATOM     89  O   UNL     1     -13.821  -8.025  11.486  1.00  0.00    -0.237 OA
ATOM     90  O   UNL     1     -11.940  -8.909  10.162  1.00  0.00    -0.237 OA
ATOM     91  O   UNL     1     -11.500  -7.420  12.065  1.00  0.00    -0.744 OA
ENDBRANCH  85  88
ENDBRANCH  57  81
BRANCH  69  92
ATOM     92  C   UNL     1     -13.651   2.518  10.185  1.00  0.00     0.023 A 
ATOM     93  C   UNL     1     -14.246   2.549  11.459  1.00  0.00     0.012 A 
ATOM     94  C   UNL     1     -14.152   3.343   9.160  1.00  0.00     0.148 A 
ATOM     95  C   UNL     1     -15.318   3.405  11.714  1.00  0.00     0.002 A 
ATOM     96  C   UNL     1     -15.188   4.226   9.433  1.00  0.00     0.091 A 
ATOM     97  F   UNL     1     -13.578   3.276   7.950  1.00  0.00    -0.205 F 
ATOM     98  C   UNL     1     -15.774   4.256  10.709  1.00  0.00     0.022 A 
BRANCH  96  99
ATOM     99  S   UNL     1     -15.760   5.434   8.234  1.00  0.00     0.127 S 
ATOM    100  O   UNL     1     -17.087   4.918   7.902  1.00  0.00    -0.237 OA
ATOM    101  O   UNL     1     -15.764   6.670   9.017  1.00  0.00    -0.237 OA
ATOM    102  O   UNL     1     -14.793   5.410   7.145  1.00  0.00    -0.744 OA
ENDBRANCH  96  99
ENDBRANCH  69  92
ENDBRANCH  43  44
ENDBRANCH  35  38
ENDBRANCH  33  34
ENDBRANCH  32  33
ENDBRANCH   1  32
TORSDOF 19
