REMARK SMILES C[C@H](NC(=O)c1ccc(C(C)(C)C)cc1)C(=O)N[C@@H](C(=O)NCCCNC(=O)c1ccc(-c2c3nc(c(-c4cccc(S(=O)(=O)[O-])c4F)c4ccc([nH]4)c(-c4cccc(S(=O)(=O)[O-])c4F)c4nc(c(-c5cccc(S(=O)(=O)[O-])c5F)c5ccc2[nH]5)C=C4)C=C3)cc1)[C@H](C)O
REMARK SMILES IDX 23 1 22 2 20 3 21 4 19 6 18 7 16 8 17 9 2 11 1 12 3 13 4 14
REMARK SMILES IDX 5 16 6 17 7 18 15 19 8 20 14 21 9 22 10 23 11 24 12 25 13 26
REMARK SMILES IDX 92 27 93 28 94 29 24 31 25 32 26 33 27 34 28 36 29 37 30 38
REMARK SMILES IDX 91 39 31 40 90 41 32 42 33 43 34 44 84 45 35 46 89 47 83 48
REMARK SMILES IDX 85 49 36 50 88 51 82 52 81 53 37 55 69 56 49 57 68 58 50 59
REMARK SMILES IDX 53 60 67 61 86 62 51 63 52 64 66 66 87 67 54 68 38 69 39 70
REMARK SMILES IDX 47 71 40 72 42 73 48 74 41 75 43 76 44 77 45 78 46 79 70 80
REMARK SMILES IDX 71 81 79 82 72 83 74 84 80 85 73 86 75 87 76 88 77 89 78 90
REMARK SMILES IDX 55 91 56 92 64 93 57 94 59 95 65 96 58 97 60 98 61 99 62 100
REMARK SMILES IDX 63 101
REMARK H PARENT 22 5 18 10 3 15 94 30 26 35 85 54 53 65
REMARK Flexibility Score: inf
ROOT
ATOM      1  C   UNL     1       0.539  -5.554   3.357  1.00  0.00     0.117 C 
ENDROOT
BRANCH   1   2
ATOM      2  N   UNL     1       0.604  -4.464   4.295  1.00  0.00    -0.354 N 
ATOM      3  C   UNL     1      -0.119  -3.309   4.271  1.00  0.00     0.245 C 
ATOM      4  O   UNL     1      -0.281  -2.751   5.365  1.00  0.00    -0.273 OA
ATOM      5  H   UNL     1       1.242  -4.564   5.037  1.00  0.00     0.163 HD
BRANCH   3   6
ATOM      6  C   UNL     1      -0.856  -2.801   2.984  1.00  0.00     0.200 C 
BRANCH   6   7
ATOM      7  N   UNL     1      -0.055  -2.926   1.756  1.00  0.00    -0.340 N 
ATOM      8  C   UNL     1      -0.316  -3.422   0.511  1.00  0.00     0.243 C 
ATOM      9  O   UNL     1       0.606  -3.341  -0.308  1.00  0.00    -0.273 OA
ATOM     10  H   UNL     1       0.862  -2.580   1.853  1.00  0.00     0.164 HD
BRANCH   8  11
ATOM     11  C   UNL     1      -1.607  -4.199   0.117  1.00  0.00     0.168 C 
ATOM     12  C   UNL     1      -2.901  -3.446   0.377  1.00  0.00     0.041 C 
BRANCH  11  13
ATOM     13  N   UNL     1      -1.518  -5.537   0.706  1.00  0.00    -0.341 N 
ATOM     14  C   UNL     1      -2.423  -6.553   0.843  1.00  0.00     0.251 C 
ATOM     15  H   UNL     1      -0.630  -5.747   1.077  1.00  0.00     0.164 HD
ATOM     16  O   UNL     1      -2.209  -7.477   1.613  1.00  0.00    -0.269 OA
BRANCH  14  17
ATOM     17  C   UNL     1      -3.641  -6.541   0.024  1.00  0.00     0.039 A 
ATOM     18  C   UNL     1      -4.894  -6.616   0.625  1.00  0.00     0.014 A 
ATOM     19  C   UNL     1      -3.519  -6.487  -1.362  1.00  0.00     0.014 A 
ATOM     20  C   UNL     1      -6.037  -6.545  -0.175  1.00  0.00     0.005 A 
ATOM     21  C   UNL     1      -4.663  -6.418  -2.153  1.00  0.00     0.005 A 
ATOM     22  C   UNL     1      -5.946  -6.409  -1.578  1.00  0.00    -0.043 A 
BRANCH  22  23
ATOM     23  C   UNL     1      -7.215  -6.263  -2.433  1.00  0.00    -0.013 C 
ATOM     24  C   UNL     1      -7.991  -7.593  -2.421  1.00  0.00     0.016 C 
ATOM     25  C   UNL     1      -8.111  -5.139  -1.866  1.00  0.00     0.016 C 
ATOM     26  C   UNL     1      -6.923  -5.897  -3.907  1.00  0.00     0.016 C 
ENDBRANCH  22  23
ENDBRANCH  14  17
ENDBRANCH  11  13
ENDBRANCH   8  11
ENDBRANCH   6   7
BRANCH   6  27
ATOM     27  C   UNL     1      -1.322  -1.320   3.240  1.00  0.00     0.143 C 
ATOM     28  C   UNL     1      -1.527  -0.465   1.997  1.00  0.00     0.041 C 
BRANCH  27  29
ATOM     29  O   UNL     1      -0.385  -0.565   4.025  1.00  0.00    -0.391 OA
ATOM     30  H   UNL     1       0.436  -0.448   3.523  1.00  0.00     0.211 HD
ENDBRANCH  27  29
ENDBRANCH   6  27
ENDBRANCH   3   6
ENDBRANCH   1   2
BRANCH   1  31
ATOM     31  C   UNL     1       1.771  -5.670   2.470  1.00  0.00     0.042 C 
BRANCH  31  32
ATOM     32  C   UNL     1       2.925  -6.399   3.146  1.00  0.00     0.118 C 
BRANCH  32  33
ATOM     33  N   UNL     1       2.623  -7.802   3.411  1.00  0.00    -0.352 N 
ATOM     34  C   UNL     1       3.372  -8.927   3.171  1.00  0.00     0.251 C 
ATOM     35  H   UNL     1       1.745  -7.967   3.826  1.00  0.00     0.163 HD
ATOM     36  O   UNL     1       2.877 -10.036   3.355  1.00  0.00    -0.269 OA
BRANCH  34  37
ATOM     37  C   UNL     1       4.758  -8.808   2.673  1.00  0.00     0.039 A 
ATOM     38  C   UNL     1       5.188  -9.677   1.665  1.00  0.00     0.014 A 
ATOM     39  C   UNL     1       5.630  -7.851   3.194  1.00  0.00     0.014 A 
ATOM     40  C   UNL     1       6.473  -9.541   1.136  1.00  0.00     0.010 A 
ATOM     41  C   UNL     1       6.876  -7.662   2.609  1.00  0.00     0.010 A 
ATOM     42  C   UNL     1       7.314  -8.509   1.581  1.00  0.00    -0.014 A 
BRANCH  42  43
ATOM     43  C   UNL     1       8.658  -8.290   0.992  1.00  0.00     0.031 A 
ATOM     44  C   UNL     1       9.885  -8.408   1.854  1.00  0.00     0.074 A 
ATOM     45  C   UNL     1       8.764  -7.880  -0.287  1.00  0.00     0.049 A 
ATOM     46  N   UNL     1      11.133  -8.168   1.550  1.00  0.00    -0.248 NA
ATOM     47  C   UNL     1       9.677  -8.814   3.254  1.00  0.00     0.031 C 
ATOM     48  C   UNL     1       7.641  -7.652  -1.200  1.00  0.00     0.029 A 
ATOM     49  N   UNL     1       9.868  -7.558  -1.034  1.00  0.00    -0.354 N 
ATOM     50  C   UNL     1      11.850  -8.342   2.728  1.00  0.00     0.074 A 
ATOM     51  C   UNL     1      10.893  -8.675   3.760  1.00  0.00     0.031 C 
ATOM     52  C   UNL     1       8.115  -7.247  -2.389  1.00  0.00     0.029 A 
ATOM     53  C   UNL     1       9.570  -7.156  -2.315  1.00  0.00     0.049 A 
ATOM     54  H   UNL     1      10.788  -7.609  -0.687  1.00  0.00     0.167 HD
ATOM     55  C   UNL     1      13.188  -8.268   2.926  1.00  0.00     0.034 A 
ATOM     56  C   UNL     1      10.379  -6.765  -3.318  1.00  0.00     0.034 A 
ATOM     57  C   UNL     1      14.139  -8.010   1.880  1.00  0.00     0.049 A 
ATOM     58  C   UNL     1      11.866  -6.745  -3.088  1.00  0.00     0.074 A 
ATOM     59  C   UNL     1      15.520  -8.026   1.948  1.00  0.00     0.029 A 
ATOM     60  N   UNL     1      13.804  -7.691   0.573  1.00  0.00    -0.354 N 
ATOM     61  N   UNL     1      12.538  -7.072  -2.011  1.00  0.00    -0.248 NA
ATOM     62  C   UNL     1      12.707  -6.333  -4.221  1.00  0.00     0.031 C 
ATOM     63  C   UNL     1      16.021  -7.707   0.680  1.00  0.00     0.029 A 
ATOM     64  C   UNL     1      14.952  -7.501  -0.177  1.00  0.00     0.049 A 
ATOM     65  H   UNL     1      12.886  -7.611   0.228  1.00  0.00     0.167 HD
ATOM     66  C   UNL     1      13.881  -6.941  -2.345  1.00  0.00     0.074 A 
ATOM     67  C   UNL     1      13.926  -6.520  -3.731  1.00  0.00     0.031 C 
ATOM     68  C   UNL     1      14.977  -7.137  -1.571  1.00  0.00     0.034 A 
BRANCH  55  69
ATOM     69  C   UNL     1      13.697  -8.539   4.318  1.00  0.00     0.023 A 
ATOM     70  C   UNL     1      13.655  -9.853   4.827  1.00  0.00     0.012 A 
ATOM     71  C   UNL     1      14.235  -7.509   5.113  1.00  0.00     0.148 A 
ATOM     72  C   UNL     1      14.096 -10.131   6.120  1.00  0.00     0.002 A 
ATOM     73  C   UNL     1      14.713  -7.801   6.386  1.00  0.00     0.091 A 
ATOM     74  F   UNL     1      14.244  -6.259   4.627  1.00  0.00    -0.205 F 
ATOM     75  C   UNL     1      14.633  -9.107   6.896  1.00  0.00     0.022 A 
BRANCH  73  76
ATOM     76  S   UNL     1      15.489  -6.556   7.424  1.00  0.00     0.127 S 
ATOM     77  O   UNL     1      14.393  -6.191   8.319  1.00  0.00    -0.237 OA
ATOM     78  O   UNL     1      16.571  -7.308   8.062  1.00  0.00    -0.237 OA
ATOM     79  O   UNL     1      15.940  -5.514   6.513  1.00  0.00    -0.744 OA
ENDBRANCH  73  76
ENDBRANCH  55  69
BRANCH  56  80
ATOM     80  C   UNL     1       9.805  -6.468  -4.661  1.00  0.00     0.023 A 
ATOM     81  C   UNL     1      10.017  -7.391  -5.705  1.00  0.00     0.012 A 
ATOM     82  C   UNL     1       9.020  -5.325  -4.902  1.00  0.00     0.148 A 
ATOM     83  C   UNL     1       9.476  -7.170  -6.971  1.00  0.00     0.002 A 
ATOM     84  C   UNL     1       8.444  -5.135  -6.154  1.00  0.00     0.091 A 
ATOM     85  F   UNL     1       8.839  -4.456  -3.898  1.00  0.00    -0.205 F 
ATOM     86  C   UNL     1       8.682  -6.049  -7.193  1.00  0.00     0.022 A 
BRANCH  84  87
ATOM     87  S   UNL     1       7.311  -3.785  -6.504  1.00  0.00     0.127 S 
ATOM     88  O   UNL     1       8.104  -2.954  -7.406  1.00  0.00    -0.237 OA
ATOM     89  O   UNL     1       6.192  -4.486  -7.136  1.00  0.00    -0.237 OA
ATOM     90  O   UNL     1       6.996  -3.192  -5.212  1.00  0.00    -0.744 OA
ENDBRANCH  84  87
ENDBRANCH  56  80
BRANCH  68  91
ATOM     91  C   UNL     1      16.325  -6.925  -2.207  1.00  0.00     0.023 A 
ATOM     92  C   UNL     1      16.779  -5.614  -2.451  1.00  0.00     0.012 A 
ATOM     93  C   UNL     1      17.172  -8.016  -2.485  1.00  0.00     0.148 A 
ATOM     94  C   UNL     1      18.047  -5.393  -2.986  1.00  0.00     0.002 A 
ATOM     95  C   UNL     1      18.451  -7.785  -2.976  1.00  0.00     0.091 A 
ATOM     96  F   UNL     1      16.712  -9.256  -2.266  1.00  0.00    -0.205 F 
ATOM     97  C   UNL     1      18.887  -6.476  -3.236  1.00  0.00     0.022 A 
BRANCH  95  98
ATOM     98  S   UNL     1      19.631  -9.115  -3.237  1.00  0.00     0.127 S 
ATOM     99  O   UNL     1      19.604  -9.257  -4.692  1.00  0.00    -0.237 OA
ATOM    100  O   UNL     1      20.869  -8.547  -2.702  1.00  0.00    -0.237 OA
ATOM    101  O   UNL     1      19.119 -10.254  -2.486  1.00  0.00    -0.744 OA
ENDBRANCH  95  98
ENDBRANCH  68  91
ENDBRANCH  42  43
ENDBRANCH  34  37
ENDBRANCH  32  33
ENDBRANCH  31  32
ENDBRANCH   1  31
TORSDOF 20
