REMARK SMILES C[N@@H+](CC(=O)NCCCNC(=O)c1ccc(-c2c3nc(c(-c4cccc(S(=O)(=O)[O-])c4F)c4ccc([nH]4)c(-c4cccc(S(=O)(=O)[O-])c4F)c4nc(c(-c5cccc(S(=O)(=O)[O-])c5F)c5ccc2[nH]5)C=C4)C=C3)cc1)Cc1nccs1
REMARK SMILES IDX 8 1 7 2 6 3 4 4 5 5 3 7 2 8 1 9 76 11 77 12 78 13 81 14
REMARK SMILES IDX 79 15 80 16 9 17 10 18 11 19 12 21 13 22 14 23 75 24 15 25
REMARK SMILES IDX 74 26 16 27 17 28 18 29 68 30 19 31 73 32 67 33 69 34 20 35
REMARK SMILES IDX 72 36 66 37 65 38 21 40 53 41 33 42 52 43 34 44 37 45 51 46
REMARK SMILES IDX 70 47 35 48 36 49 50 51 71 52 38 53 22 54 23 55 31 56 24 57
REMARK SMILES IDX 26 58 32 59 25 60 27 61 28 62 29 63 30 64 54 65 55 66 63 67
REMARK SMILES IDX 56 68 58 69 64 70 57 71 59 72 60 73 61 74 62 75 39 76 40 77
REMARK SMILES IDX 48 78 41 79 43 80 49 81 42 82 44 83 45 84 46 85 47 86
REMARK H PARENT 6 6 2 10 10 20 69 39 37 50
REMARK Flexibility Score: inf
ROOT
ATOM      1  C   UNL     1       0.520   2.440   0.899  1.00  0.00     0.042 C 
ENDROOT
BRANCH   1   2
ATOM      2  C   UNL     1      -0.712   1.544   0.970  1.00  0.00     0.118 C 
BRANCH   2   3
ATOM      3  N   UNL     1      -1.402   1.403  -0.296  1.00  0.00    -0.351 N 
ATOM      4  C   UNL     1      -1.665   0.292  -1.040  1.00  0.00     0.275 C 
ATOM      5  O   UNL     1      -2.565   0.386  -1.882  1.00  0.00    -0.269 OA
ATOM      6  H   UNL     1      -1.734   2.245  -0.682  1.00  0.00     0.163 HD
BRANCH   4   7
ATOM      7  C   UNL     1      -0.970  -1.045  -0.785  1.00  0.00     0.363 C 
BRANCH   7   8
ATOM      8  N   UNL     1       0.424  -1.178  -1.216  1.00  0.00    -0.324 N 
ATOM      9  C   UNL     1       1.461  -0.926  -0.245  1.00  0.00     0.333 C 
ATOM     10  H   UNL     1       0.421  -2.197  -1.244  1.00  0.00     0.348 HD
BRANCH   8  11
ATOM     11  C   UNL     1       0.767  -0.903  -2.616  1.00  0.00     0.331 C 
BRANCH  11  12
ATOM     12  C   UNL     1       0.599   0.513  -3.111  1.00  0.00     0.147 A 
ATOM     13  N   UNL     1      -0.408   0.908  -3.865  1.00  0.00    -0.244 NA
ATOM     14  S   UNL     1       1.771   1.731  -2.781  1.00  0.00    -0.122 S 
ATOM     15  C   UNL     1      -0.325   2.263  -4.099  1.00  0.00     0.123 A 
ATOM     16  C   UNL     1       0.786   2.886  -3.577  1.00  0.00     0.087 A 
ENDBRANCH  11  12
ENDBRANCH   8  11
ENDBRANCH   7   8
ENDBRANCH   4   7
ENDBRANCH   2   3
ENDBRANCH   1   2
BRANCH   1  17
ATOM     17  C   UNL     1       0.269   3.857   0.401  1.00  0.00     0.118 C 
BRANCH  17  18
ATOM     18  N   UNL     1      -0.320   4.711   1.420  1.00  0.00    -0.352 N 
ATOM     19  C   UNL     1       0.219   5.786   2.087  1.00  0.00     0.251 C 
ATOM     20  H   UNL     1      -1.245   4.485   1.670  1.00  0.00     0.163 HD
ATOM     21  O   UNL     1      -0.372   6.243   3.061  1.00  0.00    -0.269 OA
BRANCH  19  22
ATOM     22  C   UNL     1       1.506   6.388   1.657  1.00  0.00     0.039 A 
ATOM     23  C   UNL     1       2.419   6.797   2.636  1.00  0.00     0.014 A 
ATOM     24  C   UNL     1       1.801   6.605   0.308  1.00  0.00     0.014 A 
ATOM     25  C   UNL     1       3.639   7.372   2.262  1.00  0.00     0.010 A 
ATOM     26  C   UNL     1       3.049   7.106  -0.065  1.00  0.00     0.010 A 
ATOM     27  C   UNL     1       3.977   7.511   0.907  1.00  0.00    -0.014 A 
BRANCH  27  28
ATOM     28  C   UNL     1       5.278   8.099   0.485  1.00  0.00     0.031 A 
ATOM     29  C   UNL     1       5.308   9.383  -0.306  1.00  0.00     0.074 A 
ATOM     30  C   UNL     1       6.430   7.451   0.752  1.00  0.00     0.049 A 
ATOM     31  N   UNL     1       6.332  10.012  -0.823  1.00  0.00    -0.248 NA
ATOM     32  C   UNL     1       4.013  10.033  -0.571  1.00  0.00     0.031 C 
ATOM     33  C   UNL     1       6.539   6.173   1.458  1.00  0.00     0.029 A 
ATOM     34  N   UNL     1       7.730   7.767   0.440  1.00  0.00    -0.354 N 
ATOM     35  C   UNL     1       5.806  11.109  -1.496  1.00  0.00     0.074 A 
ATOM     36  C   UNL     1       4.369  11.040  -1.356  1.00  0.00     0.031 C 
ATOM     37  C   UNL     1       7.833   5.817   1.529  1.00  0.00     0.029 A 
ATOM     38  C   UNL     1       8.643   6.823   0.850  1.00  0.00     0.049 A 
ATOM     39  H   UNL     1       7.984   8.592  -0.034  1.00  0.00     0.167 HD
ATOM     40  C   UNL     1       6.458  12.107  -2.141  1.00  0.00     0.034 A 
ATOM     41  C   UNL     1       9.982   6.771   0.692  1.00  0.00     0.034 A 
ATOM     42  C   UNL     1       7.890  12.204  -2.240  1.00  0.00     0.049 A 
ATOM     43  C   UNL     1      10.682   7.903  -0.012  1.00  0.00     0.074 A 
ATOM     44  C   UNL     1       8.646  13.205  -2.824  1.00  0.00     0.029 A 
ATOM     45  N   UNL     1       8.782  11.270  -1.739  1.00  0.00    -0.354 N 
ATOM     46  N   UNL     1      10.174   8.998  -0.524  1.00  0.00    -0.248 NA
ATOM     47  C   UNL     1      12.145   7.810  -0.129  1.00  0.00     0.031 C 
ATOM     48  C   UNL     1       9.997  12.871  -2.684  1.00  0.00     0.029 A 
ATOM     49  C   UNL     1      10.082  11.671  -1.996  1.00  0.00     0.049 A 
ATOM     50  H   UNL     1       8.530  10.442  -1.269  1.00  0.00     0.167 HD
ATOM     51  C   UNL     1      11.256   9.742  -0.981  1.00  0.00     0.074 A 
ATOM     52  C   UNL     1      12.449   8.982  -0.670  1.00  0.00     0.031 C 
ATOM     53  C   UNL     1      11.262  10.940  -1.617  1.00  0.00     0.034 A 
BRANCH  40  54
ATOM     54  C   UNL     1       5.629  13.218  -2.731  1.00  0.00     0.023 A 
ATOM     55  C   UNL     1       5.011  14.148  -1.870  1.00  0.00     0.012 A 
ATOM     56  C   UNL     1       5.514  13.386  -4.125  1.00  0.00     0.148 A 
ATOM     57  C   UNL     1       4.263  15.206  -2.383  1.00  0.00     0.002 A 
ATOM     58  C   UNL     1       4.803  14.470  -4.630  1.00  0.00     0.091 A 
ATOM     59  F   UNL     1       6.094  12.484  -4.929  1.00  0.00    -0.205 F 
ATOM     60  C   UNL     1       4.168  15.373  -3.761  1.00  0.00     0.022 A 
BRANCH  58  61
ATOM     61  S   UNL     1       4.683  14.819  -6.389  1.00  0.00     0.127 S 
ATOM     62  O   UNL     1       3.278  14.511  -6.655  1.00  0.00    -0.237 OA
ATOM     63  O   UNL     1       5.016  16.242  -6.444  1.00  0.00    -0.237 OA
ATOM     64  O   UNL     1       5.648  13.943  -7.039  1.00  0.00    -0.744 OA
ENDBRANCH  58  61
ENDBRANCH  40  54
BRANCH  41  65
ATOM     65  C   UNL     1      10.764   5.641   1.273  1.00  0.00     0.023 A 
ATOM     66  C   UNL     1      11.626   5.889   2.360  1.00  0.00     0.012 A 
ATOM     67  C   UNL     1      10.663   4.333   0.764  1.00  0.00     0.148 A 
ATOM     68  C   UNL     1      12.401   4.864   2.903  1.00  0.00     0.002 A 
ATOM     69  C   UNL     1      11.397   3.304   1.346  1.00  0.00     0.091 A 
ATOM     70  F   UNL     1       9.852   4.117  -0.282  1.00  0.00    -0.205 F 
ATOM     71  C   UNL     1      12.280   3.571   2.403  1.00  0.00     0.022 A 
BRANCH  69  72
ATOM     72  S   UNL     1      11.201   1.589   0.848  1.00  0.00     0.127 S 
ATOM     73  O   UNL     1      12.407   1.366   0.057  1.00  0.00    -0.237 OA
ATOM     74  O   UNL     1      11.169   0.897   2.136  1.00  0.00    -0.237 OA
ATOM     75  O   UNL     1       9.940   1.541   0.116  1.00  0.00    -0.744 OA
ENDBRANCH  69  72
ENDBRANCH  41  65
BRANCH  53  76
ATOM     76  C   UNL     1      12.597  11.537  -1.976  1.00  0.00     0.023 A 
ATOM     77  C   UNL     1      13.346  10.993  -3.038  1.00  0.00     0.012 A 
ATOM     78  C   UNL     1      13.071  12.686  -1.312  1.00  0.00     0.148 A 
ATOM     79  C   UNL     1      14.561  11.565  -3.413  1.00  0.00     0.002 A 
ATOM     80  C   UNL     1      14.259  13.279  -1.723  1.00  0.00     0.091 A 
ATOM     81  F   UNL     1      12.352  13.178  -0.292  1.00  0.00    -0.205 F 
ATOM     82  C   UNL     1      15.011  12.713  -2.765  1.00  0.00     0.022 A 
BRANCH  80  83
ATOM     83  S   UNL     1      14.867  14.812  -1.011  1.00  0.00     0.127 S 
ATOM     84  O   UNL     1      15.997  14.342  -0.212  1.00  0.00    -0.237 OA
ATOM     85  O   UNL     1      15.237  15.581  -2.199  1.00  0.00    -0.237 OA
ATOM     86  O   UNL     1      13.755  15.371  -0.253  1.00  0.00    -0.744 OA
ENDBRANCH  80  83
ENDBRANCH  53  76
ENDBRANCH  27  28
ENDBRANCH  19  22
ENDBRANCH  17  18
ENDBRANCH   1  17
TORSDOF 16
