REMARK SMILES C[C@H]1[C@@H](C(=O)NCCCNC(=O)c2ccc(-c3c4nc(c(-c5cccc(S(=O)(=O)[O-])c5F)c5ccc([nH]5)c(-c5cccc(S(=O)(=O)[O-])c5F)c5nc(c(-c6cccc(S(=O)(=O)[O-])c6F)c6ccc3[nH]6)C=C5)C=C4)cc2)CCN1C(=O)N[C@@H]1CC[N@H+]2CCCC[C@H]12
REMARK SMILES IDX 8 1 7 2 6 3 4 4 5 5 3 7 1 8 2 9 78 10 76 11 77 12 79 13
REMARK SMILES IDX 80 14 81 15 82 17 83 18 90 19 84 20 85 21 89 22 86 23 88 25
REMARK SMILES IDX 87 26 9 27 10 28 11 29 12 31 13 32 14 33 75 34 15 35 74 36
REMARK SMILES IDX 16 37 17 38 18 39 68 40 19 41 73 42 67 43 69 44 20 45 72 46
REMARK SMILES IDX 66 47 65 48 21 50 53 51 33 52 52 53 34 54 37 55 51 56 70 57
REMARK SMILES IDX 35 58 36 59 50 61 71 62 38 63 22 64 23 65 31 66 24 67 26 68
REMARK SMILES IDX 32 69 25 70 27 71 28 72 29 73 30 74 54 75 55 76 63 77 56 78
REMARK SMILES IDX 58 79 64 80 57 81 59 82 60 83 61 84 62 85 39 86 40 87 48 88
REMARK SMILES IDX 41 89 43 90 49 91 42 92 44 93 45 94 46 95 47 96
REMARK H PARENT 6 6 81 16 85 24 10 30 69 49 37 60
REMARK Flexibility Score: inf
ROOT
ATOM      1  C   UNL     1       0.016  -1.077  -2.300  1.00  0.00     0.042 C 
ENDROOT
BRANCH   1   2
ATOM      2  C   UNL     1      -0.890  -2.109  -1.617  1.00  0.00     0.117 C 
BRANCH   2   3
ATOM      3  N   UNL     1      -0.795  -3.425  -2.236  1.00  0.00    -0.356 N 
ATOM      4  C   UNL     1      -0.238  -4.604  -1.831  1.00  0.00     0.225 C 
ATOM      5  O   UNL     1      -0.364  -5.556  -2.607  1.00  0.00    -0.275 OA
ATOM      6  H   UNL     1      -1.218  -3.474  -3.124  1.00  0.00     0.163 HD
BRANCH   4   7
ATOM      7  C   UNL     1       0.410  -4.778  -0.457  1.00  0.00     0.102 C 
ATOM      8  C   UNL     1       2.321  -3.170  -1.192  1.00  0.00     0.032 C 
ATOM      9  C   UNL     1       1.539  -3.812  -0.055  1.00  0.00     0.096 C 
ATOM     10  N   UNL     1       2.473  -4.600   0.731  1.00  0.00    -0.321 N 
ATOM     11  C   UNL     1       1.010  -6.186  -0.221  1.00  0.00     0.037 C 
ATOM     12  C   UNL     1       2.444  -5.960   0.230  1.00  0.00     0.122 C 
BRANCH  10  13
ATOM     13  C   UNL     1       3.579  -4.168   1.413  1.00  0.00     0.318 C 
ATOM     14  O   UNL     1       4.494  -4.946   1.697  1.00  0.00    -0.249 OA
ATOM     15  N   UNL     1       3.754  -2.871   1.754  1.00  0.00    -0.329 N 
ATOM     16  H   UNL     1       4.699  -2.657   1.930  1.00  0.00     0.165 HD
BRANCH  15  17
ATOM     17  C   UNL     1       2.883  -1.711   1.926  1.00  0.00     0.147 C 
ATOM     18  C   UNL     1       3.162  -0.590   0.905  1.00  0.00     0.092 C 
ATOM     19  C   UNL     1       3.016  -0.991   3.287  1.00  0.00     0.207 C 
ATOM     20  C   UNL     1       3.109   0.708   1.700  1.00  0.00     0.264 C 
ATOM     21  N   UNL     1       3.671   0.281   2.966  1.00  0.00    -0.331 N 
ATOM     22  C   UNL     1       3.786  -1.672   4.410  1.00  0.00     0.067 C 
ATOM     23  C   UNL     1       3.555   1.239   4.055  1.00  0.00     0.262 C 
ATOM     24  H   UNL     1       4.681   0.187   2.863  1.00  0.00     0.348 HD
ATOM     25  C   UNL     1       3.789  -0.754   5.638  1.00  0.00     0.012 C 
ATOM     26  C   UNL     1       4.261   0.664   5.289  1.00  0.00     0.062 C 
ENDBRANCH  15  17
ENDBRANCH  10  13
ENDBRANCH   4   7
ENDBRANCH   2   3
ENDBRANCH   1   2
BRANCH   1  27
ATOM     27  C   UNL     1      -0.462  -0.549  -3.645  1.00  0.00     0.118 C 
BRANCH  27  28
ATOM     28  N   UNL     1      -1.183   0.701  -3.520  1.00  0.00    -0.352 N 
ATOM     29  C   UNL     1      -0.790   2.012  -3.661  1.00  0.00     0.251 C 
ATOM     30  H   UNL     1      -2.135   0.592  -3.292  1.00  0.00     0.163 HD
ATOM     31  O   UNL     1      -1.576   2.874  -3.263  1.00  0.00    -0.269 OA
BRANCH  29  32
ATOM     32  C   UNL     1       0.514   2.439  -4.248  1.00  0.00     0.039 A 
ATOM     33  C   UNL     1       1.032   3.681  -3.849  1.00  0.00     0.014 A 
ATOM     34  C   UNL     1       1.187   1.738  -5.252  1.00  0.00     0.014 A 
ATOM     35  C   UNL     1       2.197   4.199  -4.434  1.00  0.00     0.010 A 
ATOM     36  C   UNL     1       2.404   2.209  -5.765  1.00  0.00     0.010 A 
ATOM     37  C   UNL     1       2.908   3.462  -5.393  1.00  0.00    -0.014 A 
BRANCH  37  38
ATOM     38  C   UNL     1       4.139   4.010  -6.036  1.00  0.00     0.031 A 
ATOM     39  C   UNL     1       4.198   4.233  -7.531  1.00  0.00     0.074 A 
ATOM     40  C   UNL     1       5.233   4.270  -5.291  1.00  0.00     0.049 A 
ATOM     41  N   UNL     1       5.188   4.680  -8.263  1.00  0.00    -0.248 NA
ATOM     42  C   UNL     1       2.998   3.882  -8.308  1.00  0.00     0.031 C 
ATOM     43  C   UNL     1       5.351   4.030  -3.852  1.00  0.00     0.029 A 
ATOM     44  N   UNL     1       6.463   4.774  -5.643  1.00  0.00    -0.354 N 
ATOM     45  C   UNL     1       4.746   4.629  -9.582  1.00  0.00     0.074 A 
ATOM     46  C   UNL     1       3.412   4.070  -9.553  1.00  0.00     0.031 C 
ATOM     47  C   UNL     1       6.578   4.389  -3.444  1.00  0.00     0.029 A 
ATOM     48  C   UNL     1       7.346   4.863  -4.592  1.00  0.00     0.049 A 
ATOM     49  H   UNL     1       6.690   5.045  -6.562  1.00  0.00     0.167 HD
ATOM     50  C   UNL     1       5.371   5.040 -10.713  1.00  0.00     0.034 A 
ATOM     51  C   UNL     1       8.629   5.275  -4.551  1.00  0.00     0.034 A 
ATOM     52  C   UNL     1       6.676   5.647 -10.743  1.00  0.00     0.049 A 
ATOM     53  C   UNL     1       9.281   5.783  -5.809  1.00  0.00     0.074 A 
ATOM     54  C   UNL     1       7.355   6.175 -11.827  1.00  0.00     0.029 A 
ATOM     55  N   UNL     1       7.500   5.807  -9.640  1.00  0.00    -0.354 N 
ATOM     56  N   UNL     1       8.784   5.871  -7.018  1.00  0.00    -0.248 NA
ATOM     57  C   UNL     1      10.658   6.286  -5.687  1.00  0.00     0.031 C 
ATOM     58  C   UNL     1       8.598   6.639 -11.382  1.00  0.00     0.029 A 
ATOM     59  C   UNL     1       8.683   6.421 -10.017  1.00  0.00     0.049 A 
ATOM     60  H   UNL     1       7.277   5.525  -8.724  1.00  0.00     0.167 HD
ATOM     61  C   UNL     1       9.774   6.464  -7.795  1.00  0.00     0.074 A 
ATOM     62  C   UNL     1      10.888   6.742  -6.912  1.00  0.00     0.031 C 
ATOM     63  C   UNL     1       9.768   6.737  -9.123  1.00  0.00     0.034 A 
BRANCH  50  64
ATOM     64  C   UNL     1       4.620   4.908 -12.015  1.00  0.00     0.023 A 
ATOM     65  C   UNL     1       3.518   5.752 -12.268  1.00  0.00     0.012 A 
ATOM     66  C   UNL     1       5.030   3.997 -13.009  1.00  0.00     0.148 A 
ATOM     67  C   UNL     1       2.812   5.665 -13.467  1.00  0.00     0.002 A 
ATOM     68  C   UNL     1       4.348   3.946 -14.221  1.00  0.00     0.091 A 
ATOM     69  F   UNL     1       6.068   3.190 -12.749  1.00  0.00    -0.205 F 
ATOM     70  C   UNL     1       3.232   4.769 -14.446  1.00  0.00     0.022 A 
BRANCH  68  71
ATOM     71  S   UNL     1       4.857   2.884 -15.578  1.00  0.00     0.127 S 
ATOM     72  O   UNL     1       3.810   1.865 -15.563  1.00  0.00    -0.237 OA
ATOM     73  O   UNL     1       4.803   3.796 -16.721  1.00  0.00    -0.237 OA
ATOM     74  O   UNL     1       6.194   2.415 -15.239  1.00  0.00    -0.744 OA
ENDBRANCH  68  71
ENDBRANCH  50  64
BRANCH  51  75
ATOM     75  C   UNL     1       9.361   5.288  -3.252  1.00  0.00     0.023 A 
ATOM     76  C   UNL     1       9.665   6.519  -2.639  1.00  0.00     0.012 A 
ATOM     77  C   UNL     1       9.721   4.091  -2.605  1.00  0.00     0.148 A 
ATOM     78  C   UNL     1      10.339   6.559  -1.418  1.00  0.00     0.002 A 
ATOM     79  C   UNL     1      10.341   4.136  -1.361  1.00  0.00     0.091 A 
ATOM     80  F   UNL     1       9.437   2.930  -3.212  1.00  0.00    -0.205 F 
ATOM     81  C   UNL     1      10.667   5.369  -0.774  1.00  0.00     0.022 A 
BRANCH  79  82
ATOM     82  S   UNL     1      10.673   2.658  -0.397  1.00  0.00     0.127 S 
ATOM     83  O   UNL     1      12.125   2.557  -0.494  1.00  0.00    -0.237 OA
ATOM     84  O   UNL     1      10.165   3.038   0.921  1.00  0.00    -0.237 OA
ATOM     85  O   UNL     1       9.916   1.593  -1.046  1.00  0.00    -0.744 OA
ENDBRANCH  79  82
ENDBRANCH  51  75
BRANCH  63  86
ATOM     86  C   UNL     1      10.993   7.392  -9.707  1.00  0.00     0.023 A 
ATOM     87  C   UNL     1      12.180   6.647  -9.855  1.00  0.00     0.012 A 
ATOM     88  C   UNL     1      10.954   8.725 -10.161  1.00  0.00     0.148 A 
ATOM     89  C   UNL     1      13.319   7.229 -10.411  1.00  0.00     0.002 A 
ATOM     90  C   UNL     1      12.078   9.284 -10.759  1.00  0.00     0.091 A 
ATOM     91  F   UNL     1       9.822   9.425  -9.994  1.00  0.00    -0.205 F 
ATOM     92  C   UNL     1      13.265   8.542 -10.873  1.00  0.00     0.022 A 
BRANCH  90  93
ATOM     93  S   UNL     1      12.068  10.936 -11.464  1.00  0.00     0.127 S 
ATOM     94  O   UNL     1      12.812  11.694 -10.460  1.00  0.00    -0.237 OA
ATOM     95  O   UNL     1      12.778  10.740 -12.729  1.00  0.00    -0.237 OA
ATOM     96  O   UNL     1      10.665  11.297 -11.612  1.00  0.00    -0.744 OA
ENDBRANCH  90  93
ENDBRANCH  63  86
ENDBRANCH  37  38
ENDBRANCH  29  32
ENDBRANCH  27  28
ENDBRANCH   1  27
TORSDOF 15
