REMARK SMILES C[C@H](Sc1ccc(N)c(Cl)c1)C(=O)NCCCNC(=O)c1ccc(-c2c3nc(c(-c4cccc(S(=O)(=O)[O-])c4F)c4ccc([nH]4)c(-c4cccc(S(=O)(=O)[O-])c4F)c4nc(c(-c5cccc(S(=O)(=O)[O-])c5F)c5ccc2[nH]5)C=C4)C=C3)cc1
REMARK SMILES IDX 16 1 15 2 14 3 12 4 13 5 2 7 1 8 3 9 4 10 5 11 11 12 6 13
REMARK SMILES IDX 9 14 7 15 10 16 8 17 17 20 18 21 19 22 20 24 21 25 22 26
REMARK SMILES IDX 83 27 23 28 82 29 24 30 25 31 26 32 76 33 27 34 81 35 75 36
REMARK SMILES IDX 77 37 28 38 80 39 74 40 73 41 29 43 61 44 41 45 60 46 42 47
REMARK SMILES IDX 45 48 59 49 78 50 43 51 44 52 58 54 79 55 46 56 30 57 31 58
REMARK SMILES IDX 39 59 32 60 34 61 40 62 33 63 35 64 36 65 37 66 38 67 62 68
REMARK SMILES IDX 63 69 71 70 64 71 66 72 72 73 65 74 67 75 68 76 69 77 70 78
REMARK SMILES IDX 47 79 48 80 56 81 49 82 51 83 57 84 50 85 52 86 53 87 54 88
REMARK SMILES IDX 55 89
REMARK H PARENT 14 6 8 18 8 19 18 23 77 42 45 53
REMARK Flexibility Score: inf
ROOT
ATOM      1  C   UNL     1      -2.427   1.541   1.069  1.00  0.00     0.042 C 
ENDROOT
BRANCH   1   2
ATOM      2  C   UNL     1      -2.097   0.253   1.812  1.00  0.00     0.117 C 
BRANCH   2   3
ATOM      3  N   UNL     1      -1.791  -0.816   0.881  1.00  0.00    -0.355 N 
ATOM      4  C   UNL     1      -0.626  -1.314   0.394  1.00  0.00     0.233 C 
ATOM      5  O   UNL     1      -0.745  -2.130  -0.531  1.00  0.00    -0.274 OA
ATOM      6  H   UNL     1      -2.590  -1.273   0.531  1.00  0.00     0.163 HD
BRANCH   4   7
ATOM      7  C   UNL     1       0.763  -1.008   0.962  1.00  0.00     0.137 C 
ATOM      8  C   UNL     1       0.961  -1.330   2.433  1.00  0.00     0.030 C 
BRANCH   7   9
ATOM      9  S   UNL     1       1.578   0.479   0.248  1.00  0.00    -0.113 SA
BRANCH   9  10
ATOM     10  C   UNL     1       1.045   1.913   1.152  1.00  0.00     0.010 A 
ATOM     11  C   UNL     1       0.961   1.986   2.542  1.00  0.00     0.017 A 
ATOM     12  C   UNL     1       0.761   3.071   0.414  1.00  0.00     0.037 A 
ATOM     13  C   UNL     1       0.447   3.127   3.175  1.00  0.00     0.028 A 
ATOM     14  C   UNL     1       0.274   4.221   1.048  1.00  0.00     0.065 A 
ATOM     15  C   UNL     1       0.042   4.237   2.432  1.00  0.00     0.050 A 
ATOM     16  Cl  UNL     1      -0.136   5.587   0.075  1.00  0.00    -0.082 Cl
BRANCH  15  17
ATOM     17  N   UNL     1      -0.478   5.348   3.087  1.00  0.00    -0.398 N 
ATOM     18  H   UNL     1      -0.627   5.321   4.060  1.00  0.00     0.156 HD
ATOM     19  H   UNL     1      -0.697   6.162   2.578  1.00  0.00     0.156 HD
ENDBRANCH  15  17
ENDBRANCH   9  10
ENDBRANCH   7   9
ENDBRANCH   4   7
ENDBRANCH   2   3
ENDBRANCH   1   2
BRANCH   1  20
ATOM     20  C   UNL     1      -3.794   2.137   1.369  1.00  0.00     0.118 C 
BRANCH  20  21
ATOM     21  N   UNL     1      -3.972   2.520   2.764  1.00  0.00    -0.352 N 
ATOM     22  C   UNL     1      -4.215   3.730   3.370  1.00  0.00     0.251 C 
ATOM     23  H   UNL     1      -3.905   1.767   3.394  1.00  0.00     0.163 HD
ATOM     24  O   UNL     1      -4.208   3.765   4.602  1.00  0.00    -0.269 OA
BRANCH  22  25
ATOM     25  C   UNL     1      -4.447   4.987   2.610  1.00  0.00     0.039 A 
ATOM     26  C   UNL     1      -4.062   6.200   3.201  1.00  0.00     0.014 A 
ATOM     27  C   UNL     1      -5.061   5.018   1.359  1.00  0.00     0.014 A 
ATOM     28  C   UNL     1      -4.200   7.407   2.506  1.00  0.00     0.010 A 
ATOM     29  C   UNL     1      -5.104   6.203   0.625  1.00  0.00     0.010 A 
ATOM     30  C   UNL     1      -4.673   7.412   1.186  1.00  0.00    -0.014 A 
BRANCH  30  31
ATOM     31  C   UNL     1      -4.714   8.652   0.364  1.00  0.00     0.031 A 
ATOM     32  C   UNL     1      -6.019   9.145  -0.204  1.00  0.00     0.074 A 
ATOM     33  C   UNL     1      -3.562   9.263   0.022  1.00  0.00     0.049 A 
ATOM     34  N   UNL     1      -6.237  10.115  -1.054  1.00  0.00    -0.248 NA
ATOM     35  C   UNL     1      -7.239   8.433   0.215  1.00  0.00     0.031 C 
ATOM     36  C   UNL     1      -2.224   8.840   0.441  1.00  0.00     0.029 A 
ATOM     37  N   UNL     1      -3.325  10.344  -0.791  1.00  0.00    -0.354 N 
ATOM     38  C   UNL     1      -7.602  10.098  -1.311  1.00  0.00     0.074 A 
ATOM     39  C   UNL     1      -8.162   9.005  -0.546  1.00  0.00     0.031 C 
ATOM     40  C   UNL     1      -1.308   9.641  -0.125  1.00  0.00     0.029 A 
ATOM     41  C   UNL     1      -1.987  10.616  -0.970  1.00  0.00     0.049 A 
ATOM     42  H   UNL     1      -4.043  10.873  -1.207  1.00  0.00     0.167 HD
ATOM     43  C   UNL     1      -8.332  10.934  -2.089  1.00  0.00     0.034 A 
ATOM     44  C   UNL     1      -1.374  11.537  -1.740  1.00  0.00     0.034 A 
ATOM     45  C   UNL     1      -7.784  12.059  -2.796  1.00  0.00     0.049 A 
ATOM     46  C   UNL     1      -2.212  12.484  -2.554  1.00  0.00     0.074 A 
ATOM     47  C   UNL     1      -8.455  13.028  -3.522  1.00  0.00     0.029 A 
ATOM     48  N   UNL     1      -6.435  12.369  -2.867  1.00  0.00    -0.354 N 
ATOM     49  N   UNL     1      -3.517  12.553  -2.654  1.00  0.00    -0.248 NA
ATOM     50  C   UNL     1      -1.495  13.501  -3.337  1.00  0.00     0.031 C 
ATOM     51  C   UNL     1      -7.508  13.918  -4.042  1.00  0.00     0.029 A 
ATOM     52  C   UNL     1      -6.250  13.509  -3.630  1.00  0.00     0.049 A 
ATOM     53  H   UNL     1      -5.714  11.853  -2.438  1.00  0.00     0.167 HD
ATOM     54  C   UNL     1      -3.779  13.636  -3.486  1.00  0.00     0.074 A 
ATOM     55  C   UNL     1      -2.497  14.209  -3.842  1.00  0.00     0.031 C 
ATOM     56  C   UNL     1      -4.972  14.101  -3.931  1.00  0.00     0.034 A 
BRANCH  43  57
ATOM     57  C   UNL     1      -9.819  10.702  -2.159  1.00  0.00     0.023 A 
ATOM     58  C   UNL     1     -10.621  11.021  -1.044  1.00  0.00     0.012 A 
ATOM     59  C   UNL     1     -10.429  10.221  -3.334  1.00  0.00     0.148 A 
ATOM     60  C   UNL     1     -12.001  10.833  -1.084  1.00  0.00     0.002 A 
ATOM     61  C   UNL     1     -11.811  10.073  -3.379  1.00  0.00     0.091 A 
ATOM     62  F   UNL     1      -9.649   9.902  -4.377  1.00  0.00    -0.205 F 
ATOM     63  C   UNL     1     -12.597  10.368  -2.253  1.00  0.00     0.022 A 
BRANCH  61  64
ATOM     64  S   UNL     1     -12.680   9.547  -4.862  1.00  0.00     0.127 S 
ATOM     65  O   UNL     1     -13.051   8.176  -4.515  1.00  0.00    -0.237 OA
ATOM     66  O   UNL     1     -13.801  10.487  -4.913  1.00  0.00    -0.237 OA
ATOM     67  O   UNL     1     -11.726   9.684  -5.953  1.00  0.00    -0.744 OA
ENDBRANCH  61  64
ENDBRANCH  43  57
BRANCH  44  68
ATOM     68  C   UNL     1       0.112  11.655  -1.718  1.00  0.00     0.023 A 
ATOM     69  C   UNL     1       0.700  12.763  -1.079  1.00  0.00     0.012 A 
ATOM     70  C   UNL     1       0.942  10.672  -2.292  1.00  0.00     0.148 A 
ATOM     71  C   UNL     1       2.087  12.907  -1.035  1.00  0.00     0.002 A 
ATOM     72  C   UNL     1       2.325  10.797  -2.203  1.00  0.00     0.091 A 
ATOM     73  F   UNL     1       0.364   9.632  -2.909  1.00  0.00    -0.205 F 
ATOM     74  C   UNL     1       2.898  11.921  -1.587  1.00  0.00     0.022 A 
BRANCH  72  75
ATOM     75  S   UNL     1       3.449   9.522  -2.784  1.00  0.00     0.127 S 
ATOM     76  O   UNL     1       4.012  10.144  -3.981  1.00  0.00    -0.237 OA
ATOM     77  O   UNL     1       4.379   9.401  -1.660  1.00  0.00    -0.237 OA
ATOM     78  O   UNL     1       2.623   8.345  -3.010  1.00  0.00    -0.744 OA
ENDBRANCH  72  75
ENDBRANCH  44  68
BRANCH  56  79
ATOM     79  C   UNL     1      -4.957  15.301  -4.840  1.00  0.00     0.023 A 
ATOM     80  C   UNL     1      -4.548  15.153  -6.179  1.00  0.00     0.012 A 
ATOM     81  C   UNL     1      -5.423  16.553  -4.392  1.00  0.00     0.148 A 
ATOM     82  C   UNL     1      -4.578  16.238  -7.054  1.00  0.00     0.002 A 
ATOM     83  C   UNL     1      -5.492  17.619  -5.281  1.00  0.00     0.091 A 
ATOM     84  F   UNL     1      -5.788  16.679  -3.108  1.00  0.00    -0.205 F 
ATOM     85  C   UNL     1      -5.061  17.466  -6.609  1.00  0.00     0.022 A 
BRANCH  83  86
ATOM     86  S   UNL     1      -6.188  19.211  -4.819  1.00  0.00     0.127 S 
ATOM     87  O   UNL     1      -4.987  20.034  -4.685  1.00  0.00    -0.237 OA
ATOM     88  O   UNL     1      -7.023  19.535  -5.976  1.00  0.00    -0.237 OA
ATOM     89  O   UNL     1      -6.931  18.978  -3.588  1.00  0.00    -0.744 OA
ENDBRANCH  83  86
ENDBRANCH  56  79
ENDBRANCH  30  31
ENDBRANCH  22  25
ENDBRANCH  20  21
ENDBRANCH   1  20
TORSDOF 16
