REMARK SMILES COc1ccc2c(c1)c(CC(=O)NCCCNC(=O)c1ccc(-c3c4nc(c(-c5cccc(S(=O)(=O)[O-])c5F)c5ccc([nH]5)c(-c5cccc(S(=O)(=O)[O-])c5F)c5nc(c(-c6cccc(S(=O)(=O)[O-])c6F)c6ccc3[nH]6)C=C5)C=C4)cc1)c(C)n2Cc1ccc(Br)cc1
REMARK SMILES IDX 15 1 14 2 13 3 11 4 12 5 10 7 9 8 3 9 4 10 8 11 5 12 7 13
REMARK SMILES IDX 6 14 85 15 83 16 84 17 2 18 1 19 86 20 87 21 88 22 93 23
REMARK SMILES IDX 89 24 92 25 90 26 91 27 16 28 17 29 18 30 19 32 20 33 21 34
REMARK SMILES IDX 82 35 22 36 81 37 23 38 24 39 25 40 75 41 26 42 80 43 74 44
REMARK SMILES IDX 76 45 27 46 79 47 73 48 72 49 28 51 60 52 40 53 59 54 41 55
REMARK SMILES IDX 44 56 58 57 77 58 42 59 43 60 57 62 78 63 45 64 29 65 30 66
REMARK SMILES IDX 38 67 31 68 33 69 39 70 32 71 34 72 35 73 36 74 37 75 61 76
REMARK SMILES IDX 62 77 70 78 63 79 65 80 71 81 64 82 66 83 67 84 68 85 69 86
REMARK SMILES IDX 46 87 47 88 55 89 48 90 50 91 56 92 49 93 51 94 52 95 53 96
REMARK SMILES IDX 54 97
REMARK H PARENT 13 6 17 31 76 50 44 61
REMARK Flexibility Score: inf
ROOT
ATOM      1  C   UNL     1       0.678   4.620   6.419  1.00  0.00     0.042 C 
ENDROOT
BRANCH   1   2
ATOM      2  C   UNL     1      -0.747   4.215   6.816  1.00  0.00     0.117 C 
BRANCH   2   3
ATOM      3  N   UNL     1      -1.650   4.090   5.679  1.00  0.00    -0.356 N 
ATOM      4  C   UNL     1      -2.246   2.983   5.143  1.00  0.00     0.224 C 
ATOM      5  O   UNL     1      -3.024   3.144   4.197  1.00  0.00    -0.275 OA
ATOM      6  H   UNL     1      -1.866   4.937   5.225  1.00  0.00     0.163 HD
BRANCH   4   7
ATOM      7  C   UNL     1      -2.025   1.602   5.739  1.00  0.00     0.138 C 
BRANCH   7   8
ATOM      8  C   UNL     1      -0.604   1.142   5.663  1.00  0.00    -0.010 A 
ATOM      9  C   UNL     1       0.974   1.022   2.204  1.00  0.00     0.119 A 
ATOM     10  C   UNL     1       2.260   0.711   2.632  1.00  0.00     0.048 A 
ATOM     11  C   UNL     1      -0.041   1.248   3.132  1.00  0.00     0.057 A 
ATOM     12  C   UNL     1       2.551   0.563   3.997  1.00  0.00     0.031 A 
ATOM     13  C   UNL     1       0.216   1.061   4.505  1.00  0.00     0.007 A 
ATOM     14  C   UNL     1       1.504   0.711   4.924  1.00  0.00     0.049 A 
ATOM     15  N   UNL     1       1.460   0.586   6.310  1.00  0.00    -0.340 N 
ATOM     16  C   UNL     1       0.125   0.580   6.698  1.00  0.00     0.020 A 
ATOM     17  C   UNL     1      -0.421   0.104   7.998  1.00  0.00     0.065 C 
BRANCH   9  18
ATOM     18  O   UNL     1       0.635   1.187   0.887  1.00  0.00    -0.497 OA
ATOM     19  C   UNL     1       1.038   0.094   0.065  1.00  0.00     0.278 C 
ENDBRANCH   9  18
BRANCH  15  20
ATOM     20  C   UNL     1       2.638   0.392   7.175  1.00  0.00     0.157 C 
BRANCH  20  21
ATOM     21  C   UNL     1       2.858   1.537   8.143  1.00  0.00    -0.028 A 
ATOM     22  C   UNL     1       1.992   1.695   9.230  1.00  0.00     0.007 A 
ATOM     23  C   UNL     1       3.925   2.441   8.026  1.00  0.00     0.007 A 
ATOM     24  C   UNL     1       2.055   2.786  10.072  1.00  0.00     0.016 A 
ATOM     25  C   UNL     1       4.064   3.493   8.945  1.00  0.00     0.016 A 
ATOM     26  C   UNL     1       3.102   3.672   9.937  1.00  0.00     0.017 A 
ATOM     27  Br  UNL     1       3.170   5.031  11.215  1.00  0.00    -0.051 Br
ENDBRANCH  20  21
ENDBRANCH  15  20
ENDBRANCH   7   8
ENDBRANCH   4   7
ENDBRANCH   2   3
ENDBRANCH   1   2
BRANCH   1  28
ATOM     28  C   UNL     1       0.802   6.013   5.799  1.00  0.00     0.118 C 
BRANCH  28  29
ATOM     29  N   UNL     1       0.278   7.090   6.621  1.00  0.00    -0.352 N 
ATOM     30  C   UNL     1       0.776   7.987   7.525  1.00  0.00     0.251 C 
ATOM     31  H   UNL     1      -0.691   7.205   6.493  1.00  0.00     0.163 HD
ATOM     32  O   UNL     1      -0.019   8.868   7.870  1.00  0.00    -0.269 OA
BRANCH  30  33
ATOM     33  C   UNL     1       2.122   7.957   8.164  1.00  0.00     0.039 A 
ATOM     34  C   UNL     1       3.171   7.112   7.823  1.00  0.00     0.014 A 
ATOM     35  C   UNL     1       2.305   8.845   9.248  1.00  0.00     0.014 A 
ATOM     36  C   UNL     1       4.325   7.094   8.610  1.00  0.00     0.010 A 
ATOM     37  C   UNL     1       3.448   8.815  10.047  1.00  0.00     0.010 A 
ATOM     38  C   UNL     1       4.439   7.891   9.767  1.00  0.00    -0.014 A 
BRANCH  38  39
ATOM     39  C   UNL     1       5.671   7.782  10.567  1.00  0.00     0.031 A 
ATOM     40  C   UNL     1       6.880   8.053   9.749  1.00  0.00     0.074 A 
ATOM     41  C   UNL     1       5.753   7.516  11.893  1.00  0.00     0.049 A 
ATOM     42  N   UNL     1       7.771   7.210   9.340  1.00  0.00    -0.248 NA
ATOM     43  C   UNL     1       6.987   9.389   9.143  1.00  0.00     0.031 C 
ATOM     44  C   UNL     1       4.657   7.516  12.867  1.00  0.00     0.029 A 
ATOM     45  N   UNL     1       6.848   7.251  12.681  1.00  0.00    -0.354 N 
ATOM     46  C   UNL     1       8.694   7.980   8.636  1.00  0.00     0.074 A 
ATOM     47  C   UNL     1       8.066   9.246   8.373  1.00  0.00     0.031 C 
ATOM     48  C   UNL     1       5.151   7.425  14.119  1.00  0.00     0.029 A 
ATOM     49  C   UNL     1       6.593   7.317  14.056  1.00  0.00     0.049 A 
ATOM     50  H   UNL     1       7.734   7.035  12.311  1.00  0.00     0.167 HD
ATOM     51  C   UNL     1      10.007   7.634   8.590  1.00  0.00     0.034 A 
ATOM     52  C   UNL     1       7.501   7.367  15.068  1.00  0.00     0.034 A 
ATOM     53  C   UNL     1      10.207   6.265   8.976  1.00  0.00     0.049 A 
ATOM     54  C   UNL     1       8.761   6.815  14.537  1.00  0.00     0.074 A 
ATOM     55  C   UNL     1       9.886   5.028   8.463  1.00  0.00     0.029 A 
ATOM     56  N   UNL     1      10.505   6.098  10.301  1.00  0.00    -0.354 N 
ATOM     57  N   UNL     1       8.933   5.563  14.227  1.00  0.00    -0.248 NA
ATOM     58  C   UNL     1       9.769   7.736  14.032  1.00  0.00     0.031 C 
ATOM     59  C   UNL     1       9.716   4.179   9.594  1.00  0.00     0.029 A 
ATOM     60  C   UNL     1       9.989   4.915  10.748  1.00  0.00     0.049 A 
ATOM     61  H   UNL     1      11.015   6.736  10.851  1.00  0.00     0.167 HD
ATOM     62  C   UNL     1       9.779   5.606  13.134  1.00  0.00     0.074 A 
ATOM     63  C   UNL     1      10.388   6.930  13.168  1.00  0.00     0.031 C 
ATOM     64  C   UNL     1       9.661   4.687  12.138  1.00  0.00     0.034 A 
BRANCH  51  65
ATOM     65  C   UNL     1      11.137   8.637   8.669  1.00  0.00     0.023 A 
ATOM     66  C   UNL     1      12.448   8.176   8.421  1.00  0.00     0.012 A 
ATOM     67  C   UNL     1      11.009   9.919   9.254  1.00  0.00     0.148 A 
ATOM     68  C   UNL     1      13.569   8.951   8.741  1.00  0.00     0.002 A 
ATOM     69  C   UNL     1      12.120  10.718   9.496  1.00  0.00     0.091 A 
ATOM     70  F   UNL     1       9.824  10.323   9.719  1.00  0.00    -0.205 F 
ATOM     71  C   UNL     1      13.406  10.230   9.262  1.00  0.00     0.022 A 
BRANCH  69  72
ATOM     72  S   UNL     1      11.956  12.384  10.149  1.00  0.00     0.127 S 
ATOM     73  O   UNL     1      12.489  12.221  11.501  1.00  0.00    -0.237 OA
ATOM     74  O   UNL     1      12.810  13.144   9.235  1.00  0.00    -0.237 OA
ATOM     75  O   UNL     1      10.542  12.707  10.053  1.00  0.00    -0.744 OA
ENDBRANCH  69  72
ENDBRANCH  51  65
BRANCH  52  76
ATOM     76  C   UNL     1       7.474   8.101  16.370  1.00  0.00     0.023 A 
ATOM     77  C   UNL     1       8.554   7.941  17.273  1.00  0.00     0.012 A 
ATOM     78  C   UNL     1       6.594   9.179  16.603  1.00  0.00     0.148 A 
ATOM     79  C   UNL     1       8.800   8.871  18.294  1.00  0.00     0.002 A 
ATOM     80  C   UNL     1       6.835  10.093  17.626  1.00  0.00     0.091 A 
ATOM     81  F   UNL     1       5.570   9.382  15.769  1.00  0.00    -0.205 F 
ATOM     82  C   UNL     1       7.951   9.959  18.458  1.00  0.00     0.022 A 
BRANCH  80  83
ATOM     83  S   UNL     1       5.774  11.524  17.873  1.00  0.00     0.127 S 
ATOM     84  O   UNL     1       5.682  11.594  19.331  1.00  0.00    -0.237 OA
ATOM     85  O   UNL     1       6.552  12.588  17.253  1.00  0.00    -0.237 OA
ATOM     86  O   UNL     1       4.511  11.191  17.216  1.00  0.00    -0.744 OA
ENDBRANCH  80  83
ENDBRANCH  52  76
BRANCH  64  87
ATOM     87  C   UNL     1       8.964   3.397  12.453  1.00  0.00     0.023 A 
ATOM     88  C   UNL     1       7.571   3.297  12.634  1.00  0.00     0.012 A 
ATOM     89  C   UNL     1       9.739   2.229  12.378  1.00  0.00     0.148 A 
ATOM     90  C   UNL     1       6.962   2.041  12.724  1.00  0.00     0.002 A 
ATOM     91  C   UNL     1       9.127   0.987  12.420  1.00  0.00     0.091 A 
ATOM     92  F   UNL     1      11.064   2.362  12.212  1.00  0.00    -0.205 F 
ATOM     93  C   UNL     1       7.738   0.887  12.598  1.00  0.00     0.022 A 
BRANCH  91  94
ATOM     94  S   UNL     1      10.050  -0.523  12.131  1.00  0.00     0.127 S 
ATOM     95  O   UNL     1       9.968  -1.185  13.431  1.00  0.00    -0.237 OA
ATOM     96  O   UNL     1       9.271  -1.159  11.067  1.00  0.00    -0.237 OA
ATOM     97  O   UNL     1      11.389  -0.112  11.727  1.00  0.00    -0.744 OA
ENDBRANCH  91  94
ENDBRANCH  64  87
ENDBRANCH  38  39
ENDBRANCH  30  33
ENDBRANCH  28  29
ENDBRANCH   1  28
TORSDOF 17
