REMARK SMILES NS(=O)(=O)c1ccc(-n2nc(C(=O)NCCCC(=O)NCCCNC(=O)c3ccc(-c4c5nc(c(-c6cccc(S(=O)(=O)[O-])c6F)c6ccc([nH]6)c(-c6cccc(S(=O)(=O)[O-])c6F)c6nc(c(-c7cccc(S(=O)(=O)[O-])c7F)c7ccc4[nH]7)C=C6)C=C5)cc3)cc2-c2ccccc2)cc1
REMARK SMILES IDX 18 1 19 2 20 3 17 5 16 6 15 7 14 8 12 9 13 10 11 12 9 13
REMARK SMILES IDX 10 14 91 15 90 16 8 17 5 18 6 19 99 20 7 21 98 22 2 23 3 24
REMARK SMILES IDX 4 25 1 26 92 29 93 30 97 31 94 32 96 33 95 34 21 35 22 36
REMARK SMILES IDX 23 37 24 38 25 39 26 41 27 42 28 43 89 44 29 45 88 46 30 47
REMARK SMILES IDX 31 48 32 49 82 50 33 51 87 52 81 53 83 54 34 55 86 56 80 57
REMARK SMILES IDX 79 58 35 60 67 61 47 62 66 63 48 64 51 65 65 66 84 67 49 68
REMARK SMILES IDX 50 69 64 71 85 72 52 73 36 74 37 75 45 76 38 77 40 78 46 79
REMARK SMILES IDX 39 80 41 81 42 82 43 83 44 84 68 85 69 86 77 87 70 88 72 89
REMARK SMILES IDX 78 90 71 91 73 92 74 93 75 94 76 95 53 96 54 97 62 98 55 99
REMARK SMILES IDX 57 100 63 101 56 102 58 103 59 104 60 105 61 106
REMARK H PARENT 20 4 14 11 1 27 1 28 24 40 83 59 51 70
REMARK Flexibility Score: inf
ROOT
ATOM      1  C   UNL     1       3.606 -12.782  -5.559  1.00  0.00     0.220 C 
ATOM      2  O   UNL     1       3.093 -13.406  -6.487  1.00  0.00    -0.275 OA
ATOM      3  N   UNL     1       3.316 -13.159  -4.284  1.00  0.00    -0.356 N 
ATOM      4  H   UNL     1       2.662 -13.891  -4.213  1.00  0.00     0.163 HD
ENDROOT
BRANCH   1   5
ATOM      5  C   UNL     1       4.552 -11.637  -5.846  1.00  0.00     0.102 C 
BRANCH   5   6
ATOM      6  C   UNL     1       3.857 -10.291  -6.063  1.00  0.00     0.031 C 
BRANCH   6   7
ATOM      7  C   UNL     1       3.369  -9.576  -4.809  1.00  0.00     0.116 C 
BRANCH   7   8
ATOM      8  N   UNL     1       4.383  -9.438  -3.777  1.00  0.00    -0.351 N 
ATOM      9  C   UNL     1       4.365  -8.725  -2.598  1.00  0.00     0.271 C 
ATOM     10  O   UNL     1       5.377  -8.780  -1.896  1.00  0.00    -0.267 OA
ATOM     11  H   UNL     1       5.217  -9.932  -3.949  1.00  0.00     0.163 HD
BRANCH   9  12
ATOM     12  C   UNL     1       3.182  -7.928  -2.233  1.00  0.00     0.151 A 
ATOM     13  N   UNL     1       2.055  -6.297  -1.420  1.00  0.00    -0.232 N 
ATOM     14  N   UNL     1       3.320  -6.728  -1.635  1.00  0.00    -0.162 NA
ATOM     15  C   UNL     1       1.125  -7.080  -2.087  1.00  0.00     0.075 A 
ATOM     16  C   UNL     1       1.812  -8.216  -2.454  1.00  0.00     0.065 A 
BRANCH  13  17
ATOM     17  C   UNL     1       1.794  -5.118  -0.674  1.00  0.00     0.065 A 
ATOM     18  C   UNL     1       1.093  -2.702   0.507  1.00  0.00     0.082 A 
ATOM     19  C   UNL     1       0.267  -3.815   0.680  1.00  0.00     0.024 A 
ATOM     20  C   UNL     1       2.288  -2.800  -0.217  1.00  0.00     0.024 A 
ATOM     21  C   UNL     1       0.620  -5.025   0.090  1.00  0.00     0.030 A 
ATOM     22  C   UNL     1       2.657  -4.022  -0.788  1.00  0.00     0.030 A 
BRANCH  18  23
ATOM     23  S   UNL     1       0.567  -1.156   1.178  1.00  0.00     0.238 S 
ATOM     24  O   UNL     1       1.248  -0.937   2.427  1.00  0.00    -0.207 OA
ATOM     25  O   UNL     1      -0.871  -1.046   1.039  1.00  0.00    -0.207 OA
BRANCH  23  26
ATOM     26  N   UNL     1       1.182  -0.014   0.107  1.00  0.00    -0.225 NA
ATOM     27  H   UNL     1       0.923   0.921   0.422  1.00  0.00     0.137 HD
ATOM     28  H   UNL     1       0.798  -0.178  -0.823  1.00  0.00     0.137 HD
ENDBRANCH  23  26
ENDBRANCH  18  23
ENDBRANCH  13  17
BRANCH  15  29
ATOM     29  C   UNL     1      -0.229  -6.664  -2.455  1.00  0.00     0.000 A 
ATOM     30  C   UNL     1      -0.437  -5.397  -3.027  1.00  0.00     0.010 A 
ATOM     31  C   UNL     1      -1.319  -7.521  -2.291  1.00  0.00     0.010 A 
ATOM     32  C   UNL     1      -1.717  -4.974  -3.380  1.00  0.00     0.001 A 
ATOM     33  C   UNL     1      -2.600  -7.101  -2.658  1.00  0.00     0.001 A 
ATOM     34  C   UNL     1      -2.799  -5.827  -3.192  1.00  0.00     0.000 A 
ENDBRANCH  15  29
ENDBRANCH   9  12
ENDBRANCH   7   8
ENDBRANCH   6   7
ENDBRANCH   5   6
ENDBRANCH   1   5
BRANCH   3  35
ATOM     35  C   UNL     1       3.807 -12.663  -3.006  1.00  0.00     0.117 C 
BRANCH  35  36
ATOM     36  C   UNL     1       2.736 -11.900  -2.218  1.00  0.00     0.042 C 
BRANCH  36  37
ATOM     37  C   UNL     1       1.776 -12.806  -1.480  1.00  0.00     0.118 C 
BRANCH  37  38
ATOM     38  N   UNL     1       2.338 -13.370  -0.251  1.00  0.00    -0.352 N 
ATOM     39  C   UNL     1       1.693 -14.185   0.665  1.00  0.00     0.251 C 
ATOM     40  H   UNL     1       3.277 -13.146  -0.055  1.00  0.00     0.163 HD
ATOM     41  O   UNL     1       2.110 -14.298   1.812  1.00  0.00    -0.269 OA
BRANCH  39  42
ATOM     42  C   UNL     1       0.486 -14.909   0.225  1.00  0.00     0.039 A 
ATOM     43  C   UNL     1      -0.632 -15.073   1.046  1.00  0.00     0.014 A 
ATOM     44  C   UNL     1       0.473 -15.369  -1.086  1.00  0.00     0.014 A 
ATOM     45  C   UNL     1      -1.780 -15.638   0.495  1.00  0.00     0.010 A 
ATOM     46  C   UNL     1      -0.715 -15.671  -1.683  1.00  0.00     0.010 A 
ATOM     47  C   UNL     1      -1.817 -15.914  -0.882  1.00  0.00    -0.014 A 
BRANCH  47  48
ATOM     48  C   UNL     1      -3.027 -16.375  -1.546  1.00  0.00     0.031 A 
ATOM     49  C   UNL     1      -4.202 -15.507  -1.298  1.00  0.00     0.074 A 
ATOM     50  C   UNL     1      -3.031 -17.371  -2.462  1.00  0.00     0.049 A 
ATOM     51  N   UNL     1      -5.188 -15.748  -0.499  1.00  0.00    -0.248 NA
ATOM     52  C   UNL     1      -4.188 -14.134  -1.828  1.00  0.00     0.031 C 
ATOM     53  C   UNL     1      -1.879 -18.083  -3.038  1.00  0.00     0.029 A 
ATOM     54  N   UNL     1      -4.068 -17.866  -3.188  1.00  0.00    -0.354 N 
ATOM     55  C   UNL     1      -6.063 -14.681  -0.671  1.00  0.00     0.074 A 
ATOM     56  C   UNL     1      -5.286 -13.625  -1.262  1.00  0.00     0.031 C 
ATOM     57  C   UNL     1      -2.250 -18.696  -4.183  1.00  0.00     0.029 A 
ATOM     58  C   UNL     1      -3.687 -18.582  -4.321  1.00  0.00     0.049 A 
ATOM     59  H   UNL     1      -5.010 -17.729  -2.935  1.00  0.00     0.167 HD
ATOM     60  C   UNL     1      -7.410 -14.880  -0.617  1.00  0.00     0.034 A 
ATOM     61  C   UNL     1      -4.496 -19.012  -5.322  1.00  0.00     0.034 A 
ATOM     62  C   UNL     1      -7.718 -16.180  -0.065  1.00  0.00     0.049 A 
ATOM     63  C   UNL     1      -5.873 -19.035  -4.782  1.00  0.00     0.074 A 
ATOM     64  C   UNL     1      -7.403 -16.851   1.101  1.00  0.00     0.029 A 
ATOM     65  N   UNL     1      -8.115 -17.146  -0.959  1.00  0.00    -0.354 N 
ATOM     66  N   UNL     1      -6.260 -19.850  -3.842  1.00  0.00    -0.248 NA
ATOM     67  C   UNL     1      -6.692 -17.849  -4.963  1.00  0.00     0.031 C 
ATOM     68  C   UNL     1      -7.167 -18.199   0.696  1.00  0.00     0.029 A 
ATOM     69  C   UNL     1      -7.438 -18.298  -0.670  1.00  0.00     0.049 A 
ATOM     70  H   UNL     1      -8.773 -17.029  -1.682  1.00  0.00     0.167 HD
ATOM     71  C   UNL     1      -7.038 -19.057  -3.010  1.00  0.00     0.074 A 
ATOM     72  C   UNL     1      -7.366 -17.877  -3.810  1.00  0.00     0.031 C 
ATOM     73  C   UNL     1      -7.084 -19.287  -1.664  1.00  0.00     0.034 A 
BRANCH  60  74
ATOM     74  C   UNL     1      -8.437 -14.128  -1.440  1.00  0.00     0.023 A 
ATOM     75  C   UNL     1      -9.796 -14.414  -1.172  1.00  0.00     0.012 A 
ATOM     76  C   UNL     1      -8.162 -13.404  -2.623  1.00  0.00     0.148 A 
ATOM     77  C   UNL     1     -10.812 -14.075  -2.072  1.00  0.00     0.002 A 
ATOM     78  C   UNL     1      -9.183 -12.998  -3.474  1.00  0.00     0.091 A 
ATOM     79  F   UNL     1      -6.904 -13.208  -3.019  1.00  0.00    -0.205 F 
ATOM     80  C   UNL     1     -10.506 -13.363  -3.224  1.00  0.00     0.022 A 
BRANCH  78  81
ATOM     81  S   UNL     1      -8.846 -12.033  -4.954  1.00  0.00     0.127 S 
ATOM     82  O   UNL     1      -9.093 -13.017  -6.004  1.00  0.00    -0.237 OA
ATOM     83  O   UNL     1      -9.846 -10.970  -4.848  1.00  0.00    -0.237 OA
ATOM     84  O   UNL     1      -7.470 -11.571  -4.819  1.00  0.00    -0.744 OA
ENDBRANCH  78  81
ENDBRANCH  60  74
BRANCH  61  85
ATOM     85  C   UNL     1      -4.228 -19.171  -6.770  1.00  0.00     0.023 A 
ATOM     86  C   UNL     1      -5.082 -19.973  -7.554  1.00  0.00     0.012 A 
ATOM     87  C   UNL     1      -3.334 -18.303  -7.435  1.00  0.00     0.148 A 
ATOM     88  C   UNL     1      -5.079 -19.882  -8.951  1.00  0.00     0.002 A 
ATOM     89  C   UNL     1      -3.335 -18.216  -8.825  1.00  0.00     0.091 A 
ATOM     90  F   UNL     1      -2.556 -17.495  -6.702  1.00  0.00    -0.205 F 
ATOM     91  C   UNL     1      -4.215 -18.994  -9.586  1.00  0.00     0.022 A 
BRANCH  89  92
ATOM     92  S   UNL     1      -2.276 -17.066  -9.714  1.00  0.00     0.127 S 
ATOM     93  O   UNL     1      -1.667 -17.934 -10.722  1.00  0.00    -0.237 OA
ATOM     94  O   UNL     1      -3.246 -16.106 -10.236  1.00  0.00    -0.237 OA
ATOM     95  O   UNL     1      -1.342 -16.544  -8.725  1.00  0.00    -0.744 OA
ENDBRANCH  89  92
ENDBRANCH  61  85
BRANCH  73  96
ATOM     96  C   UNL     1      -6.521 -20.587  -1.147  1.00  0.00     0.023 A 
ATOM     97  C   UNL     1      -5.164 -20.951  -1.284  1.00  0.00     0.012 A 
ATOM     98  C   UNL     1      -7.364 -21.399  -0.372  1.00  0.00     0.148 A 
ATOM     99  C   UNL     1      -4.672 -22.116  -0.685  1.00  0.00     0.002 A 
ATOM    100  C   UNL     1      -6.862 -22.528   0.260  1.00  0.00     0.091 A 
ATOM    101  F   UNL     1      -8.652 -21.041  -0.250  1.00  0.00    -0.205 F 
ATOM    102  C   UNL     1      -5.518 -22.898   0.098  1.00  0.00     0.022 A 
BRANCH 100 103
ATOM    103  S   UNL     1      -7.883 -23.500   1.369  1.00  0.00     0.127 S 
ATOM    104  O   UNL     1      -8.234 -24.646   0.534  1.00  0.00    -0.237 OA
ATOM    105  O   UNL     1      -6.962 -23.800   2.466  1.00  0.00    -0.237 OA
ATOM    106  O   UNL     1      -8.992 -22.633   1.749  1.00  0.00    -0.744 OA
ENDBRANCH 100 103
ENDBRANCH  73  96
ENDBRANCH  47  48
ENDBRANCH  39  42
ENDBRANCH  37  38
ENDBRANCH  36  37
ENDBRANCH  35  36
ENDBRANCH   3  35
TORSDOF 21
