REMARK SMILES [NH3+][C@@H](CC(=O)NCCCNC(=O)c1ccc(-c2c3nc(c(-c4cccc(S(=O)(=O)[O-])c4F)c4ccc([nH]4)c(-c4cccc(S(=O)(=O)[O-])c4F)c4nc(c(-c5cccc(S(=O)(=O)[O-])c5F)c5ccc2[nH]5)C=C4)C=C3)cc1)Cc1ccc(F)cc1
REMARK SMILES IDX 8 1 7 2 6 3 4 4 5 5 3 7 2 8 1 9 76 13 77 14 78 15 83 16
REMARK SMILES IDX 79 17 82 18 80 19 81 20 9 21 10 22 11 23 12 25 13 26 14 27
REMARK SMILES IDX 75 28 15 29 74 30 16 31 17 32 18 33 68 34 19 35 73 36 67 37
REMARK SMILES IDX 69 38 20 39 72 40 66 41 65 42 21 44 53 45 33 46 52 47 34 48
REMARK SMILES IDX 37 49 51 50 70 51 35 52 36 53 50 55 71 56 38 57 22 58 23 59
REMARK SMILES IDX 31 60 24 61 26 62 32 63 25 64 27 65 28 66 29 67 30 68 54 69
REMARK SMILES IDX 55 70 63 71 56 72 58 73 64 74 57 75 59 76 60 77 61 78 62 79
REMARK SMILES IDX 39 80 40 81 48 82 41 83 43 84 49 85 42 86 44 87 45 88 46 89
REMARK SMILES IDX 47 90
REMARK H PARENT 6 6 1 10 1 11 1 12 10 24 69 43 37 54
REMARK Flexibility Score: inf
ROOT
ATOM      1  C   UNL     1       1.409  -0.572  -2.289  1.00  0.00     0.042 C 
ENDROOT
BRANCH   1   2
ATOM      2  C   UNL     1       2.049   0.808  -2.171  1.00  0.00     0.117 C 
BRANCH   2   3
ATOM      3  N   UNL     1       1.056   1.866  -2.204  1.00  0.00    -0.356 N 
ATOM      4  C   UNL     1       0.568   2.641  -1.199  1.00  0.00     0.225 C 
ATOM      5  O   UNL     1      -0.316   3.457  -1.470  1.00  0.00    -0.275 OA
ATOM      6  H   UNL     1       0.676   2.051  -3.093  1.00  0.00     0.163 HD
BRANCH   4   7
ATOM      7  C   UNL     1       1.108   2.527   0.212  1.00  0.00     0.165 C 
BRANCH   7   8
ATOM      8  C   UNL     1       0.529   1.403   1.092  1.00  0.00     0.194 C 
BRANCH   8   9
ATOM      9  N   UNL     1       1.421   0.239   1.153  1.00  0.00    -0.354 N 
ATOM     10  H   UNL     1       2.370   0.548   1.360  1.00  0.00     0.344 HD
ATOM     11  H   UNL     1       1.409  -0.245   0.255  1.00  0.00     0.344 HD
ATOM     12  H   UNL     1       1.103  -0.396   1.885  1.00  0.00     0.344 HD
ENDBRANCH   8   9
BRANCH   8  13
ATOM     13  C   UNL     1      -0.955   1.059   0.781  1.00  0.00     0.101 C 
BRANCH  13  14
ATOM     14  C   UNL     1      -1.462  -0.175   1.497  1.00  0.00    -0.042 A 
ATOM     15  C   UNL     1      -1.865  -0.117   2.839  1.00  0.00     0.007 A 
ATOM     16  C   UNL     1      -1.466  -1.417   0.835  1.00  0.00     0.007 A 
ATOM     17  C   UNL     1      -2.233  -1.283   3.510  1.00  0.00     0.039 A 
ATOM     18  C   UNL     1      -1.820  -2.582   1.513  1.00  0.00     0.039 A 
ATOM     19  C   UNL     1      -2.194  -2.504   2.847  1.00  0.00     0.123 A 
ATOM     20  F   UNL     1      -2.519  -3.620   3.511  1.00  0.00    -0.207 F 
ENDBRANCH  13  14
ENDBRANCH   8  13
ENDBRANCH   7   8
ENDBRANCH   4   7
ENDBRANCH   2   3
ENDBRANCH   1   2
BRANCH   1  21
ATOM     21  C   UNL     1       0.833  -0.882  -3.669  1.00  0.00     0.118 C 
BRANCH  21  22
ATOM     22  N   UNL     1       1.867  -1.055  -4.678  1.00  0.00    -0.352 N 
ATOM     23  C   UNL     1       2.159  -2.138  -5.471  1.00  0.00     0.251 C 
ATOM     24  H   UNL     1       2.449  -0.273  -4.814  1.00  0.00     0.163 HD
ATOM     25  O   UNL     1       3.201  -2.132  -6.125  1.00  0.00    -0.269 OA
BRANCH  23  26
ATOM     26  C   UNL     1       1.253  -3.309  -5.539  1.00  0.00     0.039 A 
ATOM     27  C   UNL     1       1.813  -4.589  -5.602  1.00  0.00     0.014 A 
ATOM     28  C   UNL     1      -0.136  -3.161  -5.590  1.00  0.00     0.014 A 
ATOM     29  C   UNL     1       0.985  -5.715  -5.660  1.00  0.00     0.010 A 
ATOM     30  C   UNL     1      -0.961  -4.286  -5.570  1.00  0.00     0.010 A 
ATOM     31  C   UNL     1      -0.411  -5.576  -5.615  1.00  0.00    -0.014 A 
BRANCH  31  32
ATOM     32  C   UNL     1      -1.306  -6.765  -5.615  1.00  0.00     0.031 A 
ATOM     33  C   UNL     1      -2.286  -6.983  -6.740  1.00  0.00     0.074 A 
ATOM     34  C   UNL     1      -1.290  -7.613  -4.567  1.00  0.00     0.049 A 
ATOM     35  N   UNL     1      -3.181  -7.926  -6.883  1.00  0.00    -0.248 NA
ATOM     36  C   UNL     1      -2.275  -6.001  -7.838  1.00  0.00     0.031 C 
ATOM     37  C   UNL     1      -0.439  -7.478  -3.382  1.00  0.00     0.029 A 
ATOM     38  N   UNL     1      -2.027  -8.744  -4.316  1.00  0.00    -0.354 N 
ATOM     39  C   UNL     1      -3.859  -7.636  -8.062  1.00  0.00     0.074 A 
ATOM     40  C   UNL     1      -3.295  -6.409  -8.580  1.00  0.00     0.031 C 
ATOM     41  C   UNL     1      -0.700  -8.486  -2.534  1.00  0.00     0.029 A 
ATOM     42  C   UNL     1      -1.756  -9.322  -3.096  1.00  0.00     0.049 A 
ATOM     43  H   UNL     1      -2.687  -9.108  -4.949  1.00  0.00     0.167 HD
ATOM     44  C   UNL     1      -4.839  -8.341  -8.676  1.00  0.00     0.034 A 
ATOM     45  C   UNL     1      -2.304 -10.396  -2.493  1.00  0.00     0.034 A 
ATOM     46  C   UNL     1      -5.369  -9.585  -8.183  1.00  0.00     0.049 A 
ATOM     47  C   UNL     1      -3.375 -11.173  -3.211  1.00  0.00     0.074 A 
ATOM     48  C   UNL     1      -6.309 -10.412  -8.774  1.00  0.00     0.029 A 
ATOM     49  N   UNL     1      -5.012 -10.179  -6.984  1.00  0.00    -0.354 N 
ATOM     50  N   UNL     1      -3.893 -10.963  -4.397  1.00  0.00    -0.248 NA
ATOM     51  C   UNL     1      -3.911 -12.357  -2.523  1.00  0.00     0.031 C 
ATOM     52  C   UNL     1      -6.536 -11.496  -7.920  1.00  0.00     0.029 A 
ATOM     53  C   UNL     1      -5.716 -11.358  -6.812  1.00  0.00     0.049 A 
ATOM     54  H   UNL     1      -4.354  -9.816  -6.348  1.00  0.00     0.167 HD
ATOM     55  C   UNL     1      -4.784 -12.009  -4.613  1.00  0.00     0.074 A 
ATOM     56  C   UNL     1      -4.718 -12.863  -3.446  1.00  0.00     0.031 C 
ATOM     57  C   UNL     1      -5.596 -12.233  -5.675  1.00  0.00     0.034 A 
BRANCH  44  58
ATOM     58  C   UNL     1      -5.367  -7.820  -9.988  1.00  0.00     0.023 A 
ATOM     59  C   UNL     1      -4.560  -7.900 -11.140  1.00  0.00     0.012 A 
ATOM     60  C   UNL     1      -6.683  -7.329 -10.099  1.00  0.00     0.148 A 
ATOM     61  C   UNL     1      -5.041  -7.473 -12.377  1.00  0.00     0.002 A 
ATOM     62  C   UNL     1      -7.171  -6.947 -11.344  1.00  0.00     0.091 A 
ATOM     63  F   UNL     1      -7.431  -7.246  -8.990  1.00  0.00    -0.205 F 
ATOM     64  C   UNL     1      -6.349  -7.008 -12.481  1.00  0.00     0.022 A 
BRANCH  62  65
ATOM     65  S   UNL     1      -8.866  -6.409 -11.601  1.00  0.00     0.127 S 
ATOM     66  O   UNL     1      -8.679  -4.998 -11.942  1.00  0.00    -0.237 OA
ATOM     67  O   UNL     1      -9.289  -7.254 -12.719  1.00  0.00    -0.237 OA
ATOM     68  O   UNL     1      -9.564  -6.658 -10.349  1.00  0.00    -0.744 OA
ENDBRANCH  62  65
ENDBRANCH  44  58
BRANCH  45  69
ATOM     69  C   UNL     1      -1.816 -10.837  -1.155  1.00  0.00     0.023 A 
ATOM     70  C   UNL     1      -1.114 -12.053  -1.039  1.00  0.00     0.012 A 
ATOM     71  C   UNL     1      -2.045 -10.065  -0.001  1.00  0.00     0.148 A 
ATOM     72  C   UNL     1      -0.685 -12.512   0.207  1.00  0.00     0.002 A 
ATOM     73  C   UNL     1      -1.564 -10.500   1.229  1.00  0.00     0.091 A 
ATOM     74  F   UNL     1      -2.728  -8.919  -0.127  1.00  0.00    -0.205 F 
ATOM     75  C   UNL     1      -0.902 -11.732   1.339  1.00  0.00     0.022 A 
BRANCH  73  76
ATOM     76  S   UNL     1      -1.680  -9.492   2.711  1.00  0.00     0.127 S 
ATOM     77  O   UNL     1      -2.728 -10.184   3.460  1.00  0.00    -0.237 OA
ATOM     78  O   UNL     1      -0.334  -9.623   3.272  1.00  0.00    -0.237 OA
ATOM     79  O   UNL     1      -2.006  -8.155   2.243  1.00  0.00    -0.744 OA
ENDBRANCH  73  76
ENDBRANCH  45  69
BRANCH  57  80
ATOM     80  C   UNL     1      -6.449 -13.475  -5.654  1.00  0.00     0.023 A 
ATOM     81  C   UNL     1      -7.556 -13.553  -4.787  1.00  0.00     0.012 A 
ATOM     82  C   UNL     1      -6.193 -14.534  -6.547  1.00  0.00     0.148 A 
ATOM     83  C   UNL     1      -8.374 -14.682  -4.783  1.00  0.00     0.002 A 
ATOM     84  C   UNL     1      -7.042 -15.633  -6.574  1.00  0.00     0.091 A 
ATOM     85  F   UNL     1      -5.124 -14.448  -7.352  1.00  0.00    -0.205 F 
ATOM     86  C   UNL     1      -8.125 -15.715  -5.684  1.00  0.00     0.022 A 
BRANCH  84  87
ATOM     87  S   UNL     1      -6.857 -16.965  -7.765  1.00  0.00     0.127 S 
ATOM     88  O   UNL     1      -6.377 -18.057  -6.919  1.00  0.00    -0.237 OA
ATOM     89  O   UNL     1      -8.225 -17.132  -8.258  1.00  0.00    -0.237 OA
ATOM     90  O   UNL     1      -5.911 -16.484  -8.762  1.00  0.00    -0.744 OA
ENDBRANCH  84  87
ENDBRANCH  57  80
ENDBRANCH  31  32
ENDBRANCH  23  26
ENDBRANCH  21  22
ENDBRANCH   1  21
TORSDOF 17
