REMARK SMILES CC(C)(C)N(CC(=O)NCCCNC(=O)c1ccc(-c2c3nc(c(-c4cccc(S(=O)(=O)[O-])c4F)c4ccc([nH]4)c(-c4cccc(S(=O)(=O)[O-])c4F)c4nc(c(-c5cccc(S(=O)(=O)[O-])c5F)c5ccc2[nH]5)C=C4)C=C3)cc1)c1cccc(C#N)n1
REMARK SMILES IDX 11 1 10 2 9 3 7 4 8 5 6 7 5 8 2 9 1 10 3 11 4 12 79 13 80 14
REMARK SMILES IDX 86 15 81 16 83 17 82 18 84 19 85 20 12 21 13 22 14 23 15 25
REMARK SMILES IDX 16 26 17 27 78 28 18 29 77 30 19 31 20 32 21 33 71 34 22 35
REMARK SMILES IDX 76 36 70 37 72 38 23 39 75 40 69 41 68 42 24 44 56 45 36 46
REMARK SMILES IDX 55 47 37 48 40 49 54 50 73 51 38 52 39 53 53 55 74 56 41 57
REMARK SMILES IDX 25 58 26 59 34 60 27 61 29 62 35 63 28 64 30 65 31 66 32 67
REMARK SMILES IDX 33 68 57 69 58 70 66 71 59 72 61 73 67 74 60 75 62 76 63 77
REMARK SMILES IDX 64 78 65 79 42 80 43 81 51 82 44 83 46 84 52 85 45 86 47 87
REMARK SMILES IDX 48 88 49 89 50 90
REMARK H PARENT 9 6 13 24 72 43 40 54
REMARK Flexibility Score: inf
ROOT
ATOM      1  C   UNL     1       3.860  -1.101   2.834  1.00  0.00     0.042 C 
ENDROOT
BRANCH   1   2
ATOM      2  C   UNL     1       3.966  -1.101   1.319  1.00  0.00     0.117 C 
BRANCH   2   3
ATOM      3  N   UNL     1       4.041  -2.427   0.760  1.00  0.00    -0.354 N 
ATOM      4  C   UNL     1       3.091  -3.114   0.057  1.00  0.00     0.239 C 
ATOM      5  O   UNL     1       3.430  -4.202  -0.426  1.00  0.00    -0.273 OA
ATOM      6  H   UNL     1       4.891  -2.902   0.905  1.00  0.00     0.163 HD
BRANCH   4   7
ATOM      7  C   UNL     1       1.714  -2.493  -0.272  1.00  0.00     0.218 C 
BRANCH   7   8
ATOM      8  N   UNL     1       0.793  -2.165   0.855  1.00  0.00    -0.342 N 
BRANCH   8   9
ATOM      9  C   UNL     1       0.179  -0.797   1.014  1.00  0.00     0.034 C 
ATOM     10  C   UNL     1       0.664   0.223  -0.050  1.00  0.00     0.034 C 
ATOM     11  C   UNL     1       0.529  -0.231   2.405  1.00  0.00     0.034 C 
ATOM     12  C   UNL     1      -1.354  -0.775   0.861  1.00  0.00     0.034 C 
ENDBRANCH   8   9
BRANCH   8  13
ATOM     13  C   UNL     1       0.465  -3.284   1.630  1.00  0.00     0.130 A 
ATOM     14  C   UNL     1      -0.828  -3.578   2.061  1.00  0.00     0.047 A 
ATOM     15  N   UNL     1       1.446  -4.164   1.920  1.00  0.00    -0.220 NA
ATOM     16  C   UNL     1      -1.111  -4.725   2.809  1.00  0.00     0.007 A 
ATOM     17  C   UNL     1       1.166  -5.290   2.632  1.00  0.00     0.142 A 
ATOM     18  C   UNL     1      -0.092  -5.605   3.107  1.00  0.00     0.040 A 
BRANCH  17  19
ATOM     19  C   UNL     1       2.261  -6.199   2.843  1.00  0.00     0.120 C 
ATOM     20  N   UNL     1       3.098  -6.980   3.033  1.00  0.00    -0.191 NA
ENDBRANCH  17  19
ENDBRANCH   8  13
ENDBRANCH   7   8
ENDBRANCH   4   7
ENDBRANCH   2   3
ENDBRANCH   1   2
BRANCH   1  21
ATOM     21  C   UNL     1       5.157  -1.473   3.526  1.00  0.00     0.118 C 
BRANCH  21  22
ATOM     22  N   UNL     1       6.191  -0.464   3.314  1.00  0.00    -0.352 N 
ATOM     23  C   UNL     1       6.768   0.419   4.193  1.00  0.00     0.251 C 
ATOM     24  H   UNL     1       6.528  -0.406   2.391  1.00  0.00     0.163 HD
ATOM     25  O   UNL     1       7.422   1.361   3.752  1.00  0.00    -0.269 OA
BRANCH  23  26
ATOM     26  C   UNL     1       6.604   0.248   5.654  1.00  0.00     0.039 A 
ATOM     27  C   UNL     1       6.536   1.381   6.468  1.00  0.00     0.014 A 
ATOM     28  C   UNL     1       6.553  -1.022   6.231  1.00  0.00     0.014 A 
ATOM     29  C   UNL     1       6.368   1.235   7.846  1.00  0.00     0.010 A 
ATOM     30  C   UNL     1       6.259  -1.164   7.582  1.00  0.00     0.010 A 
ATOM     31  C   UNL     1       6.193  -0.039   8.412  1.00  0.00    -0.014 A 
BRANCH  31  32
ATOM     32  C   UNL     1       5.963  -0.211   9.869  1.00  0.00     0.031 A 
ATOM     33  C   UNL     1       6.918  -1.030  10.698  1.00  0.00     0.074 A 
ATOM     34  C   UNL     1       4.862   0.320  10.435  1.00  0.00     0.049 A 
ATOM     35  N   UNL     1       6.871  -1.305  11.976  1.00  0.00    -0.248 NA
ATOM     36  C   UNL     1       8.062  -1.644  10.000  1.00  0.00     0.031 C 
ATOM     37  C   UNL     1       3.821   1.067   9.725  1.00  0.00     0.029 A 
ATOM     38  N   UNL     1       4.424   0.300  11.736  1.00  0.00    -0.354 N 
ATOM     39  C   UNL     1       7.950  -2.146  12.225  1.00  0.00     0.074 A 
ATOM     40  C   UNL     1       8.609  -2.374  10.959  1.00  0.00     0.031 C 
ATOM     41  C   UNL     1       2.880   1.452  10.600  1.00  0.00     0.029 A 
ATOM     42  C   UNL     1       3.223   0.942  11.922  1.00  0.00     0.049 A 
ATOM     43  H   UNL     1       4.923  -0.134  12.465  1.00  0.00     0.167 HD
ATOM     44  C   UNL     1       8.373  -2.660  13.404  1.00  0.00     0.034 A 
ATOM     45  C   UNL     1       2.473   1.092  13.031  1.00  0.00     0.034 A 
ATOM     46  C   UNL     1       7.727  -2.413  14.664  1.00  0.00     0.049 A 
ATOM     47  C   UNL     1       2.973   0.522  14.331  1.00  0.00     0.074 A 
ATOM     48  C   UNL     1       8.120  -2.821  15.925  1.00  0.00     0.029 A 
ATOM     49  N   UNL     1       6.541  -1.713  14.821  1.00  0.00    -0.354 N 
ATOM     50  N   UNL     1       4.074  -0.146  14.570  1.00  0.00    -0.248 NA
ATOM     51  C   UNL     1       2.142   0.758  15.520  1.00  0.00     0.031 C 
ATOM     52  C   UNL     1       7.144  -2.414  16.839  1.00  0.00     0.029 A 
ATOM     53  C   UNL     1       6.176  -1.696  16.156  1.00  0.00     0.049 A 
ATOM     54  H   UNL     1       6.033  -1.290  14.091  1.00  0.00     0.167 HD
ATOM     55  C   UNL     1       4.091  -0.375  15.941  1.00  0.00     0.074 A 
ATOM     56  C   UNL     1       2.898   0.245  16.481  1.00  0.00     0.031 C 
ATOM     57  C   UNL     1       5.006  -1.044  16.686  1.00  0.00     0.034 A 
BRANCH  44  58
ATOM     58  C   UNL     1       9.607  -3.526  13.390  1.00  0.00     0.023 A 
ATOM     59  C   UNL     1      10.866  -2.957  13.105  1.00  0.00     0.012 A 
ATOM     60  C   UNL     1       9.528  -4.894  13.715  1.00  0.00     0.148 A 
ATOM     61  C   UNL     1      12.018  -3.743  13.101  1.00  0.00     0.002 A 
ATOM     62  C   UNL     1      10.687  -5.659  13.763  1.00  0.00     0.091 A 
ATOM     63  F   UNL     1       8.322  -5.423  13.967  1.00  0.00    -0.205 F 
ATOM     64  C   UNL     1      11.930  -5.089  13.441  1.00  0.00     0.022 A 
BRANCH  62  65
ATOM     65  S   UNL     1      10.693  -7.380  14.275  1.00  0.00     0.127 S 
ATOM     66  O   UNL     1      11.073  -8.055  13.035  1.00  0.00    -0.237 OA
ATOM     67  O   UNL     1      11.724  -7.386  15.313  1.00  0.00    -0.237 OA
ATOM     68  O   UNL     1       9.347  -7.666  14.750  1.00  0.00    -0.744 OA
ENDBRANCH  62  65
ENDBRANCH  44  58
BRANCH  45  69
ATOM     69  C   UNL     1       1.189   1.845  12.970  1.00  0.00     0.023 A 
ATOM     70  C   UNL     1       1.071   3.084  13.629  1.00  0.00     0.012 A 
ATOM     71  C   UNL     1       0.087   1.341  12.252  1.00  0.00     0.148 A 
ATOM     72  C   UNL     1      -0.134   3.788  13.610  1.00  0.00     0.002 A 
ATOM     73  C   UNL     1      -1.091   2.075  12.186  1.00  0.00     0.091 A 
ATOM     74  F   UNL     1       0.218   0.159  11.635  1.00  0.00    -0.205 F 
ATOM     75  C   UNL     1      -1.211   3.288  12.882  1.00  0.00     0.022 A 
BRANCH  73  76
ATOM     76  S   UNL     1      -2.484   1.574  11.171  1.00  0.00     0.127 S 
ATOM     77  O   UNL     1      -3.500   1.283  12.178  1.00  0.00    -0.237 OA
ATOM     78  O   UNL     1      -2.726   2.780  10.379  1.00  0.00    -0.237 OA
ATOM     79  O   UNL     1      -2.020   0.430  10.396  1.00  0.00    -0.744 OA
ENDBRANCH  73  76
ENDBRANCH  45  69
BRANCH  57  80
ATOM     80  C   UNL     1       4.790  -1.095  18.177  1.00  0.00     0.023 A 
ATOM     81  C   UNL     1       3.731  -1.850  18.719  1.00  0.00     0.012 A 
ATOM     82  C   UNL     1       5.680  -0.430  19.044  1.00  0.00     0.148 A 
ATOM     83  C   UNL     1       3.534  -1.903  20.099  1.00  0.00     0.002 A 
ATOM     84  C   UNL     1       5.513  -0.537  20.418  1.00  0.00     0.091 A 
ATOM     85  F   UNL     1       6.673   0.295  18.509  1.00  0.00    -0.205 F 
ATOM     86  C   UNL     1       4.431  -1.258  20.947  1.00  0.00     0.022 A 
BRANCH  84  87
ATOM     87  S   UNL     1       6.674   0.175  21.588  1.00  0.00     0.127 S 
ATOM     88  O   UNL     1       5.875   1.245  22.185  1.00  0.00    -0.237 OA
ATOM     89  O   UNL     1       6.945  -0.954  22.479  1.00  0.00    -0.237 OA
ATOM     90  O   UNL     1       7.819   0.618  20.804  1.00  0.00    -0.744 OA
ENDBRANCH  84  87
ENDBRANCH  57  80
ENDBRANCH  31  32
ENDBRANCH  23  26
ENDBRANCH  21  22
ENDBRANCH   1  21
TORSDOF 17
