REMARK SMILES Cc1ccc(N2CCC[C@@H](Cn3cc(C(=O)NCCCNC(=O)c4ccc(-c5c6nc(c(-c7cccc(S(=O)(=O)[O-])c7F)c7ccc([nH]7)c(-c7cccc(S(=O)(=O)[O-])c7F)c7nc(c(-c8cccc(S(=O)(=O)[O-])c8F)c8ccc5[nH]8)C=C7)C=C6)cc4)nn3)C2)nn1
REMARK SMILES IDX 19 1 18 2 17 3 15 4 16 5 14 7 12 8 13 9 88 10 87 11 11 12
REMARK SMILES IDX 10 13 6 14 7 15 89 16 8 17 9 18 5 19 1 20 2 21 3 22 91 23
REMARK SMILES IDX 4 24 90 25 20 26 21 27 22 28 23 30 24 31 25 32 86 33 26 34
REMARK SMILES IDX 85 35 27 36 28 37 29 38 79 39 30 40 84 41 78 42 80 43 31 44
REMARK SMILES IDX 83 45 77 46 76 47 32 49 64 50 44 51 63 52 45 53 48 54 62 55
REMARK SMILES IDX 81 56 46 57 47 58 61 60 82 61 49 62 33 63 34 64 42 65 35 66
REMARK SMILES IDX 37 67 43 68 36 69 38 70 39 71 40 72 41 73 65 74 66 75 74 76
REMARK SMILES IDX 67 77 69 78 75 79 68 80 70 81 71 82 72 83 73 84 50 85 51 86
REMARK SMILES IDX 59 87 52 88 54 89 60 90 53 91 55 92 56 93 57 94 58 95
REMARK H PARENT 17 6 21 29 80 48 48 59
REMARK Flexibility Score: inf
ROOT
ATOM      1  C   UNL     1      -3.022  -2.285   6.669  1.00  0.00     0.042 C 
ENDROOT
BRANCH   1   2
ATOM      2  C   UNL     1      -1.893  -3.267   6.986  1.00  0.00     0.118 C 
BRANCH   2   3
ATOM      3  N   UNL     1      -2.171  -4.102   8.140  1.00  0.00    -0.351 N 
ATOM      4  C   UNL     1      -2.574  -5.423   8.223  1.00  0.00     0.273 C 
ATOM      5  O   UNL     1      -2.505  -5.969   9.312  1.00  0.00    -0.267 OA
ATOM      6  H   UNL     1      -2.053  -3.654   9.009  1.00  0.00     0.163 HD
BRANCH   4   7
ATOM      7  C   UNL     1      -2.997  -6.139   7.021  1.00  0.00     0.170 A 
ATOM      8  N   UNL     1      -3.481  -6.736   5.006  1.00  0.00    -0.251 N 
ATOM      9  C   UNL     1      -3.572  -5.675   5.855  1.00  0.00     0.145 A 
ATOM     10  N   UNL     1      -3.159  -7.858   5.661  1.00  0.00    -0.067 NA
ATOM     11  N   UNL     1      -2.832  -7.504   6.897  1.00  0.00    -0.125 NA
BRANCH   8  12
ATOM     12  C   UNL     1      -3.447  -6.697   3.560  1.00  0.00     0.151 C 
BRANCH  12  13
ATOM     13  C   UNL     1      -2.055  -6.377   2.973  1.00  0.00     0.030 C 
ATOM     14  N   UNL     1      -0.288  -4.760   2.723  1.00  0.00    -0.355 N 
ATOM     15  C   UNL     1       0.789  -5.613   3.199  1.00  0.00     0.118 C 
ATOM     16  C   UNL     1      -1.583  -4.957   3.338  1.00  0.00     0.123 C 
ATOM     17  C   UNL     1       0.420  -7.048   2.836  1.00  0.00     0.022 C 
ATOM     18  C   UNL     1      -0.975  -7.418   3.359  1.00  0.00     0.009 C 
BRANCH  14  19
ATOM     19  C   UNL     1       0.006  -3.564   2.107  1.00  0.00     0.151 A 
ATOM     20  C   UNL     1       0.784   0.086   0.101  1.00  0.00     0.069 C 
ATOM     21  C   UNL     1       0.509  -1.217   0.780  1.00  0.00     0.060 A 
ATOM     22  C   UNL     1       0.902  -2.408   0.198  1.00  0.00     0.029 A 
ATOM     23  N   UNL     1      -0.125  -1.201   1.970  1.00  0.00    -0.154 NA
ATOM     24  C   UNL     1       0.658  -3.590   0.882  1.00  0.00     0.051 A 
ATOM     25  N   UNL     1      -0.397  -2.385   2.623  1.00  0.00    -0.133 NA
ENDBRANCH  14  19
ENDBRANCH  12  13
ENDBRANCH   8  12
ENDBRANCH   4   7
ENDBRANCH   2   3
ENDBRANCH   1   2
BRANCH   1  26
ATOM     26  C   UNL     1      -2.958  -1.060   7.565  1.00  0.00     0.118 C 
BRANCH  26  27
ATOM     27  N   UNL     1      -1.812  -0.214   7.239  1.00  0.00    -0.352 N 
ATOM     28  C   UNL     1      -1.404   0.957   7.835  1.00  0.00     0.251 C 
ATOM     29  H   UNL     1      -1.255  -0.526   6.490  1.00  0.00     0.163 HD
ATOM     30  O   UNL     1      -0.643   1.710   7.234  1.00  0.00    -0.269 OA
BRANCH  28  31
ATOM     31  C   UNL     1      -1.884   1.310   9.183  1.00  0.00     0.039 A 
ATOM     32  C   UNL     1      -2.107   2.653   9.503  1.00  0.00     0.014 A 
ATOM     33  C   UNL     1      -2.072   0.314  10.144  1.00  0.00     0.014 A 
ATOM     34  C   UNL     1      -2.573   2.975  10.771  1.00  0.00     0.010 A 
ATOM     35  C   UNL     1      -2.639   0.617  11.360  1.00  0.00     0.010 A 
ATOM     36  C   UNL     1      -2.852   1.949  11.687  1.00  0.00    -0.014 A 
BRANCH  36  37
ATOM     37  C   UNL     1      -3.499   2.267  12.947  1.00  0.00     0.031 A 
ATOM     38  C   UNL     1      -4.814   2.937  12.789  1.00  0.00     0.074 A 
ATOM     39  C   UNL     1      -3.046   1.872  14.152  1.00  0.00     0.049 A 
ATOM     40  N   UNL     1      -5.063   4.190  12.970  1.00  0.00    -0.248 NA
ATOM     41  C   UNL     1      -5.931   2.179  12.207  1.00  0.00     0.031 C 
ATOM     42  C   UNL     1      -1.943   0.958  14.459  1.00  0.00     0.029 A 
ATOM     43  N   UNL     1      -3.573   2.132  15.379  1.00  0.00    -0.354 N 
ATOM     44  C   UNL     1      -6.431   4.328  12.775  1.00  0.00     0.074 A 
ATOM     45  C   UNL     1      -6.869   3.126  12.112  1.00  0.00     0.031 C 
ATOM     46  C   UNL     1      -2.035   0.565  15.750  1.00  0.00     0.029 A 
ATOM     47  C   UNL     1      -3.100   1.309  16.396  1.00  0.00     0.049 A 
ATOM     48  H   UNL     1      -4.234   2.845  15.534  1.00  0.00     0.167 HD
ATOM     49  C   UNL     1      -7.134   5.303  13.414  1.00  0.00     0.034 A 
ATOM     50  C   UNL     1      -3.602   1.228  17.654  1.00  0.00     0.034 A 
ATOM     51  C   UNL     1      -6.263   6.294  13.994  1.00  0.00     0.049 A 
ATOM     52  C   UNL     1      -4.287   2.522  17.906  1.00  0.00     0.074 A 
ATOM     53  C   UNL     1      -5.266   7.115  13.505  1.00  0.00     0.029 A 
ATOM     54  N   UNL     1      -6.066   6.229  15.354  1.00  0.00    -0.354 N 
ATOM     55  N   UNL     1      -3.664   3.667  17.970  1.00  0.00    -0.248 NA
ATOM     56  C   UNL     1      -5.718   2.596  17.654  1.00  0.00     0.031 C 
ATOM     57  C   UNL     1      -4.248   7.082  14.502  1.00  0.00     0.029 A 
ATOM     58  C   UNL     1      -4.716   6.312  15.569  1.00  0.00     0.049 A 
ATOM     59  H   UNL     1      -6.764   6.141  16.043  1.00  0.00     0.167 HD
ATOM     60  C   UNL     1      -4.511   4.552  17.317  1.00  0.00     0.074 A 
ATOM     61  C   UNL     1      -5.798   3.863  17.238  1.00  0.00     0.031 C 
ATOM     62  C   UNL     1      -4.024   5.632  16.642  1.00  0.00     0.034 A 
BRANCH  49  63
ATOM     63  C   UNL     1      -8.571   5.178  13.843  1.00  0.00     0.023 A 
ATOM     64  C   UNL     1      -9.230   6.351  14.268  1.00  0.00     0.012 A 
ATOM     65  C   UNL     1      -9.209   3.946  14.109  1.00  0.00     0.148 A 
ATOM     66  C   UNL     1     -10.451   6.298  14.948  1.00  0.00     0.002 A 
ATOM     67  C   UNL     1     -10.458   3.901  14.713  1.00  0.00     0.091 A 
ATOM     68  F   UNL     1      -8.553   2.799  13.908  1.00  0.00    -0.205 F 
ATOM     69  C   UNL     1     -11.073   5.073  15.159  1.00  0.00     0.022 A 
BRANCH  67  70
ATOM     70  S   UNL     1     -11.319   2.347  14.977  1.00  0.00     0.127 S 
ATOM     71  O   UNL     1     -11.187   2.183  16.422  1.00  0.00    -0.237 OA
ATOM     72  O   UNL     1     -12.666   2.669  14.508  1.00  0.00    -0.237 OA
ATOM     73  O   UNL     1     -10.618   1.369  14.154  1.00  0.00    -0.744 OA
ENDBRANCH  67  70
ENDBRANCH  49  63
BRANCH  50  74
ATOM     74  C   UNL     1      -3.781   0.052  18.549  1.00  0.00     0.023 A 
ATOM     75  C   UNL     1      -4.267   0.260  19.859  1.00  0.00     0.012 A 
ATOM     76  C   UNL     1      -3.772  -1.273  18.060  1.00  0.00     0.148 A 
ATOM     77  C   UNL     1      -4.794  -0.792  20.620  1.00  0.00     0.002 A 
ATOM     78  C   UNL     1      -4.283  -2.320  18.827  1.00  0.00     0.091 A 
ATOM     79  F   UNL     1      -3.357  -1.507  16.810  1.00  0.00    -0.205 F 
ATOM     80  C   UNL     1      -4.814  -2.080  20.099  1.00  0.00     0.022 A 
BRANCH  78  81
ATOM     81  S   UNL     1      -4.338  -4.008  18.207  1.00  0.00     0.127 S 
ATOM     82  O   UNL     1      -3.951  -4.783  19.387  1.00  0.00    -0.237 OA
ATOM     83  O   UNL     1      -5.739  -4.143  17.819  1.00  0.00    -0.237 OA
ATOM     84  O   UNL     1      -3.367  -4.055  17.121  1.00  0.00    -0.744 OA
ENDBRANCH  78  81
ENDBRANCH  50  74
BRANCH  62  85
ATOM     85  C   UNL     1      -2.573   6.002  16.804  1.00  0.00     0.023 A 
ATOM     86  C   UNL     1      -1.534   5.207  16.276  1.00  0.00     0.012 A 
ATOM     87  C   UNL     1      -2.281   7.301  17.252  1.00  0.00     0.148 A 
ATOM     88  C   UNL     1      -0.232   5.710  16.179  1.00  0.00     0.002 A 
ATOM     89  C   UNL     1      -0.997   7.812  17.114  1.00  0.00     0.091 A 
ATOM     90  F   UNL     1      -3.290   8.040  17.738  1.00  0.00    -0.205 F 
ATOM     91  C   UNL     1       0.031   7.019  16.580  1.00  0.00     0.022 A 
BRANCH  89  92
ATOM     92  S   UNL     1      -0.615   9.524  17.489  1.00  0.00     0.127 S 
ATOM     93  O   UNL     1       0.353   9.391  18.576  1.00  0.00    -0.237 OA
ATOM     94  O   UNL     1      -0.052   9.998  16.224  1.00  0.00    -0.237 OA
ATOM     95  O   UNL     1      -1.876  10.154  17.862  1.00  0.00    -0.744 OA
ENDBRANCH  89  92
ENDBRANCH  62  85
ENDBRANCH  36  37
ENDBRANCH  28  31
ENDBRANCH  26  27
ENDBRANCH   1  26
TORSDOF 16
