REMARK SMILES CCN(C(=O)Cc1c(C(=O)NCCCNC(=O)c2ccc(-c3c4nc(c(-c5cccc(S(=O)(=O)[O-])c5F)c5ccc([nH]5)c(-c5cccc(S(=O)(=O)[O-])c5F)c5nc(c(-c6cccc(S(=O)(=O)[O-])c6F)c6ccc3[nH]6)C=C5)C=C4)cc2)[nH]c2ccccc12)c1cccc(C)c1
REMARK SMILES IDX 12 1 11 2 9 3 10 4 8 6 7 7 87 8 81 9 82 10 86 11 83 13 85 14
REMARK SMILES IDX 84 15 6 16 4 17 5 18 3 19 2 20 1 21 88 22 89 23 94 24 90 25
REMARK SMILES IDX 92 26 91 27 93 28 13 29 14 30 15 31 16 32 17 34 18 35 19 36
REMARK SMILES IDX 80 37 20 38 79 39 21 40 22 41 23 42 73 43 24 44 78 45 72 46
REMARK SMILES IDX 74 47 25 48 77 49 71 50 70 51 26 53 58 54 38 55 57 56 39 57
REMARK SMILES IDX 42 58 56 59 75 60 40 61 41 62 55 64 76 65 43 66 27 67 28 68
REMARK SMILES IDX 36 69 29 70 31 71 37 72 30 73 32 74 33 75 34 76 35 77 59 78
REMARK SMILES IDX 60 79 68 80 61 81 63 82 69 83 62 84 64 85 65 86 66 87 67 88
REMARK SMILES IDX 44 89 45 90 53 91 46 92 48 93 54 94 47 95 49 96 50 97 51 98
REMARK SMILES IDX 52 99
REMARK H PARENT 11 5 81 12 15 33 74 52 42 63
REMARK Flexibility Score: inf
ROOT
ATOM      1  C   UNL     1      -3.111  -2.424   4.779  1.00  0.00     0.118 C 
ENDROOT
BRANCH   1   2
ATOM      2  N   UNL     1      -3.006  -3.369   3.686  1.00  0.00    -0.351 N 
ATOM      3  C   UNL     1      -2.649  -3.286   2.364  1.00  0.00     0.268 C 
ATOM      4  O   UNL     1      -2.658  -4.360   1.765  1.00  0.00    -0.268 OA
ATOM      5  H   UNL     1      -3.249  -4.285   3.954  1.00  0.00     0.163 HD
BRANCH   3   6
ATOM      6  C   UNL     1      -2.332  -2.029   1.699  1.00  0.00     0.109 A 
ATOM      7  C   UNL     1      -1.876  -1.854   0.381  1.00  0.00    -0.000 A 
ATOM      8  C   UNL     1      -2.021  -0.458   0.071  1.00  0.00     0.004 A 
ATOM      9  N   UNL     1      -2.458  -0.759   2.213  1.00  0.00    -0.350 N 
ATOM     10  C   UNL     1      -2.179   0.203   1.279  1.00  0.00     0.046 A 
ATOM     11  C   UNL     1      -1.947   0.323  -1.103  1.00  0.00     0.010 A 
ATOM     12  H   UNL     1      -2.719  -0.565   3.142  1.00  0.00     0.167 HD
ATOM     13  C   UNL     1      -2.094   1.593   1.410  1.00  0.00     0.027 A 
ATOM     14  C   UNL     1      -1.882   1.718  -1.002  1.00  0.00     0.001 A 
ATOM     15  C   UNL     1      -1.909   2.339   0.244  1.00  0.00     0.002 A 
BRANCH   7  16
ATOM     16  C   UNL     1      -1.374  -2.912  -0.573  1.00  0.00     0.139 C 
BRANCH  16  17
ATOM     17  C   UNL     1       0.067  -3.385  -0.274  1.00  0.00     0.231 C 
ATOM     18  O   UNL     1       0.241  -4.536   0.147  1.00  0.00    -0.274 OA
BRANCH  17  19
ATOM     19  N   UNL     1       1.148  -2.512  -0.501  1.00  0.00    -0.312 N 
BRANCH  19  20
ATOM     20  C   UNL     1       1.051  -1.226  -1.217  1.00  0.00     0.122 C 
ATOM     21  C   UNL     1       1.257   0.020  -0.365  1.00  0.00     0.028 C 
ENDBRANCH  19  20
BRANCH  19  22
ATOM     22  C   UNL     1       2.495  -2.953  -0.280  1.00  0.00     0.044 A 
ATOM     23  C   UNL     1       2.983  -4.114  -0.884  1.00  0.00     0.026 A 
ATOM     24  C   UNL     1       3.391  -2.128   0.411  1.00  0.00     0.029 A 
ATOM     25  C   UNL     1       4.354  -4.393  -0.858  1.00  0.00     0.002 A 
ATOM     26  C   UNL     1       4.768  -2.372   0.409  1.00  0.00    -0.049 A 
ATOM     27  C   UNL     1       5.245  -3.516  -0.232  1.00  0.00     0.003 A 
ATOM     28  C   UNL     1       5.701  -1.412   1.085  1.00  0.00     0.044 C 
ENDBRANCH  19  22
ENDBRANCH  17  19
ENDBRANCH  16  17
ENDBRANCH   7  16
ENDBRANCH   3   6
ENDBRANCH   1   2
BRANCH   1  29
ATOM     29  C   UNL     1      -4.551  -1.968   5.014  1.00  0.00     0.042 C 
BRANCH  29  30
ATOM     30  C   UNL     1      -5.417  -3.020   5.715  1.00  0.00     0.118 C 
BRANCH  30  31
ATOM     31  N   UNL     1      -4.903  -3.359   7.039  1.00  0.00    -0.352 N 
ATOM     32  C   UNL     1      -5.445  -3.176   8.286  1.00  0.00     0.251 C 
ATOM     33  H   UNL     1      -4.019  -3.792   7.037  1.00  0.00     0.163 HD
ATOM     34  O   UNL     1      -4.724  -3.296   9.274  1.00  0.00    -0.269 OA
BRANCH  32  35
ATOM     35  C   UNL     1      -6.875  -2.845   8.453  1.00  0.00     0.039 A 
ATOM     36  C   UNL     1      -7.251  -1.953   9.462  1.00  0.00     0.014 A 
ATOM     37  C   UNL     1      -7.852  -3.453   7.661  1.00  0.00     0.014 A 
ATOM     38  C   UNL     1      -8.599  -1.630   9.638  1.00  0.00     0.010 A 
ATOM     39  C   UNL     1      -9.184  -3.069   7.783  1.00  0.00     0.010 A 
ATOM     40  C   UNL     1      -9.574  -2.161   8.778  1.00  0.00    -0.014 A 
BRANCH  40  41
ATOM     41  C   UNL     1     -11.001  -1.767   8.894  1.00  0.00     0.031 A 
ATOM     42  C   UNL     1     -12.056  -2.798   9.195  1.00  0.00     0.074 A 
ATOM     43  C   UNL     1     -11.358  -0.494   8.632  1.00  0.00     0.049 A 
ATOM     44  N   UNL     1     -13.353  -2.651   9.270  1.00  0.00    -0.248 NA
ATOM     45  C   UNL     1     -11.596  -4.180   9.412  1.00  0.00     0.031 C 
ATOM     46  C   UNL     1     -10.438   0.577   8.243  1.00  0.00     0.029 A 
ATOM     47  N   UNL     1     -12.592   0.107   8.619  1.00  0.00    -0.354 N 
ATOM     48  C   UNL     1     -13.867  -3.922   9.498  1.00  0.00     0.074 A 
ATOM     49  C   UNL     1     -12.744  -4.833   9.518  1.00  0.00     0.031 C 
ATOM     50  C   UNL     1     -11.138   1.701   8.028  1.00  0.00     0.029 A 
ATOM     51  C   UNL     1     -12.557   1.425   8.226  1.00  0.00     0.049 A 
ATOM     52  H   UNL     1     -13.422  -0.360   8.867  1.00  0.00     0.167 HD
ATOM     53  C   UNL     1     -15.155  -4.295   9.698  1.00  0.00     0.034 A 
ATOM     54  C   UNL     1     -13.555   2.308   8.029  1.00  0.00     0.034 A 
ATOM     55  C   UNL     1     -16.263  -3.379   9.709  1.00  0.00     0.049 A 
ATOM     56  C   UNL     1     -14.971   1.881   8.297  1.00  0.00     0.074 A 
ATOM     57  C   UNL     1     -17.590  -3.639  10.002  1.00  0.00     0.029 A 
ATOM     58  N   UNL     1     -16.179  -2.031   9.397  1.00  0.00    -0.354 N 
ATOM     59  N   UNL     1     -15.421   0.710   8.680  1.00  0.00    -0.248 NA
ATOM     60  C   UNL     1     -16.015   2.904   8.145  1.00  0.00     0.031 C 
ATOM     61  C   UNL     1     -18.316  -2.455   9.827  1.00  0.00     0.029 A 
ATOM     62  C   UNL     1     -17.433  -1.448   9.470  1.00  0.00     0.049 A 
ATOM     63  H   UNL     1     -15.350  -1.557   9.159  1.00  0.00     0.167 HD
ATOM     64  C   UNL     1     -16.792   0.864   8.846  1.00  0.00     0.074 A 
ATOM     65  C   UNL     1     -17.096   2.247   8.543  1.00  0.00     0.031 C 
ATOM     66  C   UNL     1     -17.717  -0.060   9.206  1.00  0.00     0.034 A 
BRANCH  53  67
ATOM     67  C   UNL     1     -15.429  -5.756   9.952  1.00  0.00     0.023 A 
ATOM     68  C   UNL     1     -15.001  -6.352  11.157  1.00  0.00     0.012 A 
ATOM     69  C   UNL     1     -16.152  -6.528   9.022  1.00  0.00     0.148 A 
ATOM     70  C   UNL     1     -15.245  -7.701  11.410  1.00  0.00     0.002 A 
ATOM     71  C   UNL     1     -16.436  -7.859   9.304  1.00  0.00     0.091 A 
ATOM     72  F   UNL     1     -16.536  -5.953   7.873  1.00  0.00    -0.205 F 
ATOM     73  C   UNL     1     -15.971  -8.451  10.489  1.00  0.00     0.022 A 
BRANCH  71  74
ATOM     74  S   UNL     1     -17.438  -8.886   8.223  1.00  0.00     0.127 S 
ATOM     75  O   UNL     1     -16.439  -9.807   7.683  1.00  0.00    -0.237 OA
ATOM     76  O   UNL     1     -18.381  -9.493   9.162  1.00  0.00    -0.237 OA
ATOM     77  O   UNL     1     -18.042  -7.981   7.255  1.00  0.00    -0.744 OA
ENDBRANCH  71  74
ENDBRANCH  53  67
BRANCH  54  78
ATOM     78  C   UNL     1     -13.238   3.697   7.594  1.00  0.00     0.023 A 
ATOM     79  C   UNL     1     -13.414   4.767   8.493  1.00  0.00     0.012 A 
ATOM     80  C   UNL     1     -12.724   3.957   6.309  1.00  0.00     0.148 A 
ATOM     81  C   UNL     1     -13.114   6.074   8.108  1.00  0.00     0.002 A 
ATOM     82  C   UNL     1     -12.371   5.253   5.953  1.00  0.00     0.091 A 
ATOM     83  F   UNL     1     -12.569   2.925   5.467  1.00  0.00    -0.205 F 
ATOM     84  C   UNL     1     -12.584   6.316   6.844  1.00  0.00     0.022 A 
BRANCH  82  85
ATOM     85  S   UNL     1     -11.552   5.638   4.401  1.00  0.00     0.127 S 
ATOM     86  O   UNL     1     -12.581   6.403   3.702  1.00  0.00    -0.237 OA
ATOM     87  O   UNL     1     -10.402   6.420   4.856  1.00  0.00    -0.237 OA
ATOM     88  O   UNL     1     -11.207   4.353   3.807  1.00  0.00    -0.744 OA
ENDBRANCH  82  85
ENDBRANCH  54  78
BRANCH  66  89
ATOM     89  C   UNL     1     -19.148   0.397   9.335  1.00  0.00     0.023 A 
ATOM     90  C   UNL     1     -19.894   0.716   8.184  1.00  0.00     0.012 A 
ATOM     91  C   UNL     1     -19.772   0.439  10.598  1.00  0.00     0.148 A 
ATOM     92  C   UNL     1     -21.229   1.105   8.291  1.00  0.00     0.002 A 
ATOM     93  C   UNL     1     -21.116   0.774  10.692  1.00  0.00     0.091 A 
ATOM     94  F   UNL     1     -19.039   0.148  11.683  1.00  0.00    -0.205 F 
ATOM     95  C   UNL     1     -21.843   1.122   9.541  1.00  0.00     0.022 A 
BRANCH  93  96
ATOM     96  S   UNL     1     -22.016   0.726  12.246  1.00  0.00     0.127 S 
ATOM     97  O   UNL     1     -22.243   2.147  12.503  1.00  0.00    -0.237 OA
ATOM     98  O   UNL     1     -23.216  -0.028  11.884  1.00  0.00    -0.237 OA
ATOM     99  O   UNL     1     -21.142   0.052  13.197  1.00  0.00    -0.744 OA
ENDBRANCH  93  96
ENDBRANCH  66  89
ENDBRANCH  40  41
ENDBRANCH  32  35
ENDBRANCH  30  31
ENDBRANCH  29  30
ENDBRANCH   1  29
TORSDOF 18
