REMARK SMILES O=C(NCCCNC(=O)c1ccc2nc(C3CCCCC3)[nH]c2c1)c1ccc(-c2c3nc(c(-c4cccc(S(=O)(=O)[O-])c4F)c4ccc([nH]4)c(-c4cccc(S(=O)(=O)[O-])c4F)c4nc(c(-c5cccc(S(=O)(=O)[O-])c5F)c5ccc2[nH]5)C=C4)C=C3)cc1
REMARK SMILES IDX 4 1 3 2 1 3 2 4 25 6 26 7 87 8 27 9 86 10 28 11 29 12 30 13
REMARK SMILES IDX 80 14 31 15 85 16 79 17 81 18 32 19 84 20 78 21 77 22 33 24
REMARK SMILES IDX 65 25 45 26 64 27 46 28 49 29 63 30 82 31 47 32 48 33 62 35
REMARK SMILES IDX 83 36 50 37 34 38 35 39 43 40 36 41 38 42 44 43 37 44 39 45
REMARK SMILES IDX 40 46 41 47 42 48 66 49 67 50 75 51 68 52 70 53 76 54 69 55
REMARK SMILES IDX 71 56 72 57 73 58 74 59 51 60 52 61 60 62 53 63 55 64 61 65
REMARK SMILES IDX 54 66 56 67 57 68 58 69 59 70 5 71 6 72 7 73 8 74 9 76 10 77
REMARK SMILES IDX 11 78 24 79 12 80 23 81 13 82 22 83 14 84 15 85 16 87 17 88
REMARK SMILES IDX 21 89 18 90 20 91 19 92
REMARK H PARENT 3 5 81 23 49 34 7 75 22 86
REMARK Flexibility Score: inf
ROOT
ATOM      1  C   UNL     1       4.501  -0.694   1.254  1.00  0.00     0.118 C 
ENDROOT
BRANCH   1   2
ATOM      2  N   UNL     1       3.069  -0.739   0.992  1.00  0.00    -0.352 N 
ATOM      3  O   UNL     1       1.107  -0.163   0.073  1.00  0.00    -0.269 OA
ATOM      4  C   UNL     1       2.331  -0.199  -0.031  1.00  0.00     0.251 C 
ATOM      5  H   UNL     1       2.545  -1.240   1.659  1.00  0.00     0.163 HD
BRANCH   4   6
ATOM      6  C   UNL     1       2.994   0.346  -1.236  1.00  0.00     0.039 A 
ATOM      7  C   UNL     1       4.085  -0.304  -1.817  1.00  0.00     0.014 A 
ATOM      8  C   UNL     1       2.479   1.504  -1.828  1.00  0.00     0.014 A 
ATOM      9  C   UNL     1       4.749   0.273  -2.894  1.00  0.00     0.010 A 
ATOM     10  C   UNL     1       3.092   2.034  -2.966  1.00  0.00     0.010 A 
ATOM     11  C   UNL     1       4.250   1.440  -3.491  1.00  0.00    -0.014 A 
BRANCH  11  12
ATOM     12  C   UNL     1       4.899   1.979  -4.712  1.00  0.00     0.031 A 
ATOM     13  C   UNL     1       5.526   3.344  -4.721  1.00  0.00     0.074 A 
ATOM     14  C   UNL     1       4.881   1.235  -5.835  1.00  0.00     0.049 A 
ATOM     15  N   UNL     1       6.103   3.975  -5.710  1.00  0.00    -0.248 NA
ATOM     16  C   UNL     1       5.491   4.105  -3.462  1.00  0.00     0.031 C 
ATOM     17  C   UNL     1       4.251  -0.082  -5.959  1.00  0.00     0.029 A 
ATOM     18  N   UNL     1       5.379   1.485  -7.088  1.00  0.00    -0.354 N 
ATOM     19  C   UNL     1       6.459   5.222  -5.211  1.00  0.00     0.074 A 
ATOM     20  C   UNL     1       6.029   5.260  -3.830  1.00  0.00     0.031 C 
ATOM     21  C   UNL     1       4.395  -0.521  -7.216  1.00  0.00     0.029 A 
ATOM     22  C   UNL     1       5.080   0.501  -7.999  1.00  0.00     0.049 A 
ATOM     23  H   UNL     1       5.900   2.290  -7.312  1.00  0.00     0.167 HD
ATOM     24  C   UNL     1       7.099   6.235  -5.844  1.00  0.00     0.034 A 
ATOM     25  C   UNL     1       5.301   0.436  -9.326  1.00  0.00     0.034 A 
ATOM     26  C   UNL     1       7.554   6.174  -7.208  1.00  0.00     0.049 A 
ATOM     27  C   UNL     1       6.036   1.558  -9.998  1.00  0.00     0.074 A 
ATOM     28  C   UNL     1       8.293   7.109  -7.910  1.00  0.00     0.029 A 
ATOM     29  N   UNL     1       7.299   5.128  -8.082  1.00  0.00    -0.354 N 
ATOM     30  N   UNL     1       6.505   2.663  -9.471  1.00  0.00    -0.248 NA
ATOM     31  C   UNL     1       6.303   1.415 -11.435  1.00  0.00     0.031 C 
ATOM     32  C   UNL     1       8.463   6.640  -9.217  1.00  0.00     0.029 A 
ATOM     33  C   UNL     1       7.851   5.402  -9.323  1.00  0.00     0.049 A 
ATOM     34  H   UNL     1       6.800   4.311  -7.855  1.00  0.00     0.167 HD
ATOM     35  C   UNL     1       7.140   3.339 -10.504  1.00  0.00     0.074 A 
ATOM     36  C   UNL     1       7.015   2.507 -11.685  1.00  0.00     0.031 C 
ATOM     37  C   UNL     1       7.758   4.545 -10.479  1.00  0.00     0.034 A 
BRANCH  24  38
ATOM     38  C   UNL     1       7.376   7.489  -5.055  1.00  0.00     0.023 A 
ATOM     39  C   UNL     1       8.372   7.480  -4.058  1.00  0.00     0.012 A 
ATOM     40  C   UNL     1       6.689   8.687  -5.333  1.00  0.00     0.148 A 
ATOM     41  C   UNL     1       8.655   8.632  -3.325  1.00  0.00     0.002 A 
ATOM     42  C   UNL     1       7.005   9.842  -4.626  1.00  0.00     0.091 A 
ATOM     43  F   UNL     1       5.728   8.674  -6.268  1.00  0.00    -0.205 F 
ATOM     44  C   UNL     1       7.979   9.814  -3.615  1.00  0.00     0.022 A 
BRANCH  42  45
ATOM     45  S   UNL     1       6.237  11.426  -4.987  1.00  0.00     0.127 S 
ATOM     46  O   UNL     1       5.248  11.526  -3.916  1.00  0.00    -0.237 OA
ATOM     47  O   UNL     1       7.362  12.355  -4.865  1.00  0.00    -0.237 OA
ATOM     48  O   UNL     1       5.702  11.306  -6.336  1.00  0.00    -0.744 OA
ENDBRANCH  42  45
ENDBRANCH  24  38
BRANCH  25  49
ATOM     49  C   UNL     1       4.836  -0.762 -10.077  1.00  0.00     0.023 A 
ATOM     50  C   UNL     1       5.774  -1.705 -10.535  1.00  0.00     0.012 A 
ATOM     51  C   UNL     1       3.460  -1.017 -10.249  1.00  0.00     0.148 A 
ATOM     52  C   UNL     1       5.351  -2.878 -11.161  1.00  0.00     0.002 A 
ATOM     53  C   UNL     1       3.045  -2.213 -10.820  1.00  0.00     0.091 A 
ATOM     54  F   UNL     1       2.586  -0.099  -9.814  1.00  0.00    -0.205 F 
ATOM     55  C   UNL     1       3.989  -3.139 -11.289  1.00  0.00     0.022 A 
BRANCH  53  56
ATOM     56  S   UNL     1       1.316  -2.699 -10.886  1.00  0.00     0.127 S 
ATOM     57  O   UNL     1       1.038  -2.617 -12.317  1.00  0.00    -0.237 OA
ATOM     58  O   UNL     1       1.365  -4.058 -10.344  1.00  0.00    -0.237 OA
ATOM     59  O   UNL     1       0.606  -1.744 -10.047  1.00  0.00    -0.744 OA
ENDBRANCH  53  56
ENDBRANCH  25  49
BRANCH  37  60
ATOM     60  C   UNL     1       8.373   5.042 -11.760  1.00  0.00     0.023 A 
ATOM     61  C   UNL     1       7.543   5.539 -12.783  1.00  0.00     0.012 A 
ATOM     62  C   UNL     1       9.772   5.104 -11.909  1.00  0.00     0.148 A 
ATOM     63  C   UNL     1       8.097   6.074 -13.946  1.00  0.00     0.002 A 
ATOM     64  C   UNL     1      10.317   5.680 -13.050  1.00  0.00     0.091 A 
ATOM     65  F   UNL     1      10.541   4.607 -10.929  1.00  0.00    -0.205 F 
ATOM     66  C   UNL     1       9.482   6.157 -14.073  1.00  0.00     0.022 A 
BRANCH  64  67
ATOM     67  S   UNL     1      12.086   5.914 -13.260  1.00  0.00     0.127 S 
ATOM     68  O   UNL     1      12.393   4.941 -14.307  1.00  0.00    -0.237 OA
ATOM     69  O   UNL     1      12.165   7.312 -13.684  1.00  0.00    -0.237 OA
ATOM     70  O   UNL     1      12.686   5.641 -11.961  1.00  0.00    -0.744 OA
ENDBRANCH  64  67
ENDBRANCH  37  60
ENDBRANCH  11  12
ENDBRANCH   4   6
ENDBRANCH   1   2
BRANCH   1  71
ATOM     71  C   UNL     1       4.846   0.185   2.450  1.00  0.00     0.042 C 
BRANCH  71  72
ATOM     72  C   UNL     1       4.224  -0.284   3.759  1.00  0.00     0.118 C 
BRANCH  72  73
ATOM     73  N   UNL     1       4.701  -1.601   4.158  1.00  0.00    -0.352 N 
ATOM     74  C   UNL     1       5.596  -1.942   5.138  1.00  0.00     0.251 C 
ATOM     75  H   UNL     1       4.325  -2.357   3.650  1.00  0.00     0.163 HD
ATOM     76  O   UNL     1       6.035  -3.086   5.214  1.00  0.00    -0.269 OA
BRANCH  74  77
ATOM     77  C   UNL     1       6.055  -0.918   6.097  1.00  0.00     0.042 A 
ATOM     78  C   UNL     1       5.126  -0.177   6.840  1.00  0.00     0.016 A 
ATOM     79  C   UNL     1       7.437  -0.734   6.248  1.00  0.00     0.042 A 
ATOM     80  C   UNL     1       5.552   0.841   7.700  1.00  0.00     0.031 A 
ATOM     81  C   UNL     1       7.826   0.283   7.121  1.00  0.00     0.066 A 
ATOM     82  C   UNL     1       6.928   1.073   7.829  1.00  0.00     0.089 A 
ATOM     83  N   UNL     1       9.056   0.755   7.493  1.00  0.00    -0.342 N 
ATOM     84  N   UNL     1       7.589   2.004   8.588  1.00  0.00    -0.233 NA
ATOM     85  C   UNL     1       8.871   1.803   8.364  1.00  0.00     0.110 A 
ATOM     86  H   UNL     1       9.925   0.405   7.189  1.00  0.00     0.168 HD
BRANCH  85  87
ATOM     87  C   UNL     1      10.003   2.564   8.984  1.00  0.00     0.055 C 
ATOM     88  C   UNL     1      10.725   1.701  10.028  1.00  0.00     0.011 C 
ATOM     89  C   UNL     1      10.978   3.107   7.928  1.00  0.00     0.011 C 
ATOM     90  C   UNL     1      11.899   2.444  10.658  1.00  0.00     0.001 C 
ATOM     91  C   UNL     1      12.152   3.841   8.573  1.00  0.00     0.001 C 
ATOM     92  C   UNL     1      12.865   2.964   9.599  1.00  0.00     0.000 C 
ENDBRANCH  85  87
ENDBRANCH  74  77
ENDBRANCH  72  73
ENDBRANCH  71  72
ENDBRANCH   1  71
TORSDOF 14
