REMARK SMILES O=C(COCC(=O)/[NH+]=C1\S[C@@H]2CS(=O)(=O)C[C@H]2N1c1ccc(Cl)cc1)NCCCNC(=O)c1ccc(-c2c3nc(c(-c4cccc(S(=O)(=O)[O-])c4F)c4ccc([nH]4)c(-c4cccc(S(=O)(=O)[O-])c4F)c4nc(c(-c5cccc(S(=O)(=O)[O-])c5F)c5ccc2[nH]5)C=C4)C=C3)cc1
REMARK SMILES IDX 27 1 26 2 2 3 1 4 3 6 4 7 5 8 6 9 7 10 8 11 9 12 10 14 18 15
REMARK SMILES IDX 11 16 17 17 12 18 16 19 13 20 14 21 15 22 19 23 20 24 25 25
REMARK SMILES IDX 21 26 24 27 22 28 23 29 28 30 29 31 30 32 31 33 32 35 33 36
REMARK SMILES IDX 34 37 95 38 35 39 94 40 36 41 37 42 38 43 88 44 39 45 93 46
REMARK SMILES IDX 87 47 89 48 40 49 92 50 86 51 85 52 41 54 73 55 53 56 72 57
REMARK SMILES IDX 54 58 57 59 71 60 90 61 55 62 56 63 70 65 91 66 58 67 42 68
REMARK SMILES IDX 43 69 51 70 44 71 46 72 52 73 45 74 47 75 48 76 49 77 50 78
REMARK SMILES IDX 74 79 75 80 83 81 76 82 78 83 84 84 77 85 79 86 80 87 81 88
REMARK SMILES IDX 82 89 59 90 60 91 68 92 61 93 63 94 69 95 62 96 64 97 65 98
REMARK SMILES IDX 66 99 67 100
REMARK H PARENT 26 5 8 13 30 34 89 53 57 64
REMARK Flexibility Score: inf
ROOT
ATOM      1  C   UNL     1       3.903  -3.929  -2.718  1.00  0.00     0.117 C 
ENDROOT
BRANCH   1   2
ATOM      2  N   UNL     1       2.482  -3.660  -2.850  1.00  0.00    -0.354 N 
ATOM      3  C   UNL     1       1.839  -2.455  -2.803  1.00  0.00     0.246 C 
ATOM      4  O   UNL     1       0.625  -2.412  -3.006  1.00  0.00    -0.272 OA
ATOM      5  H   UNL     1       1.907  -4.448  -2.992  1.00  0.00     0.163 HD
BRANCH   3   6
ATOM      6  C   UNL     1       2.646  -1.192  -2.495  1.00  0.00     0.260 C 
BRANCH   6   7
ATOM      7  O   UNL     1       3.327  -1.252  -1.253  1.00  0.00    -0.359 OA
BRANCH   7   8
ATOM      8  C   UNL     1       2.448  -1.136  -0.139  1.00  0.00     0.288 C 
BRANCH   8   9
ATOM      9  C   UNL     1       2.155   0.284   0.388  1.00  0.00     0.333 C 
ATOM     10  O   UNL     1       1.159   0.478   1.084  1.00  0.00    -0.244 OA
ATOM     11  N   UNL     1       2.968   1.328   0.018  1.00  0.00    -0.202 N 
ATOM     12  C   UNL     1       4.239   1.343   0.244  1.00  0.00     0.319 C 
ATOM     13  H   UNL     1       2.564   2.100  -0.441  1.00  0.00     0.316 HD
ATOM     14  S   UNL     1       5.193  -0.013   0.928  1.00  0.00    -0.029 SA
ATOM     15  N   UNL     1       5.115   2.403  -0.044  1.00  0.00    -0.217 N 
ATOM     16  C   UNL     1       6.648   0.612   0.065  1.00  0.00     0.120 C 
ATOM     17  C   UNL     1       6.503   2.110   0.360  1.00  0.00     0.212 C 
ATOM     18  C   UNL     1       8.037   0.187   0.464  1.00  0.00     0.156 C 
ATOM     19  C   UNL     1       7.668   2.739  -0.363  1.00  0.00     0.188 C 
ATOM     20  S   UNL     1       9.020   1.625   0.020  1.00  0.00     0.155 S 
ATOM     21  O   UNL     1       9.730   1.360  -1.215  1.00  0.00    -0.229 OA
ATOM     22  O   UNL     1       9.681   2.121   1.205  1.00  0.00    -0.229 OA
BRANCH  15  23
ATOM     23  C   UNL     1       4.700   3.739  -0.170  1.00  0.00     0.128 A 
ATOM     24  C   UNL     1       5.251   4.584  -1.146  1.00  0.00     0.053 A 
ATOM     25  C   UNL     1       3.698   4.279   0.656  1.00  0.00     0.053 A 
ATOM     26  C   UNL     1       4.848   5.919  -1.274  1.00  0.00     0.025 A 
ATOM     27  C   UNL     1       3.285   5.612   0.530  1.00  0.00     0.025 A 
ATOM     28  C   UNL     1       3.868   6.428  -0.432  1.00  0.00     0.041 A 
ATOM     29  Cl  UNL     1       3.368   8.066  -0.594  1.00  0.00    -0.084 Cl
ENDBRANCH  15  23
ENDBRANCH   8   9
ENDBRANCH   7   8
ENDBRANCH   6   7
ENDBRANCH   3   6
ENDBRANCH   1   2
BRANCH   1  30
ATOM     30  C   UNL     1       4.259  -4.659  -1.427  1.00  0.00     0.042 C 
BRANCH  30  31
ATOM     31  C   UNL     1       3.592  -6.022  -1.253  1.00  0.00     0.118 C 
BRANCH  31  32
ATOM     32  N   UNL     1       3.863  -6.935  -2.354  1.00  0.00    -0.352 N 
ATOM     33  C   UNL     1       4.350  -8.217  -2.357  1.00  0.00     0.251 C 
ATOM     34  H   UNL     1       3.663  -6.570  -3.247  1.00  0.00     0.163 HD
ATOM     35  O   UNL     1       4.646  -8.733  -3.434  1.00  0.00    -0.269 OA
BRANCH  33  36
ATOM     36  C   UNL     1       4.536  -8.978  -1.100  1.00  0.00     0.039 A 
ATOM     37  C   UNL     1       5.639  -9.831  -0.997  1.00  0.00     0.014 A 
ATOM     38  C   UNL     1       3.619  -8.903  -0.048  1.00  0.00     0.014 A 
ATOM     39  C   UNL     1       5.844 -10.569   0.172  1.00  0.00     0.010 A 
ATOM     40  C   UNL     1       3.872  -9.573   1.149  1.00  0.00     0.010 A 
ATOM     41  C   UNL     1       4.979 -10.426   1.269  1.00  0.00    -0.014 A 
BRANCH  41  42
ATOM     42  C   UNL     1       5.233 -11.158   2.538  1.00  0.00     0.031 A 
ATOM     43  C   UNL     1       4.239 -12.160   3.065  1.00  0.00     0.074 A 
ATOM     44  C   UNL     1       6.347 -10.884   3.248  1.00  0.00     0.049 A 
ATOM     45  N   UNL     1       4.306 -12.897   4.144  1.00  0.00    -0.248 NA
ATOM     46  C   UNL     1       2.997 -12.342   2.296  1.00  0.00     0.031 C 
ATOM     47  C   UNL     1       7.349  -9.878   2.891  1.00  0.00     0.029 A 
ATOM     48  N   UNL     1       6.816 -11.416   4.423  1.00  0.00    -0.354 N 
ATOM     49  C   UNL     1       3.111 -13.604   4.200  1.00  0.00     0.074 A 
ATOM     50  C   UNL     1       2.319 -13.179   3.067  1.00  0.00     0.031 C 
ATOM     51  C   UNL     1       8.322  -9.878   3.816  1.00  0.00     0.029 A 
ATOM     52  C   UNL     1       8.000 -10.858   4.847  1.00  0.00     0.049 A 
ATOM     53  H   UNL     1       6.350 -12.130   4.916  1.00  0.00     0.167 HD
ATOM     54  C   UNL     1       2.716 -14.543   5.095  1.00  0.00     0.034 A 
ATOM     55  C   UNL     1       8.742 -11.104   5.944  1.00  0.00     0.034 A 
ATOM     56  C   UNL     1       3.516 -14.984   6.207  1.00  0.00     0.049 A 
ATOM     57  C   UNL     1       8.301 -12.178   6.900  1.00  0.00     0.074 A 
ATOM     58  C   UNL     1       3.239 -15.983   7.124  1.00  0.00     0.029 A 
ATOM     59  N   UNL     1       4.743 -14.445   6.564  1.00  0.00    -0.354 N 
ATOM     60  N   UNL     1       7.238 -12.943   6.850  1.00  0.00    -0.248 NA
ATOM     61  C   UNL     1       9.186 -12.453   8.041  1.00  0.00     0.031 C 
ATOM     62  C   UNL     1       4.281 -16.023   8.057  1.00  0.00     0.029 A 
ATOM     63  C   UNL     1       5.231 -15.083   7.692  1.00  0.00     0.049 A 
ATOM     64  H   UNL     1       5.200 -13.716   6.086  1.00  0.00     0.167 HD
ATOM     65  C   UNL     1       7.348 -13.818   7.925  1.00  0.00     0.074 A 
ATOM     66  C   UNL     1       8.592 -13.501   8.594  1.00  0.00     0.031 C 
ATOM     67  C   UNL     1       6.492 -14.790   8.326  1.00  0.00     0.034 A 
BRANCH  54  68
ATOM     68  C   UNL     1       1.369 -15.189   4.887  1.00  0.00     0.023 A 
ATOM     69  C   UNL     1       1.170 -16.060   3.795  1.00  0.00     0.012 A 
ATOM     70  C   UNL     1       0.318 -14.983   5.803  1.00  0.00     0.148 A 
ATOM     71  C   UNL     1      -0.062 -16.683   3.596  1.00  0.00     0.002 A 
ATOM     72  C   UNL     1      -0.891 -15.647   5.626  1.00  0.00     0.091 A 
ATOM     73  F   UNL     1       0.517 -14.138   6.825  1.00  0.00    -0.205 F 
ATOM     74  C   UNL     1      -1.087 -16.485   4.516  1.00  0.00     0.022 A 
BRANCH  72  75
ATOM     75  S   UNL     1      -2.244 -15.528   6.801  1.00  0.00     0.127 S 
ATOM     76  O   UNL     1      -3.239 -14.784   6.029  1.00  0.00    -0.237 OA
ATOM     77  O   UNL     1      -2.577 -16.934   7.028  1.00  0.00    -0.237 OA
ATOM     78  O   UNL     1      -1.710 -14.833   7.963  1.00  0.00    -0.744 OA
ENDBRANCH  72  75
ENDBRANCH  54  68
BRANCH  55  79
ATOM     79  C   UNL     1      10.014 -10.360   6.166  1.00  0.00     0.023 A 
ATOM     80  C   UNL     1      11.245 -11.037   6.068  1.00  0.00     0.012 A 
ATOM     81  C   UNL     1      10.010  -8.982   6.456  1.00  0.00     0.148 A 
ATOM     82  C   UNL     1      12.447 -10.366   6.296  1.00  0.00     0.002 A 
ATOM     83  C   UNL     1      11.212  -8.306   6.622  1.00  0.00     0.091 A 
ATOM     84  F   UNL     1       8.828  -8.357   6.552  1.00  0.00    -0.205 F 
ATOM     85  C   UNL     1      12.431  -8.999   6.564  1.00  0.00     0.022 A 
BRANCH  83  86
ATOM     86  S   UNL     1      11.293  -6.525   6.832  1.00  0.00     0.127 S 
ATOM     87  O   UNL     1      11.753  -6.407   8.214  1.00  0.00    -0.237 OA
ATOM     88  O   UNL     1      12.279  -6.147   5.819  1.00  0.00    -0.237 OA
ATOM     89  O   UNL     1       9.947  -6.034   6.570  1.00  0.00    -0.744 OA
ENDBRANCH  83  86
ENDBRANCH  55  79
BRANCH  67  90
ATOM     90  C   UNL     1       6.896 -15.625   9.515  1.00  0.00     0.023 A 
ATOM     91  C   UNL     1       6.936 -15.057  10.804  1.00  0.00     0.012 A 
ATOM     92  C   UNL     1       7.204 -16.991   9.354  1.00  0.00     0.148 A 
ATOM     93  C   UNL     1       7.327 -15.820  11.904  1.00  0.00     0.002 A 
ATOM     94  C   UNL     1       7.537 -17.759  10.463  1.00  0.00     0.091 A 
ATOM     95  F   UNL     1       7.179 -17.512   8.119  1.00  0.00    -0.205 F 
ATOM     96  C   UNL     1       7.617 -17.172  11.735  1.00  0.00     0.022 A 
BRANCH  94  97
ATOM     97  S   UNL     1       7.826 -19.529  10.352  1.00  0.00     0.127 S 
ATOM     98  O   UNL     1       9.278 -19.603  10.502  1.00  0.00    -0.237 OA
ATOM     99  O   UNL     1       7.068 -20.039  11.495  1.00  0.00    -0.237 OA
ATOM    100  O   UNL     1       7.307 -19.938   9.054  1.00  0.00    -0.744 OA
ENDBRANCH  94  97
ENDBRANCH  67  90
ENDBRANCH  41  42
ENDBRANCH  33  36
ENDBRANCH  31  32
ENDBRANCH  30  31
ENDBRANCH   1  30
TORSDOF 17
