REMARK SMILES O=C(NCCCNC(=O)C1(n2cnc3ccccc32)CC[NH+](Cc2cccc3nonc23)CC1)c1ccc(-c2c3nc(c(-c4cccc(S(=O)(=O)[O-])c4F)c4ccc([nH]4)c(-c4cccc(S(=O)(=O)[O-])c4F)c4nc(c(-c5cccc(S(=O)(=O)[O-])c5F)c5ccc2[nH]5)C=C4)C=C3)cc1
REMARK SMILES IDX 4 1 3 2 1 3 2 4 35 6 36 7 97 8 37 9 96 10 38 11 39 12 40 13
REMARK SMILES IDX 90 14 41 15 95 16 89 17 91 18 42 19 94 20 88 21 87 22 43 24
REMARK SMILES IDX 75 25 55 26 74 27 56 28 59 29 73 30 92 31 57 32 58 33 72 35
REMARK SMILES IDX 93 36 60 37 44 38 45 39 53 40 46 41 48 42 54 43 47 44 49 45
REMARK SMILES IDX 50 46 51 47 52 48 76 49 77 50 85 51 78 52 80 53 86 54 79 55
REMARK SMILES IDX 81 56 82 57 83 58 84 59 61 60 62 61 70 62 63 63 65 64 71 65
REMARK SMILES IDX 64 66 66 67 67 68 68 69 69 70 5 71 6 72 7 73 8 74 9 76 10 77
REMARK SMILES IDX 20 78 34 79 21 80 33 81 22 82 11 84 12 85 19 86 13 87 14 88
REMARK SMILES IDX 18 89 15 90 17 91 16 92 23 93 24 94 25 95 32 96 26 97 28 98
REMARK SMILES IDX 31 99 27 100 29 101 30 102
REMARK H PARENT 3 5 91 23 59 34 7 75 22 83
REMARK Flexibility Score: inf
ROOT
ATOM      1  C   UNL     1       3.481  -1.257  -1.431  1.00  0.00     0.118 C 
ENDROOT
BRANCH   1   2
ATOM      2  N   UNL     1       2.196  -0.920  -0.823  1.00  0.00    -0.352 N 
ATOM      3  O   UNL     1       0.818   0.272   0.541  1.00  0.00    -0.269 OA
ATOM      4  C   UNL     1       1.880   0.201  -0.049  1.00  0.00     0.251 C 
ATOM      5  H   UNL     1       1.464  -1.561  -0.976  1.00  0.00     0.163 HD
BRANCH   4   6
ATOM      6  C   UNL     1       2.862   1.310   0.035  1.00  0.00     0.039 A 
ATOM      7  C   UNL     1       2.966   2.232   1.080  1.00  0.00     0.014 A 
ATOM      8  C   UNL     1       3.722   1.454  -1.026  1.00  0.00     0.014 A 
ATOM      9  C   UNL     1       3.935   3.238   0.965  1.00  0.00     0.010 A 
ATOM     10  C   UNL     1       4.939   1.958  -0.749  1.00  0.00     0.010 A 
ATOM     11  C   UNL     1       4.897   3.112  -0.040  1.00  0.00    -0.014 A 
BRANCH  11  12
ATOM     12  C   UNL     1       5.944   4.045  -0.388  1.00  0.00     0.031 A 
ATOM     13  C   UNL     1       6.738   4.475   0.770  1.00  0.00     0.074 A 
ATOM     14  C   UNL     1       6.278   4.339  -1.669  1.00  0.00     0.049 A 
ATOM     15  N   UNL     1       6.584   5.571   1.429  1.00  0.00    -0.248 NA
ATOM     16  C   UNL     1       7.636   3.501   1.406  1.00  0.00     0.031 C 
ATOM     17  C   UNL     1       5.815   3.742  -2.936  1.00  0.00     0.029 A 
ATOM     18  N   UNL     1       7.225   5.206  -2.102  1.00  0.00    -0.354 N 
ATOM     19  C   UNL     1       7.567   5.542   2.402  1.00  0.00     0.074 A 
ATOM     20  C   UNL     1       8.011   4.174   2.496  1.00  0.00     0.031 C 
ATOM     21  C   UNL     1       6.652   4.090  -3.941  1.00  0.00     0.029 A 
ATOM     22  C   UNL     1       7.596   5.064  -3.435  1.00  0.00     0.049 A 
ATOM     23  H   UNL     1       7.622   5.889  -1.515  1.00  0.00     0.167 HD
ATOM     24  C   UNL     1       8.136   6.691   2.851  1.00  0.00     0.034 A 
ATOM     25  C   UNL     1       8.643   5.683  -4.036  1.00  0.00     0.034 A 
ATOM     26  C   UNL     1       7.429   7.858   2.387  1.00  0.00     0.049 A 
ATOM     27  C   UNL     1       8.924   6.890  -3.213  1.00  0.00     0.074 A 
ATOM     28  C   UNL     1       6.128   8.308   2.508  1.00  0.00     0.029 A 
ATOM     29  N   UNL     1       7.950   8.497   1.284  1.00  0.00    -0.354 N 
ATOM     30  N   UNL     1       8.075   7.871  -3.068  1.00  0.00    -0.248 NA
ATOM     31  C   UNL     1       9.934   6.774  -2.171  1.00  0.00     0.031 C 
ATOM     32  C   UNL     1       5.789   8.795   1.210  1.00  0.00     0.029 A 
ATOM     33  C   UNL     1       6.921   8.694   0.397  1.00  0.00     0.049 A 
ATOM     34  H   UNL     1       8.889   8.763   1.154  1.00  0.00     0.167 HD
ATOM     35  C   UNL     1       8.153   8.200  -1.719  1.00  0.00     0.074 A 
ATOM     36  C   UNL     1       9.376   7.554  -1.240  1.00  0.00     0.031 C 
ATOM     37  C   UNL     1       7.078   8.702  -1.043  1.00  0.00     0.034 A 
BRANCH  24  38
ATOM     38  C   UNL     1       9.530   6.765   3.388  1.00  0.00     0.023 A 
ATOM     39  C   UNL     1       9.868   7.859   4.205  1.00  0.00     0.012 A 
ATOM     40  C   UNL     1      10.577   5.933   2.933  1.00  0.00     0.148 A 
ATOM     41  C   UNL     1      11.197   8.109   4.561  1.00  0.00     0.002 A 
ATOM     42  C   UNL     1      11.883   6.139   3.351  1.00  0.00     0.091 A 
ATOM     43  F   UNL     1      10.332   5.017   1.988  1.00  0.00    -0.205 F 
ATOM     44  C   UNL     1      12.202   7.239   4.150  1.00  0.00     0.022 A 
BRANCH  42  45
ATOM     45  S   UNL     1      13.206   5.025   2.872  1.00  0.00     0.127 S 
ATOM     46  O   UNL     1      13.915   5.826   1.878  1.00  0.00    -0.237 OA
ATOM     47  O   UNL     1      13.913   4.838   4.139  1.00  0.00    -0.237 OA
ATOM     48  O   UNL     1      12.540   3.827   2.377  1.00  0.00    -0.744 OA
ENDBRANCH  42  45
ENDBRANCH  24  38
BRANCH  25  49
ATOM     49  C   UNL     1       9.626   5.141  -5.013  1.00  0.00     0.023 A 
ATOM     50  C   UNL     1      10.556   6.024  -5.603  1.00  0.00     0.012 A 
ATOM     51  C   UNL     1       9.867   3.752  -5.139  1.00  0.00     0.148 A 
ATOM     52  C   UNL     1      11.718   5.548  -6.226  1.00  0.00     0.002 A 
ATOM     53  C   UNL     1      11.019   3.283  -5.769  1.00  0.00     0.091 A 
ATOM     54  F   UNL     1       9.020   2.890  -4.564  1.00  0.00    -0.205 F 
ATOM     55  C   UNL     1      11.957   4.179  -6.294  1.00  0.00     0.022 A 
BRANCH  53  56
ATOM     56  S   UNL     1      11.397   1.527  -5.891  1.00  0.00     0.127 S 
ATOM     57  O   UNL     1      11.812   1.400  -7.289  1.00  0.00    -0.237 OA
ATOM     58  O   UNL     1      12.473   1.377  -4.917  1.00  0.00    -0.237 OA
ATOM     59  O   UNL     1      10.156   0.829  -5.575  1.00  0.00    -0.744 OA
ENDBRANCH  53  56
ENDBRANCH  25  49
BRANCH  37  60
ATOM     60  C   UNL     1       5.852   9.088  -1.835  1.00  0.00     0.023 A 
ATOM     61  C   UNL     1       5.006   8.133  -2.439  1.00  0.00     0.012 A 
ATOM     62  C   UNL     1       5.433  10.427  -1.782  1.00  0.00     0.148 A 
ATOM     63  C   UNL     1       3.769   8.507  -2.976  1.00  0.00     0.002 A 
ATOM     64  C   UNL     1       4.190  10.790  -2.286  1.00  0.00     0.091 A 
ATOM     65  F   UNL     1       6.245  11.315  -1.189  1.00  0.00    -0.205 F 
ATOM     66  C   UNL     1       3.355   9.834  -2.886  1.00  0.00     0.022 A 
BRANCH  64  67
ATOM     67  S   UNL     1       3.553  12.457  -2.115  1.00  0.00     0.127 S 
ATOM     68  O   UNL     1       3.513  12.912  -3.503  1.00  0.00    -0.237 OA
ATOM     69  O   UNL     1       2.240  12.226  -1.508  1.00  0.00    -0.237 OA
ATOM     70  O   UNL     1       4.493  13.167  -1.256  1.00  0.00    -0.744 OA
ENDBRANCH  64  67
ENDBRANCH  37  60
ENDBRANCH  11  12
ENDBRANCH   4   6
ENDBRANCH   1   2
BRANCH   1  71
ATOM     71  C   UNL     1       3.826  -2.721  -1.508  1.00  0.00     0.042 C 
BRANCH  71  72
ATOM     72  C   UNL     1       3.401  -3.464  -2.765  1.00  0.00     0.117 C 
BRANCH  72  73
ATOM     73  N   UNL     1       4.100  -2.962  -3.933  1.00  0.00    -0.354 N 
ATOM     74  C   UNL     1       5.379  -3.113  -4.363  1.00  0.00     0.246 C 
ATOM     75  H   UNL     1       3.542  -2.407  -4.525  1.00  0.00     0.163 HD
ATOM     76  O   UNL     1       5.752  -2.121  -5.007  1.00  0.00    -0.272 OA
BRANCH  74  77
ATOM     77  C   UNL     1       6.257  -4.413  -4.290  1.00  0.00     0.135 C 
ATOM     78  C   UNL     1       7.669  -4.063  -4.855  1.00  0.00     0.101 C 
ATOM     79  C   UNL     1       5.656  -5.457  -5.271  1.00  0.00     0.101 C 
ATOM     80  C   UNL     1       7.676  -3.735  -6.382  1.00  0.00     0.265 C 
ATOM     81  C   UNL     1       5.630  -5.033  -6.713  1.00  0.00     0.265 C 
ATOM     82  N   UNL     1       6.967  -4.726  -7.206  1.00  0.00    -0.331 N 
ATOM     83  H   UNL     1       7.518  -5.579  -7.111  1.00  0.00     0.348 HD
BRANCH  77  84
ATOM     84  N   UNL     1       6.316  -5.058  -2.939  1.00  0.00    -0.315 N 
ATOM     85  C   UNL     1       5.926  -6.367  -2.701  1.00  0.00     0.201 A 
ATOM     86  C   UNL     1       6.558  -4.532  -1.680  1.00  0.00     0.069 A 
ATOM     87  N   UNL     1       5.530  -6.562  -1.470  1.00  0.00    -0.237 NA
ATOM     88  C   UNL     1       5.905  -5.430  -0.820  1.00  0.00     0.088 A 
ATOM     89  C   UNL     1       7.162  -3.370  -1.176  1.00  0.00     0.028 A 
ATOM     90  C   UNL     1       5.688  -5.114   0.527  1.00  0.00     0.030 A 
ATOM     91  C   UNL     1       6.962  -3.087   0.193  1.00  0.00     0.002 A 
ATOM     92  C   UNL     1       6.205  -3.921   1.022  1.00  0.00     0.002 A 
ENDBRANCH  77  84
BRANCH  82  93
ATOM     93  C   UNL     1       6.955  -4.394  -8.657  1.00  0.00     0.301 C 
BRANCH  93  94
ATOM     94  C   UNL     1       5.685  -3.741  -9.160  1.00  0.00     0.038 A 
ATOM     95  C   UNL     1       5.385  -2.382  -8.882  1.00  0.00     0.012 A 
ATOM     96  C   UNL     1       4.600  -4.442  -9.751  1.00  0.00     0.144 A 
ATOM     97  C   UNL     1       4.116  -1.786  -9.115  1.00  0.00     0.003 A 
ATOM     98  C   UNL     1       3.298  -3.824  -9.985  1.00  0.00     0.135 A 
ATOM     99  N   UNL     1       4.514  -5.727 -10.129  1.00  0.00    -0.049 NA
ATOM    100  C   UNL     1       3.026  -2.484  -9.663  1.00  0.00     0.034 A 
ATOM    101  N   UNL     1       2.475  -4.747 -10.500  1.00  0.00    -0.050 NA
ATOM    102  O   UNL     1       3.224  -5.907 -10.591  1.00  0.00    -0.243 OA
ENDBRANCH  93  94
ENDBRANCH  82  93
ENDBRANCH  74  77
ENDBRANCH  72  73
ENDBRANCH  71  72
ENDBRANCH   1  71
TORSDOF 16
