REMARK SMILES COC1CCN(c2nc(C(C)C)c(C(=O)NCCCNC(=O)c3ccc(-c4c5nc(c(-c6cccc(S(=O)(=O)[O-])c6F)c6ccc([nH]6)c(-c6cccc(S(=O)(=O)[O-])c6F)c6nc(c(-c7cccc(S(=O)(=O)[O-])c7F)c7ccc4[nH]7)C=C6)C=C5)cc3)s2)CC1
REMARK SMILES IDX 18 1 17 2 16 3 14 4 15 5 13 7 7 8 8 9 86 10 9 11 6 12 3 13
REMARK SMILES IDX 4 14 88 15 5 16 87 17 2 18 1 19 10 20 11 21 12 22 19 23
REMARK SMILES IDX 20 24 21 25 22 27 23 28 24 29 85 30 25 31 84 32 26 33 27 34
REMARK SMILES IDX 28 35 78 36 29 37 83 38 77 39 79 40 30 41 82 42 76 43 75 44
REMARK SMILES IDX 31 46 63 47 43 48 62 49 44 50 47 51 61 52 80 53 45 54 46 55
REMARK SMILES IDX 60 57 81 58 48 59 32 60 33 61 41 62 34 63 36 64 42 65 35 66
REMARK SMILES IDX 37 67 38 68 39 69 40 70 64 71 65 72 73 73 66 74 68 75 74 76
REMARK SMILES IDX 67 77 69 78 70 79 71 80 72 81 49 82 50 83 58 84 51 85 53 86
REMARK SMILES IDX 59 87 52 88 54 89 55 90 56 91 57 92
REMARK H PARENT 16 6 20 26 79 45 47 56
REMARK Flexibility Score: inf
ROOT
ATOM      1  C   UNL     1       1.506  10.451   3.467  1.00  0.00     0.042 C 
ENDROOT
BRANCH   1   2
ATOM      2  C   UNL     1       1.601  10.172   1.978  1.00  0.00     0.118 C 
BRANCH   2   3
ATOM      3  N   UNL     1       2.747   9.380   1.653  1.00  0.00    -0.351 N 
ATOM      4  C   UNL     1       2.915   8.111   1.177  1.00  0.00     0.263 C 
ATOM      5  O   UNL     1       4.119   7.875   0.989  1.00  0.00    -0.268 OA
ATOM      6  H   UNL     1       3.598   9.851   1.805  1.00  0.00     0.163 HD
BRANCH   4   7
ATOM      7  C   UNL     1       1.869   7.129   0.869  1.00  0.00     0.117 A 
ATOM      8  C   UNL     1       1.038   4.931   0.078  1.00  0.00     0.186 A 
ATOM      9  N   UNL     1       0.048   5.708   0.404  1.00  0.00    -0.224 NA
ATOM     10  S   UNL     1       2.558   5.684   0.147  1.00  0.00    -0.091 S 
ATOM     11  C   UNL     1       0.490   6.894   0.995  1.00  0.00     0.069 A 
BRANCH   8  12
ATOM     12  N   UNL     1       0.895   3.656  -0.336  1.00  0.00    -0.348 N 
ATOM     13  C   UNL     1       1.006   1.143  -1.629  1.00  0.00     0.121 C 
ATOM     14  C   UNL     1       2.145   1.649  -0.729  1.00  0.00     0.053 C 
ATOM     15  C   UNL     1       0.207   2.322  -2.211  1.00  0.00     0.053 C 
ATOM     16  C   UNL     1       1.607   2.586   0.341  1.00  0.00     0.121 C 
ATOM     17  C   UNL     1      -0.274   3.260  -1.100  1.00  0.00     0.121 C 
BRANCH  13  18
ATOM     18  O   UNL     1       0.060   0.300  -0.958  1.00  0.00    -0.381 OA
ATOM     19  C   UNL     1       0.625  -0.774  -0.223  1.00  0.00     0.195 C 
ENDBRANCH  13  18
ENDBRANCH   8  12
BRANCH  11  20
ATOM     20  C   UNL     1      -0.663   7.578   1.692  1.00  0.00     0.034 C 
ATOM     21  C   UNL     1      -0.427   7.751   3.191  1.00  0.00     0.014 C 
ATOM     22  C   UNL     1      -1.258   8.763   0.923  1.00  0.00     0.014 C 
ENDBRANCH  11  20
ENDBRANCH   4   7
ENDBRANCH   2   3
ENDBRANCH   1   2
BRANCH   1  23
ATOM     23  C   UNL     1       2.112  11.788   3.839  1.00  0.00     0.118 C 
BRANCH  23  24
ATOM     24  N   UNL     1       1.304  12.899   3.343  1.00  0.00    -0.352 N 
ATOM     25  C   UNL     1       0.486  13.776   4.010  1.00  0.00     0.251 C 
ATOM     26  H   UNL     1       1.355  13.043   2.370  1.00  0.00     0.163 HD
ATOM     27  O   UNL     1      -0.297  14.474   3.361  1.00  0.00    -0.269 OA
BRANCH  25  28
ATOM     28  C   UNL     1       0.527  13.882   5.483  1.00  0.00     0.039 A 
ATOM     29  C   UNL     1      -0.647  14.164   6.188  1.00  0.00     0.014 A 
ATOM     30  C   UNL     1       1.726  13.727   6.178  1.00  0.00     0.014 A 
ATOM     31  C   UNL     1      -0.620  14.229   7.584  1.00  0.00     0.010 A 
ATOM     32  C   UNL     1       1.723  13.647   7.562  1.00  0.00     0.010 A 
ATOM     33  C   UNL     1       0.560  13.933   8.285  1.00  0.00    -0.014 A 
BRANCH  33  34
ATOM     34  C   UNL     1       0.626  13.953   9.769  1.00  0.00     0.031 A 
ATOM     35  C   UNL     1       1.625  14.848  10.462  1.00  0.00     0.074 A 
ATOM     36  C   UNL     1      -0.131  13.100  10.487  1.00  0.00     0.049 A 
ATOM     37  N   UNL     1       1.915  14.931  11.734  1.00  0.00    -0.248 NA
ATOM     38  C   UNL     1       2.439  15.732   9.609  1.00  0.00     0.031 C 
ATOM     39  C   UNL     1      -1.068  12.121   9.929  1.00  0.00     0.029 A 
ATOM     40  N   UNL     1      -0.212  12.899  11.842  1.00  0.00    -0.354 N 
ATOM     41  C   UNL     1       2.974  15.829  11.824  1.00  0.00     0.074 A 
ATOM     42  C   UNL     1       3.310  16.224  10.476  1.00  0.00     0.031 C 
ATOM     43  C   UNL     1      -1.640  11.437  10.933  1.00  0.00     0.029 A 
ATOM     44  C   UNL     1      -1.086  11.899  12.200  1.00  0.00     0.049 A 
ATOM     45  H   UNL     1       0.306  13.421  12.495  1.00  0.00     0.167 HD
ATOM     46  C   UNL     1       3.587  16.314  12.929  1.00  0.00     0.034 A 
ATOM     47  C   UNL     1      -1.400  11.406  13.414  1.00  0.00     0.034 A 
ATOM     48  C   UNL     1       3.201  15.970  14.269  1.00  0.00     0.049 A 
ATOM     49  C   UNL     1      -0.752  12.009  14.631  1.00  0.00     0.074 A 
ATOM     50  C   UNL     1       3.683  16.480  15.461  1.00  0.00     0.029 A 
ATOM     51  N   UNL     1       2.236  15.030  14.595  1.00  0.00    -0.354 N 
ATOM     52  N   UNL     1       0.138  12.969  14.702  1.00  0.00    -0.248 NA
ATOM     53  C   UNL     1      -1.180  11.488  15.937  1.00  0.00     0.031 C 
ATOM     54  C   UNL     1       3.025  15.829  16.509  1.00  0.00     0.029 A 
ATOM     55  C   UNL     1       2.111  14.938  15.969  1.00  0.00     0.049 A 
ATOM     56  H   UNL     1       1.717  14.505  13.944  1.00  0.00     0.167 HD
ATOM     57  C   UNL     1       0.350  13.193  16.058  1.00  0.00     0.074 A 
ATOM     58  C   UNL     1      -0.523  12.283  16.771  1.00  0.00     0.031 C 
ATOM     59  C   UNL     1       1.198  14.063  16.659  1.00  0.00     0.034 A 
BRANCH  46  60
ATOM     60  C   UNL     1       4.699  17.313  12.734  1.00  0.00     0.023 A 
ATOM     61  C   UNL     1       4.401  18.605  12.251  1.00  0.00     0.012 A 
ATOM     62  C   UNL     1       6.029  16.994  13.070  1.00  0.00     0.148 A 
ATOM     63  C   UNL     1       5.412  19.547  12.065  1.00  0.00     0.002 A 
ATOM     64  C   UNL     1       7.024  17.955  12.930  1.00  0.00     0.091 A 
ATOM     65  F   UNL     1       6.299  15.756  13.508  1.00  0.00    -0.205 F 
ATOM     66  C   UNL     1       6.720  19.226  12.414  1.00  0.00     0.022 A 
BRANCH  64  67
ATOM     67  S   UNL     1       8.726  17.671  13.431  1.00  0.00     0.127 S 
ATOM     68  O   UNL     1       9.410  17.632  12.139  1.00  0.00    -0.237 OA
ATOM     69  O   UNL     1       9.011  18.860  14.235  1.00  0.00    -0.237 OA
ATOM     70  O   UNL     1       8.723  16.419  14.174  1.00  0.00    -0.744 OA
ENDBRANCH  64  67
ENDBRANCH  46  60
BRANCH  47  71
ATOM     71  C   UNL     1      -2.427  10.334  13.542  1.00  0.00     0.023 A 
ATOM     72  C   UNL     1      -3.678  10.640  14.114  1.00  0.00     0.012 A 
ATOM     73  C   UNL     1      -2.188   9.027  13.076  1.00  0.00     0.148 A 
ATOM     74  C   UNL     1      -4.658   9.657  14.254  1.00  0.00     0.002 A 
ATOM     75  C   UNL     1      -3.189   8.066  13.167  1.00  0.00     0.091 A 
ATOM     76  F   UNL     1      -0.990   8.752  12.541  1.00  0.00    -0.205 F 
ATOM     77  C   UNL     1      -4.418   8.374  13.772  1.00  0.00     0.022 A 
BRANCH  75  78
ATOM     78  S   UNL     1      -3.018   6.426  12.454  1.00  0.00     0.127 S 
ATOM     79  O   UNL     1      -2.927   5.589  13.649  1.00  0.00    -0.237 OA
ATOM     80  O   UNL     1      -4.266   6.292  11.702  1.00  0.00    -0.237 OA
ATOM     81  O   UNL     1      -1.821   6.480  11.627  1.00  0.00    -0.744 OA
ENDBRANCH  75  78
ENDBRANCH  47  71
BRANCH  59  82
ATOM     82  C   UNL     1       1.198  14.110  18.164  1.00  0.00     0.023 A 
ATOM     83  C   UNL     1       1.760  13.049  18.900  1.00  0.00     0.012 A 
ATOM     84  C   UNL     1       0.710  15.243  18.843  1.00  0.00     0.148 A 
ATOM     85  C   UNL     1       1.804  13.100  20.293  1.00  0.00     0.002 A 
ATOM     86  C   UNL     1       0.805  15.310  20.227  1.00  0.00     0.091 A 
ATOM     87  F   UNL     1       0.164  16.234  18.123  1.00  0.00    -0.205 F 
ATOM     88  C   UNL     1       1.338  14.234  20.954  1.00  0.00     0.022 A 
BRANCH  86  89
ATOM     89  S   UNL     1       0.326  16.772  21.154  1.00  0.00     0.127 S 
ATOM     90  O   UNL     1      -0.899  16.319  21.811  1.00  0.00    -0.237 OA
ATOM     91  O   UNL     1       1.466  16.957  22.051  1.00  0.00    -0.237 OA
ATOM     92  O   UNL     1       0.152  17.832  20.171  1.00  0.00    -0.744 OA
ENDBRANCH  86  89
ENDBRANCH  59  82
ENDBRANCH  33  34
ENDBRANCH  25  28
ENDBRANCH  23  24
ENDBRANCH   1  23
TORSDOF 16
