REMARK SMILES COC(=O)[C@@H]([NH2+]CC(C)(C)C(=O)NCCCNC(=O)c1ccc(-c2c3nc(c(-c4cccc(S(=O)(=O)[O-])c4F)c4ccc([nH]4)c(-c4cccc(S(=O)(=O)[O-])c4F)c4nc(c(-c5cccc(S(=O)(=O)[O-])c5F)c5ccc2[nH]5)C=C4)C=C3)cc1)c1ccccc1
REMARK SMILES IDX 14 1 13 2 11 3 12 4 8 6 9 7 10 8 7 9 6 10 5 13 3 14 4 15
REMARK SMILES IDX 2 16 1 17 83 18 84 19 88 20 85 21 87 22 86 23 15 24 16 25
REMARK SMILES IDX 17 26 18 27 19 29 20 30 21 31 82 32 22 33 81 34 23 35 24 36
REMARK SMILES IDX 25 37 75 38 26 39 80 40 74 41 76 42 27 43 79 44 73 45 72 46
REMARK SMILES IDX 28 48 60 49 40 50 59 51 41 52 44 53 58 54 77 55 42 56 43 57
REMARK SMILES IDX 57 59 78 60 45 61 29 62 30 63 38 64 31 65 33 66 39 67 32 68
REMARK SMILES IDX 34 69 35 70 36 71 37 72 61 73 62 74 70 75 63 76 65 77 71 78
REMARK SMILES IDX 64 79 66 80 67 81 68 82 69 83 46 84 47 85 55 86 48 87 50 88
REMARK SMILES IDX 56 89 49 90 51 91 52 92 53 93 54 94
REMARK H PARENT 13 5 6 11 6 12 17 28 76 47 44 58
REMARK Flexibility Score: inf
ROOT
ATOM      1  C   UNL     1       2.069   7.877  -4.155  1.00  0.00     0.117 C 
ENDROOT
BRANCH   1   2
ATOM      2  N   UNL     1       1.536   6.907  -3.217  1.00  0.00    -0.355 N 
ATOM      3  C   UNL     1       0.788   5.794  -3.410  1.00  0.00     0.231 C 
ATOM      4  O   UNL     1      -0.079   5.634  -2.552  1.00  0.00    -0.274 OA
ATOM      5  H   UNL     1       1.757   7.090  -2.276  1.00  0.00     0.163 HD
BRANCH   3   6
ATOM      6  C   UNL     1       0.989   4.817  -4.578  1.00  0.00     0.092 C 
ATOM      7  C   UNL     1       2.481   4.503  -4.774  1.00  0.00     0.027 C 
ATOM      8  C   UNL     1       0.404   5.449  -5.858  1.00  0.00     0.027 C 
BRANCH   6   9
ATOM      9  C   UNL     1       0.187   3.472  -4.361  1.00  0.00     0.277 C 
BRANCH   9  10
ATOM     10  N   UNL     1       0.596   2.484  -3.340  1.00  0.00    -0.330 N 
ATOM     11  H   UNL     1       0.351   1.554  -3.681  1.00  0.00     0.347 HD
ATOM     12  H   UNL     1       1.599   2.608  -3.204  1.00  0.00     0.347 HD
BRANCH  10  13
ATOM     13  C   UNL     1      -0.038   2.671  -2.004  1.00  0.00     0.324 C 
BRANCH  13  14
ATOM     14  C   UNL     1       0.681   1.792  -0.954  1.00  0.00     0.369 C 
ATOM     15  O   UNL     1       1.564   2.225  -0.214  1.00  0.00    -0.245 OA
BRANCH  14  16
ATOM     16  O   UNL     1       0.307   0.482  -0.980  1.00  0.00    -0.464 OA
ATOM     17  C   UNL     1       0.917  -0.313   0.035  1.00  0.00     0.282 C 
ENDBRANCH  14  16
ENDBRANCH  13  14
BRANCH  13  18
ATOM     18  C   UNL     1      -1.562   2.541  -1.998  1.00  0.00     0.021 A 
ATOM     19  C   UNL     1      -2.350   3.689  -1.787  1.00  0.00     0.010 A 
ATOM     20  C   UNL     1      -2.232   1.333  -2.240  1.00  0.00     0.010 A 
ATOM     21  C   UNL     1      -3.743   3.643  -1.831  1.00  0.00     0.001 A 
ATOM     22  C   UNL     1      -3.632   1.276  -2.240  1.00  0.00     0.001 A 
ATOM     23  C   UNL     1      -4.386   2.432  -2.046  1.00  0.00     0.000 A 
ENDBRANCH  13  18
ENDBRANCH  10  13
ENDBRANCH   9  10
ENDBRANCH   6   9
ENDBRANCH   3   6
ENDBRANCH   1   2
BRANCH   1  24
ATOM     24  C   UNL     1       1.052   8.986  -4.439  1.00  0.00     0.042 C 
BRANCH  24  25
ATOM     25  C   UNL     1       0.442   9.628  -3.190  1.00  0.00     0.118 C 
BRANCH  25  26
ATOM     26  N   UNL     1       1.448  10.121  -2.254  1.00  0.00    -0.352 N 
ATOM     27  C   UNL     1       1.773  11.405  -1.898  1.00  0.00     0.251 C 
ATOM     28  H   UNL     1       1.976   9.421  -1.808  1.00  0.00     0.163 HD
ATOM     29  O   UNL     1       2.786  11.615  -1.234  1.00  0.00    -0.269 OA
BRANCH  27  30
ATOM     30  C   UNL     1       0.927  12.532  -2.334  1.00  0.00     0.039 A 
ATOM     31  C   UNL     1       1.537  13.659  -2.891  1.00  0.00     0.014 A 
ATOM     32  C   UNL     1      -0.462  12.475  -2.203  1.00  0.00     0.014 A 
ATOM     33  C   UNL     1       0.745  14.692  -3.396  1.00  0.00     0.010 A 
ATOM     34  C   UNL     1      -1.250  13.467  -2.777  1.00  0.00     0.010 A 
ATOM     35  C   UNL     1      -0.655  14.582  -3.387  1.00  0.00    -0.014 A 
BRANCH  35  36
ATOM     36  C   UNL     1      -1.510  15.593  -4.060  1.00  0.00     0.031 A 
ATOM     37  C   UNL     1      -2.511  16.395  -3.276  1.00  0.00     0.074 A 
ATOM     38  C   UNL     1      -1.451  15.714  -5.402  1.00  0.00     0.049 A 
ATOM     39  N   UNL     1      -3.373  17.280  -3.705  1.00  0.00    -0.248 NA
ATOM     40  C   UNL     1      -2.570  16.154  -1.826  1.00  0.00     0.031 C 
ATOM     41  C   UNL     1      -0.582  14.930  -6.283  1.00  0.00     0.029 A 
ATOM     42  N   UNL     1      -2.154  16.520  -6.262  1.00  0.00    -0.354 N 
ATOM     43  C   UNL     1      -4.099  17.675  -2.589  1.00  0.00     0.074 A 
ATOM     44  C   UNL     1      -3.599  16.908  -1.468  1.00  0.00     0.031 C 
ATOM     45  C   UNL     1      -0.795  15.300  -7.555  1.00  0.00     0.029 A 
ATOM     46  C   UNL     1      -1.840  16.318  -7.586  1.00  0.00     0.049 A 
ATOM     47  H   UNL     1      -2.819  17.180  -5.960  1.00  0.00     0.167 HD
ATOM     48  C   UNL     1      -5.074  18.612  -2.498  1.00  0.00     0.034 A 
ATOM     49  C   UNL     1      -2.344  16.879  -8.703  1.00  0.00     0.034 A 
ATOM     50  C   UNL     1      -5.546  19.393  -3.610  1.00  0.00     0.049 A 
ATOM     51  C   UNL     1      -3.411  17.930  -8.573  1.00  0.00     0.074 A 
ATOM     52  C   UNL     1      -6.457  20.434  -3.605  1.00  0.00     0.029 A 
ATOM     53  N   UNL     1      -5.159  19.208  -4.929  1.00  0.00    -0.354 N 
ATOM     54  N   UNL     1      -3.962  18.417  -7.488  1.00  0.00    -0.248 NA
ATOM     55  C   UNL     1      -3.906  18.531  -9.820  1.00  0.00     0.031 C 
ATOM     56  C   UNL     1      -6.647  20.855  -4.926  1.00  0.00     0.029 A 
ATOM     57  C   UNL     1      -5.831  20.098  -5.750  1.00  0.00     0.049 A 
ATOM     58  H   UNL     1      -4.504  18.541  -5.236  1.00  0.00     0.167 HD
ATOM     59  C   UNL     1      -4.850  19.397  -7.917  1.00  0.00     0.074 A 
ATOM     60  C   UNL     1      -4.741  19.454  -9.360  1.00  0.00     0.031 C 
ATOM     61  C   UNL     1      -5.690  20.168  -7.183  1.00  0.00     0.034 A 
BRANCH  48  62
ATOM     62  C   UNL     1      -5.665  18.872  -1.135  1.00  0.00     0.023 A 
ATOM     63  C   UNL     1      -4.884  19.504  -0.146  1.00  0.00     0.012 A 
ATOM     64  C   UNL     1      -7.002  18.534  -0.846  1.00  0.00     0.148 A 
ATOM     65  C   UNL     1      -5.407  19.755   1.122  1.00  0.00     0.002 A 
ATOM     66  C   UNL     1      -7.531  18.831   0.406  1.00  0.00     0.091 A 
ATOM     67  F   UNL     1      -7.725  17.916  -1.790  1.00  0.00    -0.205 F 
ATOM     68  C   UNL     1      -6.731  19.427   1.394  1.00  0.00     0.022 A 
BRANCH  66  69
ATOM     69  S   UNL     1      -9.249  18.522   0.828  1.00  0.00     0.127 S 
ATOM     70  O   UNL     1      -9.128  17.391   1.747  1.00  0.00    -0.237 OA
ATOM     71  O   UNL     1      -9.642  19.781   1.460  1.00  0.00    -0.237 OA
ATOM     72  O   UNL     1      -9.926  18.238  -0.430  1.00  0.00    -0.744 OA
ENDBRANCH  66  69
ENDBRANCH  48  62
BRANCH  49  73
ATOM     73  C   UNL     1      -1.796  16.497 -10.035  1.00  0.00     0.023 A 
ATOM     74  C   UNL     1      -1.016  17.425 -10.752  1.00  0.00     0.012 A 
ATOM     75  C   UNL     1      -2.003  15.212 -10.573  1.00  0.00     0.148 A 
ATOM     76  C   UNL     1      -0.473  17.089 -11.992  1.00  0.00     0.002 A 
ATOM     77  C   UNL     1      -1.412  14.865 -11.782  1.00  0.00     0.091 A 
ATOM     78  F   UNL     1      -2.756  14.347  -9.879  1.00  0.00    -0.205 F 
ATOM     79  C   UNL     1      -0.661  15.807 -12.502  1.00  0.00     0.022 A 
BRANCH  77  80
ATOM     80  S   UNL     1      -1.484  13.199 -12.449  1.00  0.00     0.127 S 
ATOM     81  O   UNL     1      -2.307  13.389 -13.641  1.00  0.00    -0.237 OA
ATOM     82  O   UNL     1      -0.072  12.919 -12.712  1.00  0.00    -0.237 OA
ATOM     83  O   UNL     1      -2.073  12.378 -11.400  1.00  0.00    -0.744 OA
ENDBRANCH  77  80
ENDBRANCH  49  73
BRANCH  61  84
ATOM     84  C   UNL     1      -6.556  21.154  -7.924  1.00  0.00     0.023 A 
ATOM     85  C   UNL     1      -7.639  20.689  -8.697  1.00  0.00     0.012 A 
ATOM     86  C   UNL     1      -6.342  22.541  -7.798  1.00  0.00     0.148 A 
ATOM     87  C   UNL     1      -8.476  21.587  -9.359  1.00  0.00     0.002 A 
ATOM     88  C   UNL     1      -7.210  23.431  -8.419  1.00  0.00     0.091 A 
ATOM     89  F   UNL     1      -5.297  22.963  -7.072  1.00  0.00    -0.205 F 
ATOM     90  C   UNL     1      -8.269  22.956  -9.210  1.00  0.00     0.022 A 
BRANCH  88  91
ATOM     91  S   UNL     1      -7.082  25.211  -8.211  1.00  0.00     0.127 S 
ATOM     92  O   UNL     1      -6.647  25.636  -9.540  1.00  0.00    -0.237 OA
ATOM     93  O   UNL     1      -8.456  25.581  -7.871  1.00  0.00    -0.237 OA
ATOM     94  O   UNL     1      -6.115  25.423  -7.142  1.00  0.00    -0.744 OA
ENDBRANCH  88  91
ENDBRANCH  61  84
ENDBRANCH  35  36
ENDBRANCH  27  30
ENDBRANCH  25  26
ENDBRANCH  24  25
ENDBRANCH   1  24
TORSDOF 19
