REMARK SMILES Nc1c(-c2ccccc2)c[nH]c1C(=O)NCCCNC(=O)c1ccc(-c2c3nc(c(-c4cccc(S(=O)(=O)[O-])c4F)c4ccc([nH]4)c(-c4cccc(S(=O)(=O)[O-])c4F)c4nc(c(-c5cccc(S(=O)(=O)[O-])c5F)c5ccc2[nH]5)C=C4)C=C3)cc1
REMARK SMILES IDX 18 1 17 2 16 3 15 4 13 5 14 6 12 8 2 9 3 10 10 11 11 12 1 14
REMARK SMILES IDX 4 17 5 18 9 19 6 20 8 21 7 22 19 23 20 24 21 26 22 27 23 28
REMARK SMILES IDX 84 29 24 30 83 31 25 32 26 33 27 34 77 35 28 36 82 37 76 38
REMARK SMILES IDX 78 39 29 40 81 41 75 42 74 43 30 45 62 46 42 47 61 48 43 49
REMARK SMILES IDX 46 50 60 51 79 52 44 53 45 54 59 56 80 57 47 58 31 59 32 60
REMARK SMILES IDX 40 61 33 62 35 63 41 64 34 65 36 66 37 67 38 68 39 69 63 70
REMARK SMILES IDX 64 71 72 72 65 73 67 74 73 75 66 76 68 77 69 78 70 79 71 80
REMARK SMILES IDX 48 81 49 82 57 83 50 84 52 85 58 86 51 87 53 88 54 89 55 90
REMARK SMILES IDX 56 91
REMARK H PARENT 15 7 11 13 1 15 1 16 19 25 78 44 46 55
REMARK Flexibility Score: inf
ROOT
ATOM      1  C   UNL     1       1.414  -2.505  -3.214  1.00  0.00     0.118 C 
ENDROOT
BRANCH   1   2
ATOM      2  C   UNL     1       1.779  -2.113  -1.799  1.00  0.00     0.042 C 
BRANCH   2   3
ATOM      3  C   UNL     1       0.795  -1.148  -1.155  1.00  0.00     0.118 C 
BRANCH   3   4
ATOM      4  N   UNL     1      -0.513  -1.669  -0.792  1.00  0.00    -0.351 N 
ATOM      5  C   UNL     1      -1.304  -1.317   0.287  1.00  0.00     0.269 C 
ATOM      6  O   UNL     1      -2.402  -1.857   0.409  1.00  0.00    -0.268 OA
ATOM      7  H   UNL     1      -0.882  -2.360  -1.389  1.00  0.00     0.163 HD
BRANCH   5   8
ATOM      8  C   UNL     1      -0.792  -0.414   1.295  1.00  0.00     0.128 A 
ATOM      9  C   UNL     1      -0.018   0.728   1.254  1.00  0.00     0.070 A 
ATOM     10  C   UNL     1       0.511   0.954   2.558  1.00  0.00     0.023 A 
ATOM     11  C   UNL     1      -0.177   0.106   3.404  1.00  0.00     0.094 A 
ATOM     12  N   UNL     1      -1.029  -0.651   2.636  1.00  0.00    -0.355 N 
ATOM     13  H   UNL     1      -1.708  -1.270   2.990  1.00  0.00     0.166 HD
BRANCH   9  14
ATOM     14  N   UNL     1       0.298   1.422   0.146  1.00  0.00    -0.396 N 
ATOM     15  H   UNL     1       0.858   2.228   0.213  1.00  0.00     0.156 HD
ATOM     16  H   UNL     1      -0.031   1.122  -0.732  1.00  0.00     0.156 HD
ENDBRANCH   9  14
BRANCH  10  17
ATOM     17  C   UNL     1       1.636   1.791   2.951  1.00  0.00    -0.015 A 
ATOM     18  C   UNL     1       1.808   3.058   2.379  1.00  0.00     0.009 A 
ATOM     19  C   UNL     1       2.657   1.267   3.756  1.00  0.00     0.009 A 
ATOM     20  C   UNL     1       3.009   3.751   2.533  1.00  0.00     0.001 A 
ATOM     21  C   UNL     1       3.850   1.972   3.931  1.00  0.00     0.001 A 
ATOM     22  C   UNL     1       4.034   3.202   3.300  1.00  0.00     0.000 A 
ENDBRANCH  10  17
ENDBRANCH   5   8
ENDBRANCH   3   4
ENDBRANCH   2   3
ENDBRANCH   1   2
BRANCH   1  23
ATOM     23  N   UNL     1       1.498  -1.419  -4.200  1.00  0.00    -0.352 N 
ATOM     24  C   UNL     1       1.371  -1.544  -5.579  1.00  0.00     0.251 C 
ATOM     25  H   UNL     1       1.660  -0.514  -3.849  1.00  0.00     0.163 HD
ATOM     26  O   UNL     1       1.653  -0.635  -6.340  1.00  0.00    -0.269 OA
BRANCH  24  27
ATOM     27  C   UNL     1       0.897  -2.848  -6.086  1.00  0.00     0.039 A 
ATOM     28  C   UNL     1       1.676  -3.604  -6.964  1.00  0.00     0.014 A 
ATOM     29  C   UNL     1      -0.222  -3.387  -5.465  1.00  0.00     0.014 A 
ATOM     30  C   UNL     1       1.395  -4.964  -7.105  1.00  0.00     0.010 A 
ATOM     31  C   UNL     1      -0.373  -4.752  -5.464  1.00  0.00     0.010 A 
ATOM     32  C   UNL     1       0.399  -5.552  -6.310  1.00  0.00    -0.014 A 
BRANCH  32  33
ATOM     33  C   UNL     1       0.248  -7.011  -6.243  1.00  0.00     0.031 A 
ATOM     34  C   UNL     1       1.496  -7.798  -5.991  1.00  0.00     0.074 A 
ATOM     35  C   UNL     1      -0.960  -7.612  -6.140  1.00  0.00     0.049 A 
ATOM     36  N   UNL     1       2.027  -8.710  -6.741  1.00  0.00    -0.248 NA
ATOM     37  C   UNL     1       2.299  -7.471  -4.802  1.00  0.00     0.031 C 
ATOM     38  C   UNL     1      -2.277  -6.966  -6.043  1.00  0.00     0.029 A 
ATOM     39  N   UNL     1      -1.255  -8.924  -5.912  1.00  0.00    -0.354 N 
ATOM     40  C   UNL     1       3.100  -9.232  -6.013  1.00  0.00     0.074 A 
ATOM     41  C   UNL     1       3.328  -8.312  -4.931  1.00  0.00     0.031 C 
ATOM     42  C   UNL     1      -3.155  -7.818  -5.477  1.00  0.00     0.029 A 
ATOM     43  C   UNL     1      -2.527  -9.119  -5.382  1.00  0.00     0.049 A 
ATOM     44  H   UNL     1      -0.630  -9.660  -6.104  1.00  0.00     0.167 HD
ATOM     45  C   UNL     1       3.551 -10.503  -6.218  1.00  0.00     0.034 A 
ATOM     46  C   UNL     1      -3.038 -10.261  -4.871  1.00  0.00     0.034 A 
ATOM     47  C   UNL     1       3.043 -11.043  -7.455  1.00  0.00     0.049 A 
ATOM     48  C   UNL     1      -2.243 -11.377  -5.418  1.00  0.00     0.074 A 
ATOM     49  C   UNL     1       3.107 -10.705  -8.790  1.00  0.00     0.029 A 
ATOM     50  N   UNL     1       2.029 -11.961  -7.343  1.00  0.00    -0.354 N 
ATOM     51  N   UNL     1      -2.226 -11.701  -6.681  1.00  0.00    -0.248 NA
ATOM     52  C   UNL     1      -1.168 -11.932  -4.614  1.00  0.00     0.031 C 
ATOM     53  C   UNL     1       1.847 -11.098  -9.332  1.00  0.00     0.029 A 
ATOM     54  C   UNL     1       1.103 -11.691  -8.310  1.00  0.00     0.049 A 
ATOM     55  H   UNL     1       1.978 -12.688  -6.681  1.00  0.00     0.167 HD
ATOM     56  C   UNL     1      -0.919 -12.102  -6.914  1.00  0.00     0.074 A 
ATOM     57  C   UNL     1      -0.374 -12.381  -5.589  1.00  0.00     0.031 C 
ATOM     58  C   UNL     1      -0.321 -11.877  -8.123  1.00  0.00     0.034 A 
BRANCH  45  59
ATOM     59  C   UNL     1       4.111 -11.439  -5.151  1.00  0.00     0.023 A 
ATOM     60  C   UNL     1       4.536 -12.722  -5.583  1.00  0.00     0.012 A 
ATOM     61  C   UNL     1       3.962 -11.266  -3.756  1.00  0.00     0.148 A 
ATOM     62  C   UNL     1       4.691 -13.793  -4.695  1.00  0.00     0.002 A 
ATOM     63  C   UNL     1       4.191 -12.316  -2.869  1.00  0.00     0.091 A 
ATOM     64  F   UNL     1       3.476 -10.125  -3.265  1.00  0.00    -0.205 F 
ATOM     65  C   UNL     1       4.515 -13.591  -3.335  1.00  0.00     0.022 A 
BRANCH  63  66
ATOM     66  S   UNL     1       4.027 -12.092  -1.092  1.00  0.00     0.127 S 
ATOM     67  O   UNL     1       2.725 -12.700  -0.842  1.00  0.00    -0.237 OA
ATOM     68  O   UNL     1       5.174 -12.847  -0.586  1.00  0.00    -0.237 OA
ATOM     69  O   UNL     1       4.122 -10.653  -0.875  1.00  0.00    -0.744 OA
ENDBRANCH  63  66
ENDBRANCH  45  59
BRANCH  46  70
ATOM     70  C   UNL     1      -4.069 -10.447  -3.831  1.00  0.00     0.023 A 
ATOM     71  C   UNL     1      -4.833 -11.627  -3.807  1.00  0.00     0.012 A 
ATOM     72  C   UNL     1      -4.131  -9.583  -2.714  1.00  0.00     0.148 A 
ATOM     73  C   UNL     1      -5.613 -11.956  -2.693  1.00  0.00     0.002 A 
ATOM     74  C   UNL     1      -4.912  -9.911  -1.610  1.00  0.00     0.091 A 
ATOM     75  F   UNL     1      -3.359  -8.488  -2.703  1.00  0.00    -0.205 F 
ATOM     76  C   UNL     1      -5.646 -11.104  -1.592  1.00  0.00     0.022 A 
BRANCH  74  77
ATOM     77  S   UNL     1      -4.993  -8.871  -0.145  1.00  0.00     0.127 S 
ATOM     78  O   UNL     1      -6.435  -8.803   0.100  1.00  0.00    -0.237 OA
ATOM     79  O   UNL     1      -4.244  -9.661   0.828  1.00  0.00    -0.237 OA
ATOM     80  O   UNL     1      -4.391  -7.601  -0.530  1.00  0.00    -0.744 OA
ENDBRANCH  74  77
ENDBRANCH  46  70
BRANCH  58  81
ATOM     81  C   UNL     1      -1.196 -11.504  -9.294  1.00  0.00     0.023 A 
ATOM     82  C   UNL     1      -1.950 -10.313  -9.320  1.00  0.00     0.012 A 
ATOM     83  C   UNL     1      -1.116 -12.281 -10.462  1.00  0.00     0.148 A 
ATOM     84  C   UNL     1      -2.628  -9.919 -10.477  1.00  0.00     0.002 A 
ATOM     85  C   UNL     1      -1.751 -11.861 -11.625  1.00  0.00     0.091 A 
ATOM     86  F   UNL     1      -0.390 -13.410 -10.426  1.00  0.00    -0.205 F 
ATOM     87  C   UNL     1      -2.517 -10.685 -11.634  1.00  0.00     0.022 A 
BRANCH  85  88
ATOM     88  S   UNL     1      -1.531 -12.733 -13.178  1.00  0.00     0.127 S 
ATOM     89  O   UNL     1      -2.779 -13.485 -13.287  1.00  0.00    -0.237 OA
ATOM     90  O   UNL     1      -1.389 -11.639 -14.140  1.00  0.00    -0.237 OA
ATOM     91  O   UNL     1      -0.324 -13.535 -13.014  1.00  0.00    -0.744 OA
ENDBRANCH  85  88
ENDBRANCH  58  81
ENDBRANCH  32  33
ENDBRANCH  24  27
ENDBRANCH   1  23
TORSDOF 15
