REMARK SMILES Nc1ccc(-c2cc(Cl)cc3c2O[C@H](C(F)(F)F)C(C(=O)NCCCNC(=O)c2ccc(-c4c5nc(c(-c6cccc(S(=O)(=O)[O-])c6F)c6ccc([nH]6)c(-c6cccc(S(=O)(=O)[O-])c6F)c6nc(c(-c7cccc(S(=O)(=O)[O-])c7F)c7ccc4[nH]7)C=C6)C=C5)cc2)=C3)cc1
REMARK SMILES IDX 24 1 23 2 22 3 20 4 21 5 19 7 6 8 7 9 12 10 8 11 11 12 13 13
REMARK SMILES IDX 9 14 10 15 92 16 14 17 5 18 2 19 3 20 94 21 4 22 93 23 1 24
REMARK SMILES IDX 15 27 16 28 17 29 18 30 25 31 26 32 27 33 28 35 29 36 30 37
REMARK SMILES IDX 91 38 31 39 90 40 32 41 33 42 34 43 84 44 35 45 89 46 83 47
REMARK SMILES IDX 85 48 36 49 88 50 82 51 81 52 37 54 69 55 49 56 68 57 50 58
REMARK SMILES IDX 53 59 67 60 86 61 51 62 52 63 66 65 87 66 54 67 38 68 39 69
REMARK SMILES IDX 47 70 40 71 42 72 48 73 41 74 43 75 44 76 45 77 46 78 70 79
REMARK SMILES IDX 71 80 79 81 72 82 74 83 80 84 73 85 75 86 76 87 77 88 78 89
REMARK SMILES IDX 55 90 56 91 64 92 57 93 59 94 65 95 58 96 60 97 61 98 62 99
REMARK SMILES IDX 63 100
REMARK H PARENT 22 6 1 25 1 26 26 34 85 53 53 64
REMARK Flexibility Score: inf
ROOT
ATOM      1  C   UNL     1      -3.643  -2.829   6.530  1.00  0.00     0.042 C 
ENDROOT
BRANCH   1   2
ATOM      2  C   UNL     1      -4.288  -3.630   5.409  1.00  0.00     0.118 C 
BRANCH   2   3
ATOM      3  N   UNL     1      -5.612  -3.134   5.062  1.00  0.00    -0.352 N 
ATOM      4  C   UNL     1      -6.164  -2.397   4.071  1.00  0.00     0.251 C 
ATOM      5  O   UNL     1      -7.387  -2.240   4.146  1.00  0.00    -0.270 OA
ATOM      6  H   UNL     1      -6.285  -3.409   5.726  1.00  0.00     0.163 HD
BRANCH   4   7
ATOM      7  C   UNL     1      -5.414  -1.789   2.933  1.00  0.00     0.067 C 
ATOM      8  C   UNL     1      -3.359   0.149  -0.187  1.00  0.00     0.026 A 
ATOM      9  C   UNL     1      -4.103   0.705  -1.238  1.00  0.00     0.033 A 
ATOM     10  C   UNL     1      -4.065  -0.416   0.893  1.00  0.00     0.135 A 
ATOM     11  C   UNL     1      -5.500   0.688  -1.203  1.00  0.00     0.042 A 
ATOM     12  C   UNL     1      -5.464  -0.443   0.927  1.00  0.00     0.019 A 
ATOM     13  O   UNL     1      -3.331  -0.897   1.948  1.00  0.00    -0.475 OA
ATOM     14  Cl  UNL     1      -6.390   1.372  -2.509  1.00  0.00    -0.084 Cl
ATOM     15  C   UNL     1      -6.184   0.119  -0.128  1.00  0.00     0.032 A 
ATOM     16  C   UNL     1      -6.137  -1.042   2.076  1.00  0.00     0.025 C 
ATOM     17  C   UNL     1      -3.944  -1.975   2.698  1.00  0.00     0.314 C 
BRANCH   8  18
ATOM     18  C   UNL     1      -1.888   0.135  -0.226  1.00  0.00    -0.014 A 
ATOM     19  C   UNL     1       0.941   0.079  -0.109  1.00  0.00     0.031 A 
ATOM     20  C   UNL     1       0.213  -1.105  -0.211  1.00  0.00     0.026 A 
ATOM     21  C   UNL     1       0.251   1.292  -0.145  1.00  0.00     0.026 A 
ATOM     22  C   UNL     1      -1.185  -1.080  -0.259  1.00  0.00     0.011 A 
ATOM     23  C   UNL     1      -1.148   1.323  -0.189  1.00  0.00     0.011 A 
BRANCH  19  24
ATOM     24  N   UNL     1       2.328   0.054  -0.114  1.00  0.00    -0.399 N 
ATOM     25  H   UNL     1       2.805  -0.807  -0.087  1.00  0.00     0.156 HD
ATOM     26  H   UNL     1       2.836   0.897  -0.143  1.00  0.00     0.156 HD
ENDBRANCH  19  24
ENDBRANCH   8  18
BRANCH  17  27
ATOM     27  C   UNL     1      -3.608  -3.324   2.031  1.00  0.00     0.429 C 
ATOM     28  F   UNL     1      -2.291  -3.613   2.173  1.00  0.00    -0.167 F 
ATOM     29  F   UNL     1      -4.291  -4.359   2.575  1.00  0.00    -0.167 F 
ATOM     30  F   UNL     1      -3.880  -3.338   0.706  1.00  0.00    -0.167 F 
ENDBRANCH  17  27
ENDBRANCH   4   7
ENDBRANCH   2   3
ENDBRANCH   1   2
BRANCH   1  31
ATOM     31  C   UNL     1      -4.107  -3.274   7.911  1.00  0.00     0.118 C 
BRANCH  31  32
ATOM     32  N   UNL     1      -3.679  -4.634   8.234  1.00  0.00    -0.352 N 
ATOM     33  C   UNL     1      -2.962  -5.110   9.307  1.00  0.00     0.251 C 
ATOM     34  H   UNL     1      -3.947  -5.318   7.579  1.00  0.00     0.163 HD
ATOM     35  O   UNL     1      -2.558  -6.270   9.296  1.00  0.00    -0.269 OA
BRANCH  33  36
ATOM     36  C   UNL     1      -2.657  -4.220  10.447  1.00  0.00     0.039 A 
ATOM     37  C   UNL     1      -3.614  -3.322  10.913  1.00  0.00     0.014 A 
ATOM     38  C   UNL     1      -1.392  -4.266  11.041  1.00  0.00     0.014 A 
ATOM     39  C   UNL     1      -3.243  -2.334  11.813  1.00  0.00     0.010 A 
ATOM     40  C   UNL     1      -1.058  -3.341  12.035  1.00  0.00     0.010 A 
ATOM     41  C   UNL     1      -1.959  -2.326  12.384  1.00  0.00    -0.014 A 
BRANCH  41  42
ATOM     42  C   UNL     1      -1.611  -1.234  13.331  1.00  0.00     0.031 A 
ATOM     43  C   UNL     1      -0.504  -0.259  13.022  1.00  0.00     0.074 A 
ATOM     44  C   UNL     1      -2.368  -1.067  14.434  1.00  0.00     0.049 A 
ATOM     45  N   UNL     1      -0.155   0.814  13.684  1.00  0.00    -0.248 NA
ATOM     46  C   UNL     1       0.321  -0.515  11.830  1.00  0.00     0.031 C 
ATOM     47  C   UNL     1      -3.449  -1.964  14.852  1.00  0.00     0.029 A 
ATOM     48  N   UNL     1      -2.383  -0.070  15.375  1.00  0.00    -0.354 N 
ATOM     49  C   UNL     1       0.951   1.331  13.021  1.00  0.00     0.074 A 
ATOM     50  C   UNL     1       1.222   0.455  11.904  1.00  0.00     0.031 C 
ATOM     51  C   UNL     1      -4.075  -1.434  15.912  1.00  0.00     0.029 A 
ATOM     52  C   UNL     1      -3.406  -0.193  16.286  1.00  0.00     0.049 A 
ATOM     53  H   UNL     1      -1.725   0.662  15.397  1.00  0.00     0.167 HD
ATOM     54  C   UNL     1       1.661   2.448  13.302  1.00  0.00     0.034 A 
ATOM     55  C   UNL     1      -3.778   0.607  17.305  1.00  0.00     0.034 A 
ATOM     56  C   UNL     1       1.345   3.358  14.368  1.00  0.00     0.049 A 
ATOM     57  C   UNL     1      -3.003   1.863  17.567  1.00  0.00     0.074 A 
ATOM     58  C   UNL     1       1.979   4.543  14.696  1.00  0.00     0.029 A 
ATOM     59  N   UNL     1       0.305   3.194  15.267  1.00  0.00    -0.354 N 
ATOM     60  N   UNL     1      -2.007   2.368  16.881  1.00  0.00    -0.248 NA
ATOM     61  C   UNL     1      -3.401   2.664  18.734  1.00  0.00     0.031 C 
ATOM     62  C   UNL     1       1.319   5.098  15.796  1.00  0.00     0.029 A 
ATOM     63  C   UNL     1       0.276   4.257  16.150  1.00  0.00     0.049 A 
ATOM     64  H   UNL     1      -0.321   2.433  15.276  1.00  0.00     0.167 HD
ATOM     65  C   UNL     1      -1.660   3.546  17.528  1.00  0.00     0.074 A 
ATOM     66  C   UNL     1      -2.567   3.694  18.648  1.00  0.00     0.031 C 
ATOM     67  C   UNL     1      -0.664   4.413  17.229  1.00  0.00     0.034 A 
BRANCH  54  68
ATOM     68  C   UNL     1       2.821   2.796  12.411  1.00  0.00     0.023 A 
ATOM     69  C   UNL     1       2.573   3.421  11.173  1.00  0.00     0.012 A 
ATOM     70  C   UNL     1       4.148   2.600  12.839  1.00  0.00     0.148 A 
ATOM     71  C   UNL     1       3.632   3.839  10.368  1.00  0.00     0.002 A 
ATOM     72  C   UNL     1       5.198   3.045  12.043  1.00  0.00     0.091 A 
ATOM     73  F   UNL     1       4.356   1.991  14.015  1.00  0.00    -0.205 F 
ATOM     74  C   UNL     1       4.941   3.660  10.807  1.00  0.00     0.022 A 
BRANCH  72  75
ATOM     75  S   UNL     1       6.920   2.912  12.539  1.00  0.00     0.127 S 
ATOM     76  O   UNL     1       7.432   1.948  11.565  1.00  0.00    -0.237 OA
ATOM     77  O   UNL     1       7.399   4.282  12.351  1.00  0.00    -0.237 OA
ATOM     78  O   UNL     1       6.909   2.452  13.920  1.00  0.00    -0.744 OA
ENDBRANCH  72  75
ENDBRANCH  54  68
BRANCH  55  79
ATOM     79  C   UNL     1      -4.986   0.253  18.099  1.00  0.00     0.023 A 
ATOM     80  C   UNL     1      -6.176   0.977  17.900  1.00  0.00     0.012 A 
ATOM     81  C   UNL     1      -4.988  -0.858  18.964  1.00  0.00     0.148 A 
ATOM     82  C   UNL     1      -7.352   0.599  18.549  1.00  0.00     0.002 A 
ATOM     83  C   UNL     1      -6.173  -1.258  19.570  1.00  0.00     0.091 A 
ATOM     84  F   UNL     1      -3.840  -1.526  19.138  1.00  0.00    -0.205 F 
ATOM     85  C   UNL     1      -7.353  -0.525  19.372  1.00  0.00     0.022 A 
BRANCH  83  86
ATOM     86  S   UNL     1      -6.301  -2.764  20.541  1.00  0.00     0.127 S 
ATOM     87  O   UNL     1      -6.593  -2.236  21.871  1.00  0.00    -0.237 OA
ATOM     88  O   UNL     1      -7.418  -3.446  19.888  1.00  0.00    -0.237 OA
ATOM     89  O   UNL     1      -5.017  -3.437  20.400  1.00  0.00    -0.744 OA
ENDBRANCH  83  86
ENDBRANCH  55  79
BRANCH  67  90
ATOM     90  C   UNL     1      -0.478   5.612  18.114  1.00  0.00     0.023 A 
ATOM     91  C   UNL     1       0.243   5.469  19.314  1.00  0.00     0.012 A 
ATOM     92  C   UNL     1      -0.869   6.893  17.678  1.00  0.00     0.148 A 
ATOM     93  C   UNL     1       0.578   6.590  20.071  1.00  0.00     0.002 A 
ATOM     94  C   UNL     1      -0.504   8.008  18.422  1.00  0.00     0.091 A 
ATOM     95  F   UNL     1      -1.555   6.994  16.531  1.00  0.00    -0.205 F 
ATOM     96  C   UNL     1       0.216   7.858  19.619  1.00  0.00     0.022 A 
BRANCH  94  97
ATOM     97  S   UNL     1      -0.852   9.687  17.887  1.00  0.00     0.127 S 
ATOM     98  O   UNL     1      -1.716  10.169  18.965  1.00  0.00    -0.237 OA
ATOM     99  O   UNL     1       0.483  10.283  17.861  1.00  0.00    -0.237 OA
ATOM    100  O   UNL     1      -1.498   9.573  16.587  1.00  0.00    -0.744 OA
ENDBRANCH  94  97
ENDBRANCH  67  90
ENDBRANCH  41  42
ENDBRANCH  33  36
ENDBRANCH  31  32
ENDBRANCH   1  31
TORSDOF 16
