REMARK SMILES O=C(NCCCNC(=O)c1ccc(NC2CC2)c(F)c1F)c1ccc(-c2c3nc(c(-c4cccc(S(=O)(=O)[O-])c4F)c4ccc([nH]4)c(-c4cccc(S(=O)(=O)[O-])c4F)c4nc(c(-c5cccc(S(=O)(=O)[O-])c5F)c5ccc2[nH]5)C=C4)C=C3)cc1
REMARK SMILES IDX 4 1 3 2 1 3 2 4 22 6 23 7 84 8 24 9 83 10 25 11 26 12 27 13
REMARK SMILES IDX 77 14 28 15 82 16 76 17 78 18 29 19 81 20 75 21 74 22 30 24
REMARK SMILES IDX 62 25 42 26 61 27 43 28 46 29 60 30 79 31 44 32 45 33 59 35
REMARK SMILES IDX 80 36 47 37 31 38 32 39 40 40 33 41 35 42 41 43 34 44 36 45
REMARK SMILES IDX 37 46 38 47 39 48 63 49 64 50 72 51 65 52 67 53 73 54 66 55
REMARK SMILES IDX 68 56 69 57 70 58 71 59 48 60 49 61 57 62 50 63 52 64 58 65
REMARK SMILES IDX 51 66 53 67 54 68 55 69 56 70 5 71 6 72 7 73 8 74 9 76 10 77
REMARK SMILES IDX 11 78 20 79 12 80 18 81 21 82 13 83 19 84 14 85 15 87 16 88
REMARK SMILES IDX 17 89
REMARK H PARENT 3 5 78 23 46 34 7 75 14 86
REMARK Flexibility Score: inf
ROOT
ATOM      1  C   UNL     1       4.587  -0.946  -0.985  1.00  0.00     0.118 C 
ENDROOT
BRANCH   1   2
ATOM      2  N   UNL     1       3.157  -0.661  -0.961  1.00  0.00    -0.352 N 
ATOM      3  O   UNL     1       1.198   0.138  -0.204  1.00  0.00    -0.269 OA
ATOM      4  C   UNL     1       2.424   0.181  -0.155  1.00  0.00     0.251 C 
ATOM      5  H   UNL     1       2.629  -1.152  -1.631  1.00  0.00     0.163 HD
BRANCH   4   6
ATOM      6  C   UNL     1       3.103   1.100   0.786  1.00  0.00     0.039 A 
ATOM      7  C   UNL     1       4.265   1.776   0.417  1.00  0.00     0.014 A 
ATOM      8  C   UNL     1       2.568   1.290   2.064  1.00  0.00     0.014 A 
ATOM      9  C   UNL     1       5.001   2.460   1.376  1.00  0.00     0.010 A 
ATOM     10  C   UNL     1       3.253   2.077   2.997  1.00  0.00     0.010 A 
ATOM     11  C   UNL     1       4.507   2.621   2.681  1.00  0.00    -0.014 A 
BRANCH  11  12
ATOM     12  C   UNL     1       5.315   3.382   3.672  1.00  0.00     0.031 A 
ATOM     13  C   UNL     1       5.820   2.734   4.935  1.00  0.00     0.074 A 
ATOM     14  C   UNL     1       5.628   4.667   3.406  1.00  0.00     0.049 A 
ATOM     15  N   UNL     1       6.599   3.236   5.860  1.00  0.00    -0.248 NA
ATOM     16  C   UNL     1       5.390   1.353   5.207  1.00  0.00     0.031 C 
ATOM     17  C   UNL     1       5.160   5.423   2.241  1.00  0.00     0.029 A 
ATOM     18  N   UNL     1       6.420   5.559   4.083  1.00  0.00    -0.354 N 
ATOM     19  C   UNL     1       6.713   2.258   6.842  1.00  0.00     0.074 A 
ATOM     20  C   UNL     1       5.916   1.132   6.405  1.00  0.00     0.031 C 
ATOM     21  C   UNL     1       5.711   6.644   2.258  1.00  0.00     0.029 A 
ATOM     22  C   UNL     1       6.529   6.780   3.458  1.00  0.00     0.049 A 
ATOM     23  H   UNL     1       6.867   5.346   4.933  1.00  0.00     0.167 HD
ATOM     24  C   UNL     1       7.430   2.285   7.992  1.00  0.00     0.034 A 
ATOM     25  C   UNL     1       7.209   7.888   3.809  1.00  0.00     0.034 A 
ATOM     26  C   UNL     1       8.267   3.384   8.397  1.00  0.00     0.049 A 
ATOM     27  C   UNL     1       8.039   7.868   5.060  1.00  0.00     0.074 A 
ATOM     28  C   UNL     1       9.088   3.475   9.507  1.00  0.00     0.029 A 
ATOM     29  N   UNL     1       8.390   4.582   7.711  1.00  0.00    -0.354 N 
ATOM     30  N   UNL     1       8.238   6.883   5.902  1.00  0.00    -0.248 NA
ATOM     31  C   UNL     1       8.763   9.102   5.394  1.00  0.00     0.031 C 
ATOM     32  C   UNL     1       9.697   4.735   9.501  1.00  0.00     0.029 A 
ATOM     33  C   UNL     1       9.270   5.421   8.375  1.00  0.00     0.049 A 
ATOM     34  H   UNL     1       7.922   4.804   6.874  1.00  0.00     0.167 HD
ATOM     35  C   UNL     1       9.133   7.366   6.847  1.00  0.00     0.074 A 
ATOM     36  C   UNL     1       9.457   8.724   6.459  1.00  0.00     0.031 C 
ATOM     37  C   UNL     1       9.628   6.748   7.947  1.00  0.00     0.034 A 
BRANCH  24  38
ATOM     38  C   UNL     1       7.377   1.072   8.885  1.00  0.00     0.023 A 
ATOM     39  C   UNL     1       8.063  -0.101   8.510  1.00  0.00     0.012 A 
ATOM     40  C   UNL     1       6.711   1.115  10.126  1.00  0.00     0.148 A 
ATOM     41  C   UNL     1       8.062  -1.221   9.341  1.00  0.00     0.002 A 
ATOM     42  C   UNL     1       6.749   0.008  10.968  1.00  0.00     0.091 A 
ATOM     43  F   UNL     1       6.045   2.230  10.458  1.00  0.00    -0.205 F 
ATOM     44  C   UNL     1       7.415  -1.163  10.573  1.00  0.00     0.022 A 
BRANCH  42  45
ATOM     45  S   UNL     1       6.011   0.015  12.606  1.00  0.00     0.127 S 
ATOM     46  O   UNL     1       4.818  -0.804  12.396  1.00  0.00    -0.237 OA
ATOM     47  O   UNL     1       7.050  -0.621  13.418  1.00  0.00    -0.237 OA
ATOM     48  O   UNL     1       5.765   1.414  12.927  1.00  0.00    -0.744 OA
ENDBRANCH  42  45
ENDBRANCH  24  38
BRANCH  25  49
ATOM     49  C   UNL     1       7.184   9.082   2.919  1.00  0.00     0.023 A 
ATOM     50  C   UNL     1       8.348   9.446   2.216  1.00  0.00     0.012 A 
ATOM     51  C   UNL     1       6.005   9.829   2.729  1.00  0.00     0.148 A 
ATOM     52  C   UNL     1       8.347  10.547   1.359  1.00  0.00     0.002 A 
ATOM     53  C   UNL     1       5.994  10.888   1.829  1.00  0.00     0.091 A 
ATOM     54  F   UNL     1       4.911   9.478   3.420  1.00  0.00    -0.205 F 
ATOM     55  C   UNL     1       7.168  11.259   1.156  1.00  0.00     0.022 A 
BRANCH  53  56
ATOM     56  S   UNL     1       4.485  11.763   1.403  1.00  0.00     0.127 S 
ATOM     57  O   UNL     1       4.660  13.026   2.115  1.00  0.00    -0.237 OA
ATOM     58  O   UNL     1       4.588  11.857  -0.054  1.00  0.00    -0.237 OA
ATOM     59  O   UNL     1       3.398  10.913   1.871  1.00  0.00    -0.744 OA
ENDBRANCH  53  56
ENDBRANCH  25  49
BRANCH  37  60
ATOM     60  C   UNL     1      10.604   7.520   8.796  1.00  0.00     0.023 A 
ATOM     61  C   UNL     1      10.144   8.580   9.602  1.00  0.00     0.012 A 
ATOM     62  C   UNL     1      11.964   7.159   8.837  1.00  0.00     0.148 A 
ATOM     63  C   UNL     1      11.030   9.291  10.410  1.00  0.00     0.002 A 
ATOM     64  C   UNL     1      12.833   7.842   9.680  1.00  0.00     0.091 A 
ATOM     65  F   UNL     1      12.389   6.163   8.045  1.00  0.00    -0.205 F 
ATOM     66  C   UNL     1      12.371   8.916  10.457  1.00  0.00     0.022 A 
BRANCH  64  67
ATOM     67  S   UNL     1      14.553   7.359   9.869  1.00  0.00     0.127 S 
ATOM     68  O   UNL     1      15.235   8.352   9.041  1.00  0.00    -0.237 OA
ATOM     69  O   UNL     1      14.767   7.514  11.309  1.00  0.00    -0.237 OA
ATOM     70  O   UNL     1      14.630   5.983   9.397  1.00  0.00    -0.744 OA
ENDBRANCH  64  67
ENDBRANCH  37  60
ENDBRANCH  11  12
ENDBRANCH   4   6
ENDBRANCH   1   2
BRANCH   1  71
ATOM     71  C   UNL     1       4.913  -2.388  -0.623  1.00  0.00     0.042 C 
BRANCH  71  72
ATOM     72  C   UNL     1       4.384  -3.406  -1.620  1.00  0.00     0.118 C 
BRANCH  72  73
ATOM     73  N   UNL     1       5.006  -3.281  -2.932  1.00  0.00    -0.352 N 
ATOM     74  C   UNL     1       5.894  -4.125  -3.562  1.00  0.00     0.254 C 
ATOM     75  H   UNL     1       4.756  -2.476  -3.442  1.00  0.00     0.163 HD
ATOM     76  O   UNL     1       6.385  -3.838  -4.638  1.00  0.00    -0.269 OA
BRANCH  74  77
ATOM     77  C   UNL     1       6.203  -5.411  -2.924  1.00  0.00     0.078 A 
ATOM     78  C   UNL     1       5.178  -6.332  -2.695  1.00  0.00     0.019 A 
ATOM     79  C   UNL     1       7.498  -5.688  -2.516  1.00  0.00     0.173 A 
ATOM     80  C   UNL     1       5.434  -7.485  -1.951  1.00  0.00     0.030 A 
ATOM     81  C   UNL     1       7.744  -6.851  -1.795  1.00  0.00     0.182 A 
ATOM     82  F   UNL     1       8.500  -4.830  -2.753  1.00  0.00    -0.203 F 
ATOM     83  C   UNL     1       6.713  -7.753  -1.456  1.00  0.00     0.074 A 
ATOM     84  F   UNL     1       8.993  -7.105  -1.365  1.00  0.00    -0.201 F 
BRANCH  83  85
ATOM     85  N   UNL     1       7.025  -8.835  -0.608  1.00  0.00    -0.380 N 
ATOM     86  H   UNL     1       7.959  -9.144  -0.647  1.00  0.00     0.160 HD
BRANCH  85  87
ATOM     87  C   UNL     1       6.166  -9.566   0.319  1.00  0.00     0.079 C 
ATOM     88  C   UNL     1       4.836  -9.108   0.838  1.00  0.00     0.027 C 
ATOM     89  C   UNL     1       4.920 -10.294  -0.087  1.00  0.00     0.027 C 
ENDBRANCH  85  87
ENDBRANCH  83  85
ENDBRANCH  74  77
ENDBRANCH  72  73
ENDBRANCH  71  72
ENDBRANCH   1  71
TORSDOF 15
