REMARK SMILES O=C(C[C@H]1C[C@H]2CC[C@@H](C1)N2C(=O)NCCC1CC1)NCCCNC(=O)c1ccc(-c2c3nc(c(-c4cccc(S(=O)(=O)[O-])c4F)c4ccc([nH]4)c(-c4cccc(S(=O)(=O)[O-])c4F)c4nc(c(-c5cccc(S(=O)(=O)[O-])c5F)c5ccc2[nH]5)C=C4)C=C3)cc1
REMARK SMILES IDX 21 1 20 2 1 3 2 4 3 6 4 7 5 8 10 9 6 10 9 11 7 12 11 13 8 14
REMARK SMILES IDX 12 15 13 16 14 17 15 19 16 20 17 21 18 22 19 23 22 24 23 25
REMARK SMILES IDX 24 26 25 27 26 29 27 30 28 31 89 32 29 33 88 34 30 35 31 36
REMARK SMILES IDX 32 37 82 38 33 39 87 40 81 41 83 42 34 43 86 44 80 45 79 46
REMARK SMILES IDX 35 48 67 49 47 50 66 51 48 52 51 53 65 54 84 55 49 56 50 57
REMARK SMILES IDX 64 59 85 60 52 61 36 62 37 63 45 64 38 65 40 66 46 67 39 68
REMARK SMILES IDX 41 69 42 70 43 71 44 72 68 73 69 74 77 75 70 76 72 77 78 78
REMARK SMILES IDX 71 79 73 80 74 81 75 82 76 83 53 84 54 85 62 86 55 87 57 88
REMARK SMILES IDX 63 89 56 90 58 91 59 92 60 93 61 94
REMARK H PARENT 20 5 14 18 24 28 83 47 51 58
REMARK Flexibility Score: inf
ROOT
ATOM      1  C   UNL     1       1.454   2.212  -1.613  1.00  0.00     0.117 C 
ENDROOT
BRANCH   1   2
ATOM      2  N   UNL     1       2.137   1.137  -0.925  1.00  0.00    -0.356 N 
ATOM      3  O   UNL     1       0.343  -0.186  -0.411  1.00  0.00    -0.275 OA
ATOM      4  C   UNL     1       1.552   0.027  -0.365  1.00  0.00     0.220 C 
ATOM      5  H   UNL     1       3.116   1.208  -0.851  1.00  0.00     0.163 HD
BRANCH   4   6
ATOM      6  C   UNL     1       2.492  -0.877   0.451  1.00  0.00     0.103 C 
BRANCH   6   7
ATOM      7  C   UNL     1       3.688  -1.582  -0.240  1.00  0.00     0.002 C 
ATOM      8  C   UNL     1       4.446  -0.785  -1.304  1.00  0.00     0.029 C 
ATOM      9  C   UNL     1       4.734  -2.145   0.777  1.00  0.00     0.029 C 
ATOM     10  C   UNL     1       5.497   0.163  -0.706  1.00  0.00     0.087 C 
ATOM     11  C   UNL     1       5.957  -1.219   1.084  1.00  0.00     0.087 C 
ATOM     12  C   UNL     1       5.139   0.976   0.560  1.00  0.00     0.027 C 
ATOM     13  N   UNL     1       6.529  -0.697  -0.158  1.00  0.00    -0.319 N 
ATOM     14  C   UNL     1       5.505   0.075   1.751  1.00  0.00     0.027 C 
BRANCH  13  15
ATOM     15  C   UNL     1       7.774  -0.563  -0.675  1.00  0.00     0.317 C 
ATOM     16  O   UNL     1       7.952  -0.059  -1.790  1.00  0.00    -0.249 OA
ATOM     17  N   UNL     1       8.889  -0.909  -0.027  1.00  0.00    -0.338 N 
ATOM     18  H   UNL     1       9.700  -0.623  -0.507  1.00  0.00     0.165 HD
BRANCH  17  19
ATOM     19  C   UNL     1       9.199  -1.598   1.203  1.00  0.00     0.118 C 
BRANCH  19  20
ATOM     20  C   UNL     1       9.313  -3.103   0.954  1.00  0.00     0.025 C 
BRANCH  20  21
ATOM     21  C   UNL     1      10.681  -3.460   0.433  1.00  0.00    -0.009 C 
ATOM     22  C   UNL     1      10.869  -4.563  -0.576  1.00  0.00     0.004 C 
ATOM     23  C   UNL     1      11.086  -3.133  -0.983  1.00  0.00     0.004 C 
ENDBRANCH  20  21
ENDBRANCH  19  20
ENDBRANCH  17  19
ENDBRANCH  13  15
ENDBRANCH   6   7
ENDBRANCH   4   6
ENDBRANCH   1   2
BRANCH   1  24
ATOM     24  C   UNL     1       1.892   3.584  -1.091  1.00  0.00     0.042 C 
BRANCH  24  25
ATOM     25  C   UNL     1       3.385   3.919  -1.170  1.00  0.00     0.118 C 
BRANCH  25  26
ATOM     26  N   UNL     1       3.954   3.874  -2.505  1.00  0.00    -0.352 N 
ATOM     27  C   UNL     1       4.803   4.759  -3.131  1.00  0.00     0.251 C 
ATOM     28  H   UNL     1       3.693   3.093  -3.044  1.00  0.00     0.163 HD
ATOM     29  O   UNL     1       5.113   4.554  -4.302  1.00  0.00    -0.269 OA
BRANCH  27  30
ATOM     30  C   UNL     1       5.313   5.972  -2.442  1.00  0.00     0.039 A 
ATOM     31  C   UNL     1       5.330   7.174  -3.158  1.00  0.00     0.014 A 
ATOM     32  C   UNL     1       5.806   5.946  -1.134  1.00  0.00     0.014 A 
ATOM     33  C   UNL     1       5.790   8.349  -2.553  1.00  0.00     0.010 A 
ATOM     34  C   UNL     1       6.204   7.135  -0.509  1.00  0.00     0.010 A 
ATOM     35  C   UNL     1       6.209   8.350  -1.212  1.00  0.00    -0.014 A 
BRANCH  35  36
ATOM     36  C   UNL     1       6.649   9.618  -0.561  1.00  0.00     0.031 A 
ATOM     37  C   UNL     1       8.066   9.790  -0.075  1.00  0.00     0.074 A 
ATOM     38  C   UNL     1       5.764  10.620  -0.377  1.00  0.00     0.049 A 
ATOM     39  N   UNL     1       8.628  10.835   0.477  1.00  0.00    -0.248 NA
ATOM     40  C   UNL     1       8.965   8.632  -0.209  1.00  0.00     0.031 C 
ATOM     41  C   UNL     1       4.344  10.569  -0.730  1.00  0.00     0.029 A 
ATOM     42  N   UNL     1       5.924  11.874   0.164  1.00  0.00    -0.354 N 
ATOM     43  C   UNL     1       9.932  10.457   0.780  1.00  0.00     0.074 A 
ATOM     44  C   UNL     1      10.066   9.072   0.383  1.00  0.00     0.031 C 
ATOM     45  C   UNL     1       3.767  11.739  -0.412  1.00  0.00     0.029 A 
ATOM     46  C   UNL     1       4.766  12.617   0.192  1.00  0.00     0.049 A 
ATOM     47  H   UNL     1       6.786  12.209   0.500  1.00  0.00     0.167 HD
ATOM     48  C   UNL     1      10.936  11.197   1.310  1.00  0.00     0.034 A 
ATOM     49  C   UNL     1       4.529  13.864   0.648  1.00  0.00     0.034 A 
ATOM     50  C   UNL     1      10.817  12.584   1.678  1.00  0.00     0.049 A 
ATOM     51  C   UNL     1       5.670  14.677   1.201  1.00  0.00     0.074 A 
ATOM     52  C   UNL     1      11.800  13.435   2.153  1.00  0.00     0.029 A 
ATOM     53  N   UNL     1       9.645  13.321   1.625  1.00  0.00    -0.354 N 
ATOM     54  N   UNL     1       6.931  14.347   1.334  1.00  0.00    -0.248 NA
ATOM     55  C   UNL     1       5.363  16.051   1.624  1.00  0.00     0.031 C 
ATOM     56  C   UNL     1      11.214  14.678   2.418  1.00  0.00     0.029 A 
ATOM     57  C   UNL     1       9.876  14.614   2.065  1.00  0.00     0.049 A 
ATOM     58  H   UNL     1       8.774  12.976   1.319  1.00  0.00     0.167 HD
ATOM     59  C   UNL     1       7.575  15.485   1.809  1.00  0.00     0.074 A 
ATOM     60  C   UNL     1       6.567  16.517   1.926  1.00  0.00     0.031 C 
ATOM     61  C   UNL     1       8.883  15.655   2.127  1.00  0.00     0.034 A 
BRANCH  48  62
ATOM     62  C   UNL     1      12.278  10.531   1.489  1.00  0.00     0.023 A 
ATOM     63  C   UNL     1      13.051  10.202   0.356  1.00  0.00     0.012 A 
ATOM     64  C   UNL     1      12.802  10.287   2.774  1.00  0.00     0.148 A 
ATOM     65  C   UNL     1      14.303   9.604   0.497  1.00  0.00     0.002 A 
ATOM     66  C   UNL     1      14.071   9.735   2.908  1.00  0.00     0.091 A 
ATOM     67  F   UNL     1      12.049  10.591   3.840  1.00  0.00    -0.205 F 
ATOM     68  C   UNL     1      14.817   9.381   1.772  1.00  0.00     0.022 A 
BRANCH  66  69
ATOM     69  S   UNL     1      14.858   9.484   4.503  1.00  0.00     0.127 S 
ATOM     70  O   UNL     1      14.858   8.026   4.606  1.00  0.00    -0.237 OA
ATOM     71  O   UNL     1      16.176  10.081   4.294  1.00  0.00    -0.237 OA
ATOM     72  O   UNL     1      14.024  10.177   5.477  1.00  0.00    -0.744 OA
ENDBRANCH  66  69
ENDBRANCH  48  62
BRANCH  49  73
ATOM     73  C   UNL     1       3.163  14.452   0.544  1.00  0.00     0.023 A 
ATOM     74  C   UNL     1       2.927  15.516  -0.350  1.00  0.00     0.012 A 
ATOM     75  C   UNL     1       2.096  13.960   1.321  1.00  0.00     0.148 A 
ATOM     76  C   UNL     1       1.665  16.105  -0.439  1.00  0.00     0.002 A 
ATOM     77  C   UNL     1       0.829  14.513   1.185  1.00  0.00     0.091 A 
ATOM     78  F   UNL     1       2.343  12.955   2.172  1.00  0.00    -0.205 F 
ATOM     79  C   UNL     1       0.615  15.599   0.321  1.00  0.00     0.022 A 
BRANCH  77  80
ATOM     80  S   UNL     1      -0.610  13.846   2.027  1.00  0.00     0.127 S 
ATOM     81  O   UNL     1      -0.924  14.911   2.975  1.00  0.00    -0.237 OA
ATOM     82  O   UNL     1      -1.561  13.698   0.926  1.00  0.00    -0.237 OA
ATOM     83  O   UNL     1      -0.172  12.585   2.616  1.00  0.00    -0.744 OA
ENDBRANCH  77  80
ENDBRANCH  49  73
BRANCH  61  84
ATOM     84  C   UNL     1       9.325  17.026   2.573  1.00  0.00     0.023 A 
ATOM     85  C   UNL     1       8.926  17.531   3.827  1.00  0.00     0.012 A 
ATOM     86  C   UNL     1      10.189  17.793   1.765  1.00  0.00     0.148 A 
ATOM     87  C   UNL     1       9.343  18.794   4.248  1.00  0.00     0.002 A 
ATOM     88  C   UNL     1      10.644  19.026   2.215  1.00  0.00     0.091 A 
ATOM     89  F   UNL     1      10.544  17.307   0.567  1.00  0.00    -0.205 F 
ATOM     90  C   UNL     1      10.210  19.536   3.449  1.00  0.00     0.022 A 
BRANCH  88  91
ATOM     91  S   UNL     1      11.841  20.002   1.298  1.00  0.00     0.127 S 
ATOM     92  O   UNL     1      11.008  21.084   0.777  1.00  0.00    -0.237 OA
ATOM     93  O   UNL     1      12.781  20.405   2.344  1.00  0.00    -0.237 OA
ATOM     94  O   UNL     1      12.404  19.107   0.295  1.00  0.00    -0.744 OA
ENDBRANCH  88  91
ENDBRANCH  61  84
ENDBRANCH  35  36
ENDBRANCH  27  30
ENDBRANCH  25  26
ENDBRANCH  24  25
ENDBRANCH   1  24
TORSDOF 18
