REMARK SMILES O=C(NCCCNC(=O)[C@H]1[C@@H]2CC[C@@H](C2)[C@@H]1C(=O)Nc1ccc([N+](=O)[O-])cc1)c1ccc(-c2c3nc(c(-c4cccc(S(=O)(=O)[O-])c4F)c4ccc([nH]4)c(-c4cccc(S(=O)(=O)[O-])c4F)c4nc(c(-c5cccc(S(=O)(=O)[O-])c5F)c5ccc2[nH]5)C=C4)C=C3)cc1
REMARK SMILES IDX 5 1 4 2 3 3 1 4 2 5 29 7 30 8 91 9 31 10 90 11 32 12 33 13
REMARK SMILES IDX 34 14 84 15 35 16 89 17 83 18 85 19 36 20 88 21 82 22 81 23
REMARK SMILES IDX 37 25 69 26 49 27 68 28 50 29 53 30 67 31 86 32 51 33 52 34
REMARK SMILES IDX 66 36 87 37 54 38 38 39 39 40 47 41 40 42 42 43 48 44 41 45
REMARK SMILES IDX 43 46 44 47 45 48 46 49 70 50 71 51 79 52 72 53 74 54 80 55
REMARK SMILES IDX 73 56 75 57 76 58 77 59 78 60 55 61 56 62 64 63 57 64 59 65
REMARK SMILES IDX 65 66 58 67 60 68 61 69 62 70 63 71 6 72 7 73 8 74 9 76
REMARK SMILES IDX 10 77 11 78 16 79 12 80 15 81 14 82 13 83 17 84 18 85 19 86
REMARK SMILES IDX 20 88 21 89 28 90 22 91 27 92 23 93 24 94 25 95 26 96
REMARK H PARENT 3 6 85 24 53 35 7 75 19 87
REMARK Flexibility Score: inf
ROOT
ATOM      1  C   UNL     1       5.115   1.215  -1.446  1.00  0.00     0.042 C 
ENDROOT
BRANCH   1   2
ATOM      2  C   UNL     1       4.500   1.249  -0.054  1.00  0.00     0.118 C 
BRANCH   2   3
ATOM      3  N   UNL     1       3.061   1.030  -0.047  1.00  0.00    -0.352 N 
ATOM      4  O   UNL     1       1.121  -0.108  -0.045  1.00  0.00    -0.269 OA
ATOM      5  C   UNL     1       2.327  -0.120   0.157  1.00  0.00     0.251 C 
ATOM      6  H   UNL     1       2.522   1.836  -0.216  1.00  0.00     0.163 HD
BRANCH   5   7
ATOM      7  C   UNL     1       3.006  -1.370   0.571  1.00  0.00     0.039 A 
ATOM      8  C   UNL     1       4.035  -1.340   1.507  1.00  0.00     0.014 A 
ATOM      9  C   UNL     1       2.613  -2.592   0.018  1.00  0.00     0.014 A 
ATOM     10  C   UNL     1       4.822  -2.462   1.706  1.00  0.00     0.010 A 
ATOM     11  C   UNL     1       3.309  -3.763   0.347  1.00  0.00     0.010 A 
ATOM     12  C   UNL     1       4.449  -3.701   1.161  1.00  0.00    -0.014 A 
BRANCH  12  13
ATOM     13  C   UNL     1       5.226  -4.907   1.557  1.00  0.00     0.031 A 
ATOM     14  C   UNL     1       5.922  -5.774   0.543  1.00  0.00     0.074 A 
ATOM     15  C   UNL     1       5.335  -5.184   2.873  1.00  0.00     0.049 A 
ATOM     16  N   UNL     1       6.682  -6.819   0.749  1.00  0.00    -0.248 NA
ATOM     17  C   UNL     1       5.738  -5.443  -0.879  1.00  0.00     0.031 C 
ATOM     18  C   UNL     1       4.660  -4.444   3.946  1.00  0.00     0.029 A 
ATOM     19  N   UNL     1       6.064  -6.133   3.542  1.00  0.00    -0.354 N 
ATOM     20  C   UNL     1       7.028  -7.299  -0.509  1.00  0.00     0.074 A 
ATOM     21  C   UNL     1       6.393  -6.430  -1.477  1.00  0.00     0.031 C 
ATOM     22  C   UNL     1       5.058  -4.917   5.132  1.00  0.00     0.029 A 
ATOM     23  C   UNL     1       5.951  -6.046   4.911  1.00  0.00     0.049 A 
ATOM     24  H   UNL     1       6.614  -6.810   3.087  1.00  0.00     0.167 HD
ATOM     25  C   UNL     1       7.814  -8.356  -0.825  1.00  0.00     0.034 A 
ATOM     26  C   UNL     1       6.491  -6.799   5.887  1.00  0.00     0.034 A 
ATOM     27  C   UNL     1       8.481  -9.185   0.145  1.00  0.00     0.049 A 
ATOM     28  C   UNL     1       7.395  -7.931   5.503  1.00  0.00     0.074 A 
ATOM     29  C   UNL     1       9.338 -10.250  -0.078  1.00  0.00     0.029 A 
ATOM     30  N   UNL     1       8.371  -9.045   1.520  1.00  0.00    -0.354 N 
ATOM     31  N   UNL     1       7.791  -8.297   4.308  1.00  0.00    -0.248 NA
ATOM     32  C   UNL     1       7.940  -8.743   6.597  1.00  0.00     0.031 C 
ATOM     33  C   UNL     1       9.737 -10.759   1.163  1.00  0.00     0.029 A 
ATOM     34  C   UNL     1       9.141 -10.003   2.159  1.00  0.00     0.049 A 
ATOM     35  H   UNL     1       7.827  -8.363   1.976  1.00  0.00     0.167 HD
ATOM     36  C   UNL     1       8.637  -9.379   4.506  1.00  0.00     0.074 A 
ATOM     37  C   UNL     1       8.732  -9.578   5.939  1.00  0.00     0.031 C 
ATOM     38  C   UNL     1       9.255 -10.158   3.586  1.00  0.00     0.034 A 
BRANCH  25  39
ATOM     39  C   UNL     1       8.040  -8.661  -2.284  1.00  0.00     0.023 A 
ATOM     40  C   UNL     1       8.919  -7.852  -3.032  1.00  0.00     0.012 A 
ATOM     41  C   UNL     1       7.461  -9.795  -2.888  1.00  0.00     0.148 A 
ATOM     42  C   UNL     1       9.204  -8.155  -4.363  1.00  0.00     0.002 A 
ATOM     43  C   UNL     1       7.778 -10.111  -4.205  1.00  0.00     0.091 A 
ATOM     44  F   UNL     1       6.613 -10.541  -2.166  1.00  0.00    -0.205 F 
ATOM     45  C   UNL     1       8.644  -9.289  -4.945  1.00  0.00     0.022 A 
BRANCH  43  46
ATOM     46  S   UNL     1       7.166 -11.589  -5.024  1.00  0.00     0.127 S 
ATOM     47  O   UNL     1       6.228 -11.022  -5.992  1.00  0.00    -0.237 OA
ATOM     48  O   UNL     1       8.386 -12.144  -5.611  1.00  0.00    -0.237 OA
ATOM     49  O   UNL     1       6.567 -12.408  -3.980  1.00  0.00    -0.744 OA
ENDBRANCH  43  46
ENDBRANCH  25  39
BRANCH  26  50
ATOM     50  C   UNL     1       6.207  -6.476   7.314  1.00  0.00     0.023 A 
ATOM     51  C   UNL     1       7.240  -5.989   8.137  1.00  0.00     0.012 A 
ATOM     52  C   UNL     1       4.907  -6.595   7.843  1.00  0.00     0.148 A 
ATOM     53  C   UNL     1       6.987  -5.647   9.466  1.00  0.00     0.002 A 
ATOM     54  C   UNL     1       4.649  -6.188   9.146  1.00  0.00     0.091 A 
ATOM     55  F   UNL     1       3.938  -7.083   7.055  1.00  0.00    -0.205 F 
ATOM     56  C   UNL     1       5.689  -5.731   9.966  1.00  0.00     0.022 A 
BRANCH  54  57
ATOM     57  S   UNL     1       2.973  -6.113   9.789  1.00  0.00     0.127 S 
ATOM     58  O   UNL     1       2.877  -7.367  10.528  1.00  0.00    -0.237 OA
ATOM     59  O   UNL     1       3.010  -4.908  10.619  1.00  0.00    -0.237 OA
ATOM     60  O   UNL     1       2.122  -5.992   8.611  1.00  0.00    -0.744 OA
ENDBRANCH  54  57
ENDBRANCH  26  50
BRANCH  38  61
ATOM     61  C   UNL     1      10.090 -11.296   4.107  1.00  0.00     0.023 A 
ATOM     62  C   UNL     1       9.452 -12.433   4.641  1.00  0.00     0.012 A 
ATOM     63  C   UNL     1      11.494 -11.258   4.034  1.00  0.00     0.148 A 
ATOM     64  C   UNL     1      10.202 -13.502   5.128  1.00  0.00     0.002 A 
ATOM     65  C   UNL     1      12.234 -12.345   4.481  1.00  0.00     0.091 A 
ATOM     66  F   UNL     1      12.082 -10.156   3.544  1.00  0.00    -0.205 F 
ATOM     67  C   UNL     1      11.591 -13.463   5.039  1.00  0.00     0.022 A 
BRANCH  65  68
ATOM     68  S   UNL     1      14.022 -12.411   4.324  1.00  0.00     0.127 S 
ATOM     69  O   UNL     1      14.453 -12.104   5.687  1.00  0.00    -0.237 OA
ATOM     70  O   UNL     1      14.251 -13.796   3.909  1.00  0.00    -0.237 OA
ATOM     71  O   UNL     1      14.367 -11.418   3.315  1.00  0.00    -0.744 OA
ENDBRANCH  65  68
ENDBRANCH  38  61
ENDBRANCH  12  13
ENDBRANCH   5   7
ENDBRANCH   2   3
ENDBRANCH   1   2
BRANCH   1  72
ATOM     72  C   UNL     1       4.717   2.379  -2.337  1.00  0.00     0.117 C 
BRANCH  72  73
ATOM     73  N   UNL     1       4.880   3.661  -1.683  1.00  0.00    -0.356 N 
ATOM     74  C   UNL     1       5.323   4.851  -2.140  1.00  0.00     0.224 C 
ATOM     75  H   UNL     1       4.620   3.666  -0.734  1.00  0.00     0.163 HD
ATOM     76  O   UNL     1       5.345   5.764  -1.312  1.00  0.00    -0.275 OA
BRANCH  74  77
ATOM     77  C   UNL     1       5.848   5.022  -3.557  1.00  0.00     0.094 C 
ATOM     78  C   UNL     1       4.874   4.549  -4.673  1.00  0.00     0.002 C 
ATOM     79  C   UNL     1       5.992   6.531  -3.892  1.00  0.00     0.094 C 
ATOM     80  C   UNL     1       5.700   4.353  -5.952  1.00  0.00     0.005 C 
ATOM     81  C   UNL     1       4.068   5.802  -5.021  1.00  0.00     0.009 C 
ATOM     82  C   UNL     1       5.316   6.642  -5.281  1.00  0.00     0.002 C 
ATOM     83  C   UNL     1       6.027   5.796  -6.357  1.00  0.00     0.005 C 
BRANCH  79  84
ATOM     84  C   UNL     1       7.409   7.097  -3.887  1.00  0.00     0.228 C 
ATOM     85  O   UNL     1       8.375   6.443  -4.282  1.00  0.00    -0.274 OA
ATOM     86  N   UNL     1       7.574   8.440  -3.623  1.00  0.00    -0.326 N 
ATOM     87  H   UNL     1       8.358   8.861  -4.044  1.00  0.00     0.169 HD
BRANCH  86  88
ATOM     88  C   UNL     1       6.781   9.291  -2.836  1.00  0.00     0.041 A 
ATOM     89  C   UNL     1       6.682  10.639  -3.185  1.00  0.00     0.033 A 
ATOM     90  C   UNL     1       6.138   8.841  -1.680  1.00  0.00     0.033 A 
ATOM     91  C   UNL     1       5.844  11.496  -2.457  1.00  0.00     0.088 A 
ATOM     92  C   UNL     1       5.299   9.680  -0.943  1.00  0.00     0.088 A 
ATOM     93  C   UNL     1       5.136  11.004  -1.351  1.00  0.00     0.269 A 
BRANCH  93  94
ATOM     94  N   UNL     1       4.218  11.882  -0.616  1.00  0.00     0.062 N 
ATOM     95  O   UNL     1       4.181  13.077  -0.942  1.00  0.00    -0.258 OA
ATOM     96  O   UNL     1       3.526  11.378   0.280  1.00  0.00    -0.258 OA
ENDBRANCH  93  94
ENDBRANCH  86  88
ENDBRANCH  79  84
ENDBRANCH  74  77
ENDBRANCH  72  73
ENDBRANCH   1  72
TORSDOF 16
