REMARK SMILES O=C(CC1(C(=O)NCCCNC(=O)c2ccc(-c3c4nc(c(-c5cccc(S(=O)(=O)[O-])c5F)c5ccc([nH]5)c(-c5cccc(S(=O)(=O)[O-])c5F)c5nc(c(-c6cccc(S(=O)(=O)[O-])c6F)c6ccc3[nH]6)C=C5)C=C4)cc2)CCCCC1)Nc1ccc(N2CCOC2=O)cc1
REMARK SMILES IDX 8 1 7 2 5 3 6 4 4 6 77 7 81 8 78 9 80 10 79 11 3 12 2 13
REMARK SMILES IDX 1 14 82 15 83 17 84 18 94 19 85 20 93 21 86 22 87 23 88 24
REMARK SMILES IDX 91 25 89 26 90 27 92 28 9 29 10 30 11 31 12 32 13 34 14 35
REMARK SMILES IDX 15 36 76 37 16 38 75 39 17 40 18 41 19 42 69 43 20 44 74 45
REMARK SMILES IDX 68 46 70 47 21 48 73 49 67 50 66 51 22 53 54 54 34 55 53 56
REMARK SMILES IDX 35 57 38 58 52 59 71 60 36 61 37 62 51 64 72 65 39 66 23 67
REMARK SMILES IDX 24 68 32 69 25 70 27 71 33 72 26 73 28 74 29 75 30 76 31 77
REMARK SMILES IDX 55 78 56 79 64 80 57 81 59 82 65 83 58 84 60 85 61 86 62 87
REMARK SMILES IDX 63 88 40 89 41 90 49 91 42 92 44 93 50 94 43 95 45 96 46 97
REMARK SMILES IDX 47 98 48 99
REMARK H PARENT 7 5 82 16 11 33 70 52 38 63
REMARK Flexibility Score: inf
ROOT
ATOM      1  C   UNL     1       6.493  -2.681   1.894  1.00  0.00     0.117 C 
ENDROOT
BRANCH   1   2
ATOM      2  N   UNL     1       6.158  -1.585   1.023  1.00  0.00    -0.356 N 
ATOM      3  C   UNL     1       5.071  -0.806   0.876  1.00  0.00     0.226 C 
ATOM      4  O   UNL     1       5.154  -0.067  -0.117  1.00  0.00    -0.274 OA
ATOM      5  H   UNL     1       6.883  -1.356   0.398  1.00  0.00     0.163 HD
BRANCH   3   6
ATOM      6  C   UNL     1       3.783  -0.793   1.756  1.00  0.00     0.058 C 
ATOM      7  C   UNL     1       4.066  -0.493   3.255  1.00  0.00     0.017 C 
ATOM      8  C   UNL     1       2.893  -2.040   1.595  1.00  0.00     0.017 C 
ATOM      9  C   UNL     1       4.307  -1.658   4.210  1.00  0.00     0.001 C 
ATOM     10  C   UNL     1       3.223  -3.243   2.464  1.00  0.00     0.001 C 
ATOM     11  C   UNL     1       3.501  -2.922   3.927  1.00  0.00     0.000 C 
BRANCH   6  12
ATOM     12  C   UNL     1       2.972   0.472   1.238  1.00  0.00     0.117 C 
BRANCH  12  13
ATOM     13  C   UNL     1       2.085   0.330  -0.001  1.00  0.00     0.225 C 
ATOM     14  O   UNL     1       0.907   0.684   0.065  1.00  0.00    -0.275 OA
ATOM     15  N   UNL     1       2.691  -0.198  -1.119  1.00  0.00    -0.326 N 
ATOM     16  H   UNL     1       3.644  -0.434  -1.045  1.00  0.00     0.169 HD
BRANCH  15  17
ATOM     17  C   UNL     1       2.066  -0.427  -2.356  1.00  0.00     0.041 A 
ATOM     18  C   UNL     1       2.511  -1.500  -3.134  1.00  0.00     0.028 A 
ATOM     19  C   UNL     1       1.028   0.375  -2.827  1.00  0.00     0.028 A 
ATOM     20  C   UNL     1       1.845  -1.831  -4.321  1.00  0.00     0.028 A 
ATOM     21  C   UNL     1       0.435   0.107  -4.062  1.00  0.00     0.028 A 
ATOM     22  C   UNL     1       0.809  -1.021  -4.795  1.00  0.00     0.047 A 
BRANCH  22  23
ATOM     23  N   UNL     1       0.100  -1.359  -5.958  1.00  0.00    -0.274 N 
ATOM     24  C   UNL     1      -0.319  -2.690  -6.258  1.00  0.00     0.171 C 
ATOM     25  C   UNL     1      -0.351  -0.483  -6.921  1.00  0.00     0.414 C 
ATOM     26  C   UNL     1      -1.406  -2.447  -7.277  1.00  0.00     0.257 C 
ATOM     27  O   UNL     1      -1.119  -1.160  -7.833  1.00  0.00    -0.447 OA
ATOM     28  O   UNL     1      -0.113   0.715  -7.024  1.00  0.00    -0.224 OA
ENDBRANCH  22  23
ENDBRANCH  15  17
ENDBRANCH  12  13
ENDBRANCH   6  12
ENDBRANCH   3   6
ENDBRANCH   1   2
BRANCH   1  29
ATOM     29  C   UNL     1       6.519  -4.008   1.161  1.00  0.00     0.042 C 
BRANCH  29  30
ATOM     30  C   UNL     1       7.830  -4.248   0.443  1.00  0.00     0.118 C 
BRANCH  30  31
ATOM     31  N   UNL     1       8.940  -4.423   1.378  1.00  0.00    -0.352 N 
ATOM     32  C   UNL     1       9.652  -5.556   1.695  1.00  0.00     0.251 C 
ATOM     33  H   UNL     1       9.221  -3.607   1.852  1.00  0.00     0.163 HD
ATOM     34  O   UNL     1      10.390  -5.562   2.676  1.00  0.00    -0.269 OA
BRANCH  32  35
ATOM     35  C   UNL     1       9.508  -6.763   0.856  1.00  0.00     0.039 A 
ATOM     36  C   UNL     1       9.428  -8.023   1.454  1.00  0.00     0.014 A 
ATOM     37  C   UNL     1       9.423  -6.635  -0.530  1.00  0.00     0.014 A 
ATOM     38  C   UNL     1       9.181  -9.145   0.660  1.00  0.00     0.010 A 
ATOM     39  C   UNL     1       9.043  -7.724  -1.295  1.00  0.00     0.010 A 
ATOM     40  C   UNL     1       8.943  -8.997  -0.715  1.00  0.00    -0.014 A 
BRANCH  40  41
ATOM     41  C   UNL     1       8.632 -10.142  -1.606  1.00  0.00     0.031 A 
ATOM     42  C   UNL     1       9.518 -10.399  -2.797  1.00  0.00     0.074 A 
ATOM     43  C   UNL     1       7.499 -10.850  -1.431  1.00  0.00     0.049 A 
ATOM     44  N   UNL     1       9.329 -11.202  -3.809  1.00  0.00    -0.248 NA
ATOM     45  C   UNL     1      10.760  -9.608  -2.886  1.00  0.00     0.031 C 
ATOM     46  C   UNL     1       6.529 -10.651  -0.351  1.00  0.00     0.029 A 
ATOM     47  N   UNL     1       6.951 -11.857  -2.186  1.00  0.00    -0.354 N 
ATOM     48  C   UNL     1      10.389 -10.969  -4.677  1.00  0.00     0.074 A 
ATOM     49  C   UNL     1      11.196  -9.921  -4.096  1.00  0.00     0.031 C 
ATOM     50  C   UNL     1       5.506 -11.506  -0.515  1.00  0.00     0.029 A 
ATOM     51  C   UNL     1       5.720 -12.277  -1.735  1.00  0.00     0.049 A 
ATOM     52  H   UNL     1       7.395 -12.242  -2.976  1.00  0.00     0.167 HD
ATOM     53  C   UNL     1      10.682 -11.591  -5.841  1.00  0.00     0.034 A 
ATOM     54  C   UNL     1       4.852 -13.164  -2.261  1.00  0.00     0.034 A 
ATOM     55  C   UNL     1       9.906 -12.672  -6.381  1.00  0.00     0.049 A 
ATOM     56  C   UNL     1       5.217 -13.868  -3.540  1.00  0.00     0.074 A 
ATOM     57  C   UNL     1      10.165 -13.437  -7.503  1.00  0.00     0.029 A 
ATOM     58  N   UNL     1       8.720 -13.137  -5.838  1.00  0.00    -0.354 N 
ATOM     59  N   UNL     1       6.288 -13.724  -4.283  1.00  0.00    -0.248 NA
ATOM     60  C   UNL     1       4.273 -14.879  -4.040  1.00  0.00     0.031 C 
ATOM     61  C   UNL     1       9.112 -14.342  -7.660  1.00  0.00     0.029 A 
ATOM     62  C   UNL     1       8.227 -14.174  -6.607  1.00  0.00     0.049 A 
ATOM     63  H   UNL     1       8.291 -12.782  -5.025  1.00  0.00     0.167 HD
ATOM     64  C   UNL     1       6.173 -14.659  -5.305  1.00  0.00     0.074 A 
ATOM     65  C   UNL     1       4.927 -15.365  -5.087  1.00  0.00     0.031 C 
ATOM     66  C   UNL     1       7.019 -14.908  -6.332  1.00  0.00     0.034 A 
BRANCH  53  67
ATOM     67  C   UNL     1      11.911 -11.147  -6.590  1.00  0.00     0.023 A 
ATOM     68  C   UNL     1      13.191 -11.407  -6.059  1.00  0.00     0.012 A 
ATOM     69  C   UNL     1      11.799 -10.522  -7.847  1.00  0.00     0.148 A 
ATOM     70  C   UNL     1      14.338 -11.016  -6.747  1.00  0.00     0.002 A 
ATOM     71  C   UNL     1      12.947 -10.184  -8.552  1.00  0.00     0.091 A 
ATOM     72  F   UNL     1      10.573 -10.264  -8.325  1.00  0.00    -0.205 F 
ATOM     73  C   UNL     1      14.216 -10.416  -7.997  1.00  0.00     0.022 A 
BRANCH  71  74
ATOM     74  S   UNL     1      12.898  -9.488 -10.206  1.00  0.00     0.127 S 
ATOM     75  O   UNL     1      13.396  -8.134  -9.970  1.00  0.00    -0.237 OA
ATOM     76  O   UNL     1      13.822 -10.360 -10.931  1.00  0.00    -0.237 OA
ATOM     77  O   UNL     1      11.511  -9.575 -10.639  1.00  0.00    -0.744 OA
ENDBRANCH  71  74
ENDBRANCH  53  67
BRANCH  54  78
ATOM     78  C   UNL     1       3.573 -13.467  -1.558  1.00  0.00     0.023 A 
ATOM     79  C   UNL     1       3.391 -14.731  -0.964  1.00  0.00     0.012 A 
ATOM     80  C   UNL     1       2.546 -12.509  -1.460  1.00  0.00     0.148 A 
ATOM     81  C   UNL     1       2.195 -15.050  -0.319  1.00  0.00     0.002 A 
ATOM     82  C   UNL     1       1.380 -12.812  -0.767  1.00  0.00     0.091 A 
ATOM     83  F   UNL     1       2.736 -11.313  -2.036  1.00  0.00    -0.205 F 
ATOM     84  C   UNL     1       1.194 -14.088  -0.213  1.00  0.00     0.022 A 
BRANCH  82  85
ATOM     85  S   UNL     1       0.091 -11.597  -0.470  1.00  0.00     0.127 S 
ATOM     86  O   UNL     1      -1.002 -12.114  -1.289  1.00  0.00    -0.237 OA
ATOM     87  O   UNL     1      -0.108 -11.717   0.974  1.00  0.00    -0.237 OA
ATOM     88  O   UNL     1       0.647 -10.319  -0.896  1.00  0.00    -0.744 OA
ENDBRANCH  82  85
ENDBRANCH  54  78
BRANCH  66  89
ATOM     89  C   UNL     1       6.690 -16.041  -7.266  1.00  0.00     0.023 A 
ATOM     90  C   UNL     1       5.667 -15.901  -8.222  1.00  0.00     0.012 A 
ATOM     91  C   UNL     1       7.497 -17.197  -7.272  1.00  0.00     0.148 A 
ATOM     92  C   UNL     1       5.442 -16.904  -9.164  1.00  0.00     0.002 A 
ATOM     93  C   UNL     1       7.302 -18.166  -8.246  1.00  0.00     0.091 A 
ATOM     94  F   UNL     1       8.454 -17.311  -6.340  1.00  0.00    -0.205 F 
ATOM     95  C   UNL     1       6.269 -18.027  -9.186  1.00  0.00     0.022 A 
BRANCH  93  96
ATOM     96  S   UNL     1       8.385 -19.588  -8.421  1.00  0.00     0.127 S 
ATOM     97  O   UNL     1       7.485 -20.689  -8.084  1.00  0.00    -0.237 OA
ATOM     98  O   UNL     1       8.761 -19.515  -9.833  1.00  0.00    -0.237 OA
ATOM     99  O   UNL     1       9.483 -19.379  -7.487  1.00  0.00    -0.744 OA
ENDBRANCH  93  96
ENDBRANCH  66  89
ENDBRANCH  40  41
ENDBRANCH  32  35
ENDBRANCH  30  31
ENDBRANCH  29  30
ENDBRANCH   1  29
TORSDOF 17
