REMARK SMILES Cc1cccc(O[C@H](C)C(=O)NNC(=O)[C@H]2[C@@H]3CC[C@@H](C3)[C@@H]2C(=O)NCCCNC(=O)c2ccc(-c3c4nc(c(-c5cccc(S(=O)(=O)[O-])c5F)c5ccc([nH]5)c(-c5cccc(S(=O)(=O)[O-])c5F)c5nc(c(-c6cccc(S(=O)(=O)[O-])c6F)c6ccc3[nH]6)C=C5)C=C4)cc2)c1
REMARK SMILES IDX 26 1 25 2 23 3 24 4 22 6 16 7 17 8 18 9 21 10 20 11 19 12
REMARK SMILES IDX 14 13 13 14 15 16 12 17 10 18 11 19 8 21 9 22 7 23 6 24 1 25
REMARK SMILES IDX 2 26 3 27 95 28 4 29 5 30 27 31 28 32 29 33 30 34 31 36
REMARK SMILES IDX 32 37 33 38 94 39 34 40 93 41 35 42 36 43 37 44 87 45 38 46
REMARK SMILES IDX 92 47 86 48 88 49 39 50 91 51 85 52 84 53 40 55 72 56 52 57
REMARK SMILES IDX 71 58 53 59 56 60 70 61 89 62 54 63 55 64 69 66 90 67 57 68
REMARK SMILES IDX 41 69 42 70 50 71 43 72 45 73 51 74 44 75 46 76 47 77 48 78
REMARK SMILES IDX 49 79 73 80 74 81 82 82 75 83 77 84 83 85 76 86 78 87 79 88
REMARK SMILES IDX 80 89 81 90 58 91 59 92 67 93 60 94 62 95 68 96 61 97 63 98
REMARK SMILES IDX 64 99 65 100 66 101
REMARK H PARENT 25 5 13 15 12 20 29 35 88 54 56 65
REMARK Flexibility Score: inf
ROOT
ATOM      1  C   UNL     1       3.521   5.014  -3.611  1.00  0.00     0.117 C 
ENDROOT
BRANCH   1   2
ATOM      2  N   UNL     1       4.590   4.127  -3.172  1.00  0.00    -0.356 N 
ATOM      3  C   UNL     1       4.515   2.793  -2.868  1.00  0.00     0.224 C 
ATOM      4  O   UNL     1       5.515   2.191  -2.489  1.00  0.00    -0.275 OA
ATOM      5  H   UNL     1       5.479   4.538  -3.081  1.00  0.00     0.163 HD
BRANCH   3   6
ATOM      6  C   UNL     1       3.158   2.126  -3.020  1.00  0.00     0.094 C 
ATOM      7  C   UNL     1       2.987   0.796  -2.269  1.00  0.00     0.096 C 
ATOM      8  C   UNL     1       2.404  -0.150  -3.349  1.00  0.00     0.002 C 
ATOM      9  C   UNL     1       3.558  -0.557  -4.290  1.00  0.00     0.005 C 
ATOM     10  C   UNL     1       1.624   0.786  -4.268  1.00  0.00     0.009 C 
ATOM     11  C   UNL     1       2.812   1.726  -4.476  1.00  0.00     0.002 C 
ATOM     12  C   UNL     1       3.861   0.750  -5.041  1.00  0.00     0.005 C 
BRANCH   7  13
ATOM     13  C   UNL     1       2.205   0.783  -0.957  1.00  0.00     0.242 C 
ATOM     14  N   UNL     1       1.212   1.653  -0.613  1.00  0.00    -0.267 N 
ATOM     15  H   UNL     1       0.991   1.685   0.346  1.00  0.00     0.191 HD
ATOM     16  O   UNL     1       2.462  -0.106  -0.133  1.00  0.00    -0.273 OA
BRANCH  14  17
ATOM     17  N   UNL     1       0.477   2.490  -1.414  1.00  0.00    -0.264 N 
ATOM     18  C   UNL     1      -0.478   3.388  -1.057  1.00  0.00     0.279 C 
ATOM     19  O   UNL     1      -0.823   4.168  -1.961  1.00  0.00    -0.269 OA
ATOM     20  H   UNL     1       0.668   2.432  -2.378  1.00  0.00     0.191 HD
BRANCH  18  21
ATOM     21  C   UNL     1      -1.235   3.428   0.301  1.00  0.00     0.260 C 
ATOM     22  C   UNL     1      -2.637   2.822   0.138  1.00  0.00     0.064 C 
BRANCH  21  23
ATOM     23  O   UNL     1      -0.683   3.319   1.593  1.00  0.00    -0.481 OA
BRANCH  23  24
ATOM     24  C   UNL     1      -0.252   2.179   2.185  1.00  0.00     0.120 A 
ATOM     25  C   UNL     1       2.360   1.589   4.905  1.00  0.00     0.044 C 
ATOM     26  C   UNL     1       1.323   1.339   3.850  1.00  0.00    -0.047 A 
ATOM     27  C   UNL     1       1.020   0.033   3.460  1.00  0.00     0.003 A 
ATOM     28  C   UNL     1       0.671   2.402   3.215  1.00  0.00     0.049 A 
ATOM     29  C   UNL     1       0.071  -0.199   2.466  1.00  0.00     0.004 A 
ATOM     30  C   UNL     1      -0.573   0.870   1.836  1.00  0.00     0.046 A 
ENDBRANCH  23  24
ENDBRANCH  21  23
ENDBRANCH  18  21
ENDBRANCH  14  17
ENDBRANCH   7  13
ENDBRANCH   3   6
ENDBRANCH   1   2
BRANCH   1  31
ATOM     31  C   UNL     1       2.729   5.601  -2.448  1.00  0.00     0.042 C 
BRANCH  31  32
ATOM     32  C   UNL     1       3.403   6.833  -1.877  1.00  0.00     0.118 C 
BRANCH  32  33
ATOM     33  N   UNL     1       3.162   8.032  -2.668  1.00  0.00    -0.352 N 
ATOM     34  C   UNL     1       3.620   9.324  -2.502  1.00  0.00     0.251 C 
ATOM     35  H   UNL     1       2.576   7.900  -3.448  1.00  0.00     0.163 HD
ATOM     36  O   UNL     1       3.149  10.200  -3.227  1.00  0.00    -0.269 OA
BRANCH  34  37
ATOM     37  C   UNL     1       4.760   9.614  -1.597  1.00  0.00     0.039 A 
ATOM     38  C   UNL     1       5.711  10.551  -2.028  1.00  0.00     0.014 A 
ATOM     39  C   UNL     1       5.037   8.804  -0.502  1.00  0.00     0.014 A 
ATOM     40  C   UNL     1       7.022  10.461  -1.568  1.00  0.00     0.010 A 
ATOM     41  C   UNL     1       6.347   8.633  -0.131  1.00  0.00     0.010 A 
ATOM     42  C   UNL     1       7.345   9.406  -0.729  1.00  0.00    -0.014 A 
BRANCH  42  43
ATOM     43  C   UNL     1       8.684   8.964  -0.403  1.00  0.00     0.031 A 
ATOM     44  C   UNL     1       9.237   9.307   0.923  1.00  0.00     0.074 A 
ATOM     45  C   UNL     1       9.215   7.973  -1.160  1.00  0.00     0.049 A 
ATOM     46  N   UNL     1      10.411   8.958   1.314  1.00  0.00    -0.248 NA
ATOM     47  C   UNL     1       8.510  10.090   1.923  1.00  0.00     0.031 C 
ATOM     48  C   UNL     1      10.225   7.002  -0.748  1.00  0.00     0.029 A 
ATOM     49  N   UNL     1       9.063   7.703  -2.528  1.00  0.00    -0.354 N 
ATOM     50  C   UNL     1      10.466   9.157   2.673  1.00  0.00     0.074 A 
ATOM     51  C   UNL     1       9.333   9.993   2.974  1.00  0.00     0.031 C 
ATOM     52  C   UNL     1      10.804   6.487  -1.843  1.00  0.00     0.029 A 
ATOM     53  C   UNL     1      10.340   7.292  -2.956  1.00  0.00     0.049 A 
ATOM     54  H   UNL     1       8.245   7.784  -3.069  1.00  0.00     0.167 HD
ATOM     55  C   UNL     1      11.391   8.454   3.381  1.00  0.00     0.034 A 
ATOM     56  C   UNL     1      11.163   8.050  -3.745  1.00  0.00     0.034 A 
ATOM     57  C   UNL     1      12.358   7.812   2.473  1.00  0.00     0.049 A 
ATOM     58  C   UNL     1      12.532   8.340  -3.127  1.00  0.00     0.074 A 
ATOM     59  C   UNL     1      12.588   6.512   2.059  1.00  0.00     0.029 A 
ATOM     60  N   UNL     1      13.112   8.624   1.631  1.00  0.00    -0.354 N 
ATOM     61  N   UNL     1      12.884   8.037  -1.906  1.00  0.00    -0.248 NA
ATOM     62  C   UNL     1      13.604   9.028  -3.838  1.00  0.00     0.031 C 
ATOM     63  C   UNL     1      13.442   6.559   0.915  1.00  0.00     0.029 A 
ATOM     64  C   UNL     1      13.767   7.881   0.662  1.00  0.00     0.049 A 
ATOM     65  H   UNL     1      13.173   9.603   1.714  1.00  0.00     0.167 HD
ATOM     66  C   UNL     1      14.112   8.581  -1.604  1.00  0.00     0.074 A 
ATOM     67  C   UNL     1      14.544   9.131  -2.881  1.00  0.00     0.031 C 
ATOM     68  C   UNL     1      14.611   8.572  -0.319  1.00  0.00     0.034 A 
BRANCH  55  69
ATOM     69  C   UNL     1      11.369   8.185   4.879  1.00  0.00     0.023 A 
ATOM     70  C   UNL     1      12.437   7.421   5.405  1.00  0.00     0.012 A 
ATOM     71  C   UNL     1      10.342   8.521   5.798  1.00  0.00     0.148 A 
ATOM     72  C   UNL     1      12.475   6.995   6.739  1.00  0.00     0.002 A 
ATOM     73  C   UNL     1      10.408   8.145   7.145  1.00  0.00     0.091 A 
ATOM     74  F   UNL     1       9.236   9.135   5.378  1.00  0.00    -0.205 F 
ATOM     75  C   UNL     1      11.466   7.366   7.615  1.00  0.00     0.022 A 
BRANCH  73  76
ATOM     76  S   UNL     1       9.148   8.622   8.347  1.00  0.00     0.127 S 
ATOM     77  O   UNL     1       8.499   7.343   8.635  1.00  0.00    -0.237 OA
ATOM     78  O   UNL     1       9.948   9.158   9.448  1.00  0.00    -0.237 OA
ATOM     79  O   UNL     1       8.301   9.607   7.686  1.00  0.00    -0.744 OA
ENDBRANCH  73  76
ENDBRANCH  55  69
BRANCH  56  80
ATOM     80  C   UNL     1      10.426   8.958  -4.677  1.00  0.00     0.023 A 
ATOM     81  C   UNL     1       9.593   8.339  -5.639  1.00  0.00     0.012 A 
ATOM     82  C   UNL     1      10.220  10.316  -4.375  1.00  0.00     0.148 A 
ATOM     83  C   UNL     1       8.474   8.998  -6.147  1.00  0.00     0.002 A 
ATOM     84  C   UNL     1       9.107  10.974  -4.899  1.00  0.00     0.091 A 
ATOM     85  F   UNL     1      11.067  10.924  -3.535  1.00  0.00    -0.205 F 
ATOM     86  C   UNL     1       8.207  10.301  -5.742  1.00  0.00     0.022 A 
BRANCH  84  87
ATOM     87  S   UNL     1       8.685  12.657  -4.424  1.00  0.00     0.127 S 
ATOM     88  O   UNL     1       9.234  13.423  -5.538  1.00  0.00    -0.237 OA
ATOM     89  O   UNL     1       7.223  12.610  -4.369  1.00  0.00    -0.237 OA
ATOM     90  O   UNL     1       9.321  12.852  -3.130  1.00  0.00    -0.744 OA
ENDBRANCH  84  87
ENDBRANCH  56  80
BRANCH  68  91
ATOM     91  C   UNL     1      15.886   9.264   0.198  1.00  0.00     0.023 A 
ATOM     92  C   UNL     1      16.790   9.950  -0.632  1.00  0.00     0.012 A 
ATOM     93  C   UNL     1      16.208   9.286   1.589  1.00  0.00     0.148 A 
ATOM     94  C   UNL     1      17.889  10.666  -0.131  1.00  0.00     0.002 A 
ATOM     95  C   UNL     1      17.260  10.052   2.093  1.00  0.00     0.091 A 
ATOM     96  F   UNL     1      15.538   8.511   2.451  1.00  0.00    -0.205 F 
ATOM     97  C   UNL     1      18.105  10.746   1.233  1.00  0.00     0.022 A 
BRANCH  95  98
ATOM     98  S   UNL     1      17.510  10.252   3.864  1.00  0.00     0.127 S 
ATOM     99  O   UNL     1      18.542   9.253   4.136  1.00  0.00    -0.237 OA
ATOM    100  O   UNL     1      17.967  11.640   3.959  1.00  0.00    -0.237 OA
ATOM    101  O   UNL     1      16.206  10.011   4.466  1.00  0.00    -0.744 OA
ENDBRANCH  95  98
ENDBRANCH  68  91
ENDBRANCH  42  43
ENDBRANCH  34  37
ENDBRANCH  32  33
ENDBRANCH  31  32
ENDBRANCH   1  31
TORSDOF 18
