REMARK SMILES CC[C@]1(C(=O)NCCCNC(=O)c2ccc(-c3c4nc(c(-c5cccc(S(=O)(=O)[O-])c5F)c5ccc([nH]5)c(-c5cccc(S(=O)(=O)[O-])c5F)c5nc(c(-c6cccc(S(=O)(=O)[O-])c6F)c6ccc3[nH]6)C=C5)C=C4)cc2)CC[N@@H+](Cc2ccc(CC(C)C)cc2)C1
REMARK SMILES IDX 7 1 6 2 4 3 5 4 3 6 76 7 90 8 77 9 78 10 2 12 1 13 79 14
REMARK SMILES IDX 80 15 81 16 89 17 82 18 88 19 83 20 84 21 85 22 86 23 87 24
REMARK SMILES IDX 8 25 9 26 10 27 11 28 12 30 13 31 14 32 75 33 15 34 74 35
REMARK SMILES IDX 16 36 17 37 18 38 68 39 19 40 73 41 67 42 69 43 20 44 72 45
REMARK SMILES IDX 66 46 65 47 21 49 53 50 33 51 52 52 34 53 37 54 51 55 70 56
REMARK SMILES IDX 35 57 36 58 50 60 71 61 38 62 22 63 23 64 31 65 24 66 26 67
REMARK SMILES IDX 32 68 25 69 27 70 28 71 29 72 30 73 54 74 55 75 63 76 56 77
REMARK SMILES IDX 58 78 64 79 57 80 59 81 60 82 61 83 62 84 39 85 40 86 48 87
REMARK SMILES IDX 41 88 43 89 49 90 42 91 44 92 45 93 46 94 47 95
REMARK H PARENT 6 5 78 11 10 29 69 48 37 59
REMARK Flexibility Score: inf
ROOT
ATOM      1  C   UNL     1       2.454  -2.138   5.288  1.00  0.00     0.117 C 
ENDROOT
BRANCH   1   2
ATOM      2  N   UNL     1       1.219  -2.174   4.463  1.00  0.00    -0.355 N 
ATOM      3  C   UNL     1       0.752  -1.793   3.226  1.00  0.00     0.232 C 
ATOM      4  O   UNL     1      -0.349  -2.321   2.975  1.00  0.00    -0.274 OA
ATOM      5  H   UNL     1       0.497  -2.614   4.968  1.00  0.00     0.163 HD
BRANCH   3   6
ATOM      6  C   UNL     1       1.325  -0.754   2.144  1.00  0.00     0.103 C 
ATOM      7  C   UNL     1       0.473   0.554   2.056  1.00  0.00     0.084 C 
ATOM      8  C   UNL     1       2.753  -0.208   2.361  1.00  0.00     0.279 C 
ATOM      9  C   UNL     1       1.473   1.707   1.905  1.00  0.00     0.263 C 
ATOM     10  N   UNL     1       2.709   1.259   2.538  1.00  0.00    -0.330 N 
ATOM     11  H   UNL     1       3.542   1.640   2.088  1.00  0.00     0.348 HD
BRANCH   6  12
ATOM     12  C   UNL     1       1.135  -1.469   0.748  1.00  0.00     0.020 C 
ATOM     13  C   UNL     1       1.411  -0.668  -0.529  1.00  0.00     0.005 C 
ENDBRANCH   6  12
BRANCH  10  14
ATOM     14  C   UNL     1       2.962   1.840   3.891  1.00  0.00     0.299 C 
BRANCH  14  15
ATOM     15  C   UNL     1       1.779   1.969   4.834  1.00  0.00     0.006 A 
ATOM     16  C   UNL     1       1.392   3.083   5.565  1.00  0.00     0.010 A 
ATOM     17  C   UNL     1       0.994   0.849   5.005  1.00  0.00     0.010 A 
ATOM     18  C   UNL     1       0.195   3.049   6.321  1.00  0.00     0.004 A 
ATOM     19  C   UNL     1      -0.200   0.783   5.683  1.00  0.00     0.004 A 
ATOM     20  C   UNL     1      -0.630   1.909   6.340  1.00  0.00    -0.048 A 
BRANCH  20  21
ATOM     21  C   UNL     1      -1.929   1.793   7.086  1.00  0.00     0.038 C 
BRANCH  21  22
ATOM     22  C   UNL     1      -1.709   1.236   8.496  1.00  0.00    -0.013 C 
ATOM     23  C   UNL     1      -1.071   2.317   9.364  1.00  0.00     0.008 C 
ATOM     24  C   UNL     1      -3.028   0.728   9.076  1.00  0.00     0.008 C 
ENDBRANCH  21  22
ENDBRANCH  20  21
ENDBRANCH  14  15
ENDBRANCH  10  14
ENDBRANCH   3   6
ENDBRANCH   1   2
BRANCH   1  25
ATOM     25  C   UNL     1       2.534  -1.329   6.633  1.00  0.00     0.042 C 
BRANCH  25  26
ATOM     26  C   UNL     1       1.501  -1.532   7.778  1.00  0.00     0.118 C 
BRANCH  26  27
ATOM     27  N   UNL     1       2.168  -2.031   8.993  1.00  0.00    -0.352 N 
ATOM     28  C   UNL     1       2.422  -1.455  10.223  1.00  0.00     0.251 C 
ATOM     29  H   UNL     1       2.498  -2.955   8.913  1.00  0.00     0.163 HD
ATOM     30  O   UNL     1       3.447  -1.814  10.807  1.00  0.00    -0.269 OA
BRANCH  28  31
ATOM     31  C   UNL     1       1.506  -0.515  10.939  1.00  0.00     0.039 A 
ATOM     32  C   UNL     1       2.046   0.452  11.804  1.00  0.00     0.014 A 
ATOM     33  C   UNL     1       0.129  -0.704  10.971  1.00  0.00     0.014 A 
ATOM     34  C   UNL     1       1.221   1.251  12.633  1.00  0.00     0.010 A 
ATOM     35  C   UNL     1      -0.688   0.117  11.788  1.00  0.00     0.010 A 
ATOM     36  C   UNL     1      -0.180   1.139  12.614  1.00  0.00    -0.014 A 
BRANCH  36  37
ATOM     37  C   UNL     1      -1.077   2.128  13.356  1.00  0.00     0.031 A 
ATOM     38  C   UNL     1      -2.281   1.708  14.197  1.00  0.00     0.074 A 
ATOM     39  C   UNL     1      -0.916   3.467  13.186  1.00  0.00     0.049 A 
ATOM     40  N   UNL     1      -3.099   2.454  14.910  1.00  0.00    -0.248 NA
ATOM     41  C   UNL     1      -2.656   0.287  14.196  1.00  0.00     0.031 C 
ATOM     42  C   UNL     1       0.033   4.101  12.267  1.00  0.00     0.029 A 
ATOM     43  N   UNL     1      -1.571   4.546  13.754  1.00  0.00    -0.354 N 
ATOM     44  C   UNL     1      -4.097   1.608  15.391  1.00  0.00     0.074 A 
ATOM     45  C   UNL     1      -3.821   0.303  14.830  1.00  0.00     0.031 C 
ATOM     46  C   UNL     1      -0.084   5.436  12.347  1.00  0.00     0.029 A 
ATOM     47  C   UNL     1      -1.116   5.775  13.321  1.00  0.00     0.049 A 
ATOM     48  H   UNL     1      -2.298   4.445  14.409  1.00  0.00     0.167 HD
ATOM     49  C   UNL     1      -5.117   1.853  16.258  1.00  0.00     0.034 A 
ATOM     50  C   UNL     1      -1.454   7.037  13.665  1.00  0.00     0.034 A 
ATOM     51  C   UNL     1      -5.371   3.122  16.893  1.00  0.00     0.049 A 
ATOM     52  C   UNL     1      -2.475   7.283  14.745  1.00  0.00     0.074 A 
ATOM     53  C   UNL     1      -6.251   3.409  17.926  1.00  0.00     0.029 A 
ATOM     54  N   UNL     1      -4.768   4.318  16.549  1.00  0.00    -0.354 N 
ATOM     55  N   UNL     1      -3.208   6.419  15.399  1.00  0.00    -0.248 NA
ATOM     56  C   UNL     1      -2.671   8.678  15.177  1.00  0.00     0.031 C 
ATOM     57  C   UNL     1      -6.203   4.785  18.181  1.00  0.00     0.029 A 
ATOM     58  C   UNL     1      -5.264   5.348  17.335  1.00  0.00     0.049 A 
ATOM     59  H   UNL     1      -4.085   4.423  15.848  1.00  0.00     0.167 HD
ATOM     60  C   UNL     1      -3.923   7.157  16.339  1.00  0.00     0.074 A 
ATOM     61  C   UNL     1      -3.511   8.535  16.192  1.00  0.00     0.031 C 
ATOM     62  C   UNL     1      -4.845   6.722  17.234  1.00  0.00     0.034 A 
BRANCH  49  63
ATOM     63  C   UNL     1      -6.001   0.688  16.662  1.00  0.00     0.023 A 
ATOM     64  C   UNL     1      -5.450  -0.368  17.419  1.00  0.00     0.012 A 
ATOM     65  C   UNL     1      -7.381   0.669  16.370  1.00  0.00     0.148 A 
ATOM     66  C   UNL     1      -6.234  -1.449  17.821  1.00  0.00     0.002 A 
ATOM     67  C   UNL     1      -8.170  -0.385  16.824  1.00  0.00     0.091 A 
ATOM     68  F   UNL     1      -7.900   1.677  15.654  1.00  0.00    -0.205 F 
ATOM     69  C   UNL     1      -7.594  -1.453  17.532  1.00  0.00     0.022 A 
BRANCH  67  70
ATOM     70  S   UNL     1      -9.952  -0.446  16.596  1.00  0.00     0.127 S 
ATOM     71  O   UNL     1     -10.088  -1.513  15.609  1.00  0.00    -0.237 OA
ATOM     72  O   UNL     1     -10.423  -0.789  17.936  1.00  0.00    -0.237 OA
ATOM     73  O   UNL     1     -10.343   0.885  16.138  1.00  0.00    -0.744 OA
ENDBRANCH  67  70
ENDBRANCH  49  63
BRANCH  50  74
ATOM     74  C   UNL     1      -0.726   8.193  13.056  1.00  0.00     0.023 A 
ATOM     75  C   UNL     1       0.202   8.913  13.837  1.00  0.00     0.012 A 
ATOM     76  C   UNL     1      -0.928   8.568  11.715  1.00  0.00     0.148 A 
ATOM     77  C   UNL     1       0.888  10.005  13.305  1.00  0.00     0.002 A 
ATOM     78  C   UNL     1      -0.199   9.621  11.173  1.00  0.00     0.091 A 
ATOM     79  F   UNL     1      -1.820   7.877  10.991  1.00  0.00    -0.205 F 
ATOM     80  C   UNL     1       0.695  10.353  11.971  1.00  0.00     0.022 A 
BRANCH  78  81
ATOM     81  S   UNL     1      -0.274  10.062   9.434  1.00  0.00     0.127 S 
ATOM     82  O   UNL     1      -0.885  11.385   9.484  1.00  0.00    -0.237 OA
ATOM     83  O   UNL     1       1.140  10.047   9.060  1.00  0.00    -0.237 OA
ATOM     84  O   UNL     1      -1.075   9.021   8.797  1.00  0.00    -0.744 OA
ENDBRANCH  78  81
ENDBRANCH  50  74
BRANCH  62  85
ATOM     85  C   UNL     1      -5.465   7.739  18.163  1.00  0.00     0.023 A 
ATOM     86  C   UNL     1      -6.332   8.728  17.654  1.00  0.00     0.012 A 
ATOM     87  C   UNL     1      -5.217   7.696  19.550  1.00  0.00     0.148 A 
ATOM     88  C   UNL     1      -6.898   9.684  18.498  1.00  0.00     0.002 A 
ATOM     89  C   UNL     1      -5.826   8.620  20.393  1.00  0.00     0.091 A 
ATOM     90  F   UNL     1      -4.376   6.764  20.022  1.00  0.00    -0.205 F 
ATOM     91  C   UNL     1      -6.652   9.625  19.867  1.00  0.00     0.022 A 
BRANCH  89  92
ATOM     92  S   UNL     1      -5.642   8.560  22.180  1.00  0.00     0.127 S 
ATOM     93  O   UNL     1      -4.730   9.676  22.424  1.00  0.00    -0.237 OA
ATOM     94  O   UNL     1      -7.012   8.780  22.643  1.00  0.00    -0.237 OA
ATOM     95  O   UNL     1      -5.110   7.237  22.482  1.00  0.00    -0.744 OA
ENDBRANCH  89  92
ENDBRANCH  62  85
ENDBRANCH  36  37
ENDBRANCH  28  31
ENDBRANCH  26  27
ENDBRANCH  25  26
ENDBRANCH   1  25
TORSDOF 18
