REMARK SMILES Cc1ccc(C)c(OCc2ccc(C(=O)NCCCNC(=O)c3ccc(-c4c5nc(c(-c6cccc(S(=O)(=O)[O-])c6F)c6ccc([nH]6)c(-c6cccc(S(=O)(=O)[O-])c6F)c6nc(c(-c7cccc(S(=O)(=O)[O-])c7F)c7ccc4[nH]7)C=C6)C=C5)cc3)cc2)c1C
REMARK SMILES IDX 18 1 17 2 16 3 14 4 15 5 13 7 10 8 11 9 87 10 12 11 86 12
REMARK SMILES IDX 9 13 8 14 7 15 1 16 2 17 3 18 88 19 4 20 89 21 5 22 6 23
REMARK SMILES IDX 19 24 20 25 21 26 22 28 23 29 24 30 85 31 25 32 84 33 26 34
REMARK SMILES IDX 27 35 28 36 78 37 29 38 83 39 77 40 79 41 30 42 82 43 76 44
REMARK SMILES IDX 75 45 31 47 63 48 43 49 62 50 44 51 47 52 61 53 80 54 45 55
REMARK SMILES IDX 46 56 60 58 81 59 48 60 32 61 33 62 41 63 34 64 36 65 42 66
REMARK SMILES IDX 35 67 37 68 38 69 39 70 40 71 64 72 65 73 73 74 66 75 68 76
REMARK SMILES IDX 74 77 67 78 69 79 70 80 71 81 72 82 49 83 50 84 58 85 51 86
REMARK SMILES IDX 53 87 59 88 52 89 54 90 55 91 56 92 57 93
REMARK H PARENT 16 6 20 27 79 46 47 57
REMARK Flexibility Score: inf
ROOT
ATOM      1  C   UNL     1       5.002   3.746   6.738  1.00  0.00     0.042 C 
ENDROOT
BRANCH   1   2
ATOM      2  C   UNL     1       5.832   2.832   5.841  1.00  0.00     0.118 C 
BRANCH   2   3
ATOM      3  N   UNL     1       5.325   1.477   5.879  1.00  0.00    -0.352 N 
ATOM      4  C   UNL     1       4.347   0.827   5.179  1.00  0.00     0.251 C 
ATOM      5  O   UNL     1       4.114  -0.335   5.521  1.00  0.00    -0.269 OA
ATOM      6  H   UNL     1       5.776   0.909   6.545  1.00  0.00     0.163 HD
BRANCH   4   7
ATOM      7  C   UNL     1       3.632   1.397   3.999  1.00  0.00     0.039 A 
ATOM      8  C   UNL     1       2.489   2.168   1.503  1.00  0.00    -0.011 A 
ATOM      9  C   UNL     1       2.440   0.846   1.949  1.00  0.00     0.008 A 
ATOM     10  C   UNL     1       3.020   3.118   2.388  1.00  0.00     0.008 A 
ATOM     11  C   UNL     1       3.007   0.465   3.167  1.00  0.00     0.014 A 
ATOM     12  C   UNL     1       3.562   2.740   3.626  1.00  0.00     0.014 A 
BRANCH   8  13
ATOM     13  C   UNL     1       2.192   2.586   0.069  1.00  0.00     0.265 C 
BRANCH  13  14
ATOM     14  O   UNL     1       0.990   2.188  -0.593  1.00  0.00    -0.488 OA
BRANCH  14  15
ATOM     15  C   UNL     1       0.631   0.873  -0.678  1.00  0.00     0.125 A 
ATOM     16  C   UNL     1      -2.620  -1.014   0.107  1.00  0.00     0.045 C 
ATOM     17  C   UNL     1      -1.201  -0.695  -0.276  1.00  0.00    -0.044 A 
ATOM     18  C   UNL     1      -0.324  -1.747  -0.562  1.00  0.00     0.004 A 
ATOM     19  C   UNL     1      -0.729   0.630  -0.358  1.00  0.00    -0.006 A 
ATOM     20  C   UNL     1       0.987  -1.494  -0.965  1.00  0.00     0.007 A 
ATOM     21  C   UNL     1      -1.625   1.810  -0.060  1.00  0.00     0.049 C 
ATOM     22  C   UNL     1       1.476  -0.182  -1.066  1.00  0.00    -0.009 A 
ATOM     23  C   UNL     1       2.892   0.000  -1.530  1.00  0.00     0.048 C 
ENDBRANCH  14  15
ENDBRANCH  13  14
ENDBRANCH   8  13
ENDBRANCH   4   7
ENDBRANCH   2   3
ENDBRANCH   1   2
BRANCH   1  24
ATOM     24  C   UNL     1       5.125   3.397   8.218  1.00  0.00     0.118 C 
BRANCH  24  25
ATOM     25  N   UNL     1       6.474   3.629   8.712  1.00  0.00    -0.352 N 
ATOM     26  C   UNL     1       6.912   4.503   9.672  1.00  0.00     0.251 C 
ATOM     27  H   UNL     1       7.175   3.078   8.294  1.00  0.00     0.163 HD
ATOM     28  O   UNL     1       8.110   4.766   9.746  1.00  0.00    -0.269 OA
BRANCH  26  29
ATOM     29  C   UNL     1       5.955   5.115  10.618  1.00  0.00     0.039 A 
ATOM     30  C   UNL     1       6.139   6.447  10.997  1.00  0.00     0.014 A 
ATOM     31  C   UNL     1       4.917   4.362  11.177  1.00  0.00     0.014 A 
ATOM     32  C   UNL     1       5.266   7.030  11.917  1.00  0.00     0.010 A 
ATOM     33  C   UNL     1       4.005   4.965  12.036  1.00  0.00     0.010 A 
ATOM     34  C   UNL     1       4.186   6.297  12.434  1.00  0.00    -0.014 A 
BRANCH  34  35
ATOM     35  C   UNL     1       3.243   6.907  13.402  1.00  0.00     0.031 A 
ATOM     36  C   UNL     1       3.157   6.386  14.810  1.00  0.00     0.074 A 
ATOM     37  C   UNL     1       2.418   7.887  12.989  1.00  0.00     0.049 A 
ATOM     38  N   UNL     1       2.404   6.798  15.797  1.00  0.00    -0.248 NA
ATOM     39  C   UNL     1       4.009   5.233  15.148  1.00  0.00     0.031 C 
ATOM     40  C   UNL     1       2.351   8.415  11.626  1.00  0.00     0.029 A 
ATOM     41  N   UNL     1       1.469   8.604  13.672  1.00  0.00    -0.354 N 
ATOM     42  C   UNL     1       2.664   5.938  16.858  1.00  0.00     0.074 A 
ATOM     43  C   UNL     1       3.614   4.956  16.382  1.00  0.00     0.031 C 
ATOM     44  C   UNL     1       1.429   9.389  11.577  1.00  0.00     0.029 A 
ATOM     45  C   UNL     1       0.827   9.541  12.898  1.00  0.00     0.049 A 
ATOM     46  H   UNL     1       1.267   8.461  14.624  1.00  0.00     0.167 HD
ATOM     47  C   UNL     1       2.185   5.982  18.124  1.00  0.00     0.034 A 
ATOM     48  C   UNL     1      -0.128  10.433  13.223  1.00  0.00     0.034 A 
ATOM     49  C   UNL     1       1.276   6.990  18.601  1.00  0.00     0.049 A 
ATOM     50  C   UNL     1      -0.606  10.499  14.647  1.00  0.00     0.074 A 
ATOM     51  C   UNL     1       0.802   7.188  19.885  1.00  0.00     0.029 A 
ATOM     52  N   UNL     1       0.698   7.970  17.807  1.00  0.00    -0.354 N 
ATOM     53  N   UNL     1      -0.222   9.789  15.681  1.00  0.00    -0.248 NA
ATOM     54  C   UNL     1      -1.620  11.515  14.958  1.00  0.00     0.031 C 
ATOM     55  C   UNL     1      -0.075   8.279  19.864  1.00  0.00     0.029 A 
ATOM     56  C   UNL     1      -0.136   8.770  18.569  1.00  0.00     0.049 A 
ATOM     57  H   UNL     1       0.857   8.080  16.842  1.00  0.00     0.167 HD
ATOM     58  C   UNL     1      -0.923  10.290  16.770  1.00  0.00     0.074 A 
ATOM     59  C   UNL     1      -1.738  11.382  16.272  1.00  0.00     0.031 C 
ATOM     60  C   UNL     1      -0.908   9.877  18.063  1.00  0.00     0.034 A 
BRANCH  47  61
ATOM     61  C   UNL     1       2.690   4.941  19.091  1.00  0.00     0.023 A 
ATOM     62  C   UNL     1       4.029   4.997  19.532  1.00  0.00     0.012 A 
ATOM     63  C   UNL     1       1.850   3.919  19.573  1.00  0.00     0.148 A 
ATOM     64  C   UNL     1       4.536   4.029  20.398  1.00  0.00     0.002 A 
ATOM     65  C   UNL     1       2.352   2.981  20.471  1.00  0.00     0.091 A 
ATOM     66  F   UNL     1       0.587   3.860  19.126  1.00  0.00    -0.205 F 
ATOM     67  C   UNL     1       3.696   3.026  20.873  1.00  0.00     0.022 A 
BRANCH  65  68
ATOM     68  S   UNL     1       1.319   1.700  21.193  1.00  0.00     0.127 S 
ATOM     69  O   UNL     1       1.669   0.541  20.374  1.00  0.00    -0.237 OA
ATOM     70  O   UNL     1       1.809   1.642  22.571  1.00  0.00    -0.237 OA
ATOM     71  O   UNL     1      -0.049   2.180  21.062  1.00  0.00    -0.744 OA
ENDBRANCH  65  68
ENDBRANCH  47  61
BRANCH  48  72
ATOM     72  C   UNL     1      -0.598  11.410  12.202  1.00  0.00     0.023 A 
ATOM     73  C   UNL     1      -0.195  12.755  12.311  1.00  0.00     0.012 A 
ATOM     74  C   UNL     1      -1.376  11.011  11.098  1.00  0.00     0.148 A 
ATOM     75  C   UNL     1      -0.574  13.691  11.349  1.00  0.00     0.002 A 
ATOM     76  C   UNL     1      -1.707  11.939  10.116  1.00  0.00     0.091 A 
ATOM     77  F   UNL     1      -1.753   9.728  11.017  1.00  0.00    -0.205 F 
ATOM     78  C   UNL     1      -1.319  13.282  10.248  1.00  0.00     0.022 A 
BRANCH  76  79
ATOM     79  S   UNL     1      -2.551  11.480   8.598  1.00  0.00     0.127 S 
ATOM     80  O   UNL     1      -3.842  12.147   8.761  1.00  0.00    -0.237 OA
ATOM     81  O   UNL     1      -1.678  12.071   7.580  1.00  0.00    -0.237 OA
ATOM     82  O   UNL     1      -2.588  10.028   8.589  1.00  0.00    -0.744 OA
ENDBRANCH  76  79
ENDBRANCH  48  72
BRANCH  60  83
ATOM     83  C   UNL     1      -1.793  10.616  19.032  1.00  0.00     0.023 A 
ATOM     84  C   UNL     1      -3.188  10.426  18.985  1.00  0.00     0.012 A 
ATOM     85  C   UNL     1      -1.243  11.454  20.022  1.00  0.00     0.148 A 
ATOM     86  C   UNL     1      -4.025  11.086  19.883  1.00  0.00     0.002 A 
ATOM     87  C   UNL     1      -2.080  12.072  20.944  1.00  0.00     0.091 A 
ATOM     88  F   UNL     1       0.085  11.642  20.039  1.00  0.00    -0.205 F 
ATOM     89  C   UNL     1      -3.471  11.899  20.869  1.00  0.00     0.022 A 
BRANCH  87  90
ATOM     90  S   UNL     1      -1.438  13.060  22.300  1.00  0.00     0.127 S 
ATOM     91  O   UNL     1      -1.648  14.419  21.806  1.00  0.00    -0.237 OA
ATOM     92  O   UNL     1      -2.309  12.674  23.412  1.00  0.00    -0.237 OA
ATOM     93  O   UNL     1      -0.048  12.654  22.460  1.00  0.00    -0.744 OA
ENDBRANCH  87  90
ENDBRANCH  60  83
ENDBRANCH  34  35
ENDBRANCH  26  29
ENDBRANCH  24  25
ENDBRANCH   1  24
TORSDOF 16
