REMARK SMILES Cc1ccc(-c2nc(NC(=O)[C@H]3[C@@H](C(=O)NCCCNC(=O)c4ccc(-c5c6nc(c(-c7cccc(S(=O)(=O)[O-])c7F)c7ccc([nH]7)c(-c7cccc(S(=O)(=O)[O-])c7F)c7nc(c(-c8cccc(S(=O)(=O)[O-])c8F)c8ccc5[nH]8)C=C7)C=C6)cc4)[C@@H]4CC[C@H]3O4)sc2C)cc1
REMARK SMILES IDX 18 1 17 2 16 3 14 4 15 5 13 7 12 8 89 9 86 10 88 11 90 12
REMARK SMILES IDX 87 13 10 14 9 15 11 17 8 18 6 19 7 20 92 21 91 22 93 23 5 24
REMARK SMILES IDX 1 25 2 26 3 27 95 28 4 29 94 30 19 31 20 32 21 33 22 35
REMARK SMILES IDX 23 36 24 37 85 38 25 39 84 40 26 41 27 42 28 43 78 44 29 45
REMARK SMILES IDX 83 46 77 47 79 48 30 49 82 50 76 51 75 52 31 54 63 55 43 56
REMARK SMILES IDX 62 57 44 58 47 59 61 60 80 61 45 62 46 63 60 65 81 66 48 67
REMARK SMILES IDX 32 68 33 69 41 70 34 71 36 72 42 73 35 74 37 75 38 76 39 77
REMARK SMILES IDX 40 78 64 79 65 80 73 81 66 82 68 83 74 84 67 85 69 86 70 87
REMARK SMILES IDX 71 88 72 89 49 90 50 91 58 92 51 93 53 94 59 95 52 96 54 97
REMARK SMILES IDX 55 98 56 99 57 100
REMARK H PARENT 16 6 9 16 20 34 79 53 47 64
REMARK Flexibility Score: inf
ROOT
ATOM      1  C   UNL     1      -5.978  -0.984   1.198  1.00  0.00     0.042 C 
ENDROOT
BRANCH   1   2
ATOM      2  C   UNL     1      -6.843  -0.545   2.366  1.00  0.00     0.117 C 
BRANCH   2   3
ATOM      3  N   UNL     1      -7.722   0.593   2.187  1.00  0.00    -0.356 N 
ATOM      4  C   UNL     1      -9.013   0.590   1.730  1.00  0.00     0.226 C 
ATOM      5  O   UNL     1      -9.881   1.160   2.393  1.00  0.00    -0.275 OA
ATOM      6  H   UNL     1      -7.347   1.473   2.421  1.00  0.00     0.163 HD
BRANCH   4   7
ATOM      7  C   UNL     1      -9.326  -0.130   0.455  1.00  0.00     0.122 C 
ATOM      8  C   UNL     1      -8.583  -0.015  -0.886  1.00  0.00     0.123 C 
ATOM      9  C   UNL     1      -9.724  -0.546  -1.795  1.00  0.00     0.132 C 
ATOM     10  C   UNL     1     -10.813  -0.032   0.006  1.00  0.00     0.132 C 
ATOM     11  C   UNL     1     -10.334  -1.900  -1.315  1.00  0.00     0.035 C 
ATOM     12  O   UNL     1     -10.743   0.388  -1.383  1.00  0.00    -0.373 OA
ATOM     13  C   UNL     1     -11.321  -1.449  -0.224  1.00  0.00     0.035 C 
BRANCH   8  14
ATOM     14  C   UNL     1      -7.849   1.101  -1.712  1.00  0.00     0.232 C 
ATOM     15  N   UNL     1      -7.776   2.454  -1.709  1.00  0.00    -0.302 N 
ATOM     16  H   UNL     1      -7.418   2.792  -2.561  1.00  0.00     0.172 HD
ATOM     17  O   UNL     1      -7.207   0.622  -2.678  1.00  0.00    -0.274 OA
BRANCH  15  18
ATOM     18  C   UNL     1      -8.062   3.480  -0.852  1.00  0.00     0.190 A 
ATOM     19  C   UNL     1      -8.417   5.489   0.059  1.00  0.00     0.086 A 
ATOM     20  N   UNL     1      -7.914   4.780  -1.060  1.00  0.00    -0.220 NA
ATOM     21  C   UNL     1      -9.142   4.671   0.910  1.00  0.00     0.031 A 
ATOM     22  S   UNL     1      -8.506   3.131   0.701  1.00  0.00    -0.101 S 
ATOM     23  C   UNL     1     -10.174   4.862   1.954  1.00  0.00     0.059 C 
BRANCH  19  24
ATOM     24  C   UNL     1      -8.236   6.917   0.335  1.00  0.00     0.001 A 
ATOM     25  C   UNL     1      -7.953  11.118   1.373  1.00  0.00     0.044 C 
ATOM     26  C   UNL     1      -8.022   9.664   1.012  1.00  0.00    -0.051 A 
ATOM     27  C   UNL     1      -7.968   9.238  -0.325  1.00  0.00     0.004 A 
ATOM     28  C   UNL     1      -8.121   8.704   2.015  1.00  0.00     0.004 A 
ATOM     29  C   UNL     1      -8.074   7.875  -0.664  1.00  0.00     0.010 A 
ATOM     30  C   UNL     1      -8.200   7.355   1.677  1.00  0.00     0.010 A 
ENDBRANCH  19  24
ENDBRANCH  15  18
ENDBRANCH   8  14
ENDBRANCH   4   7
ENDBRANCH   2   3
ENDBRANCH   1   2
BRANCH   1  31
ATOM     31  C   UNL     1      -5.162   0.110   0.530  1.00  0.00     0.118 C 
BRANCH  31  32
ATOM     32  N   UNL     1      -3.882   0.265   1.185  1.00  0.00    -0.352 N 
ATOM     33  C   UNL     1      -2.659  -0.057   0.614  1.00  0.00     0.251 C 
ATOM     34  H   UNL     1      -3.878   0.625   2.101  1.00  0.00     0.163 HD
ATOM     35  O   UNL     1      -1.930  -0.850   1.163  1.00  0.00    -0.269 OA
BRANCH  33  36
ATOM     36  C   UNL     1      -2.204   0.819  -0.502  1.00  0.00     0.039 A 
ATOM     37  C   UNL     1      -0.900   1.330  -0.410  1.00  0.00     0.014 A 
ATOM     38  C   UNL     1      -3.096   1.339  -1.437  1.00  0.00     0.014 A 
ATOM     39  C   UNL     1      -0.567   2.498  -1.093  1.00  0.00     0.010 A 
ATOM     40  C   UNL     1      -2.776   2.497  -2.098  1.00  0.00     0.010 A 
ATOM     41  C   UNL     1      -1.553   3.120  -1.848  1.00  0.00    -0.014 A 
BRANCH  41  42
ATOM     42  C   UNL     1      -1.463   4.445  -2.424  1.00  0.00     0.031 A 
ATOM     43  C   UNL     1      -0.852   4.616  -3.753  1.00  0.00     0.074 A 
ATOM     44  C   UNL     1      -2.183   5.424  -1.830  1.00  0.00     0.049 A 
ATOM     45  N   UNL     1      -0.584   5.758  -4.282  1.00  0.00    -0.248 NA
ATOM     46  C   UNL     1      -0.461   3.484  -4.588  1.00  0.00     0.031 C 
ATOM     47  C   UNL     1      -2.617   6.684  -2.418  1.00  0.00     0.029 A 
ATOM     48  N   UNL     1      -2.570   5.548  -0.489  1.00  0.00    -0.354 N 
ATOM     49  C   UNL     1      -0.290   5.536  -5.610  1.00  0.00     0.074 A 
ATOM     50  C   UNL     1      -0.077   4.114  -5.703  1.00  0.00     0.031 C 
ATOM     51  C   UNL     1      -2.907   7.542  -1.425  1.00  0.00     0.029 A 
ATOM     52  C   UNL     1      -2.442   6.916  -0.200  1.00  0.00     0.049 A 
ATOM     53  H   UNL     1      -2.868   4.832   0.118  1.00  0.00     0.167 HD
ATOM     54  C   UNL     1      -0.430   6.574  -6.482  1.00  0.00     0.034 A 
ATOM     55  C   UNL     1      -1.464   7.432   0.610  1.00  0.00     0.034 A 
ATOM     56  C   UNL     1      -0.653   7.832  -5.744  1.00  0.00     0.049 A 
ATOM     57  C   UNL     1      -0.593   8.473  -0.085  1.00  0.00     0.074 A 
ATOM     58  C   UNL     1      -1.783   8.584  -5.468  1.00  0.00     0.029 A 
ATOM     59  N   UNL     1       0.349   8.312  -4.904  1.00  0.00    -0.354 N 
ATOM     60  N   UNL     1      -0.565   8.663  -1.377  1.00  0.00    -0.248 NA
ATOM     61  C   UNL     1       0.310   9.384   0.614  1.00  0.00     0.031 C 
ATOM     62  C   UNL     1      -1.478   9.448  -4.378  1.00  0.00     0.029 A 
ATOM     63  C   UNL     1      -0.153   9.257  -4.021  1.00  0.00     0.049 A 
ATOM     64  H   UNL     1       1.289   8.021  -4.933  1.00  0.00     0.167 HD
ATOM     65  C   UNL     1       0.378   9.601  -1.706  1.00  0.00     0.074 A 
ATOM     66  C   UNL     1       0.843  10.075  -0.411  1.00  0.00     0.031 C 
ATOM     67  C   UNL     1       0.718   9.860  -3.010  1.00  0.00     0.034 A 
BRANCH  54  68
ATOM     68  C   UNL     1      -0.622   6.467  -7.995  1.00  0.00     0.023 A 
ATOM     69  C   UNL     1      -0.992   7.649  -8.679  1.00  0.00     0.012 A 
ATOM     70  C   UNL     1      -0.570   5.298  -8.794  1.00  0.00     0.148 A 
ATOM     71  C   UNL     1      -1.342   7.664 -10.037  1.00  0.00     0.002 A 
ATOM     72  C   UNL     1      -0.908   5.309 -10.153  1.00  0.00     0.091 A 
ATOM     73  F   UNL     1      -0.206   4.134  -8.265  1.00  0.00    -0.205 F 
ATOM     74  C   UNL     1      -1.308   6.491 -10.775  1.00  0.00     0.022 A 
BRANCH  72  75
ATOM     75  S   UNL     1      -0.881   3.818 -11.173  1.00  0.00     0.127 S 
ATOM     76  O   UNL     1      -2.285   3.689 -11.563  1.00  0.00    -0.237 OA
ATOM     77  O   UNL     1       0.018   4.201 -12.262  1.00  0.00    -0.237 OA
ATOM     78  O   UNL     1      -0.384   2.740 -10.327  1.00  0.00    -0.744 OA
ENDBRANCH  72  75
ENDBRANCH  54  68
BRANCH  55  79
ATOM     79  C   UNL     1      -1.009   6.491   1.680  1.00  0.00     0.023 A 
ATOM     80  C   UNL     1      -1.994   6.062   2.604  1.00  0.00     0.012 A 
ATOM     81  C   UNL     1       0.178   5.746   1.565  1.00  0.00     0.148 A 
ATOM     82  C   UNL     1      -1.883   4.832   3.253  1.00  0.00     0.002 A 
ATOM     83  C   UNL     1       0.290   4.525   2.234  1.00  0.00     0.091 A 
ATOM     84  F   UNL     1       1.153   6.205   0.770  1.00  0.00    -0.205 F 
ATOM     85  C   UNL     1      -0.760   4.044   3.033  1.00  0.00     0.022 A 
BRANCH  83  86
ATOM     86  S   UNL     1       1.725   3.459   2.023  1.00  0.00     0.127 S 
ATOM     87  O   UNL     1       2.563   3.871   3.145  1.00  0.00    -0.237 OA
ATOM     88  O   UNL     1       1.149   2.120   2.151  1.00  0.00    -0.237 OA
ATOM     89  O   UNL     1       2.227   3.766   0.692  1.00  0.00    -0.744 OA
ENDBRANCH  83  86
ENDBRANCH  55  79
BRANCH  67  90
ATOM     90  C   UNL     1       1.910  10.691  -3.478  1.00  0.00     0.023 A 
ATOM     91  C   UNL     1       2.978  11.035  -2.628  1.00  0.00     0.012 A 
ATOM     92  C   UNL     1       2.067  11.039  -4.848  1.00  0.00     0.148 A 
ATOM     93  C   UNL     1       4.106  11.730  -3.085  1.00  0.00     0.002 A 
ATOM     94  C   UNL     1       3.242  11.621  -5.321  1.00  0.00     0.091 A 
ATOM     95  F   UNL     1       1.064  10.834  -5.714  1.00  0.00    -0.205 F 
ATOM     96  C   UNL     1       4.251  12.000  -4.437  1.00  0.00     0.022 A 
BRANCH  94  97
ATOM     97  S   UNL     1       3.571  11.750  -7.086  1.00  0.00     0.127 S 
ATOM     98  O   UNL     1       3.119  13.108  -7.381  1.00  0.00    -0.237 OA
ATOM     99  O   UNL     1       5.022  11.565  -7.150  1.00  0.00    -0.237 OA
ATOM    100  O   UNL     1       2.807  10.669  -7.693  1.00  0.00    -0.744 OA
ENDBRANCH  94  97
ENDBRANCH  67  90
ENDBRANCH  41  42
ENDBRANCH  33  36
ENDBRANCH  31  32
ENDBRANCH   1  31
TORSDOF 16
