REMARK SMILES O=C(OCCOC(=O)c1cccc(OS(=O)(=O)c2cccc([N+](=O)[O-])c2)c1)c1ccc(-c2c3nc(c(-c4cccc(S(=O)(=O)[O-])c4F)c4ccc([nH]4)c(-c4cccc(S(=O)(=O)[O-])c4F)c4nc(c(-c5cccc(S(=O)(=O)[O-])c5F)c5ccc2[nH]5)C=C4)C=C3)cc1
REMARK SMILES IDX 5 1 4 2 3 3 2 4 1 5 28 6 29 7 90 8 30 9 89 10 31 11 32 12
REMARK SMILES IDX 33 13 83 14 34 15 88 16 82 17 84 18 35 19 87 20 81 21 80 22
REMARK SMILES IDX 36 24 68 25 48 26 67 27 49 28 52 29 66 30 85 31 50 32 51 33
REMARK SMILES IDX 65 35 86 36 53 37 37 38 38 39 46 40 39 41 41 42 47 43 40 44
REMARK SMILES IDX 42 45 43 46 44 47 45 48 69 49 70 50 78 51 71 52 73 53 79 54
REMARK SMILES IDX 72 55 74 56 75 57 76 58 77 59 54 60 55 61 63 62 56 63 58 64
REMARK SMILES IDX 64 65 57 66 59 67 60 68 61 69 62 70 6 71 7 72 8 73 9 74
REMARK SMILES IDX 10 75 27 76 11 77 13 78 12 79 14 80 15 81 16 82 17 83 18 84
REMARK SMILES IDX 19 85 26 86 20 87 22 88 21 89 23 90 24 91 25 92
REMARK H PARENT 84 23 52 34
REMARK Flexibility Score: inf
ROOT
ATOM      1  C   UNL     1       3.979   1.958   0.860  1.00  0.00     0.275 C 
ENDROOT
BRANCH   1   2
ATOM      2  C   UNL     1       4.062   1.405  -0.567  1.00  0.00     0.275 C 
BRANCH   2   3
ATOM      3  O   UNL     1       2.950   0.581  -0.964  1.00  0.00    -0.458 OA
BRANCH   3   4
ATOM      4  C   UNL     1       2.681  -0.729  -0.753  1.00  0.00     0.338 C 
ATOM      5  O   UNL     1       1.656  -1.194  -1.253  1.00  0.00    -0.246 OA
BRANCH   4   6
ATOM      6  C   UNL     1       3.511  -1.652   0.091  1.00  0.00     0.060 A 
ATOM      7  C   UNL     1       4.823  -1.424   0.501  1.00  0.00     0.016 A 
ATOM      8  C   UNL     1       2.905  -2.859   0.503  1.00  0.00     0.016 A 
ATOM      9  C   UNL     1       5.499  -2.339   1.304  1.00  0.00     0.010 A 
ATOM     10  C   UNL     1       3.570  -3.771   1.337  1.00  0.00     0.010 A 
ATOM     11  C   UNL     1       4.879  -3.510   1.742  1.00  0.00    -0.014 A 
BRANCH  11  12
ATOM     12  C   UNL     1       5.675  -4.446   2.564  1.00  0.00     0.031 A 
ATOM     13  C   UNL     1       6.246  -5.683   1.953  1.00  0.00     0.074 A 
ATOM     14  C   UNL     1       6.082  -4.084   3.794  1.00  0.00     0.049 A 
ATOM     15  N   UNL     1       7.098  -6.526   2.473  1.00  0.00    -0.248 NA
ATOM     16  C   UNL     1       5.866  -5.972   0.564  1.00  0.00     0.031 C 
ATOM     17  C   UNL     1       5.763  -2.812   4.434  1.00  0.00     0.029 A 
ATOM     18  N   UNL     1       6.901  -4.719   4.693  1.00  0.00    -0.354 N 
ATOM     19  C   UNL     1       7.400  -7.420   1.461  1.00  0.00     0.074 A 
ATOM     20  C   UNL     1       6.593  -7.051   0.314  1.00  0.00     0.031 C 
ATOM     21  C   UNL     1       6.395  -2.756   5.613  1.00  0.00     0.029 A 
ATOM     22  C   UNL     1       7.074  -4.014   5.854  1.00  0.00     0.049 A 
ATOM     23  H   UNL     1       7.321  -5.592   4.521  1.00  0.00     0.167 HD
ATOM     24  C   UNL     1       8.301  -8.428   1.470  1.00  0.00     0.034 A 
ATOM     25  C   UNL     1       7.672  -4.333   7.015  1.00  0.00     0.034 A 
ATOM     26  C   UNL     1       9.083  -8.820   2.612  1.00  0.00     0.049 A 
ATOM     27  C   UNL     1       8.423  -5.615   7.111  1.00  0.00     0.074 A 
ATOM     28  C   UNL     1       9.992  -9.858   2.713  1.00  0.00     0.029 A 
ATOM     29  N   UNL     1       9.033  -8.213   3.857  1.00  0.00    -0.354 N 
ATOM     30  N   UNL     1       8.668  -6.478   6.159  1.00  0.00    -0.248 NA
ATOM     31  C   UNL     1       9.013  -5.952   8.411  1.00  0.00     0.031 C 
ATOM     32  C   UNL     1      10.459  -9.906   4.033  1.00  0.00     0.029 A 
ATOM     33  C   UNL     1       9.875  -8.870   4.742  1.00  0.00     0.049 A 
ATOM     34  H   UNL     1       8.480  -7.430   4.081  1.00  0.00     0.167 HD
ATOM     35  C   UNL     1       9.497  -7.433   6.722  1.00  0.00     0.074 A 
ATOM     36  C   UNL     1       9.689  -7.053   8.110  1.00  0.00     0.031 C 
ATOM     37  C   UNL     1      10.068  -8.505   6.123  1.00  0.00     0.034 A 
BRANCH  24  38
ATOM     38  C   UNL     1       8.468  -9.182   0.185  1.00  0.00     0.023 A 
ATOM     39  C   UNL     1       9.166  -8.594  -0.889  1.00  0.00     0.012 A 
ATOM     40  C   UNL     1       7.933 -10.473   0.048  1.00  0.00     0.148 A 
ATOM     41  C   UNL     1       9.303  -9.275  -2.097  1.00  0.00     0.002 A 
ATOM     42  C   UNL     1       8.109 -11.162  -1.143  1.00  0.00     0.091 A 
ATOM     43  F   UNL     1       7.248 -10.992   1.077  1.00  0.00    -0.205 F 
ATOM     44  C   UNL     1       8.783 -10.561  -2.221  1.00  0.00     0.022 A 
BRANCH  42  45
ATOM     45  S   UNL     1       7.528 -12.842  -1.379  1.00  0.00     0.127 S 
ATOM     46  O   UNL     1       6.542 -12.666  -2.445  1.00  0.00    -0.237 OA
ATOM     47  O   UNL     1       8.753 -13.530  -1.786  1.00  0.00    -0.237 OA
ATOM     48  O   UNL     1       6.983 -13.265  -0.097  1.00  0.00    -0.744 OA
ENDBRANCH  42  45
ENDBRANCH  24  38
BRANCH  25  49
ATOM     49  C   UNL     1       7.480  -3.426   8.181  1.00  0.00     0.023 A 
ATOM     50  C   UNL     1       8.545  -2.696   8.669  1.00  0.00     0.012 A 
ATOM     51  C   UNL     1       6.159  -3.327   8.764  1.00  0.00     0.148 A 
ATOM     52  C   UNL     1       8.332  -1.954   9.800  1.00  0.00     0.002 A 
ATOM     53  C   UNL     1       5.638  -2.300   9.838  1.00  0.00     0.091 A 
ATOM     54  F   UNL     1       5.456  -4.415   8.348  1.00  0.00    -0.205 F 
ATOM     55  C   UNL     1       7.025  -1.788  10.348  1.00  0.00     0.022 A 
BRANCH  53  56
ATOM     56  S   UNL     1       3.255  -1.700  10.579  1.00  0.00     0.127 S 
ATOM     57  O   UNL     1       2.755  -2.563  11.685  1.00  0.00    -0.237 OA
ATOM     58  O   UNL     1       3.153  -0.296  11.073  1.00  0.00    -0.237 OA
ATOM     59  O   UNL     1       2.259  -1.773   9.470  1.00  0.00    -0.744 OA
ENDBRANCH  53  56
ENDBRANCH  25  49
BRANCH  37  60
ATOM     60  C   UNL     1      11.018  -9.314   6.958  1.00  0.00     0.023 A 
ATOM     61  C   UNL     1      10.536 -10.136   7.995  1.00  0.00     0.012 A 
ATOM     62  C   UNL     1      12.403  -9.240   6.714  1.00  0.00     0.148 A 
ATOM     63  C   UNL     1      11.426 -10.835   8.810  1.00  0.00     0.002 A 
ATOM     64  C   UNL     1      13.278  -9.979   7.496  1.00  0.00     0.091 A 
ATOM     65  F   UNL     1      12.838  -8.429   5.739  1.00  0.00    -0.205 F 
ATOM     66  C   UNL     1      12.794 -10.763   8.556  1.00  0.00     0.022 A 
BRANCH  64  67
ATOM     67  S   UNL     1      15.046 -10.007   7.191  1.00  0.00     0.127 S 
ATOM     68  O   UNL     1      15.556  -9.250   8.333  1.00  0.00    -0.237 OA
ATOM     69  O   UNL     1      15.341 -11.440   7.224  1.00  0.00    -0.237 OA
ATOM     70  O   UNL     1      15.239  -9.380   5.890  1.00  0.00    -0.744 OA
ENDBRANCH  64  67
ENDBRANCH  37  60
ENDBRANCH  11  12
ENDBRANCH   4   6
ENDBRANCH   3   4
ENDBRANCH   2   3
ENDBRANCH   1   2
BRANCH   1  71
ATOM     71  O   UNL     1       3.555   0.990   1.828  1.00  0.00    -0.458 OA
BRANCH  71  72
ATOM     72  C   UNL     1       2.215   0.952   2.059  1.00  0.00     0.338 C 
ATOM     73  O   UNL     1       1.369   1.660   1.540  1.00  0.00    -0.246 OA
BRANCH  72  74
ATOM     74  C   UNL     1       1.905  -0.196   2.939  1.00  0.00     0.063 A 
ATOM     75  C   UNL     1       0.849  -1.041   2.587  1.00  0.00     0.016 A 
ATOM     76  C   UNL     1       2.654  -0.442   4.095  1.00  0.00     0.064 A 
ATOM     77  C   UNL     1       0.577  -2.165   3.366  1.00  0.00     0.005 A 
ATOM     78  C   UNL     1       2.345  -1.537   4.908  1.00  0.00     0.143 A 
ATOM     79  C   UNL     1       1.329  -2.416   4.519  1.00  0.00     0.048 A 
BRANCH  78  80
ATOM     80  O   UNL     1       2.999  -1.840   6.083  1.00  0.00    -0.379 OA
BRANCH  80  81
ATOM     81  S   UNL     1       3.659  -0.650   6.991  1.00  0.00     0.339 S 
ATOM     82  O   UNL     1       4.855  -0.173   6.309  1.00  0.00    -0.181 OA
ATOM     83  O   UNL     1       2.635   0.318   7.329  1.00  0.00    -0.181 OA
BRANCH  81  84
ATOM     84  C   UNL     1       4.277  -1.407   8.479  1.00  0.00     0.112 A 
ATOM     85  C   UNL     1       3.892  -3.123   8.936  1.00  0.00     0.024 A 
ATOM     86  C   UNL     1       4.956  -0.284   9.683  1.00  0.00     0.109 A 
ATOM     87  C   UNL     1       4.350  -3.737  10.594  1.00  0.00     0.009 A 
ATOM     88  C   UNL     1       5.236  -0.838  11.384  1.00  0.00     0.270 A 
ATOM     89  C   UNL     1       5.027  -2.578  11.826  1.00  0.00     0.086 A 
BRANCH  88  90
ATOM     90  N   UNL     1       5.579   0.159  12.392  1.00  0.00     0.062 N 
ATOM     91  O   UNL     1       5.717  -0.238  13.557  1.00  0.00    -0.258 OA
ATOM     92  O   UNL     1       5.864   1.298  11.990  1.00  0.00    -0.258 OA
ENDBRANCH  88  90
ENDBRANCH  81  84
ENDBRANCH  80  81
ENDBRANCH  78  80
ENDBRANCH  72  74
ENDBRANCH  71  72
ENDBRANCH   1  71
TORSDOF 18
