REMARK SMILES Cc1c(CC(=O)OCCOC(=O)c2ccc(-c3c4nc(c(-c5cccc(S(=O)(=O)[O-])c5F)c5ccc([nH]5)c(-c5cccc(S(=O)(=O)[O-])c5F)c5nc(c(-c6cccc(S(=O)(=O)[O-])c6F)c6ccc3[nH]6)C=C5)C=C4)cc2)cccc1-c1ccn(C(F)F)c(=O)c1
REMARK SMILES IDX 8 1 7 2 5 3 6 4 4 5 3 6 1 7 2 8 79 9 76 10 78 11 77 12 80 13
REMARK SMILES IDX 81 14 89 15 82 16 87 17 83 18 88 19 84 20 85 21 86 22 9 23
REMARK SMILES IDX 10 24 11 25 12 26 13 27 14 28 75 29 15 30 74 31 16 32 17 33
REMARK SMILES IDX 18 34 68 35 19 36 73 37 67 38 69 39 20 40 72 41 66 42 65 43
REMARK SMILES IDX 21 45 53 46 33 47 52 48 34 49 37 50 51 51 70 52 35 53 36 54
REMARK SMILES IDX 50 56 71 57 38 58 22 59 23 60 31 61 24 62 26 63 32 64 25 65
REMARK SMILES IDX 27 66 28 67 29 68 30 69 54 70 55 71 63 72 56 73 58 74 64 75
REMARK SMILES IDX 57 76 59 77 60 78 61 79 62 80 39 81 40 82 48 83 41 84 43 85
REMARK SMILES IDX 49 86 42 87 44 88 45 89 46 90 47 91
REMARK H PARENT 69 44 37 55
REMARK Flexibility Score: inf
ROOT
ATOM      1  C   UNL     1      -0.707  -4.399   4.294  1.00  0.00     0.274 C 
ENDROOT
BRANCH   1   2
ATOM      2  O   UNL     1       0.248  -3.599   3.576  1.00  0.00    -0.462 OA
BRANCH   2   3
ATOM      3  C   UNL     1       0.305  -3.804   2.142  1.00  0.00     0.310 C 
ATOM      4  O   UNL     1      -0.004  -5.031   1.992  1.00  0.00    -0.252 OA
BRANCH   3   5
ATOM      5  C   UNL     1       0.732  -2.263   0.682  1.00  0.00     0.158 C 
BRANCH   5   6
ATOM      6  C   UNL     1       0.051  -0.708   0.272  1.00  0.00    -0.033 A 
ATOM      7  C   UNL     1       2.341   0.433   0.506  1.00  0.00     0.045 C 
ATOM      8  C   UNL     1       0.845   0.482   0.292  1.00  0.00    -0.039 A 
ATOM      9  C   UNL     1       0.224   1.730   0.008  1.00  0.00    -0.015 A 
ATOM     10  C   UNL     1      -1.236  -0.617  -0.310  1.00  0.00     0.004 A 
ATOM     11  C   UNL     1      -1.125   1.784  -0.364  1.00  0.00     0.009 A 
ATOM     12  C   UNL     1      -1.838   0.612  -0.561  1.00  0.00     0.001 A 
BRANCH   9  13
ATOM     13  C   UNL     1       0.973   3.002   0.026  1.00  0.00    -0.011 A 
ATOM     14  C   UNL     1       1.803   3.428  -1.085  1.00  0.00     0.027 A 
ATOM     15  C   UNL     1       0.942   3.740   1.148  1.00  0.00     0.080 A 
ATOM     16  C   UNL     1       2.637   4.463  -0.943  1.00  0.00     0.095 A 
ATOM     17  C   UNL     1       1.780   4.964   1.272  1.00  0.00     0.255 A 
ATOM     18  N   UNL     1       2.664   5.196   0.230  1.00  0.00    -0.258 N 
ATOM     19  O   UNL     1       1.644   5.669   2.267  1.00  0.00    -0.269 OA
BRANCH  18  20
ATOM     20  C   UNL     1       3.607   6.271   0.395  1.00  0.00     0.451 C 
ATOM     21  F   UNL     1       2.975   7.471   0.388  1.00  0.00    -0.185 F 
ATOM     22  F   UNL     1       4.284   6.165   1.562  1.00  0.00    -0.185 F 
ENDBRANCH  18  20
ENDBRANCH   9  13
ENDBRANCH   5   6
ENDBRANCH   3   5
ENDBRANCH   2   3
ENDBRANCH   1   2
BRANCH   1  23
ATOM     23  C   UNL     1      -2.089  -3.760   4.118  1.00  0.00     0.275 C 
BRANCH  23  24
ATOM     24  O   UNL     1      -2.704  -3.954   2.812  1.00  0.00    -0.458 OA
BRANCH  24  25
ATOM     25  C   UNL     1      -2.627  -3.036   1.805  1.00  0.00     0.338 C 
ATOM     26  O   UNL     1      -3.586  -2.680   1.137  1.00  0.00    -0.246 OA
BRANCH  25  27
ATOM     27  C   UNL     1      -1.244  -2.741   1.373  1.00  0.00     0.060 A 
ATOM     28  C   UNL     1      -0.495  -3.903   0.208  1.00  0.00     0.016 A 
ATOM     29  C   UNL     1      -0.211  -1.779   2.494  1.00  0.00     0.016 A 
ATOM     30  C   UNL     1       1.292  -4.263   0.339  1.00  0.00     0.010 A 
ATOM     31  C   UNL     1       1.555  -2.136   2.603  1.00  0.00     0.010 A 
ATOM     32  C   UNL     1       2.280  -3.449   1.596  1.00  0.00    -0.014 A 
BRANCH  32  33
ATOM     33  C   UNL     1       3.432  -4.069   2.248  1.00  0.00     0.031 A 
ATOM     34  C   UNL     1       4.707  -3.347   2.397  1.00  0.00     0.074 A 
ATOM     35  C   UNL     1       3.214  -5.170   3.009  1.00  0.00     0.049 A 
ATOM     36  N   UNL     1       5.763  -3.905   2.879  1.00  0.00    -0.248 NA
ATOM     37  C   UNL     1       4.935  -1.967   1.986  1.00  0.00     0.031 C 
ATOM     38  C   UNL     1       3.998  -5.635   4.152  1.00  0.00     0.029 A 
ATOM     39  N   UNL     1       2.295  -6.201   2.829  1.00  0.00    -0.354 N 
ATOM     40  C   UNL     1       6.660  -2.909   3.164  1.00  0.00     0.074 A 
ATOM     41  C   UNL     1       6.175  -1.758   2.447  1.00  0.00     0.031 C 
ATOM     42  C   UNL     1       3.732  -6.932   4.368  1.00  0.00     0.029 A 
ATOM     43  C   UNL     1       2.883  -7.384   3.285  1.00  0.00     0.049 A 
ATOM     44  H   UNL     1       1.392  -6.112   2.448  1.00  0.00     0.167 HD
ATOM     45  C   UNL     1       7.626  -3.155   4.089  1.00  0.00     0.034 A 
ATOM     46  C   UNL     1       3.076  -8.489   2.506  1.00  0.00     0.034 A 
ATOM     47  C   UNL     1       7.708  -4.588   4.417  1.00  0.00     0.049 A 
ATOM     48  C   UNL     1       4.558  -8.835   2.375  1.00  0.00     0.074 A 
ATOM     49  C   UNL     1       7.444  -5.374   5.523  1.00  0.00     0.029 A 
ATOM     50  N   UNL     1       7.914  -5.476   3.372  1.00  0.00    -0.354 N 
ATOM     51  N   UNL     1       5.525  -8.298   3.072  1.00  0.00    -0.248 NA
ATOM     52  C   UNL     1       5.068  -9.717   1.326  1.00  0.00     0.031 C 
ATOM     53  C   UNL     1       7.438  -6.744   5.099  1.00  0.00     0.029 A 
ATOM     54  C   UNL     1       7.758  -6.794   3.752  1.00  0.00     0.049 A 
ATOM     55  H   UNL     1       8.147  -5.196   2.457  1.00  0.00     0.167 HD
ATOM     56  C   UNL     1       6.719  -8.507   2.420  1.00  0.00     0.074 A 
ATOM     57  C   UNL     1       6.378  -9.434   1.352  1.00  0.00     0.031 C 
ATOM     58  C   UNL     1       7.875  -7.832   2.726  1.00  0.00     0.034 A 
BRANCH  45  59
ATOM     59  C   UNL     1       8.454  -2.091   4.777  1.00  0.00     0.023 A 
ATOM     60  C   UNL     1       9.568  -2.519   5.531  1.00  0.00     0.012 A 
ATOM     61  C   UNL     1       8.170  -0.703   4.813  1.00  0.00     0.148 A 
ATOM     62  C   UNL     1      10.358  -1.627   6.268  1.00  0.00     0.002 A 
ATOM     63  C   UNL     1       9.008   0.197   5.478  1.00  0.00     0.091 A 
ATOM     64  F   UNL     1       7.025  -0.238   4.301  1.00  0.00    -0.205 F 
ATOM     65  C   UNL     1      10.094  -0.265   6.223  1.00  0.00     0.022 A 
BRANCH  63  66
ATOM     66  S   UNL     1       8.758   1.979   5.384  1.00  0.00     0.127 S 
ATOM     67  O   UNL     1       8.183   2.278   6.694  1.00  0.00    -0.237 OA
ATOM     68  O   UNL     1      10.118   2.482   5.187  1.00  0.00    -0.237 OA
ATOM     69  O   UNL     1       7.873   2.195   4.244  1.00  0.00    -0.744 OA
ENDBRANCH  63  66
ENDBRANCH  45  59
BRANCH  46  70
ATOM     70  C   UNL     1       2.053  -8.621   1.417  1.00  0.00     0.023 A 
ATOM     71  C   UNL     1       0.697  -8.727   1.814  1.00  0.00     0.012 A 
ATOM     72  C   UNL     1       2.331  -8.251   0.091  1.00  0.00     0.148 A 
ATOM     73  C   UNL     1      -0.335  -8.320   0.964  1.00  0.00     0.002 A 
ATOM     74  C   UNL     1       1.298  -7.852  -0.752  1.00  0.00     0.091 A 
ATOM     75  F   UNL     1       3.602  -8.200  -0.325  1.00  0.00    -0.205 F 
ATOM     76  C   UNL     1      -0.030  -7.847  -0.308  1.00  0.00     0.022 A 
BRANCH  74  77
ATOM     77  S   UNL     1       1.690  -7.110  -2.345  1.00  0.00     0.127 S 
ATOM     78  O   UNL     1       0.531  -6.253  -2.595  1.00  0.00    -0.237 OA
ATOM     79  O   UNL     1       2.921  -6.371  -2.096  1.00  0.00    -0.237 OA
ATOM     80  O   UNL     1       1.793  -8.283  -3.206  1.00  0.00    -0.744 OA
ENDBRANCH  74  77
ENDBRANCH  46  70
BRANCH  58  81
ATOM     81  C   UNL     1       9.210  -8.074   2.015  1.00  0.00     0.023 A 
ATOM     82  C   UNL     1       9.530  -9.341   1.485  1.00  0.00     0.012 A 
ATOM     83  C   UNL     1      10.243  -7.098   1.947  1.00  0.00     0.148 A 
ATOM     84  C   UNL     1      10.743  -9.599   0.834  1.00  0.00     0.002 A 
ATOM     85  C   UNL     1      11.483  -7.381   1.378  1.00  0.00     0.091 A 
ATOM     86  F   UNL     1      10.040  -5.870   2.428  1.00  0.00    -0.205 F 
ATOM     87  C   UNL     1      11.724  -8.620   0.785  1.00  0.00     0.022 A 
BRANCH  85  88
ATOM     88  S   UNL     1      12.867  -6.231   1.446  1.00  0.00     0.127 S 
ATOM     89  O   UNL     1      13.847  -7.000   2.215  1.00  0.00    -0.237 OA
ATOM     90  O   UNL     1      13.194  -6.067   0.031  1.00  0.00    -0.237 OA
ATOM     91  O   UNL     1      12.376  -5.033   2.111  1.00  0.00    -0.744 OA
ENDBRANCH  85  88
ENDBRANCH  58  81
ENDBRANCH  32  33
ENDBRANCH  25  27
ENDBRANCH  24  25
ENDBRANCH  23  24
ENDBRANCH   1  23
TORSDOF 17
