REMARK SMILES CC(C)Oc1ccc(-c2ccc(/C(=C\c3ccc(S(C)(=O)=O)cc3)C(=O)OCCOC(=O)c3ccc(-c4c5nc(c(-c6cccc(S(=O)(=O)[O-])c6F)c6ccc([nH]6)c(-c6cccc(S(=O)(=O)[O-])c6F)c6nc(c(-c7cccc(S(=O)(=O)[O-])c7F)c7ccc4[nH]7)C=C6)C=C5)cc3)cc2)cc1
REMARK SMILES IDX 28 1 27 2 25 3 26 4 13 5 14 6 12 7 9 8 10 9 97 10 11 11
REMARK SMILES IDX 96 12 8 13 5 14 6 15 99 16 7 17 98 18 4 19 2 20 1 21 3 22
REMARK SMILES IDX 15 23 16 24 24 25 17 26 23 27 18 28 19 29 20 30 21 31 22 32
REMARK SMILES IDX 29 33 30 34 31 35 32 36 33 37 34 38 95 39 35 40 94 41 36 42
REMARK SMILES IDX 37 43 38 44 88 45 39 46 93 47 87 48 89 49 40 50 92 51 86 52
REMARK SMILES IDX 85 53 41 55 73 56 53 57 72 58 54 59 57 60 71 61 90 62 55 63
REMARK SMILES IDX 56 64 70 66 91 67 58 68 42 69 43 70 51 71 44 72 46 73 52 74
REMARK SMILES IDX 45 75 47 76 48 77 49 78 50 79 74 80 75 81 83 82 76 83 78 84
REMARK SMILES IDX 84 85 77 86 79 87 80 88 81 89 82 90 59 91 60 92 68 93 61 94
REMARK SMILES IDX 63 95 69 96 62 97 64 98 65 99 66 100 67 101
REMARK H PARENT 89 54 57 65
REMARK Flexibility Score: inf
ROOT
ATOM      1  C   UNL     1      -8.512   8.306   3.540  1.00  0.00     0.275 C 
ENDROOT
BRANCH   1   2
ATOM      2  O   UNL     1      -7.783   7.278   4.249  1.00  0.00    -0.458 OA
BRANCH   2   3
ATOM      3  C   UNL     1      -8.063   5.981   3.933  1.00  0.00     0.338 C 
ATOM      4  O   UNL     1      -8.837   5.617   3.062  1.00  0.00    -0.246 OA
BRANCH   3   5
ATOM      5  C   UNL     1      -7.288   5.034   4.817  1.00  0.00     0.067 C 
ATOM      6  C   UNL     1      -7.358   5.402   6.124  1.00  0.00     0.024 C 
BRANCH   5   7
ATOM      7  C   UNL     1      -6.550   3.857   4.221  1.00  0.00    -0.011 A 
ATOM      8  C   UNL     1      -4.707   1.956   3.073  1.00  0.00    -0.018 A 
ATOM      9  C   UNL     1      -5.046   1.907   4.420  1.00  0.00     0.009 A 
ATOM     10  C   UNL     1      -5.427   2.851   2.282  1.00  0.00     0.009 A 
ATOM     11  C   UNL     1      -5.975   2.813   4.963  1.00  0.00     0.009 A 
ATOM     12  C   UNL     1      -6.330   3.775   2.843  1.00  0.00     0.009 A 
BRANCH   8  13
ATOM     13  C   UNL     1      -3.663   1.102   2.490  1.00  0.00    -0.018 A 
ATOM     14  C   UNL     1      -1.721  -0.526   1.235  1.00  0.00     0.119 A 
ATOM     15  C   UNL     1      -2.777  -1.096   1.947  1.00  0.00     0.047 A 
ATOM     16  C   UNL     1      -1.630   0.857   1.143  1.00  0.00     0.047 A 
ATOM     17  C   UNL     1      -3.732  -0.293   2.579  1.00  0.00     0.012 A 
ATOM     18  C   UNL     1      -2.586   1.663   1.777  1.00  0.00     0.012 A 
BRANCH  14  19
ATOM     19  O   UNL     1      -0.934  -1.400   0.549  1.00  0.00    -0.491 OA
BRANCH  19  20
ATOM     20  C   UNL     1       0.493  -1.359   0.698  1.00  0.00     0.167 C 
ATOM     21  C   UNL     1       1.168  -0.316  -0.180  1.00  0.00     0.052 C 
ATOM     22  C   UNL     1       0.962  -1.309   2.150  1.00  0.00     0.052 C 
ENDBRANCH  19  20
ENDBRANCH  14  19
ENDBRANCH   8  13
ENDBRANCH   5   7
BRANCH   6  23
ATOM     23  C   UNL     1      -6.791   4.693   7.270  1.00  0.00    -0.025 A 
ATOM     24  C   UNL     1      -7.646   3.859   8.004  1.00  0.00     0.009 A 
ATOM     25  C   UNL     1      -5.409   4.673   7.505  1.00  0.00     0.009 A 
ATOM     26  C   UNL     1      -7.113   2.908   8.868  1.00  0.00     0.021 A 
ATOM     27  C   UNL     1      -4.870   3.714   8.366  1.00  0.00     0.021 A 
ATOM     28  C   UNL     1      -5.725   2.813   9.011  1.00  0.00     0.067 A 
BRANCH  28  29
ATOM     29  S   UNL     1      -5.055   1.401   9.856  1.00  0.00     0.175 S 
ATOM     30  C   UNL     1      -5.162   1.849  11.562  1.00  0.00     0.163 C 
ATOM     31  O   UNL     1      -5.964   0.293   9.628  1.00  0.00    -0.224 OA
ATOM     32  O   UNL     1      -3.651   1.296   9.508  1.00  0.00    -0.224 OA
ENDBRANCH  28  29
ENDBRANCH   6  23
ENDBRANCH   3   5
ENDBRANCH   2   3
ENDBRANCH   1   2
BRANCH   1  33
ATOM     33  C   UNL     1      -7.544   9.414   3.120  1.00  0.00     0.275 C 
BRANCH  33  34
ATOM     34  O   UNL     1      -6.750   8.891   2.046  1.00  0.00    -0.458 OA
BRANCH  34  35
ATOM     35  C   UNL     1      -5.405   8.946   2.161  1.00  0.00     0.338 C 
ATOM     36  O   UNL     1      -4.756   9.631   2.941  1.00  0.00    -0.246 OA
BRANCH  35  37
ATOM     37  C   UNL     1      -4.834   7.954   1.226  1.00  0.00     0.060 A 
ATOM     38  C   UNL     1      -5.484   6.733   1.080  1.00  0.00     0.016 A 
ATOM     39  C   UNL     1      -3.638   8.174   0.544  1.00  0.00     0.016 A 
ATOM     40  C   UNL     1      -4.913   5.722   0.313  1.00  0.00     0.010 A 
ATOM     41  C   UNL     1      -3.117   7.172  -0.299  1.00  0.00     0.010 A 
ATOM     42  C   UNL     1      -3.727   5.907  -0.403  1.00  0.00    -0.014 A 
BRANCH  42  43
ATOM     43  C   UNL     1      -3.127   4.769  -1.186  1.00  0.00     0.031 A 
ATOM     44  C   UNL     1      -1.658   4.434  -1.049  1.00  0.00     0.074 A 
ATOM     45  C   UNL     1      -3.874   3.978  -1.992  1.00  0.00     0.049 A 
ATOM     46  N   UNL     1      -0.909   3.669  -1.803  1.00  0.00    -0.248 NA
ATOM     47  C   UNL     1      -0.931   5.047   0.075  1.00  0.00     0.031 C 
ATOM     48  C   UNL     1      -5.315   4.102  -2.216  1.00  0.00     0.029 A 
ATOM     49  N   UNL     1      -3.522   2.896  -2.770  1.00  0.00    -0.354 N 
ATOM     50  C   UNL     1       0.388   3.805  -1.323  1.00  0.00     0.074 A 
ATOM     51  C   UNL     1       0.321   4.694  -0.184  1.00  0.00     0.031 C 
ATOM     52  C   UNL     1      -5.734   3.099  -2.999  1.00  0.00     0.029 A 
ATOM     53  C   UNL     1      -4.577   2.348  -3.468  1.00  0.00     0.049 A 
ATOM     54  H   UNL     1      -2.603   2.546  -2.823  1.00  0.00     0.167 HD
ATOM     55  C   UNL     1       1.531   3.241  -1.783  1.00  0.00     0.034 A 
ATOM     56  C   UNL     1      -4.623   1.407  -4.434  1.00  0.00     0.034 A 
ATOM     57  C   UNL     1       1.592   2.257  -2.832  1.00  0.00     0.049 A 
ATOM     58  C   UNL     1      -3.345   0.803  -4.941  1.00  0.00     0.074 A 
ATOM     59  C   UNL     1       2.706   1.596  -3.325  1.00  0.00     0.029 A 
ATOM     60  N   UNL     1       0.499   1.761  -3.525  1.00  0.00    -0.354 N 
ATOM     61  N   UNL     1      -2.121   0.979  -4.508  1.00  0.00    -0.248 NA
ATOM     62  C   UNL     1      -3.451  -0.108  -6.092  1.00  0.00     0.031 C 
ATOM     63  C   UNL     1       2.287   0.704  -4.318  1.00  0.00     0.029 A 
ATOM     64  C   UNL     1       0.912   0.806  -4.441  1.00  0.00     0.049 A 
ATOM     65  H   UNL     1      -0.433   2.045  -3.387  1.00  0.00     0.167 HD
ATOM     66  C   UNL     1      -1.312   0.210  -5.337  1.00  0.00     0.074 A 
ATOM     67  C   UNL     1      -2.187  -0.469  -6.269  1.00  0.00     0.031 C 
ATOM     68  C   UNL     1       0.039   0.108  -5.346  1.00  0.00     0.034 A 
BRANCH  55  69
ATOM     69  C   UNL     1       2.831   3.656  -1.145  1.00  0.00     0.023 A 
ATOM     70  C   UNL     1       3.191   3.156   0.121  1.00  0.00     0.012 A 
ATOM     71  C   UNL     1       3.735   4.479  -1.846  1.00  0.00     0.148 A 
ATOM     72  C   UNL     1       4.425   3.477   0.685  1.00  0.00     0.002 A 
ATOM     73  C   UNL     1       4.978   4.766  -1.293  1.00  0.00     0.091 A 
ATOM     74  F   UNL     1       3.362   4.970  -3.037  1.00  0.00    -0.205 F 
ATOM     75  C   UNL     1       5.322   4.269  -0.026  1.00  0.00     0.022 A 
BRANCH  73  76
ATOM     76  S   UNL     1       6.222   5.721  -2.169  1.00  0.00     0.127 S 
ATOM     77  O   UNL     1       6.140   7.010  -1.484  1.00  0.00    -0.237 OA
ATOM     78  O   UNL     1       7.444   4.963  -1.897  1.00  0.00    -0.237 OA
ATOM     79  O   UNL     1       5.812   5.721  -3.566  1.00  0.00    -0.744 OA
ENDBRANCH  73  76
ENDBRANCH  55  69
BRANCH  56  80
ATOM     80  C   UNL     1      -5.936   1.025  -5.036  1.00  0.00     0.023 A 
ATOM     81  C   UNL     1      -6.444  -0.273  -4.839  1.00  0.00     0.012 A 
ATOM     82  C   UNL     1      -6.707   1.958  -5.758  1.00  0.00     0.148 A 
ATOM     83  C   UNL     1      -7.693  -0.632  -5.351  1.00  0.00     0.002 A 
ATOM     84  C   UNL     1      -7.983   1.619  -6.193  1.00  0.00     0.091 A 
ATOM     85  F   UNL     1      -6.191   3.174  -5.985  1.00  0.00    -0.205 F 
ATOM     86  C   UNL     1      -8.472   0.319  -6.007  1.00  0.00     0.022 A 
BRANCH  84  87
ATOM     87  S   UNL     1      -9.102   2.852  -6.867  1.00  0.00     0.127 S 
ATOM     88  O   UNL     1      -8.995   2.607  -8.301  1.00  0.00    -0.237 OA
ATOM     89  O   UNL     1     -10.383   2.469  -6.269  1.00  0.00    -0.237 OA
ATOM     90  O   UNL     1      -8.589   4.132  -6.393  1.00  0.00    -0.744 OA
ENDBRANCH  84  87
ENDBRANCH  56  80
BRANCH  68  91
ATOM     91  C   UNL     1       0.666  -0.755  -6.408  1.00  0.00     0.023 A 
ATOM     92  C   UNL     1       0.739  -0.270  -7.729  1.00  0.00     0.012 A 
ATOM     93  C   UNL     1       1.238  -2.004  -6.097  1.00  0.00     0.148 A 
ATOM     94  C   UNL     1       1.351  -1.023  -8.730  1.00  0.00     0.002 A 
ATOM     95  C   UNL     1       1.880  -2.733  -7.092  1.00  0.00     0.091 A 
ATOM     96  F   UNL     1       1.145  -2.454  -4.837  1.00  0.00    -0.205 F 
ATOM     97  C   UNL     1       1.930  -2.248  -8.410  1.00  0.00     0.022 A 
BRANCH  95  98
ATOM     98  S   UNL     1       2.722  -4.287  -6.764  1.00  0.00     0.127 S 
ATOM     99  O   UNL     1       1.843  -5.248  -7.428  1.00  0.00    -0.237 OA
ATOM    100  O   UNL     1       4.013  -4.085  -7.423  1.00  0.00    -0.237 OA
ATOM    101  O   UNL     1       2.795  -4.406  -5.314  1.00  0.00    -0.744 OA
ENDBRANCH  95  98
ENDBRANCH  68  91
ENDBRANCH  42  43
ENDBRANCH  35  37
ENDBRANCH  34  35
ENDBRANCH  33  34
ENDBRANCH   1  33
TORSDOF 20
