REMARK SMILES O=C(COc1ccc(N2C[C@@H](C(=O)OCCOC(=O)c3ccc(-c4c5nc(c(-c6cccc(S(=O)(=O)[O-])c6F)c6ccc([nH]6)c(-c6cccc(S(=O)(=O)[O-])c6F)c6nc(c(-c7cccc(S(=O)(=O)[O-])c7F)c7ccc4[nH]7)C=C6)C=C5)cc3)CC2=O)cc1)Nc1ccc(Cl)cc1Cl
REMARK SMILES IDX 15 1 14 2 12 3 13 4 11 5 9 6 10 7 84 8 83 9 85 10 8 11 5 12
REMARK SMILES IDX 6 13 87 14 7 15 86 16 4 17 3 18 2 19 1 20 88 21 89 23 90 24
REMARK SMILES IDX 95 25 91 26 94 27 96 28 92 29 93 30 16 31 17 32 18 33 19 34
REMARK SMILES IDX 20 35 21 36 82 37 22 38 81 39 23 40 24 41 25 42 75 43 26 44
REMARK SMILES IDX 80 45 74 46 76 47 27 48 79 49 73 50 72 51 28 53 60 54 40 55
REMARK SMILES IDX 59 56 41 57 44 58 58 59 77 60 42 61 43 62 57 64 78 65 45 66
REMARK SMILES IDX 29 67 30 68 38 69 31 70 33 71 39 72 32 73 34 74 35 75 36 76
REMARK SMILES IDX 37 77 61 78 62 79 70 80 63 81 65 82 71 83 64 84 66 85 67 86
REMARK SMILES IDX 68 87 69 88 46 89 47 90 55 91 48 92 50 93 56 94 49 95 51 96
REMARK SMILES IDX 52 97 53 98 54 99
REMARK H PARENT 88 22 76 52 44 63
REMARK Flexibility Score: inf
ROOT
ATOM      1  C   UNL     1      -2.199   8.126   5.819  1.00  0.00     0.274 C 
ENDROOT
BRANCH   1   2
ATOM      2  O   UNL     1      -1.133   7.170   5.675  1.00  0.00    -0.462 OA
BRANCH   2   3
ATOM      3  C   UNL     1      -0.031   7.564   4.992  1.00  0.00     0.311 C 
ATOM      4  O   UNL     1       0.064   8.604   4.354  1.00  0.00    -0.252 OA
BRANCH   3   5
ATOM      5  C   UNL     1       1.108   6.584   5.103  1.00  0.00     0.128 C 
ATOM      6  N   UNL     1       1.971   4.719   4.021  1.00  0.00    -0.312 N 
ATOM      7  C   UNL     1       1.450   6.029   3.740  1.00  0.00     0.141 C 
ATOM      8  C   UNL     1       1.657   4.287   5.313  1.00  0.00     0.227 C 
ATOM      9  C   UNL     1       0.877   5.372   5.992  1.00  0.00     0.117 C 
ATOM     10  O   UNL     1       1.921   3.217   5.840  1.00  0.00    -0.274 OA
BRANCH   6  11
ATOM     11  C   UNL     1       2.504   3.895   3.015  1.00  0.00     0.044 A 
ATOM     12  C   UNL     1       3.487   2.188   1.023  1.00  0.00     0.120 A 
ATOM     13  C   UNL     1       3.859   3.530   1.032  1.00  0.00     0.048 A 
ATOM     14  C   UNL     1       2.647   1.701   2.018  1.00  0.00     0.048 A 
ATOM     15  C   UNL     1       3.342   4.392   2.010  1.00  0.00     0.030 A 
ATOM     16  C   UNL     1       2.168   2.544   3.009  1.00  0.00     0.030 A 
BRANCH  12  17
ATOM     17  O   UNL     1       4.047   1.351   0.093  1.00  0.00    -0.484 OA
BRANCH  17  18
ATOM     18  C   UNL     1       3.087   0.852  -0.843  1.00  0.00     0.329 C 
BRANCH  18  19
ATOM     19  C   UNL     1       2.212  -0.302  -0.330  1.00  0.00     0.262 C 
ATOM     20  O   UNL     1       1.014  -0.347  -0.589  1.00  0.00    -0.271 OA
ATOM     21  N   UNL     1       2.914  -1.168   0.503  1.00  0.00    -0.322 N 
ATOM     22  H   UNL     1       3.894  -1.075   0.532  1.00  0.00     0.170 HD
BRANCH  21  23
ATOM     23  C   UNL     1       2.330  -2.172   1.311  1.00  0.00     0.060 A 
ATOM     24  C   UNL     1       2.846  -2.270   2.616  1.00  0.00     0.029 A 
ATOM     25  C   UNL     1       1.283  -3.034   0.937  1.00  0.00     0.066 A 
ATOM     26  C   UNL     1       2.279  -3.140   3.551  1.00  0.00     0.023 A 
ATOM     27  C   UNL     1       0.715  -3.902   1.879  1.00  0.00     0.043 A 
ATOM     28  Cl  UNL     1       0.763  -3.245  -0.700  1.00  0.00    -0.082 Cl
ATOM     29  C   UNL     1       1.205  -3.941   3.181  1.00  0.00     0.042 A 
ATOM     30  Cl  UNL     1       0.503  -5.013   4.328  1.00  0.00    -0.084 Cl
ENDBRANCH  21  23
ENDBRANCH  18  19
ENDBRANCH  17  18
ENDBRANCH  12  17
ENDBRANCH   6  11
ENDBRANCH   3   5
ENDBRANCH   2   3
ENDBRANCH   1   2
BRANCH   1  31
ATOM     31  C   UNL     1      -2.259   8.641   7.260  1.00  0.00     0.275 C 
BRANCH  31  32
ATOM     32  O   UNL     1      -1.102   9.435   7.589  1.00  0.00    -0.458 OA
BRANCH  32  33
ATOM     33  C   UNL     1      -0.068   8.742   8.120  1.00  0.00     0.338 C 
ATOM     34  O   UNL     1      -0.024   7.545   8.350  1.00  0.00    -0.246 OA
BRANCH  33  35
ATOM     35  C   UNL     1       1.107   9.613   8.257  1.00  0.00     0.060 A 
ATOM     36  C   UNL     1       2.185   9.379   7.404  1.00  0.00     0.016 A 
ATOM     37  C   UNL     1       1.209  10.554   9.278  1.00  0.00     0.016 A 
ATOM     38  C   UNL     1       3.392  10.035   7.591  1.00  0.00     0.010 A 
ATOM     39  C   UNL     1       2.412  11.250   9.441  1.00  0.00     0.010 A 
ATOM     40  C   UNL     1       3.519  10.976   8.615  1.00  0.00    -0.014 A 
BRANCH  40  41
ATOM     41  C   UNL     1       4.827  11.637   8.831  1.00  0.00     0.031 A 
ATOM     42  C   UNL     1       5.617  11.348  10.074  1.00  0.00     0.074 A 
ATOM     43  C   UNL     1       5.308  12.480   7.897  1.00  0.00     0.049 A 
ATOM     44  N   UNL     1       6.737  11.885  10.481  1.00  0.00    -0.248 NA
ATOM     45  C   UNL     1       5.075  10.323  10.981  1.00  0.00     0.031 C 
ATOM     46  C   UNL     1       4.643  12.811   6.636  1.00  0.00     0.029 A 
ATOM     47  N   UNL     1       6.464  13.217   7.868  1.00  0.00    -0.354 N 
ATOM     48  C   UNL     1       7.001  11.314  11.720  1.00  0.00     0.074 A 
ATOM     49  C   UNL     1       5.931  10.378  11.992  1.00  0.00     0.031 C 
ATOM     50  C   UNL     1       5.403  13.683   5.955  1.00  0.00     0.029 A 
ATOM     51  C   UNL     1       6.578  14.014   6.754  1.00  0.00     0.049 A 
ATOM     52  H   UNL     1       7.146  13.180   8.577  1.00  0.00     0.167 HD
ATOM     53  C   UNL     1       8.046  11.544  12.549  1.00  0.00     0.034 A 
ATOM     54  C   UNL     1       7.510  14.929   6.426  1.00  0.00     0.034 A 
ATOM     55  C   UNL     1       9.137  12.428  12.242  1.00  0.00     0.049 A 
ATOM     56  C   UNL     1       8.658  15.166   7.368  1.00  0.00     0.074 A 
ATOM     57  C   UNL     1      10.271  12.688  12.991  1.00  0.00     0.029 A 
ATOM     58  N   UNL     1       9.233  13.196  11.092  1.00  0.00    -0.354 N 
ATOM     59  N   UNL     1       8.934  14.563   8.498  1.00  0.00    -0.248 NA
ATOM     60  C   UNL     1       9.630  16.198   6.983  1.00  0.00     0.031 C 
ATOM     61  C   UNL     1      11.047  13.624  12.298  1.00  0.00     0.029 A 
ATOM     62  C   UNL     1      10.401  13.938  11.112  1.00  0.00     0.049 A 
ATOM     63  H   UNL     1       8.567  13.212  10.366  1.00  0.00     0.167 HD
ATOM     64  C   UNL     1      10.124  15.121   8.948  1.00  0.00     0.074 A 
ATOM     65  C   UNL     1      10.527  16.097   7.955  1.00  0.00     0.031 C 
ATOM     66  C   UNL     1      10.812  14.864  10.088  1.00  0.00     0.034 A 
BRANCH  53  67
ATOM     67  C   UNL     1       8.065  10.812  13.864  1.00  0.00     0.023 A 
ATOM     68  C   UNL     1       8.399   9.444  13.900  1.00  0.00     0.012 A 
ATOM     69  C   UNL     1       7.789  11.489  15.068  1.00  0.00     0.148 A 
ATOM     70  C   UNL     1       8.429   8.753  15.112  1.00  0.00     0.002 A 
ATOM     71  C   UNL     1       7.857  10.803  16.275  1.00  0.00     0.091 A 
ATOM     72  F   UNL     1       7.442  12.783  15.011  1.00  0.00    -0.205 F 
ATOM     73  C   UNL     1       8.168   9.434  16.298  1.00  0.00     0.022 A 
BRANCH  71  74
ATOM     74  S   UNL     1       7.602  11.621  17.854  1.00  0.00     0.127 S 
ATOM     75  O   UNL     1       6.232  11.225  18.174  1.00  0.00    -0.237 OA
ATOM     76  O   UNL     1       8.627  11.002  18.697  1.00  0.00    -0.237 OA
ATOM     77  O   UNL     1       7.809  13.040  17.601  1.00  0.00    -0.744 OA
ENDBRANCH  71  74
ENDBRANCH  53  67
BRANCH  54  78
ATOM     78  C   UNL     1       7.410  15.656   5.129  1.00  0.00     0.023 A 
ATOM     79  C   UNL     1       8.341  15.378   4.111  1.00  0.00     0.012 A 
ATOM     80  C   UNL     1       6.374  16.578   4.881  1.00  0.00     0.148 A 
ATOM     81  C   UNL     1       8.252  16.015   2.873  1.00  0.00     0.002 A 
ATOM     82  C   UNL     1       6.258  17.168   3.627  1.00  0.00     0.091 A 
ATOM     83  F   UNL     1       5.510  16.846   5.870  1.00  0.00    -0.205 F 
ATOM     84  C   UNL     1       7.205  16.899   2.627  1.00  0.00     0.022 A 
BRANCH  82  85
ATOM     85  S   UNL     1       4.864  18.209   3.182  1.00  0.00     0.127 S 
ATOM     86  O   UNL     1       5.476  19.535   3.158  1.00  0.00    -0.237 OA
ATOM     87  O   UNL     1       4.493  17.677   1.870  1.00  0.00    -0.237 OA
ATOM     88  O   UNL     1       3.865  17.989   4.219  1.00  0.00    -0.744 OA
ENDBRANCH  82  85
ENDBRANCH  54  78
BRANCH  66  89
ATOM     89  C   UNL     1      12.086  15.631  10.316  1.00  0.00     0.023 A 
ATOM     90  C   UNL     1      12.023  16.982  10.710  1.00  0.00     0.012 A 
ATOM     91  C   UNL     1      13.339  14.996  10.215  1.00  0.00     0.148 A 
ATOM     92  C   UNL     1      13.190  17.697  10.976  1.00  0.00     0.002 A 
ATOM     93  C   UNL     1      14.495  15.703  10.524  1.00  0.00     0.091 A 
ATOM     94  F   UNL     1      13.379  13.716   9.815  1.00  0.00    -0.205 F 
ATOM     95  C   UNL     1      14.424  17.055  10.896  1.00  0.00     0.022 A 
BRANCH  93  96
ATOM     96  S   UNL     1      16.115  14.925  10.533  1.00  0.00     0.127 S 
ATOM     97  O   UNL     1      16.681  15.399   9.272  1.00  0.00    -0.237 OA
ATOM     98  O   UNL     1      16.731  15.495  11.731  1.00  0.00    -0.237 OA
ATOM     99  O   UNL     1      15.865  13.492  10.612  1.00  0.00    -0.744 OA
ENDBRANCH  93  96
ENDBRANCH  66  89
ENDBRANCH  40  41
ENDBRANCH  33  35
ENDBRANCH  32  33
ENDBRANCH  31  32
ENDBRANCH   1  31
TORSDOF 19
