REMARK SMILES O=C(CCNC(=O)c1ccccc1OC(F)F)OCCOC(=O)c1ccc(-c2c3nc(c(-c4cccc(S(=O)(=O)[O-])c4F)c4ccc([nH]4)c(-c4cccc(S(=O)(=O)[O-])c4F)c4nc(c(-c5cccc(S(=O)(=O)[O-])c5F)c5ccc2[nH]5)C=C4)C=C3)cc1
REMARK SMILES IDX 19 1 18 2 2 3 1 4 3 5 4 6 5 7 6 8 7 10 8 11 9 12 13 13 10 14
REMARK SMILES IDX 12 15 11 16 14 17 15 18 16 19 17 20 20 21 21 22 22 23 23 24
REMARK SMILES IDX 24 25 25 26 86 27 26 28 85 29 27 30 28 31 29 32 79 33 30 34
REMARK SMILES IDX 84 35 78 36 80 37 31 38 83 39 77 40 76 41 32 43 64 44 44 45
REMARK SMILES IDX 63 46 45 47 48 48 62 49 81 50 46 51 47 52 61 54 82 55 49 56
REMARK SMILES IDX 33 57 34 58 42 59 35 60 37 61 43 62 36 63 38 64 39 65 40 66
REMARK SMILES IDX 41 67 65 68 66 69 74 70 67 71 69 72 75 73 68 74 70 75 71 76
REMARK SMILES IDX 72 77 73 78 50 79 51 80 59 81 52 82 54 83 60 84 53 85 55 86
REMARK SMILES IDX 56 87 57 88 58 89
REMARK H PARENT 5 9 80 42 48 53
REMARK Flexibility Score: inf
ROOT
ATOM      1  C   UNL     1       4.100   0.753  -1.314  1.00  0.00     0.274 C 
ENDROOT
BRANCH   1   2
ATOM      2  O   UNL     1       2.750   0.265  -1.167  1.00  0.00    -0.462 OA
BRANCH   2   3
ATOM      3  C   UNL     1       2.466  -0.704  -0.259  1.00  0.00     0.307 C 
ATOM      4  O   UNL     1       1.741  -1.651  -0.550  1.00  0.00    -0.252 OA
BRANCH   3   5
ATOM      5  C   UNL     1       2.990  -0.501   1.139  1.00  0.00     0.144 C 
BRANCH   5   6
ATOM      6  C   UNL     1       3.862  -1.643   1.620  1.00  0.00     0.128 C 
BRANCH   6   7
ATOM      7  N   UNL     1       4.999  -1.870   0.738  1.00  0.00    -0.351 N 
ATOM      8  C   UNL     1       6.342  -1.719   0.959  1.00  0.00     0.255 C 
ATOM      9  H   UNL     1       4.763  -2.184  -0.165  1.00  0.00     0.163 HD
ATOM     10  O   UNL     1       7.105  -1.699  -0.006  1.00  0.00    -0.269 OA
BRANCH   8  11
ATOM     11  C   UNL     1       6.882  -1.550   2.326  1.00  0.00     0.082 A 
ATOM     12  C   UNL     1       7.855  -0.552   2.499  1.00  0.00     0.018 A 
ATOM     13  C   UNL     1       6.509  -2.349   3.417  1.00  0.00     0.138 A 
ATOM     14  C   UNL     1       8.396  -0.303   3.761  1.00  0.00     0.001 A 
ATOM     15  C   UNL     1       7.025  -2.064   4.686  1.00  0.00     0.047 A 
ATOM     16  C   UNL     1       7.968  -1.049   4.856  1.00  0.00     0.004 A 
BRANCH  13  17
ATOM     17  O   UNL     1       5.580  -3.350   3.374  1.00  0.00    -0.434 OA
BRANCH  17  18
ATOM     18  C   UNL     1       5.917  -4.478   2.567  1.00  0.00     0.542 C 
ATOM     19  F   UNL     1       5.001  -4.574   1.571  1.00  0.00    -0.167 F 
ATOM     20  F   UNL     1       7.135  -4.355   1.989  1.00  0.00    -0.167 F 
ENDBRANCH  17  18
ENDBRANCH  13  17
ENDBRANCH   8  11
ENDBRANCH   6   7
ENDBRANCH   5   6
ENDBRANCH   3   5
ENDBRANCH   2   3
ENDBRANCH   1   2
BRANCH   1  21
ATOM     21  C   UNL     1       4.206   2.260  -1.076  1.00  0.00     0.275 C 
BRANCH  21  22
ATOM     22  O   UNL     1       3.862   2.583   0.282  1.00  0.00    -0.458 OA
BRANCH  22  23
ATOM     23  C   UNL     1       2.565   2.924   0.480  1.00  0.00     0.338 C 
ATOM     24  O   UNL     1       1.734   3.146  -0.386  1.00  0.00    -0.246 OA
BRANCH  23  25
ATOM     25  C   UNL     1       2.231   2.807   1.919  1.00  0.00     0.060 A 
ATOM     26  C   UNL     1       0.946   2.354   2.250  1.00  0.00     0.016 A 
ATOM     27  C   UNL     1       3.150   3.103   2.932  1.00  0.00     0.016 A 
ATOM     28  C   UNL     1       0.563   2.243   3.586  1.00  0.00     0.010 A 
ATOM     29  C   UNL     1       2.763   2.997   4.273  1.00  0.00     0.010 A 
ATOM     30  C   UNL     1       1.456   2.602   4.605  1.00  0.00    -0.014 A 
BRANCH  30  31
ATOM     31  C   UNL     1       0.954   2.750   5.992  1.00  0.00     0.031 A 
ATOM     32  C   UNL     1       0.486   4.109   6.440  1.00  0.00     0.074 A 
ATOM     33  C   UNL     1       0.897   1.707   6.840  1.00  0.00     0.049 A 
ATOM     34  N   UNL     1      -0.059   4.464   7.574  1.00  0.00    -0.248 NA
ATOM     35  C   UNL     1       0.654   5.212   5.479  1.00  0.00     0.031 C 
ATOM     36  C   UNL     1       1.338   0.346   6.543  1.00  0.00     0.029 A 
ATOM     37  N   UNL     1       0.455   1.643   8.139  1.00  0.00    -0.354 N 
ATOM     38  C   UNL     1      -0.305   5.827   7.461  1.00  0.00     0.074 A 
ATOM     39  C   UNL     1       0.184   6.243   6.165  1.00  0.00     0.031 C 
ATOM     40  C   UNL     1       1.168  -0.415   7.641  1.00  0.00     0.029 A 
ATOM     41  C   UNL     1       0.606   0.404   8.714  1.00  0.00     0.049 A 
ATOM     42  H   UNL     1       0.067   2.413   8.614  1.00  0.00     0.167 HD
ATOM     43  C   UNL     1      -0.913   6.657   8.341  1.00  0.00     0.034 A 
ATOM     44  C   UNL     1       0.321  -0.017   9.964  1.00  0.00     0.034 A 
ATOM     45  C   UNL     1      -1.399   6.255   9.631  1.00  0.00     0.049 A 
ATOM     46  C   UNL     1      -0.327   0.936  10.939  1.00  0.00     0.074 A 
ATOM     47  C   UNL     1      -2.050   7.021  10.581  1.00  0.00     0.029 A 
ATOM     48  N   UNL     1      -1.273   4.981  10.159  1.00  0.00    -0.354 N 
ATOM     49  N   UNL     1      -0.701   2.180  10.758  1.00  0.00    -0.248 NA
ATOM     50  C   UNL     1      -0.632   0.412  12.280  1.00  0.00     0.031 C 
ATOM     51  C   UNL     1      -2.308   6.210  11.693  1.00  0.00     0.029 A 
ATOM     52  C   UNL     1      -1.828   4.938  11.426  1.00  0.00     0.049 A 
ATOM     53  H   UNL     1      -0.851   4.219   9.701  1.00  0.00     0.167 HD
ATOM     54  C   UNL     1      -1.321   2.570  11.941  1.00  0.00     0.074 A 
ATOM     55  C   UNL     1      -1.290   1.426  12.827  1.00  0.00     0.031 C 
ATOM     56  C   UNL     1      -1.854   3.773  12.272  1.00  0.00     0.034 A 
BRANCH  43  57
ATOM     57  C   UNL     1      -1.135   8.077   7.902  1.00  0.00     0.023 A 
ATOM     58  C   UNL     1      -2.150   8.352   6.962  1.00  0.00     0.012 A 
ATOM     59  C   UNL     1      -0.377   9.136   8.434  1.00  0.00     0.148 A 
ATOM     60  C   UNL     1      -2.389   9.657   6.538  1.00  0.00     0.002 A 
ATOM     61  C   UNL     1      -0.645  10.439   8.033  1.00  0.00     0.091 A 
ATOM     62  F   UNL     1       0.603   8.848   9.303  1.00  0.00    -0.205 F 
ATOM     63  C   UNL     1      -1.644  10.700   7.080  1.00  0.00     0.022 A 
BRANCH  61  64
ATOM     64  S   UNL     1       0.220  11.856   8.717  1.00  0.00     0.127 S 
ATOM     65  O   UNL     1       1.087  12.238   7.604  1.00  0.00    -0.237 OA
ATOM     66  O   UNL     1      -0.876  12.789   8.984  1.00  0.00    -0.237 OA
ATOM     67  O   UNL     1       0.904  11.370   9.907  1.00  0.00    -0.744 OA
ENDBRANCH  61  64
ENDBRANCH  43  57
BRANCH  44  68
ATOM     68  C   UNL     1       0.588  -1.430  10.360  1.00  0.00     0.023 A 
ATOM     69  C   UNL     1      -0.493  -2.299  10.604  1.00  0.00     0.012 A 
ATOM     70  C   UNL     1       1.902  -1.912  10.510  1.00  0.00     0.148 A 
ATOM     71  C   UNL     1      -0.272  -3.609  11.029  1.00  0.00     0.002 A 
ATOM     72  C   UNL     1       2.117  -3.235  10.882  1.00  0.00     0.091 A 
ATOM     73  F   UNL     1       2.920  -1.066  10.296  1.00  0.00    -0.205 F 
ATOM     74  C   UNL     1       1.032  -4.080  11.160  1.00  0.00     0.022 A 
BRANCH  72  75
ATOM     75  S   UNL     1       3.764  -3.949  10.950  1.00  0.00     0.127 S 
ATOM     76  O   UNL     1       4.023  -3.972  12.387  1.00  0.00    -0.237 OA
ATOM     77  O   UNL     1       3.555  -5.263  10.340  1.00  0.00    -0.237 OA
ATOM     78  O   UNL     1       4.605  -3.058  10.162  1.00  0.00    -0.744 OA
ENDBRANCH  72  75
ENDBRANCH  44  68
BRANCH  56  79
ATOM     79  C   UNL     1      -2.482   3.918  13.635  1.00  0.00     0.023 A 
ATOM     80  C   UNL     1      -1.660   3.992  14.777  1.00  0.00     0.012 A 
ATOM     81  C   UNL     1      -3.876   4.069  13.776  1.00  0.00     0.148 A 
ATOM     82  C   UNL     1      -2.218   4.185  16.041  1.00  0.00     0.002 A 
ATOM     83  C   UNL     1      -4.421   4.306  15.033  1.00  0.00     0.091 A 
ATOM     84  F   UNL     1      -4.645   3.976  12.681  1.00  0.00    -0.205 F 
ATOM     85  C   UNL     1      -3.595   4.355  16.168  1.00  0.00     0.022 A 
BRANCH  83  86
ATOM     86  S   UNL     1      -6.172   4.630  15.272  1.00  0.00     0.127 S 
ATOM     87  O   UNL     1      -6.645   3.349  15.791  1.00  0.00    -0.237 OA
ATOM     88  O   UNL     1      -6.160   5.718  16.251  1.00  0.00    -0.237 OA
ATOM     89  O   UNL     1      -6.686   5.008  13.962  1.00  0.00    -0.744 OA
ENDBRANCH  83  86
ENDBRANCH  56  79
ENDBRANCH  30  31
ENDBRANCH  23  25
ENDBRANCH  22  23
ENDBRANCH  21  22
ENDBRANCH   1  21
TORSDOF 19
