REMARK SMILES C#CC[N@@H+](CC(=O)OCCOC(=O)c1ccc(-c2c3nc(c(-c4cccc(S(=O)(=O)[O-])c4F)c4ccc([nH]4)c(-c4cccc(S(=O)(=O)[O-])c4F)c4nc(c(-c5cccc(S(=O)(=O)[O-])c5F)c5ccc2[nH]5)C=C4)C=C3)cc1)Cc1cn(CC)c2ccccc12
REMARK SMILES IDX 9 1 8 2 6 3 7 4 5 5 4 6 3 8 2 9 1 10 77 11 78 12 79 13 88 14
REMARK SMILES IDX 80 15 83 16 87 17 84 18 86 19 85 20 81 21 82 22 10 23 11 24
REMARK SMILES IDX 12 25 13 26 14 27 15 28 76 29 16 30 75 31 17 32 18 33 19 34
REMARK SMILES IDX 69 35 20 36 74 37 68 38 70 39 21 40 73 41 67 42 66 43 22 45
REMARK SMILES IDX 54 46 34 47 53 48 35 49 38 50 52 51 71 52 36 53 37 54 51 56
REMARK SMILES IDX 72 57 39 58 23 59 24 60 32 61 25 62 27 63 33 64 26 65 28 66
REMARK SMILES IDX 29 67 30 68 31 69 55 70 56 71 64 72 57 73 59 74 65 75 58 76
REMARK SMILES IDX 60 77 61 78 62 79 63 80 40 81 41 82 49 83 42 84 44 85 50 86
REMARK SMILES IDX 43 87 45 88 46 89 47 90 48 91
REMARK H PARENT 4 7 70 44 38 55
REMARK Flexibility Score: inf
ROOT
ATOM      1  C   UNL     1      -4.669  -2.495  -1.411  1.00  0.00     0.274 C 
ENDROOT
BRANCH   1   2
ATOM      2  O   UNL     1      -4.076  -1.487  -0.552  1.00  0.00    -0.458 OA
BRANCH   2   3
ATOM      3  C   UNL     1      -4.648  -0.247  -0.506  1.00  0.00     0.361 C 
ATOM      4  O   UNL     1      -5.636   0.046  -1.175  1.00  0.00    -0.245 OA
BRANCH   3   5
ATOM      5  C   UNL     1      -3.958   0.787   0.445  1.00  0.00     0.387 C 
BRANCH   5   6
ATOM      6  N   UNL     1      -2.589   0.493   1.014  1.00  0.00    -0.312 N 
ATOM      7  H   UNL     1      -2.271   1.356   1.454  1.00  0.00     0.349 HD
BRANCH   6   8
ATOM      8  C   UNL     1      -1.820   0.033  -0.095  1.00  0.00     0.354 C 
BRANCH   8   9
ATOM      9  C   UNL     1      -0.300   0.033  -0.095  1.00  0.00    -0.047 C 
ATOM     10  C   UNL     1       1.004   0.033  -0.095  1.00  0.00     0.010 C 
ENDBRANCH   8   9
ENDBRANCH   6   8
BRANCH   6  11
ATOM     11  C   UNL     1      -2.468  -0.465   2.138  1.00  0.00     0.302 C 
BRANCH  11  12
ATOM     12  C   UNL     1      -3.780  -0.621   2.803  1.00  0.00     0.032 A 
ATOM     13  C   UNL     1      -4.771  -1.431   2.311  1.00  0.00     0.096 A 
ATOM     14  C   UNL     1      -4.364   0.146   3.837  1.00  0.00     0.008 A 
ATOM     15  N   UNL     1      -5.975  -0.942   2.724  1.00  0.00    -0.347 N 
ATOM     16  C   UNL     1      -5.753  -0.032   3.736  1.00  0.00     0.048 A 
ATOM     17  C   UNL     1      -3.846   1.084   4.746  1.00  0.00     0.011 A 
ATOM     18  C   UNL     1      -6.644   0.716   4.508  1.00  0.00     0.027 A 
ATOM     19  C   UNL     1      -4.729   1.818   5.534  1.00  0.00     0.001 A 
ATOM     20  C   UNL     1      -6.105   1.641   5.408  1.00  0.00     0.002 A 
BRANCH  15  21
ATOM     21  C   UNL     1      -7.188  -1.100   1.935  1.00  0.00     0.119 C 
ATOM     22  C   UNL     1      -8.210  -2.062   2.497  1.00  0.00     0.027 C 
ENDBRANCH  15  21
ENDBRANCH  11  12
ENDBRANCH   6  11
ENDBRANCH   5   6
ENDBRANCH   3   5
ENDBRANCH   2   3
ENDBRANCH   1   2
BRANCH   1  23
ATOM     23  C   UNL     1      -4.106  -3.896  -1.073  1.00  0.00     0.275 C 
BRANCH  23  24
ATOM     24  O   UNL     1      -4.685  -4.345   0.168  1.00  0.00    -0.458 OA
BRANCH  24  25
ATOM     25  C   UNL     1      -4.240  -5.507   0.735  1.00  0.00     0.338 C 
ATOM     26  O   UNL     1      -3.490  -6.309   0.213  1.00  0.00    -0.246 OA
BRANCH  25  27
ATOM     27  C   UNL     1      -4.733  -5.571   2.153  1.00  0.00     0.060 A 
ATOM     28  C   UNL     1      -5.358  -4.451   2.674  1.00  0.00     0.016 A 
ATOM     29  C   UNL     1      -4.512  -6.638   3.022  1.00  0.00     0.016 A 
ATOM     30  C   UNL     1      -5.550  -4.265   4.033  1.00  0.00     0.010 A 
ATOM     31  C   UNL     1      -4.907  -6.533   4.381  1.00  0.00     0.010 A 
ATOM     32  C   UNL     1      -5.403  -5.324   4.912  1.00  0.00    -0.014 A 
BRANCH  32  33
ATOM     33  C   UNL     1      -5.748  -5.107   6.351  1.00  0.00     0.031 A 
ATOM     34  C   UNL     1      -4.739  -5.443   7.410  1.00  0.00     0.074 A 
ATOM     35  C   UNL     1      -6.918  -4.538   6.726  1.00  0.00     0.049 A 
ATOM     36  N   UNL     1      -4.912  -5.600   8.695  1.00  0.00    -0.248 NA
ATOM     37  C   UNL     1      -3.351  -5.633   6.960  1.00  0.00     0.031 C 
ATOM     38  C   UNL     1      -7.950  -4.022   5.822  1.00  0.00     0.029 A 
ATOM     39  N   UNL     1      -7.441  -4.282   7.974  1.00  0.00    -0.354 N 
ATOM     40  C   UNL     1      -3.684  -6.020   9.189  1.00  0.00     0.074 A 
ATOM     41  C   UNL     1      -2.761  -6.040   8.075  1.00  0.00     0.031 C 
ATOM     42  C   UNL     1      -8.943  -3.469   6.531  1.00  0.00     0.029 A 
ATOM     43  C   UNL     1      -8.706  -3.732   7.941  1.00  0.00     0.049 A 
ATOM     44  H   UNL     1      -6.959  -4.474   8.811  1.00  0.00     0.167 HD
ATOM     45  C   UNL     1      -3.370  -6.379  10.456  1.00  0.00     0.034 A 
ATOM     46  C   UNL     1      -9.616  -3.539   8.918  1.00  0.00     0.034 A 
ATOM     47  C   UNL     1      -4.284  -6.285  11.561  1.00  0.00     0.049 A 
ATOM     48  C   UNL     1      -9.267  -3.992  10.308  1.00  0.00     0.074 A 
ATOM     49  C   UNL     1      -4.100  -6.680  12.874  1.00  0.00     0.029 A 
ATOM     50  N   UNL     1      -5.556  -5.735  11.482  1.00  0.00    -0.354 N 
ATOM     51  N   UNL     1      -8.137  -4.485  10.755  1.00  0.00    -0.248 NA
ATOM     52  C   UNL     1     -10.320  -3.880  11.327  1.00  0.00     0.031 C 
ATOM     53  C   UNL     1      -5.268  -6.379  13.586  1.00  0.00     0.029 A 
ATOM     54  C   UNL     1      -6.168  -5.774  12.722  1.00  0.00     0.049 A 
ATOM     55  H   UNL     1      -5.963  -5.369  10.664  1.00  0.00     0.167 HD
ATOM     56  C   UNL     1      -8.335  -4.725  12.108  1.00  0.00     0.074 A 
ATOM     57  C   UNL     1      -9.684  -4.293  12.415  1.00  0.00     0.031 C 
ATOM     58  C   UNL     1      -7.489  -5.278  13.011  1.00  0.00     0.034 A 
BRANCH  45  59
ATOM     59  C   UNL     1      -2.002  -6.964  10.684  1.00  0.00     0.023 A 
ATOM     60  C   UNL     1      -0.861  -6.139  10.688  1.00  0.00     0.012 A 
ATOM     61  C   UNL     1      -1.854  -8.352  10.877  1.00  0.00     0.148 A 
ATOM     62  C   UNL     1       0.411  -6.693  10.837  1.00  0.00     0.002 A 
ATOM     63  C   UNL     1      -0.588  -8.892  11.065  1.00  0.00     0.091 A 
ATOM     64  F   UNL     1      -2.951  -9.122  10.845  1.00  0.00    -0.205 F 
ATOM     65  C   UNL     1       0.547  -8.066  11.031  1.00  0.00     0.022 A 
BRANCH  63  66
ATOM     66  S   UNL     1      -0.318 -10.640  11.377  1.00  0.00     0.127 S 
ATOM     67  O   UNL     1       0.310 -11.069  10.128  1.00  0.00    -0.237 OA
ATOM     68  O   UNL     1       0.579 -10.611  12.532  1.00  0.00    -0.237 OA
ATOM     69  O   UNL     1      -1.631 -11.209  11.642  1.00  0.00    -0.744 OA
ENDBRANCH  63  66
ENDBRANCH  45  59
BRANCH  46  70
ATOM     70  C   UNL     1     -10.958  -2.954   8.611  1.00  0.00     0.023 A 
ATOM     71  C   UNL     1     -11.329  -1.722   9.185  1.00  0.00     0.012 A 
ATOM     72  C   UNL     1     -11.871  -3.603   7.753  1.00  0.00     0.148 A 
ATOM     73  C   UNL     1     -12.584  -1.163   8.933  1.00  0.00     0.002 A 
ATOM     74  C   UNL     1     -13.091  -3.007   7.450  1.00  0.00     0.091 A 
ATOM     75  F   UNL     1     -11.526  -4.792   7.237  1.00  0.00    -0.205 F 
ATOM     76  C   UNL     1     -13.459  -1.798   8.055  1.00  0.00     0.022 A 
BRANCH  74  77
ATOM     77  S   UNL     1     -14.206  -3.684   6.213  1.00  0.00     0.127 S 
ATOM     78  O   UNL     1     -15.276  -4.234   7.042  1.00  0.00    -0.237 OA
ATOM     79  O   UNL     1     -14.571  -2.492   5.447  1.00  0.00    -0.237 OA
ATOM     80  O   UNL     1     -13.417  -4.653   5.465  1.00  0.00    -0.744 OA
ENDBRANCH  74  77
ENDBRANCH  46  70
BRANCH  58  81
ATOM     81  C   UNL     1      -7.979  -5.404  14.427  1.00  0.00     0.023 A 
ATOM     82  C   UNL     1      -8.922  -6.397  14.758  1.00  0.00     0.012 A 
ATOM     83  C   UNL     1      -7.444  -4.587  15.441  1.00  0.00     0.148 A 
ATOM     84  C   UNL     1      -9.344  -6.558  16.077  1.00  0.00     0.002 A 
ATOM     85  C   UNL     1      -7.832  -4.786  16.759  1.00  0.00     0.091 A 
ATOM     86  F   UNL     1      -6.569  -3.631  15.098  1.00  0.00    -0.205 F 
ATOM     87  C   UNL     1      -8.790  -5.763  17.078  1.00  0.00     0.022 A 
BRANCH  85  88
ATOM     88  S   UNL     1      -7.094  -3.874  18.119  1.00  0.00     0.127 S 
ATOM     89  O   UNL     1      -8.154  -2.925  18.453  1.00  0.00    -0.237 OA
ATOM     90  O   UNL     1      -6.877  -4.923  19.116  1.00  0.00    -0.237 OA
ATOM     91  O   UNL     1      -5.870  -3.289  17.587  1.00  0.00    -0.744 OA
ENDBRANCH  85  88
ENDBRANCH  58  81
ENDBRANCH  32  33
ENDBRANCH  25  27
ENDBRANCH  24  25
ENDBRANCH  23  24
ENDBRANCH   1  23
TORSDOF 20
