REMARK SMILES O=C(OCCOC(=O)[C@H](c1c[nH]c2cc(OCc3ccccc3)ccc12)[NH+]1CC[NH+]([C@H]2CCS(=O)(=O)C2)CC1)c1ccc(-c2c3nc(c(-c4cccc(S(=O)(=O)[O-])c4F)c4ccc([nH]4)c(-c4cccc(S(=O)(=O)[O-])c4F)c4nc(c(-c5cccc(S(=O)(=O)[O-])c5F)c5ccc2[nH]5)C=C4)C=C3)cc1
REMARK SMILES IDX 5 1 4 2 3 3 2 4 1 5 40 6 41 7 102 8 42 9 101 10 43 11 44 12
REMARK SMILES IDX 45 13 95 14 46 15 100 16 94 17 96 18 47 19 99 20 93 21 92 22
REMARK SMILES IDX 48 24 80 25 60 26 79 27 61 28 64 29 78 30 97 31 62 32 63 33
REMARK SMILES IDX 77 35 98 36 65 37 49 38 50 39 58 40 51 41 53 42 59 43 52 44
REMARK SMILES IDX 54 45 55 46 56 47 57 48 81 49 82 50 90 51 83 52 85 53 91 54
REMARK SMILES IDX 84 55 86 56 87 57 88 58 89 59 66 60 67 61 75 62 68 63 70 64
REMARK SMILES IDX 76 65 69 66 71 67 72 68 73 69 74 70 6 71 7 72 8 73 9 74
REMARK SMILES IDX 27 75 28 76 39 77 29 79 38 80 30 81 31 83 32 84 37 85 33 86
REMARK SMILES IDX 34 87 35 88 36 89 10 90 11 91 26 92 12 93 13 94 25 95 14 97
REMARK SMILES IDX 24 98 15 99 16 100 17 101 18 102 19 103 23 104 20 105 22 106
REMARK SMILES IDX 21 107
REMARK H PARENT 96 23 64 34 27 78 30 82 12 96
REMARK Flexibility Score: inf
ROOT
ATOM      1  C   UNL     1       3.110   1.238  12.785  1.00  0.00     0.274 C 
ENDROOT
BRANCH   1   2
ATOM      2  C   UNL     1       2.297   0.650  13.936  1.00  0.00     0.275 C 
BRANCH   2   3
ATOM      3  O   UNL     1       1.667  -0.592  13.614  1.00  0.00    -0.458 OA
BRANCH   3   4
ATOM      4  C   UNL     1       0.569  -0.831  12.866  1.00  0.00     0.338 C 
ATOM      5  O   UNL     1       0.362  -2.005  12.548  1.00  0.00    -0.246 OA
BRANCH   4   6
ATOM      6  C   UNL     1      -0.378   0.215  12.326  1.00  0.00     0.060 A 
ATOM      7  C   UNL     1      -0.411   1.592  12.570  1.00  0.00     0.016 A 
ATOM      8  C   UNL     1      -1.260  -0.263  11.351  1.00  0.00     0.016 A 
ATOM      9  C   UNL     1      -1.210   2.461  11.791  1.00  0.00     0.010 A 
ATOM     10  C   UNL     1      -1.943   0.611  10.501  1.00  0.00     0.010 A 
ATOM     11  C   UNL     1      -1.966   1.987  10.714  1.00  0.00    -0.014 A 
BRANCH  11  12
ATOM     12  C   UNL     1      -2.838   2.876   9.880  1.00  0.00     0.031 A 
ATOM     13  C   UNL     1      -4.287   2.515   9.670  1.00  0.00     0.074 A 
ATOM     14  C   UNL     1      -2.361   3.963   9.229  1.00  0.00     0.049 A 
ATOM     15  N   UNL     1      -5.214   3.203   9.057  1.00  0.00    -0.248 NA
ATOM     16  C   UNL     1      -4.743   1.186  10.117  1.00  0.00     0.031 C 
ATOM     17  C   UNL     1      -0.950   4.276   9.070  1.00  0.00     0.029 A 
ATOM     18  N   UNL     1      -2.980   4.989   8.551  1.00  0.00    -0.354 N 
ATOM     19  C   UNL     1      -6.325   2.376   9.031  1.00  0.00     0.074 A 
ATOM     20  C   UNL     1      -5.919   1.088   9.527  1.00  0.00     0.031 C 
ATOM     21  C   UNL     1      -0.800   5.438   8.411  1.00  0.00     0.029 A 
ATOM     22  C   UNL     1      -2.114   5.969   8.101  1.00  0.00     0.049 A 
ATOM     23  H   UNL     1      -3.952   5.021   8.399  1.00  0.00     0.167 HD
ATOM     24  C   UNL     1      -7.608   2.683   8.745  1.00  0.00     0.034 A 
ATOM     25  C   UNL     1      -2.356   7.172   7.539  1.00  0.00     0.034 A 
ATOM     26  C   UNL     1      -8.023   3.978   8.312  1.00  0.00     0.049 A 
ATOM     27  C   UNL     1      -3.799   7.560   7.338  1.00  0.00     0.074 A 
ATOM     28  C   UNL     1      -9.301   4.444   8.084  1.00  0.00     0.029 A 
ATOM     29  N   UNL     1      -7.150   5.018   8.035  1.00  0.00    -0.354 N 
ATOM     30  N   UNL     1      -4.877   6.853   7.577  1.00  0.00    -0.248 NA
ATOM     31  C   UNL     1      -4.068   8.916   6.838  1.00  0.00     0.031 C 
ATOM     32  C   UNL     1      -9.199   5.769   7.648  1.00  0.00     0.029 A 
ATOM     33  C   UNL     1      -7.860   6.132   7.640  1.00  0.00     0.049 A 
ATOM     34  H   UNL     1      -6.170   4.968   8.109  1.00  0.00     0.167 HD
ATOM     35  C   UNL     1      -5.950   7.679   7.276  1.00  0.00     0.074 A 
ATOM     36  C   UNL     1      -5.393   8.957   6.880  1.00  0.00     0.031 C 
ATOM     37  C   UNL     1      -7.276   7.402   7.298  1.00  0.00     0.034 A 
BRANCH  24  38
ATOM     38  C   UNL     1      -8.624   1.611   9.017  1.00  0.00     0.023 A 
ATOM     39  C   UNL     1      -8.862   1.213  10.354  1.00  0.00     0.012 A 
ATOM     40  C   UNL     1      -9.299   0.963   7.972  1.00  0.00     0.148 A 
ATOM     41  C   UNL     1      -9.704   0.143  10.639  1.00  0.00     0.002 A 
ATOM     42  C   UNL     1     -10.183  -0.067   8.269  1.00  0.00     0.091 A 
ATOM     43  F   UNL     1      -9.040   1.341   6.712  1.00  0.00    -0.205 F 
ATOM     44  C   UNL     1     -10.370  -0.492   9.597  1.00  0.00     0.022 A 
BRANCH  42  45
ATOM     45  S   UNL     1     -11.145  -0.911   7.013  1.00  0.00     0.127 S 
ATOM     46  O   UNL     1     -10.685  -2.292   7.164  1.00  0.00    -0.237 OA
ATOM     47  O   UNL     1     -12.512  -0.669   7.472  1.00  0.00    -0.237 OA
ATOM     48  O   UNL     1     -10.798  -0.283   5.746  1.00  0.00    -0.744 OA
ENDBRANCH  42  45
ENDBRANCH  24  38
BRANCH  25  49
ATOM     49  C   UNL     1      -1.266   8.162   7.248  1.00  0.00     0.023 A 
ATOM     50  C   UNL     1      -1.174   9.322   8.050  1.00  0.00     0.012 A 
ATOM     51  C   UNL     1      -0.387   8.029   6.153  1.00  0.00     0.148 A 
ATOM     52  C   UNL     1      -0.279  10.349   7.737  1.00  0.00     0.002 A 
ATOM     53  C   UNL     1       0.520   9.049   5.858  1.00  0.00     0.091 A 
ATOM     54  F   UNL     1      -0.483   6.933   5.387  1.00  0.00    -0.205 F 
ATOM     55  C   UNL     1       0.568  10.212   6.642  1.00  0.00     0.022 A 
BRANCH  53  56
ATOM     56  S   UNL     1       1.637   8.966   4.447  1.00  0.00     0.127 S 
ATOM     57  O   UNL     1       0.900   9.724   3.439  1.00  0.00    -0.237 OA
ATOM     58  O   UNL     1       2.838   9.638   4.946  1.00  0.00    -0.237 OA
ATOM     59  O   UNL     1       1.813   7.546   4.166  1.00  0.00    -0.744 OA
ENDBRANCH  53  56
ENDBRANCH  25  49
BRANCH  37  60
ATOM     60  C   UNL     1      -8.217   8.505   6.918  1.00  0.00     0.023 A 
ATOM     61  C   UNL     1      -8.318   8.911   5.574  1.00  0.00     0.012 A 
ATOM     62  C   UNL     1      -9.066   9.072   7.886  1.00  0.00     0.148 A 
ATOM     63  C   UNL     1      -9.232   9.894   5.204  1.00  0.00     0.002 A 
ATOM     64  C   UNL     1     -10.014  10.007   7.500  1.00  0.00     0.091 A 
ATOM     65  F   UNL     1      -8.934   8.680   9.162  1.00  0.00    -0.205 F 
ATOM     66  C   UNL     1     -10.088  10.431   6.163  1.00  0.00     0.022 A 
BRANCH  64  67
ATOM     67  S   UNL     1     -11.230  10.659   8.647  1.00  0.00     0.127 S 
ATOM     68  O   UNL     1     -10.748  12.024   8.847  1.00  0.00    -0.237 OA
ATOM     69  O   UNL     1     -12.469  10.554   7.876  1.00  0.00    -0.237 OA
ATOM     70  O   UNL     1     -11.176   9.798   9.822  1.00  0.00    -0.744 OA
ENDBRANCH  64  67
ENDBRANCH  37  60
ENDBRANCH  11  12
ENDBRANCH   4   6
ENDBRANCH   3   4
ENDBRANCH   2   3
ENDBRANCH   1   2
BRANCH   1  71
ATOM     71  O   UNL     1       2.355   1.374  11.573  1.00  0.00    -0.457 OA
BRANCH  71  72
ATOM     72  C   UNL     1       2.890   0.854  10.428  1.00  0.00     0.370 C 
ATOM     73  O   UNL     1       3.741  -0.034  10.426  1.00  0.00    -0.245 OA
BRANCH  72  74
ATOM     74  C   UNL     1       2.327   1.495   9.115  1.00  0.00     0.328 C 
BRANCH  74  75
ATOM     75  N   UNL     1       0.958   1.034   8.743  1.00  0.00    -0.310 N 
ATOM     76  C   UNL     1       0.628   1.172   7.296  1.00  0.00     0.325 C 
ATOM     77  C   UNL     1       0.696  -0.373   9.068  1.00  0.00     0.325 C 
ATOM     78  H   UNL     1       0.378   1.658   9.303  1.00  0.00     0.349 HD
ATOM     79  C   UNL     1       1.211   0.066   6.343  1.00  0.00     0.324 C 
ATOM     80  C   UNL     1       1.406  -1.419   8.229  1.00  0.00     0.324 C 
ATOM     81  N   UNL     1       0.990  -1.319   6.827  1.00  0.00    -0.322 N 
ATOM     82  H   UNL     1      -0.013  -1.496   6.765  1.00  0.00     0.348 HD
BRANCH  81  83
ATOM     83  C   UNL     1       1.548  -2.380   5.974  1.00  0.00     0.200 C 
ATOM     84  C   UNL     1       3.084  -2.487   6.006  1.00  0.00     0.082 C 
ATOM     85  C   UNL     1       1.001  -3.774   6.345  1.00  0.00     0.201 C 
ATOM     86  C   UNL     1       3.467  -3.782   5.311  1.00  0.00     0.143 C 
ATOM     87  S   UNL     1       2.166  -4.941   5.672  1.00  0.00     0.156 S 
ATOM     88  O   UNL     1       1.662  -5.463   4.426  1.00  0.00    -0.229 OA
ATOM     89  O   UNL     1       2.622  -5.816   6.742  1.00  0.00    -0.229 OA
ENDBRANCH  81  83
ENDBRANCH  74  75
BRANCH  74  90
ATOM     90  C   UNL     1       2.393   3.017   9.225  1.00  0.00     0.046 A 
ATOM     91  C   UNL     1       2.130   3.833  10.321  1.00  0.00     0.094 A 
ATOM     92  C   UNL     1       2.762   3.915   8.170  1.00  0.00     0.009 A 
ATOM     93  N   UNL     1       2.390   5.133   9.993  1.00  0.00    -0.361 N 
ATOM     94  C   UNL     1       2.844   5.200   8.706  1.00  0.00     0.050 A 
ATOM     95  C   UNL     1       3.024   3.755   6.800  1.00  0.00     0.015 A 
ATOM     96  H   UNL     1       2.268   5.905  10.592  1.00  0.00     0.166 HD
ATOM     97  C   UNL     1       3.307   6.297   7.980  1.00  0.00     0.073 A 
ATOM     98  C   UNL     1       3.396   4.864   6.042  1.00  0.00     0.047 A 
ATOM     99  C   UNL     1       3.671   6.081   6.653  1.00  0.00     0.121 A 
BRANCH  99 100
ATOM    100  O   UNL     1       4.350   7.118   6.082  1.00  0.00    -0.489 OA
BRANCH 100 101
ATOM    101  C   UNL     1       5.092   6.861   4.888  1.00  0.00     0.265 C 
BRANCH 101 102
ATOM    102  C   UNL     1       6.445   6.214   5.175  1.00  0.00    -0.011 A 
ATOM    103  C   UNL     1       7.610   6.990   5.169  1.00  0.00     0.007 A 
ATOM    104  C   UNL     1       6.572   4.846   5.469  1.00  0.00     0.007 A 
ATOM    105  C   UNL     1       8.854   6.414   5.449  1.00  0.00     0.000 A 
ATOM    106  C   UNL     1       7.807   4.274   5.778  1.00  0.00     0.000 A 
ATOM    107  C   UNL     1       8.951   5.059   5.762  1.00  0.00     0.000 A 
ENDBRANCH 101 102
ENDBRANCH 100 101
ENDBRANCH  99 100
ENDBRANCH  74  90
ENDBRANCH  72  74
ENDBRANCH  71  72
ENDBRANCH   1  71
TORSDOF 20
