REMARK SMILES Cc1cscc1CNC(=O)CC(C)(C)C(=O)OCCOC(=O)c1ccc(-c2c3nc(c(-c4cccc(S(=O)(=O)[O-])c4F)c4ccc([nH]4)c(-c4cccc(S(=O)(=O)[O-])c4F)c4nc(c(-c5cccc(S(=O)(=O)[O-])c5F)c5ccc2[nH]5)C=C4)C=C3)cc1
REMARK SMILES IDX 18 1 17 2 15 3 16 4 12 5 13 6 14 7 11 8 9 9 8 10 10 12 7 13
REMARK SMILES IDX 6 14 1 15 2 16 3 17 4 18 5 19 19 20 20 21 21 22 22 23 23 24
REMARK SMILES IDX 24 25 85 26 25 27 84 28 26 29 27 30 28 31 78 32 29 33 83 34
REMARK SMILES IDX 77 35 79 36 30 37 82 38 76 39 75 40 31 42 63 43 43 44 62 45
REMARK SMILES IDX 44 46 47 47 61 48 80 49 45 50 46 51 60 53 81 54 48 55 32 56
REMARK SMILES IDX 33 57 41 58 34 59 36 60 42 61 35 62 37 63 38 64 39 65 40 66
REMARK SMILES IDX 64 67 65 68 73 69 66 70 68 71 74 72 67 73 69 74 70 75 71 76
REMARK SMILES IDX 72 77 49 78 50 79 58 80 51 81 53 82 59 83 52 84 54 85 55 86
REMARK SMILES IDX 56 87 57 88
REMARK H PARENT 8 11 79 41 47 52
REMARK Flexibility Score: inf
ROOT
ATOM      1  C   UNL     1      -4.141   3.757   0.242  1.00  0.00     0.274 C 
ENDROOT
BRANCH   1   2
ATOM      2  O   UNL     1      -2.980   3.984   1.069  1.00  0.00    -0.462 OA
BRANCH   2   3
ATOM      3  C   UNL     1      -1.768   3.869   0.451  1.00  0.00     0.312 C 
ATOM      4  O   UNL     1      -1.642   3.555  -0.722  1.00  0.00    -0.252 OA
BRANCH   3   5
ATOM      5  C   UNL     1      -0.605   4.066   1.441  1.00  0.00     0.071 C 
ATOM      6  C   UNL     1      -0.494   2.770   2.261  1.00  0.00     0.024 C 
ATOM      7  C   UNL     1      -0.933   5.214   2.424  1.00  0.00     0.024 C 
BRANCH   5   8
ATOM      8  C   UNL     1       0.766   4.396   0.775  1.00  0.00     0.118 C 
BRANCH   8   9
ATOM      9  C   UNL     1       0.989   4.031  -0.684  1.00  0.00     0.221 C 
ATOM     10  N   UNL     1       1.358   2.781  -1.053  1.00  0.00    -0.352 N 
ATOM     11  H   UNL     1       1.270   2.585  -2.013  1.00  0.00     0.163 HD
ATOM     12  O   UNL     1       0.872   4.880  -1.567  1.00  0.00    -0.275 OA
BRANCH  10  13
ATOM     13  C   UNL     1       1.858   1.699  -0.252  1.00  0.00     0.152 C 
BRANCH  13  14
ATOM     14  C   UNL     1       1.026   0.460  -0.417  1.00  0.00    -0.015 A 
ATOM     15  C   UNL     1       2.935  -1.186   0.228  1.00  0.00     0.045 C 
ATOM     16  C   UNL     1       1.524  -0.874  -0.152  1.00  0.00    -0.035 A 
ATOM     17  C   UNL     1       0.531  -1.825  -0.294  1.00  0.00     0.068 A 
ATOM     18  S   UNL     1      -0.963  -1.158  -0.771  1.00  0.00    -0.152 S 
ATOM     19  C   UNL     1      -0.303   0.414  -0.804  1.00  0.00     0.070 A 
ENDBRANCH  13  14
ENDBRANCH  10  13
ENDBRANCH   8   9
ENDBRANCH   5   8
ENDBRANCH   3   5
ENDBRANCH   2   3
ENDBRANCH   1   2
BRANCH   1  20
ATOM     20  C   UNL     1      -4.857   5.070  -0.062  1.00  0.00     0.275 C 
BRANCH  20  21
ATOM     21  O   UNL     1      -4.022   5.917  -0.869  1.00  0.00    -0.458 OA
BRANCH  21  22
ATOM     22  C   UNL     1      -3.507   6.998  -0.250  1.00  0.00     0.338 C 
ATOM     23  O   UNL     1      -3.715   7.373   0.900  1.00  0.00    -0.246 OA
BRANCH  22  24
ATOM     24  C   UNL     1      -2.537   7.641  -1.140  1.00  0.00     0.060 A 
ATOM     25  C   UNL     1      -1.219   7.191  -1.106  1.00  0.00     0.016 A 
ATOM     26  C   UNL     1      -2.892   8.729  -1.934  1.00  0.00     0.016 A 
ATOM     27  C   UNL     1      -0.234   7.835  -1.846  1.00  0.00     0.010 A 
ATOM     28  C   UNL     1      -1.906   9.363  -2.698  1.00  0.00     0.010 A 
ATOM     29  C   UNL     1      -0.567   8.931  -2.643  1.00  0.00    -0.014 A 
BRANCH  29  30
ATOM     30  C   UNL     1       0.497   9.693  -3.337  1.00  0.00     0.031 A 
ATOM     31  C   UNL     1       0.863  11.054  -2.823  1.00  0.00     0.074 A 
ATOM     32  C   UNL     1       1.131   9.179  -4.407  1.00  0.00     0.049 A 
ATOM     33  N   UNL     1       1.622  11.968  -3.364  1.00  0.00    -0.248 NA
ATOM     34  C   UNL     1       0.294  11.435  -1.518  1.00  0.00     0.031 C 
ATOM     35  C   UNL     1       0.935   7.833  -4.942  1.00  0.00     0.029 A 
ATOM     36  N   UNL     1       2.059   9.743  -5.246  1.00  0.00    -0.354 N 
ATOM     37  C   UNL     1       1.567  13.058  -2.506  1.00  0.00     0.074 A 
ATOM     38  C   UNL     1       0.723  12.683  -1.392  1.00  0.00     0.031 C 
ATOM     39  C   UNL     1       1.704   7.681  -6.033  1.00  0.00     0.029 A 
ATOM     40  C   UNL     1       2.402   8.934  -6.304  1.00  0.00     0.049 A 
ATOM     41  H   UNL     1       2.442  10.639  -5.105  1.00  0.00     0.167 HD
ATOM     42  C   UNL     1       2.165  14.264  -2.638  1.00  0.00     0.034 A 
ATOM     43  C   UNL     1       3.163   9.193  -7.386  1.00  0.00     0.034 A 
ATOM     44  C   UNL     1       3.043  14.610  -3.720  1.00  0.00     0.049 A 
ATOM     45  C   UNL     1       3.777  10.561  -7.536  1.00  0.00     0.074 A 
ATOM     46  C   UNL     1       3.712  15.801  -3.939  1.00  0.00     0.029 A 
ATOM     47  N   UNL     1       3.378  13.762  -4.765  1.00  0.00    -0.354 N 
ATOM     48  N   UNL     1       3.747  11.576  -6.706  1.00  0.00    -0.248 NA
ATOM     49  C   UNL     1       4.536  10.819  -8.769  1.00  0.00     0.031 C 
ATOM     50  C   UNL     1       4.442  15.676  -5.126  1.00  0.00     0.029 A 
ATOM     51  C   UNL     1       4.238  14.404  -5.637  1.00  0.00     0.049 A 
ATOM     52  H   UNL     1       3.051  12.839  -4.870  1.00  0.00     0.167 HD
ATOM     53  C   UNL     1       4.511  12.577  -7.295  1.00  0.00     0.074 A 
ATOM     54  C   UNL     1       4.999  12.044  -8.551  1.00  0.00     0.031 C 
ATOM     55  C   UNL     1       4.772  13.829  -6.846  1.00  0.00     0.034 A 
BRANCH  42  56
ATOM     56  C   UNL     1       1.876  15.297  -1.586  1.00  0.00     0.023 A 
ATOM     57  C   UNL     1       2.493  15.207  -0.323  1.00  0.00     0.012 A 
ATOM     58  C   UNL     1       1.003  16.369  -1.857  1.00  0.00     0.148 A 
ATOM     59  C   UNL     1       2.222  16.153   0.666  1.00  0.00     0.002 A 
ATOM     60  C   UNL     1       0.766  17.327  -0.879  1.00  0.00     0.091 A 
ATOM     61  F   UNL     1       0.399  16.418  -3.053  1.00  0.00    -0.205 F 
ATOM     62  C   UNL     1       1.367  17.217   0.385  1.00  0.00     0.022 A 
BRANCH  60  63
ATOM     63  S   UNL     1      -0.272  18.761  -1.185  1.00  0.00     0.127 S 
ATOM     64  O   UNL     1      -1.531  18.354  -0.563  1.00  0.00    -0.237 OA
ATOM     65  O   UNL     1       0.441  19.823  -0.475  1.00  0.00    -0.237 OA
ATOM     66  O   UNL     1      -0.302  18.922  -2.632  1.00  0.00    -0.744 OA
ENDBRANCH  60  63
ENDBRANCH  42  56
BRANCH  43  67
ATOM     67  C   UNL     1       3.407   8.130  -8.403  1.00  0.00     0.023 A 
ATOM     68  C   UNL     1       4.700   7.587  -8.529  1.00  0.00     0.012 A 
ATOM     69  C   UNL     1       2.373   7.638  -9.224  1.00  0.00     0.148 A 
ATOM     70  C   UNL     1       4.965   6.588  -9.466  1.00  0.00     0.002 A 
ATOM     71  C   UNL     1       2.632   6.607 -10.121  1.00  0.00     0.091 A 
ATOM     72  F   UNL     1       1.154   8.183  -9.108  1.00  0.00    -0.205 F 
ATOM     73  C   UNL     1       3.930   6.090 -10.253  1.00  0.00     0.022 A 
BRANCH  71  74
ATOM     74  S   UNL     1       1.341   5.826 -11.097  1.00  0.00     0.127 S 
ATOM     75  O   UNL     1       1.662   6.292 -12.444  1.00  0.00    -0.237 OA
ATOM     76  O   UNL     1       1.599   4.405 -10.860  1.00  0.00    -0.237 OA
ATOM     77  O   UNL     1       0.083   6.309 -10.545  1.00  0.00    -0.744 OA
ENDBRANCH  71  74
ENDBRANCH  43  67
BRANCH  55  78
ATOM     78  C   UNL     1       5.662  14.708  -7.683  1.00  0.00     0.023 A 
ATOM     79  C   UNL     1       5.144  15.325  -8.838  1.00  0.00     0.012 A 
ATOM     80  C   UNL     1       6.970  15.014  -7.258  1.00  0.00     0.148 A 
ATOM     81  C   UNL     1       5.921  16.226  -9.566  1.00  0.00     0.002 A 
ATOM     82  C   UNL     1       7.723  15.944  -7.964  1.00  0.00     0.091 A 
ATOM     83  F   UNL     1       7.448  14.399  -6.166  1.00  0.00    -0.205 F 
ATOM     84  C   UNL     1       7.203  16.546  -9.122  1.00  0.00     0.022 A 
BRANCH  82  85
ATOM     85  S   UNL     1       9.343  16.489  -7.410  1.00  0.00     0.127 S 
ATOM     86  O   UNL     1      10.225  15.825  -8.368  1.00  0.00    -0.237 OA
ATOM     87  O   UNL     1       9.255  17.941  -7.566  1.00  0.00    -0.237 OA
ATOM     88  O   UNL     1       9.467  16.038  -6.030  1.00  0.00    -0.744 OA
ENDBRANCH  82  85
ENDBRANCH  55  78
ENDBRANCH  29  30
ENDBRANCH  22  24
ENDBRANCH  21  22
ENDBRANCH  20  21
ENDBRANCH   1  20
TORSDOF 18
