REMARK SMILES CN(CC(=O)OCCOC(=O)c1ccc(-c2c3nc(c(-c4cccc(S(=O)(=O)[O-])c4F)c4ccc([nH]4)c(-c4cccc(S(=O)(=O)[O-])c4F)c4nc(c(-c5cccc(S(=O)(=O)[O-])c5F)c5ccc2[nH]5)C=C4)C=C3)cc1)C(=O)c1ccccn1
REMARK SMILES IDX 7 1 6 2 4 3 5 4 3 5 2 6 1 7 75 8 76 9 77 10 78 11 82 12
REMARK SMILES IDX 79 13 81 14 80 15 8 16 9 17 10 18 11 19 12 20 13 21 74 22
REMARK SMILES IDX 14 23 73 24 15 25 16 26 17 27 67 28 18 29 72 30 66 31 68 32
REMARK SMILES IDX 19 33 71 34 65 35 64 36 20 38 52 39 32 40 51 41 33 42 36 43
REMARK SMILES IDX 50 44 69 45 34 46 35 47 49 49 70 50 37 51 21 52 22 53 30 54
REMARK SMILES IDX 23 55 25 56 31 57 24 58 26 59 27 60 28 61 29 62 53 63 54 64
REMARK SMILES IDX 62 65 55 66 57 67 63 68 56 69 58 70 59 71 60 72 61 73 38 74
REMARK SMILES IDX 39 75 47 76 40 77 42 78 48 79 41 80 43 81 44 82 45 83 46 84
REMARK H PARENT 68 37 36 48
REMARK Flexibility Score: inf
ROOT
ATOM      1  C   UNL     1      -3.754  -0.466   1.639  1.00  0.00     0.274 C 
ENDROOT
BRANCH   1   2
ATOM      2  O   UNL     1      -2.363  -0.598   1.254  1.00  0.00    -0.461 OA
BRANCH   2   3
ATOM      3  C   UNL     1      -1.516   0.330   1.779  1.00  0.00     0.325 C 
ATOM      4  O   UNL     1      -1.889   1.286   2.456  1.00  0.00    -0.250 OA
BRANCH   3   5
ATOM      5  C   UNL     1      -0.024   0.006   1.607  1.00  0.00     0.242 C 
BRANCH   5   6
ATOM      6  N   UNL     1       0.411  -0.858   0.505  1.00  0.00    -0.329 N 
ATOM      7  C   UNL     1       0.625  -0.198  -0.769  1.00  0.00     0.147 C 
BRANCH   6   8
ATOM      8  C   UNL     1       0.721  -2.221   0.602  1.00  0.00     0.272 C 
ATOM      9  O   UNL     1       1.044  -2.891  -0.383  1.00  0.00    -0.267 OA
BRANCH   8  10
ATOM     10  C   UNL     1       0.645  -2.939   1.906  1.00  0.00     0.128 A 
ATOM     11  C   UNL     1      -0.182  -4.057   1.982  1.00  0.00     0.034 A 
ATOM     12  N   UNL     1       1.429  -2.498   2.927  1.00  0.00    -0.251 NA
ATOM     13  C   UNL     1      -0.269  -4.730   3.197  1.00  0.00     0.004 A 
ATOM     14  C   UNL     1       1.330  -3.192   4.086  1.00  0.00     0.112 A 
ATOM     15  C   UNL     1       0.497  -4.289   4.272  1.00  0.00     0.020 A 
ENDBRANCH   8  10
ENDBRANCH   6   8
ENDBRANCH   5   6
ENDBRANCH   3   5
ENDBRANCH   2   3
ENDBRANCH   1   2
BRANCH   1  16
ATOM     16  C   UNL     1      -4.153  -1.369   2.822  1.00  0.00     0.275 C 
BRANCH  16  17
ATOM     17  O   UNL     1      -3.565  -0.970   4.080  1.00  0.00    -0.458 OA
BRANCH  17  18
ATOM     18  C   UNL     1      -2.322  -1.465   4.240  1.00  0.00     0.338 C 
ATOM     19  O   UNL     1      -1.729  -2.135   3.409  1.00  0.00    -0.246 OA
BRANCH  18  20
ATOM     20  C   UNL     1      -1.656  -1.113   5.493  1.00  0.00     0.060 A 
ATOM     21  C   UNL     1      -0.587  -0.214   5.438  1.00  0.00     0.016 A 
ATOM     22  C   UNL     1      -1.886  -1.879   6.637  1.00  0.00     0.016 A 
ATOM     23  C   UNL     1       0.278  -0.098   6.522  1.00  0.00     0.010 A 
ATOM     24  C   UNL     1      -1.035  -1.737   7.738  1.00  0.00     0.010 A 
ATOM     25  C   UNL     1       0.058  -0.857   7.680  1.00  0.00    -0.014 A 
BRANCH  25  26
ATOM     26  C   UNL     1       0.894  -0.611   8.875  1.00  0.00     0.031 A 
ATOM     27  C   UNL     1       1.988  -1.547   9.290  1.00  0.00     0.074 A 
ATOM     28  C   UNL     1       0.627   0.495   9.593  1.00  0.00     0.049 A 
ATOM     29  N   UNL     1       2.803  -1.452  10.307  1.00  0.00    -0.248 NA
ATOM     30  C   UNL     1       2.203  -2.740   8.457  1.00  0.00     0.031 C 
ATOM     31  C   UNL     1      -0.428   1.460   9.273  1.00  0.00     0.029 A 
ATOM     32  N   UNL     1       1.195   0.983  10.739  1.00  0.00    -0.354 N 
ATOM     33  C   UNL     1       3.626  -2.569  10.247  1.00  0.00     0.074 A 
ATOM     34  C   UNL     1       3.206  -3.336   9.091  1.00  0.00     0.031 C 
ATOM     35  C   UNL     1      -0.446   2.414  10.213  1.00  0.00     0.029 A 
ATOM     36  C   UNL     1       0.573   2.113  11.212  1.00  0.00     0.049 A 
ATOM     37  H   UNL     1       1.971   0.567  11.179  1.00  0.00     0.167 HD
ATOM     38  C   UNL     1       4.645  -2.909  11.073  1.00  0.00     0.034 A 
ATOM     39  C   UNL     1       0.785   2.820  12.337  1.00  0.00     0.034 A 
ATOM     40  C   UNL     1       5.051  -2.132  12.217  1.00  0.00     0.049 A 
ATOM     41  C   UNL     1       1.905   2.411  13.244  1.00  0.00     0.074 A 
ATOM     42  C   UNL     1       6.094  -2.371  13.096  1.00  0.00     0.029 A 
ATOM     43  N   UNL     1       4.425  -0.971  12.649  1.00  0.00    -0.354 N 
ATOM     44  N   UNL     1       2.752   1.419  13.104  1.00  0.00    -0.248 NA
ATOM     45  C   UNL     1       2.124   3.229  14.442  1.00  0.00     0.031 C 
ATOM     46  C   UNL     1       6.091  -1.359  14.064  1.00  0.00     0.029 A 
ATOM     47  C   UNL     1       5.049  -0.489  13.787  1.00  0.00     0.049 A 
ATOM     48  H   UNL     1       3.651  -0.551  12.209  1.00  0.00     0.167 HD
ATOM     49  C   UNL     1       3.615   1.500  14.187  1.00  0.00     0.074 A 
ATOM     50  C   UNL     1       3.203   2.656  14.961  1.00  0.00     0.031 C 
ATOM     51  C   UNL     1       4.643   0.683  14.522  1.00  0.00     0.034 A 
BRANCH  38  52
ATOM     52  C   UNL     1       5.433  -4.149  10.748  1.00  0.00     0.023 A 
ATOM     53  C   UNL     1       6.421  -4.089   9.745  1.00  0.00     0.012 A 
ATOM     54  C   UNL     1       5.262  -5.341  11.479  1.00  0.00     0.148 A 
ATOM     55  C   UNL     1       7.221  -5.198   9.468  1.00  0.00     0.002 A 
ATOM     56  C   UNL     1       6.080  -6.436  11.213  1.00  0.00     0.091 A 
ATOM     57  F   UNL     1       4.298  -5.390  12.409  1.00  0.00    -0.205 F 
ATOM     58  C   UNL     1       7.058  -6.367  10.207  1.00  0.00     0.022 A 
BRANCH  56  59
ATOM     59  S   UNL     1       5.971  -7.963  12.154  1.00  0.00     0.127 S 
ATOM     60  O   UNL     1       5.191  -8.810  11.254  1.00  0.00    -0.237 OA
ATOM     61  O   UNL     1       7.376  -8.351  12.292  1.00  0.00    -0.237 OA
ATOM     62  O   UNL     1       5.322  -7.605  13.408  1.00  0.00    -0.744 OA
ENDBRANCH  56  59
ENDBRANCH  38  52
BRANCH  39  63
ATOM     63  C   UNL     1      -0.064   4.011  12.604  1.00  0.00     0.023 A 
ATOM     64  C   UNL     1       0.479   5.298  12.444  1.00  0.00     0.012 A 
ATOM     65  C   UNL     1      -1.436   3.873  12.890  1.00  0.00     0.148 A 
ATOM     66  C   UNL     1      -0.331   6.428  12.563  1.00  0.00     0.002 A 
ATOM     67  C   UNL     1      -2.249   4.999  12.948  1.00  0.00     0.091 A 
ATOM     68  F   UNL     1      -1.934   2.639  13.062  1.00  0.00    -0.205 F 
ATOM     69  C   UNL     1      -1.697   6.279  12.796  1.00  0.00     0.022 A 
BRANCH  67  70
ATOM     70  S   UNL     1      -4.036   4.847  13.071  1.00  0.00     0.127 S 
ATOM     71  O   UNL     1      -4.248   4.924  14.513  1.00  0.00    -0.237 OA
ATOM     72  O   UNL     1      -4.507   6.010  12.316  1.00  0.00    -0.237 OA
ATOM     73  O   UNL     1      -4.344   3.570  12.438  1.00  0.00    -0.744 OA
ENDBRANCH  67  70
ENDBRANCH  39  63
BRANCH  51  74
ATOM     74  C   UNL     1       5.383   1.005  15.790  1.00  0.00     0.023 A 
ATOM     75  C   UNL     1       4.802   0.667  17.027  1.00  0.00     0.012 A 
ATOM     76  C   UNL     1       6.660   1.595  15.760  1.00  0.00     0.148 A 
ATOM     77  C   UNL     1       5.472   0.933  18.220  1.00  0.00     0.002 A 
ATOM     78  C   UNL     1       7.337   1.827  16.953  1.00  0.00     0.091 A 
ATOM     79  F   UNL     1       7.185   1.937  14.574  1.00  0.00    -0.205 F 
ATOM     80  C   UNL     1       6.742   1.503  18.183  1.00  0.00     0.022 A 
BRANCH  78  81
ATOM     81  S   UNL     1       9.005   2.494  16.969  1.00  0.00     0.127 S 
ATOM     82  O   UNL     1       8.755   3.925  17.122  1.00  0.00    -0.237 OA
ATOM     83  O   UNL     1       9.597   1.851  18.143  1.00  0.00    -0.237 OA
ATOM     84  O   UNL     1       9.596   2.081  15.703  1.00  0.00    -0.744 OA
ENDBRANCH  78  81
ENDBRANCH  51  74
ENDBRANCH  25  26
ENDBRANCH  18  20
ENDBRANCH  17  18
ENDBRANCH  16  17
ENDBRANCH   1  16
TORSDOF 17
