REMARK SMILES O=C(CCCN1C(=O)/C(=C/c2ccccc2Cl)SC1=S)Nc1cccc(C(=O)OCCOC(=O)c2ccc(-c3c4nc(c(-c5cccc(S(=O)(=O)[O-])c5F)c5ccc([nH]5)c(-c5cccc(S(=O)(=O)[O-])c5F)c5nc(c(-c6cccc(S(=O)(=O)[O-])c6F)c6ccc3[nH]6)C=C5)C=C4)cc2)c1
REMARK SMILES IDX 29 1 27 2 28 3 26 4 22 5 23 6 98 7 24 8 25 9 21 10 1 11 2 12
REMARK SMILES IDX 3 14 4 15 5 16 6 17 7 18 19 19 8 20 9 21 18 22 20 23 10 24
REMARK SMILES IDX 11 25 12 26 16 27 13 28 15 29 17 30 14 31 30 32 31 33 32 34
REMARK SMILES IDX 33 35 34 36 35 37 36 38 97 39 37 40 96 41 38 42 39 43 40 44
REMARK SMILES IDX 90 45 41 46 95 47 89 48 91 49 42 50 94 51 88 52 87 53 43 55
REMARK SMILES IDX 75 56 55 57 74 58 56 59 59 60 73 61 92 62 57 63 58 64 72 66
REMARK SMILES IDX 93 67 60 68 44 69 45 70 53 71 46 72 48 73 54 74 47 75 49 76
REMARK SMILES IDX 50 77 51 78 52 79 76 80 77 81 85 82 78 83 80 84 86 85 79 86
REMARK SMILES IDX 81 87 82 88 83 89 84 90 61 91 62 92 70 93 63 94 65 95 71 96
REMARK SMILES IDX 64 97 66 98 67 99 68 100 69 101
REMARK H PARENT 21 13 91 54 59 65
REMARK Flexibility Score: inf
ROOT
ATOM      1  O   UNL     1      -1.120  -3.875  -0.071  1.00  0.00    -0.458 OA
ENDROOT
BRANCH   1   2
ATOM      2  C   UNL     1      -1.264  -3.698   1.266  1.00  0.00     0.338 C 
ATOM      3  O   UNL     1      -2.169  -4.124   1.964  1.00  0.00    -0.246 OA
BRANCH   2   4
ATOM      4  C   UNL     1      -0.073  -3.006   1.814  1.00  0.00     0.062 A 
ATOM      5  C   UNL     1       1.856  -1.573   1.560  1.00  0.00     0.042 A 
ATOM      6  C   UNL     1       2.322  -1.999   2.811  1.00  0.00     0.026 A 
ATOM      7  C   UNL     1       0.665  -2.093   1.052  1.00  0.00     0.041 A 
ATOM      8  C   UNL     1       1.555  -2.855   3.598  1.00  0.00     0.003 A 
ATOM      9  C   UNL     1       0.341  -3.332   3.112  1.00  0.00     0.016 A 
BRANCH   5  10
ATOM     10  N   UNL     1       2.652  -0.647   0.860  1.00  0.00    -0.326 N 
ATOM     11  O   UNL     1       1.051   0.371  -0.474  1.00  0.00    -0.275 OA
ATOM     12  C   UNL     1       2.215   0.229  -0.110  1.00  0.00     0.224 C 
ATOM     13  H   UNL     1       3.610  -0.623   1.084  1.00  0.00     0.169 HD
BRANCH  12  14
ATOM     14  C   UNL     1       3.318   1.051  -0.751  1.00  0.00     0.102 C 
BRANCH  14  15
ATOM     15  C   UNL     1       4.114   1.949   0.201  1.00  0.00     0.032 C 
BRANCH  15  16
ATOM     16  C   UNL     1       5.365   1.332   0.854  1.00  0.00     0.128 C 
BRANCH  16  17
ATOM     17  N   UNL     1       6.179   0.516  -0.051  1.00  0.00    -0.293 N 
ATOM     18  C   UNL     1       6.787   1.129  -1.136  1.00  0.00     0.266 C 
ATOM     19  C   UNL     1       6.447  -0.829   0.115  1.00  0.00     0.148 C 
ATOM     20  O   UNL     1       6.766   2.324  -1.394  1.00  0.00    -0.268 OA
ATOM     21  C   UNL     1       7.485   0.121  -1.972  1.00  0.00     0.081 C 
ATOM     22  S   UNL     1       7.389  -1.427  -1.237  1.00  0.00    -0.054 SA
ATOM     23  S   UNL     1       5.991  -1.822   1.371  1.00  0.00    -0.052 S 
ATOM     24  C   UNL     1       8.063   0.429  -3.140  1.00  0.00     0.031 C 
BRANCH  24  25
ATOM     25  C   UNL     1       8.696  -0.568  -4.013  1.00  0.00    -0.006 A 
ATOM     26  C   UNL     1      10.060  -0.837  -3.838  1.00  0.00     0.010 A 
ATOM     27  C   UNL     1       7.967  -1.312  -4.956  1.00  0.00     0.048 A 
ATOM     28  C   UNL     1      10.682  -1.842  -4.582  1.00  0.00     0.001 A 
ATOM     29  C   UNL     1       8.593  -2.318  -5.696  1.00  0.00     0.021 A 
ATOM     30  Cl  UNL     1       6.282  -1.032  -5.231  1.00  0.00    -0.084 Cl
ATOM     31  C   UNL     1       9.949  -2.585  -5.505  1.00  0.00     0.002 A 
ENDBRANCH  24  25
ENDBRANCH  16  17
ENDBRANCH  15  16
ENDBRANCH  14  15
ENDBRANCH  12  14
ENDBRANCH   5  10
ENDBRANCH   2   4
ENDBRANCH   1   2
BRANCH   1  32
ATOM     32  C   UNL     1      -2.135  -4.662  -0.725  1.00  0.00     0.275 C 
BRANCH  32  33
ATOM     33  C   UNL     1      -1.581  -6.027  -1.134  1.00  0.00     0.275 C 
BRANCH  33  34
ATOM     34  O   UNL     1      -1.287  -6.812   0.036  1.00  0.00    -0.458 OA
BRANCH  34  35
ATOM     35  C   UNL     1       0.012  -7.149   0.209  1.00  0.00     0.338 C 
ATOM     36  O   UNL     1       0.944  -6.937  -0.546  1.00  0.00    -0.246 OA
BRANCH  35  37
ATOM     37  C   UNL     1       0.184  -7.720   1.553  1.00  0.00     0.060 A 
ATOM     38  C   UNL     1       0.585  -6.854   2.569  1.00  0.00     0.016 A 
ATOM     39  C   UNL     1       0.067  -9.087   1.797  1.00  0.00     0.016 A 
ATOM     40  C   UNL     1       0.883  -7.347   3.837  1.00  0.00     0.010 A 
ATOM     41  C   UNL     1       0.353  -9.582   3.078  1.00  0.00     0.010 A 
ATOM     42  C   UNL     1       0.786  -8.720   4.104  1.00  0.00    -0.014 A 
BRANCH  42  43
ATOM     43  C   UNL     1       1.230  -9.237   5.429  1.00  0.00     0.031 A 
ATOM     44  C   UNL     1       2.470 -10.086   5.532  1.00  0.00     0.074 A 
ATOM     45  C   UNL     1       0.559  -8.904   6.551  1.00  0.00     0.049 A 
ATOM     46  N   UNL     1       3.005 -10.647   6.587  1.00  0.00    -0.248 NA
ATOM     47  C   UNL     1       3.205 -10.343   4.283  1.00  0.00     0.031 C 
ATOM     48  C   UNL     1      -0.649  -8.080   6.600  1.00  0.00     0.029 A 
ATOM     49  N   UNL     1       0.803  -9.215   7.867  1.00  0.00    -0.354 N 
ATOM     50  C   UNL     1       4.104 -11.362   6.125  1.00  0.00     0.074 A 
ATOM     51  C   UNL     1       4.160 -11.168   4.692  1.00  0.00     0.031 C 
ATOM     52  C   UNL     1      -1.030  -7.935   7.880  1.00  0.00     0.029 A 
ATOM     53  C   UNL     1      -0.121  -8.688   8.740  1.00  0.00     0.049 A 
ATOM     54  H   UNL     1       1.567  -9.764   8.158  1.00  0.00     0.167 HD
ATOM     55  C   UNL     1       4.999 -12.099   6.828  1.00  0.00     0.034 A 
ATOM     56  C   UNL     1      -0.231  -8.806  10.079  1.00  0.00     0.034 A 
ATOM     57  C   UNL     1       4.988 -12.245   8.259  1.00  0.00     0.049 A 
ATOM     58  C   UNL     1       0.791  -9.612  10.836  1.00  0.00     0.074 A 
ATOM     59  C   UNL     1       5.868 -12.954   9.059  1.00  0.00     0.029 A 
ATOM     60  N   UNL     1       4.061 -11.661   9.109  1.00  0.00    -0.354 N 
ATOM     61  N   UNL     1       1.859 -10.226  10.386  1.00  0.00    -0.248 NA
ATOM     62  C   UNL     1       0.606  -9.722  12.291  1.00  0.00     0.031 C 
ATOM     63  C   UNL     1       5.472 -12.800  10.393  1.00  0.00     0.029 A 
ATOM     64  C   UNL     1       4.352 -11.985  10.424  1.00  0.00     0.049 A 
ATOM     65  H   UNL     1       3.307 -11.098   8.820  1.00  0.00     0.167 HD
ATOM     66  C   UNL     1       2.483 -10.773  11.502  1.00  0.00     0.074 A 
ATOM     67  C   UNL     1       1.693 -10.387  12.654  1.00  0.00     0.031 C 
ATOM     68  C   UNL     1       3.595 -11.547  11.567  1.00  0.00     0.034 A 
BRANCH  55  69
ATOM     69  C   UNL     1       6.099 -12.781   6.057  1.00  0.00     0.023 A 
ATOM     70  C   UNL     1       7.172 -12.019   5.554  1.00  0.00     0.012 A 
ATOM     71  C   UNL     1       6.101 -14.179   5.881  1.00  0.00     0.148 A 
ATOM     72  C   UNL     1       8.215 -12.632   4.861  1.00  0.00     0.002 A 
ATOM     73  C   UNL     1       7.165 -14.788   5.225  1.00  0.00     0.091 A 
ATOM     74  F   UNL     1       5.062 -14.885   6.348  1.00  0.00    -0.205 F 
ATOM     75  C   UNL     1       8.217 -14.016   4.706  1.00  0.00     0.022 A 
BRANCH  73  76
ATOM     76  S   UNL     1       7.296 -16.571   5.041  1.00  0.00     0.127 S 
ATOM     77  O   UNL     1       7.005 -16.744   3.619  1.00  0.00    -0.237 OA
ATOM     78  O   UNL     1       8.689 -16.819   5.412  1.00  0.00    -0.237 OA
ATOM     79  O   UNL     1       6.316 -17.140   5.955  1.00  0.00    -0.744 OA
ENDBRANCH  73  76
ENDBRANCH  55  69
BRANCH  56  80
ATOM     80  C   UNL     1      -1.331  -8.106  10.804  1.00  0.00     0.023 A 
ATOM     81  C   UNL     1      -1.022  -7.039  11.669  1.00  0.00     0.012 A 
ATOM     82  C   UNL     1      -2.677  -8.483  10.637  1.00  0.00     0.148 A 
ATOM     83  C   UNL     1      -2.029  -6.378  12.375  1.00  0.00     0.002 A 
ATOM     84  C   UNL     1      -3.681  -7.783  11.296  1.00  0.00     0.091 A 
ATOM     85  F   UNL     1      -2.953  -9.521   9.834  1.00  0.00    -0.205 F 
ATOM     86  C   UNL     1      -3.358  -6.741  12.179  1.00  0.00     0.022 A 
BRANCH  84  87
ATOM     87  S   UNL     1      -5.421  -8.103  10.990  1.00  0.00     0.127 S 
ATOM     88  O   UNL     1      -5.796  -8.880  12.168  1.00  0.00    -0.237 OA
ATOM     89  O   UNL     1      -5.979  -6.750  10.941  1.00  0.00    -0.237 OA
ATOM     90  O   UNL     1      -5.464  -8.809   9.716  1.00  0.00    -0.744 OA
ENDBRANCH  84  87
ENDBRANCH  56  80
BRANCH  68  91
ATOM     91  C   UNL     1       4.042 -12.008  12.930  1.00  0.00     0.023 A 
ATOM     92  C   UNL     1       3.311 -13.009  13.600  1.00  0.00     0.012 A 
ATOM     93  C   UNL     1       5.209 -11.490  13.525  1.00  0.00     0.148 A 
ATOM     94  C   UNL     1       3.712 -13.460  14.857  1.00  0.00     0.002 A 
ATOM     95  C   UNL     1       5.627 -11.976  14.759  1.00  0.00     0.091 A 
ATOM     96  F   UNL     1       5.881 -10.522  12.885  1.00  0.00    -0.205 F 
ATOM     97  C   UNL     1       4.875 -12.952  15.432  1.00  0.00     0.022 A 
BRANCH  95  98
ATOM     98  S   UNL     1       7.160 -11.434  15.524  1.00  0.00     0.127 S 
ATOM     99  O   UNL     1       6.682 -10.446  16.488  1.00  0.00    -0.237 OA
ATOM    100  O   UNL     1       7.672 -12.669  16.119  1.00  0.00    -0.237 OA
ATOM    101  O   UNL     1       7.978 -10.912  14.436  1.00  0.00    -0.744 OA
ENDBRANCH  95  98
ENDBRANCH  68  91
ENDBRANCH  42  43
ENDBRANCH  35  37
ENDBRANCH  34  35
ENDBRANCH  33  34
ENDBRANCH  32  33
ENDBRANCH   1  32
TORSDOF 20
