REMARK SMILES CC(C)C(=O)Nc1ccc2[nH]cc([C@@H](C(=O)OCCOC(=O)c3ccc(-c4c5nc(c(-c6cccc(S(=O)(=O)[O-])c6F)c6ccc([nH]6)c(-c6cccc(S(=O)(=O)[O-])c6F)c6nc(c(-c7cccc(S(=O)(=O)[O-])c7F)c7ccc4[nH]7)C=C6)C=C5)cc3)[NH+]3CC[NH+](CCC#N)CC3)c2c1
REMARK SMILES IDX 18 1 17 2 15 3 16 4 14 5 13 6 7 7 8 8 97 9 9 10 96 11 10 12
REMARK SMILES IDX 11 13 12 14 6 16 4 17 5 18 2 20 1 21 3 22 86 23 87 24 95 25
REMARK SMILES IDX 88 27 94 28 89 29 90 31 91 32 92 33 93 34 19 35 20 36 21 37
REMARK SMILES IDX 22 38 23 39 24 40 85 41 25 42 84 43 26 44 27 45 28 46 78 47
REMARK SMILES IDX 29 48 83 49 77 50 79 51 30 52 82 53 76 54 75 55 31 57 63 58
REMARK SMILES IDX 43 59 62 60 44 61 47 62 61 63 80 64 45 65 46 66 60 68 81 69
REMARK SMILES IDX 48 70 32 71 33 72 41 73 34 74 36 75 42 76 35 77 37 78 38 79
REMARK SMILES IDX 39 80 40 81 64 82 65 83 73 84 66 85 68 86 74 87 67 88 69 89
REMARK SMILES IDX 70 90 71 91 72 92 49 93 50 94 58 95 51 96 53 97 59 98 52 99
REMARK SMILES IDX 54 100 55 101 56 102 57 103
REMARK H PARENT 11 15 6 19 86 26 89 30 79 56 47 67
REMARK Flexibility Score: inf
ROOT
ATOM      1  C   UNL     1       0.121  -4.822   7.663  1.00  0.00     0.274 C 
ENDROOT
BRANCH   1   2
ATOM      2  O   UNL     1      -0.019  -3.729   6.730  1.00  0.00    -0.457 OA
BRANCH   2   3
ATOM      3  C   UNL     1      -1.291  -3.350   6.445  1.00  0.00     0.370 C 
ATOM      4  O   UNL     1      -2.283  -3.943   6.869  1.00  0.00    -0.245 OA
BRANCH   3   5
ATOM      5  C   UNL     1      -1.404  -2.088   5.569  1.00  0.00     0.328 C 
BRANCH   5   6
ATOM      6  C   UNL     1      -0.188  -1.474   4.907  1.00  0.00     0.046 A 
ATOM      7  C   UNL     1      -0.920  -0.014   1.491  1.00  0.00     0.041 A 
ATOM      8  C   UNL     1      -0.008   1.033   1.569  1.00  0.00     0.028 A 
ATOM      9  C   UNL     1      -1.157  -0.851   2.576  1.00  0.00     0.037 A 
ATOM     10  C   UNL     1       0.865   1.133   2.655  1.00  0.00     0.029 A 
ATOM     11  C   UNL     1      -0.249  -0.805   3.647  1.00  0.00     0.011 A 
ATOM     12  C   UNL     1       0.779   0.135   3.627  1.00  0.00     0.046 A 
ATOM     13  N   UNL     1       1.576  -0.126   4.712  1.00  0.00    -0.361 N 
ATOM     14  C   UNL     1       1.065  -1.180   5.427  1.00  0.00     0.094 A 
ATOM     15  H   UNL     1       2.394   0.369   4.944  1.00  0.00     0.166 HD
BRANCH   7  16
ATOM     16  N   UNL     1      -1.543  -0.332   0.286  1.00  0.00    -0.326 N 
ATOM     17  C   UNL     1      -0.983  -1.109  -0.696  1.00  0.00     0.226 C 
ATOM     18  O   UNL     1      -1.742  -1.575  -1.554  1.00  0.00    -0.274 OA
ATOM     19  H   UNL     1      -2.446   0.026   0.128  1.00  0.00     0.169 HD
BRANCH  17  20
ATOM     20  C   UNL     1       0.516  -1.459  -0.741  1.00  0.00     0.072 C 
ATOM     21  C   UNL     1       1.444  -0.258  -0.882  1.00  0.00     0.018 C 
ATOM     22  C   UNL     1       0.974  -2.413   0.361  1.00  0.00     0.018 C 
ENDBRANCH  17  20
ENDBRANCH   7  16
ENDBRANCH   5   6
BRANCH   5  23
ATOM     23  N   UNL     1      -2.020  -1.022   6.378  1.00  0.00    -0.310 N 
ATOM     24  C   UNL     1      -1.161  -0.518   7.442  1.00  0.00     0.325 C 
ATOM     25  C   UNL     1      -2.891  -0.062   5.714  1.00  0.00     0.325 C 
ATOM     26  H   UNL     1      -2.756  -1.529   6.871  1.00  0.00     0.349 HD
ATOM     27  C   UNL     1      -0.842   0.995   7.480  1.00  0.00     0.324 C 
ATOM     28  C   UNL     1      -2.421   1.409   5.689  1.00  0.00     0.324 C 
ATOM     29  N   UNL     1      -1.827   1.927   6.921  1.00  0.00    -0.325 N 
ATOM     30  H   UNL     1      -1.304   2.756   6.639  1.00  0.00     0.348 HD
BRANCH  29  31
ATOM     31  C   UNL     1      -2.752   2.527   7.887  1.00  0.00     0.278 C 
BRANCH  31  32
ATOM     32  C   UNL     1      -3.824   1.667   8.554  1.00  0.00     0.181 C 
BRANCH  32  33
ATOM     33  C   UNL     1      -3.199   0.566   9.394  1.00  0.00     0.068 C 
ATOM     34  N   UNL     1      -2.680  -0.348  10.091  1.00  0.00    -0.198 NA
ENDBRANCH  32  33
ENDBRANCH  31  32
ENDBRANCH  29  31
ENDBRANCH   5  23
ENDBRANCH   3   5
ENDBRANCH   2   3
ENDBRANCH   1   2
BRANCH   1  35
ATOM     35  C   UNL     1       0.742  -4.314   8.967  1.00  0.00     0.275 C 
BRANCH  35  36
ATOM     36  O   UNL     1      -0.242  -3.733   9.851  1.00  0.00    -0.458 OA
BRANCH  36  37
ATOM     37  C   UNL     1       0.252  -2.816  10.738  1.00  0.00     0.338 C 
ATOM     38  O   UNL     1       1.406  -2.412  10.742  1.00  0.00    -0.246 OA
BRANCH  37  39
ATOM     39  C   UNL     1      -0.778  -2.302  11.695  1.00  0.00     0.060 A 
ATOM     40  C   UNL     1      -2.105  -2.684  11.627  1.00  0.00     0.016 A 
ATOM     41  C   UNL     1      -0.444  -1.276  12.592  1.00  0.00     0.016 A 
ATOM     42  C   UNL     1      -3.088  -1.859  12.220  1.00  0.00     0.010 A 
ATOM     43  C   UNL     1      -1.442  -0.517  13.254  1.00  0.00     0.010 A 
ATOM     44  C   UNL     1      -2.802  -0.668  12.941  1.00  0.00    -0.014 A 
BRANCH  44  45
ATOM     45  C   UNL     1      -3.813   0.499  13.131  1.00  0.00     0.031 A 
ATOM     46  C   UNL     1      -3.364   1.979  13.226  1.00  0.00     0.074 A 
ATOM     47  C   UNL     1      -5.164   0.374  13.049  1.00  0.00     0.049 A 
ATOM     48  N   UNL     1      -4.001   3.014  13.740  1.00  0.00    -0.248 NA
ATOM     49  C   UNL     1      -2.059   2.355  12.653  1.00  0.00     0.031 C 
ATOM     50  C   UNL     1      -5.910  -0.854  12.810  1.00  0.00     0.029 A 
ATOM     51  N   UNL     1      -6.171   1.332  13.135  1.00  0.00    -0.354 N 
ATOM     52  C   UNL     1      -3.124   4.101  13.691  1.00  0.00     0.074 A 
ATOM     53  C   UNL     1      -1.925   3.621  13.037  1.00  0.00     0.031 C 
ATOM     54  C   UNL     1      -7.204  -0.577  12.631  1.00  0.00     0.029 A 
ATOM     55  C   UNL     1      -7.439   0.797  13.042  1.00  0.00     0.049 A 
ATOM     56  H   UNL     1      -5.996   2.293  13.252  1.00  0.00     0.167 HD
ATOM     57  C   UNL     1      -3.291   5.378  14.133  1.00  0.00     0.034 A 
ATOM     58  C   UNL     1      -8.664   1.247  13.395  1.00  0.00     0.034 A 
ATOM     59  C   UNL     1      -4.537   5.944  14.600  1.00  0.00     0.049 A 
ATOM     60  C   UNL     1      -8.837   2.600  14.003  1.00  0.00     0.074 A 
ATOM     61  C   UNL     1      -4.784   7.235  15.051  1.00  0.00     0.029 A 
ATOM     62  N   UNL     1      -5.754   5.289  14.623  1.00  0.00    -0.354 N 
ATOM     63  N   UNL     1      -7.955   3.552  14.154  1.00  0.00    -0.248 NA
ATOM     64  C   UNL     1     -10.176   2.928  14.518  1.00  0.00     0.031 C 
ATOM     65  C   UNL     1      -6.145   7.353  15.359  1.00  0.00     0.029 A 
ATOM     66  C   UNL     1      -6.749   6.143  15.080  1.00  0.00     0.049 A 
ATOM     67  H   UNL     1      -5.895   4.352  14.355  1.00  0.00     0.167 HD
ATOM     68  C   UNL     1      -8.626   4.587  14.794  1.00  0.00     0.074 A 
ATOM     69  C   UNL     1     -10.001   4.166  14.958  1.00  0.00     0.031 C 
ATOM     70  C   UNL     1      -8.127   5.766  15.233  1.00  0.00     0.034 A 
BRANCH  57  71
ATOM     71  C   UNL     1      -2.100   6.316  14.158  1.00  0.00     0.023 A 
ATOM     72  C   UNL     1      -1.677   6.975  12.989  1.00  0.00     0.012 A 
ATOM     73  C   UNL     1      -1.533   6.687  15.400  1.00  0.00     0.148 A 
ATOM     74  C   UNL     1      -0.705   7.978  13.053  1.00  0.00     0.002 A 
ATOM     75  C   UNL     1      -0.601   7.718  15.461  1.00  0.00     0.091 A 
ATOM     76  F   UNL     1      -1.943   6.047  16.505  1.00  0.00    -0.205 F 
ATOM     77  C   UNL     1      -0.181   8.361  14.287  1.00  0.00     0.022 A 
BRANCH  75  78
ATOM     78  S   UNL     1       0.035   8.353  17.020  1.00  0.00     0.127 S 
ATOM     79  O   UNL     1       1.379   7.778  17.047  1.00  0.00    -0.237 OA
ATOM     80  O   UNL     1      -0.003   9.801  16.809  1.00  0.00    -0.237 OA
ATOM     81  O   UNL     1      -0.878   7.871  18.048  1.00  0.00    -0.744 OA
ENDBRANCH  75  78
ENDBRANCH  57  71
BRANCH  58  82
ATOM     82  C   UNL     1      -9.817   0.296  13.336  1.00  0.00     0.023 A 
ATOM     83  C   UNL     1     -10.869   0.498  12.427  1.00  0.00     0.012 A 
ATOM     84  C   UNL     1      -9.806  -0.871  14.129  1.00  0.00     0.148 A 
ATOM     85  C   UNL     1     -11.871  -0.465  12.289  1.00  0.00     0.002 A 
ATOM     86  C   UNL     1     -10.737  -1.872  13.900  1.00  0.00     0.091 A 
ATOM     87  F   UNL     1      -8.838  -1.013  15.046  1.00  0.00    -0.205 F 
ATOM     88  C   UNL     1     -11.785  -1.664  12.996  1.00  0.00     0.022 A 
BRANCH  86  89
ATOM     89  S   UNL     1     -10.501  -3.521  14.576  1.00  0.00     0.127 S 
ATOM     90  O   UNL     1     -11.392  -3.506  15.732  1.00  0.00    -0.237 OA
ATOM     91  O   UNL     1     -10.937  -4.374  13.469  1.00  0.00    -0.237 OA
ATOM     92  O   UNL     1      -9.074  -3.612  14.861  1.00  0.00    -0.744 OA
ENDBRANCH  86  89
ENDBRANCH  58  82
BRANCH  70  93
ATOM     93  C   UNL     1      -9.081   6.702  15.924  1.00  0.00     0.023 A 
ATOM     94  C   UNL     1      -9.518   6.404  17.231  1.00  0.00     0.012 A 
ATOM     95  C   UNL     1      -9.566   7.858  15.283  1.00  0.00     0.148 A 
ATOM     96  C   UNL     1     -10.457   7.214  17.870  1.00  0.00     0.002 A 
ATOM     97  C   UNL     1     -10.475   8.682  15.940  1.00  0.00     0.091 A 
ATOM     98  F   UNL     1      -9.160   8.114  14.031  1.00  0.00    -0.205 F 
ATOM     99  C   UNL     1     -10.931   8.355  17.227  1.00  0.00     0.022 A 
BRANCH  97 100
ATOM    100  S   UNL     1     -11.097  10.201  15.209  1.00  0.00     0.127 S 
ATOM    101  O   UNL     1     -12.440   9.803  14.790  1.00  0.00    -0.237 OA
ATOM    102  O   UNL     1     -11.061  11.131  16.338  1.00  0.00    -0.237 OA
ATOM    103  O   UNL     1     -10.173  10.528  14.130  1.00  0.00    -0.744 OA
ENDBRANCH  97 100
ENDBRANCH  70  93
ENDBRANCH  44  45
ENDBRANCH  37  39
ENDBRANCH  36  37
ENDBRANCH  35  36
ENDBRANCH   1  35
TORSDOF 21
