REMARK SMILES O=C(OCCOC(=O)c1cc(N2CCN(c3ccc(F)cc3)CC2)ccc1NC(=O)C1CCCC1)c1ccc(-c2c3nc(c(-c4cccc(S(=O)(=O)[O-])c4F)c4ccc([nH]4)c(-c4cccc(S(=O)(=O)[O-])c4F)c4nc(c(-c5cccc(S(=O)(=O)[O-])c5F)c5ccc2[nH]5)C=C4)C=C3)cc1
REMARK SMILES IDX 4 1 3 2 2 3 1 4 36 5 37 6 98 7 38 8 97 9 39 10 40 11 41 12
REMARK SMILES IDX 91 13 42 14 96 15 90 16 92 17 43 18 95 19 89 20 88 21 44 23
REMARK SMILES IDX 76 24 56 25 75 26 57 27 60 28 74 29 93 30 58 31 59 32 73 34
REMARK SMILES IDX 94 35 61 36 45 37 46 38 54 39 47 40 49 41 55 42 48 43 50 44
REMARK SMILES IDX 51 45 52 46 53 47 77 48 78 49 86 50 79 51 81 52 87 53 80 54
REMARK SMILES IDX 82 55 83 56 84 57 85 58 62 59 63 60 71 61 64 62 66 63 72 64
REMARK SMILES IDX 65 65 67 66 68 67 69 68 70 69 5 70 6 71 7 72 8 73 9 74 10 75
REMARK SMILES IDX 27 76 11 77 26 78 25 79 28 80 29 81 30 83 31 84 32 85 35 86
REMARK SMILES IDX 33 87 34 88 12 89 13 90 24 91 14 92 23 93 15 94 16 95 17 96
REMARK SMILES IDX 22 97 18 98 21 99 19 100 20 101
REMARK H PARENT 92 22 60 33 28 82
REMARK Flexibility Score: inf
ROOT
ATOM      1  C   UNL     1       4.447  -1.009   0.773  1.00  0.00     0.275 C 
ENDROOT
BRANCH   1   2
ATOM      2  O   UNL     1       3.573   0.067   1.143  1.00  0.00    -0.458 OA
BRANCH   2   3
ATOM      3  C   UNL     1       3.352   1.258   0.541  1.00  0.00     0.338 C 
ATOM      4  O   UNL     1       2.528   2.014   1.059  1.00  0.00    -0.246 OA
BRANCH   3   5
ATOM      5  C   UNL     1       3.976   1.698  -0.760  1.00  0.00     0.060 A 
ATOM      6  C   UNL     1       5.176   1.258  -1.330  1.00  0.00     0.016 A 
ATOM      7  C   UNL     1       3.271   2.687  -1.460  1.00  0.00     0.016 A 
ATOM      8  C   UNL     1       5.676   1.808  -2.532  1.00  0.00     0.010 A 
ATOM      9  C   UNL     1       3.731   3.199  -2.679  1.00  0.00     0.010 A 
ATOM     10  C   UNL     1       4.983   2.817  -3.196  1.00  0.00    -0.014 A 
BRANCH  10  11
ATOM     11  C   UNL     1       5.606   3.717  -4.216  1.00  0.00     0.031 A 
ATOM     12  C   UNL     1       5.824   5.147  -3.793  1.00  0.00     0.074 A 
ATOM     13  C   UNL     1       6.005   3.373  -5.461  1.00  0.00     0.049 A 
ATOM     14  N   UNL     1       6.155   6.173  -4.523  1.00  0.00    -0.248 NA
ATOM     15  C   UNL     1       5.729   5.443  -2.349  1.00  0.00     0.031 C 
ATOM     16  C   UNL     1       6.239   2.031  -5.975  1.00  0.00     0.029 A 
ATOM     17  N   UNL     1       6.163   4.168  -6.586  1.00  0.00    -0.354 N 
ATOM     18  C   UNL     1       6.389   7.203  -3.628  1.00  0.00     0.074 A 
ATOM     19  C   UNL     1       6.020   6.733  -2.315  1.00  0.00     0.031 C 
ATOM     20  C   UNL     1       6.260   2.076  -7.323  1.00  0.00     0.029 A 
ATOM     21  C   UNL     1       6.037   3.443  -7.764  1.00  0.00     0.049 A 
ATOM     22  H   UNL     1       6.344   5.135  -6.553  1.00  0.00     0.167 HD
ATOM     23  C   UNL     1       6.967   8.398  -3.878  1.00  0.00     0.034 A 
ATOM     24  C   UNL     1       5.678   3.865  -9.002  1.00  0.00     0.034 A 
ATOM     25  C   UNL     1       7.334   8.827  -5.195  1.00  0.00     0.049 A 
ATOM     26  C   UNL     1       5.861   5.321  -9.276  1.00  0.00     0.074 A 
ATOM     27  C   UNL     1       8.031   9.955  -5.580  1.00  0.00     0.029 A 
ATOM     28  N   UNL     1       6.982   8.152  -6.354  1.00  0.00    -0.354 N 
ATOM     29  N   UNL     1       6.145   6.278  -8.433  1.00  0.00    -0.248 NA
ATOM     30  C   UNL     1       5.873   5.716 -10.690  1.00  0.00     0.031 C 
ATOM     31  C   UNL     1       8.039   9.997  -6.979  1.00  0.00     0.029 A 
ATOM     32  C   UNL     1       7.391   8.870  -7.459  1.00  0.00     0.049 A 
ATOM     33  H   UNL     1       6.511   7.289  -6.383  1.00  0.00     0.167 HD
ATOM     34  C   UNL     1       6.550   7.340  -9.219  1.00  0.00     0.074 A 
ATOM     35  C   UNL     1       6.339   6.953 -10.601  1.00  0.00     0.031 C 
ATOM     36  C   UNL     1       7.161   8.479  -8.823  1.00  0.00     0.034 A 
BRANCH  23  37
ATOM     37  C   UNL     1       7.254   9.276  -2.699  1.00  0.00     0.023 A 
ATOM     38  C   UNL     1       8.241   8.900  -1.761  1.00  0.00     0.012 A 
ATOM     39  C   UNL     1       6.529  10.462  -2.506  1.00  0.00     0.148 A 
ATOM     40  C   UNL     1       8.462   9.669  -0.620  1.00  0.00     0.002 A 
ATOM     41  C   UNL     1       6.786  11.246  -1.391  1.00  0.00     0.091 A 
ATOM     42  F   UNL     1       5.578  10.781  -3.395  1.00  0.00    -0.205 F 
ATOM     43  C   UNL     1       7.739  10.844  -0.439  1.00  0.00     0.022 A 
BRANCH  41  44
ATOM     44  S   UNL     1       5.947  12.804  -1.105  1.00  0.00     0.127 S 
ATOM     45  O   UNL     1       5.071  12.465   0.015  1.00  0.00    -0.237 OA
ATOM     46  O   UNL     1       7.059  13.692  -0.763  1.00  0.00    -0.237 OA
ATOM     47  O   UNL     1       5.272  13.131  -2.353  1.00  0.00    -0.744 OA
ENDBRANCH  41  44
ENDBRANCH  23  37
BRANCH  24  48
ATOM     48  C   UNL     1       5.155   2.998 -10.109  1.00  0.00     0.023 A 
ATOM     49  C   UNL     1       5.995   2.181 -10.880  1.00  0.00     0.012 A 
ATOM     50  C   UNL     1       3.767   3.013 -10.409  1.00  0.00     0.148 A 
ATOM     51  C   UNL     1       5.457   1.349 -11.875  1.00  0.00     0.002 A 
ATOM     52  C   UNL     1       3.227   2.115 -11.329  1.00  0.00     0.091 A 
ATOM     53  F   UNL     1       2.985   3.872  -9.738  1.00  0.00    -0.205 F 
ATOM     54  C   UNL     1       4.076   1.291 -12.077  1.00  0.00     0.022 A 
BRANCH  52  55
ATOM     55  S   UNL     1       1.454   1.782 -11.438  1.00  0.00     0.127 S 
ATOM     56  O   UNL     1       1.130   2.269 -12.776  1.00  0.00    -0.237 OA
ATOM     57  O   UNL     1       1.406   0.326 -11.289  1.00  0.00    -0.237 OA
ATOM     58  O   UNL     1       0.845   2.513 -10.335  1.00  0.00    -0.744 OA
ENDBRANCH  52  55
ENDBRANCH  24  48
BRANCH  36  59
ATOM     59  C   UNL     1       7.750   9.328  -9.901  1.00  0.00     0.023 A 
ATOM     60  C   UNL     1       6.931  10.108 -10.733  1.00  0.00     0.012 A 
ATOM     61  C   UNL     1       9.150   9.364 -10.050  1.00  0.00     0.148 A 
ATOM     62  C   UNL     1       7.503  10.903 -11.722  1.00  0.00     0.002 A 
ATOM     63  C   UNL     1       9.714  10.207 -10.991  1.00  0.00     0.091 A 
ATOM     64  F   UNL     1       9.898   8.574  -9.265  1.00  0.00    -0.205 F 
ATOM     65  C   UNL     1       8.892  10.965 -11.840  1.00  0.00     0.022 A 
BRANCH  63  66
ATOM     66  S   UNL     1      11.487  10.434 -11.134  1.00  0.00     0.127 S 
ATOM     67  O   UNL     1      11.741   9.958 -12.493  1.00  0.00    -0.237 OA
ATOM     68  O   UNL     1      11.620  11.879 -10.956  1.00  0.00    -0.237 OA
ATOM     69  O   UNL     1      12.090   9.631 -10.078  1.00  0.00    -0.744 OA
ENDBRANCH  63  66
ENDBRANCH  36  59
ENDBRANCH  10  11
ENDBRANCH   3   5
ENDBRANCH   2   3
ENDBRANCH   1   2
BRANCH   1  70
ATOM     70  C   UNL     1       3.950  -1.880  -0.379  1.00  0.00     0.275 C 
BRANCH  70  71
ATOM     71  O   UNL     1       3.303  -1.131  -1.415  1.00  0.00    -0.458 OA
BRANCH  71  72
ATOM     72  C   UNL     1       1.959  -0.956  -1.271  1.00  0.00     0.340 C 
ATOM     73  O   UNL     1       1.271  -1.404  -0.374  1.00  0.00    -0.246 OA
BRANCH  72  74
ATOM     74  C   UNL     1       1.432  -0.110  -2.369  1.00  0.00     0.085 A 
ATOM     75  C   UNL     1       0.527   0.930  -2.038  1.00  0.00     0.043 A 
ATOM     76  C   UNL     1       1.764  -0.374  -3.707  1.00  0.00     0.055 A 
ATOM     77  C   UNL     1      -0.077   1.700  -3.036  1.00  0.00     0.038 A 
ATOM     78  C   UNL     1       0.945   0.194  -4.662  1.00  0.00     0.029 A 
ATOM     79  C   UNL     1       0.129   1.274  -4.346  1.00  0.00     0.028 A 
BRANCH  76  80
ATOM     80  N   UNL     1       2.944  -1.088  -4.018  1.00  0.00    -0.325 N 
ATOM     81  C   UNL     1       3.709  -1.196  -5.145  1.00  0.00     0.227 C 
ATOM     82  H   UNL     1       3.288  -1.619  -3.263  1.00  0.00     0.169 HD
ATOM     83  O   UNL     1       4.803  -1.759  -5.023  1.00  0.00    -0.274 OA
BRANCH  81  84
ATOM     84  C   UNL     1       3.238  -0.649  -6.471  1.00  0.00     0.079 C 
ATOM     85  C   UNL     1       3.185   0.870  -6.503  1.00  0.00     0.013 C 
ATOM     86  C   UNL     1       4.187  -0.952  -7.630  1.00  0.00     0.013 C 
ATOM     87  C   UNL     1       3.044   1.175  -7.963  1.00  0.00     0.001 C 
ATOM     88  C   UNL     1       3.845   0.095  -8.679  1.00  0.00     0.001 C 
ENDBRANCH  81  84
ENDBRANCH  76  80
BRANCH  77  89
ATOM     89  N   UNL     1      -0.893   2.781  -2.806  1.00  0.00    -0.368 N 
ATOM     90  C   UNL     1      -0.621   3.876  -1.851  1.00  0.00     0.138 C 
ATOM     91  C   UNL     1      -2.140   2.904  -3.583  1.00  0.00     0.138 C 
ATOM     92  C   UNL     1      -0.851   5.291  -2.483  1.00  0.00     0.138 C 
ATOM     93  C   UNL     1      -2.229   4.276  -4.266  1.00  0.00     0.138 C 
ATOM     94  N   UNL     1      -2.098   5.346  -3.271  1.00  0.00    -0.368 N 
BRANCH  94  95
ATOM     95  C   UNL     1      -3.211   6.006  -2.795  1.00  0.00     0.037 A 
ATOM     96  C   UNL     1      -3.193   7.401  -2.656  1.00  0.00     0.029 A 
ATOM     97  C   UNL     1      -4.405   5.337  -2.486  1.00  0.00     0.029 A 
ATOM     98  C   UNL     1      -4.332   8.104  -2.248  1.00  0.00     0.041 A 
ATOM     99  C   UNL     1      -5.540   6.027  -2.058  1.00  0.00     0.041 A 
ATOM    100  C   UNL     1      -5.495   7.407  -1.950  1.00  0.00     0.123 A 
ATOM    101  F   UNL     1      -6.590   8.073  -1.561  1.00  0.00    -0.207 F 
ENDBRANCH  94  95
ENDBRANCH  77  89
ENDBRANCH  72  74
ENDBRANCH  71  72
ENDBRANCH  70  71
ENDBRANCH   1  70
TORSDOF 18
