REMARK SMILES CC(C)n1c([C@H](O)CC(=O)OCCOC(=O)c2ccc(-c3c4nc(c(-c5cccc(S(=O)(=O)[O-])c5F)c5ccc([nH]5)c(-c5cccc(S(=O)(=O)[O-])c5F)c5nc(c(-c6cccc(S(=O)(=O)[O-])c6F)c6ccc3[nH]6)C=C5)C=C4)cc2)nc2cc(Cl)ccc21
REMARK SMILES IDX 12 1 11 2 9 3 10 4 8 5 6 6 5 7 4 8 87 9 80 10 81 11 86 12
REMARK SMILES IDX 82 13 85 14 83 15 84 16 2 17 1 18 3 19 7 20 13 22 14 23
REMARK SMILES IDX 15 24 16 25 17 26 18 27 79 28 19 29 78 30 20 31 21 32 22 33
REMARK SMILES IDX 72 34 23 35 77 36 71 37 73 38 24 39 76 40 70 41 69 42 25 44
REMARK SMILES IDX 57 45 37 46 56 47 38 48 41 49 55 50 74 51 39 52 40 53 54 55
REMARK SMILES IDX 75 56 42 57 26 58 27 59 35 60 28 61 30 62 36 63 29 64 31 65
REMARK SMILES IDX 32 66 33 67 34 68 58 69 59 70 67 71 60 72 62 73 68 74 61 75
REMARK SMILES IDX 63 76 64 77 65 78 66 79 43 80 44 81 52 82 45 83 47 84 53 85
REMARK SMILES IDX 46 86 48 87 49 88 50 89 51 90
REMARK H PARENT 7 21 73 43 41 54
REMARK Flexibility Score: inf
ROOT
ATOM      1  C   UNL     1      -0.930  -3.079  -3.634  1.00  0.00     0.274 C 
ENDROOT
BRANCH   1   2
ATOM      2  O   UNL     1      -1.445  -2.472  -2.429  1.00  0.00    -0.462 OA
BRANCH   2   3
ATOM      3  C   UNL     1      -2.186  -3.270  -1.608  1.00  0.00     0.309 C 
ATOM      4  O   UNL     1      -2.513  -4.415  -1.887  1.00  0.00    -0.252 OA
BRANCH   3   5
ATOM      5  C   UNL     1      -2.665  -2.526  -0.379  1.00  0.00     0.162 C 
BRANCH   5   6
ATOM      6  C   UNL     1      -1.745  -1.391   0.042  1.00  0.00     0.191 C 
BRANCH   6   7
ATOM      7  C   UNL     1      -1.989  -0.952   1.474  1.00  0.00     0.139 A 
ATOM      8  N   UNL     1      -2.806   0.072   1.928  1.00  0.00    -0.323 N 
ATOM      9  C   UNL     1      -2.872  -0.009   3.310  1.00  0.00     0.069 A 
ATOM     10  N   UNL     1      -1.443  -1.576   2.512  1.00  0.00    -0.230 NA
ATOM     11  C   UNL     1      -2.011  -1.044   3.646  1.00  0.00     0.090 A 
ATOM     12  C   UNL     1      -3.607   0.698   4.274  1.00  0.00     0.030 A 
ATOM     13  C   UNL     1      -1.843  -1.397   4.997  1.00  0.00     0.051 A 
ATOM     14  C   UNL     1      -3.437   0.337   5.613  1.00  0.00     0.023 A 
ATOM     15  C   UNL     1      -2.562  -0.687   5.966  1.00  0.00     0.043 A 
ATOM     16  Cl  UNL     1      -2.346  -1.062   7.635  1.00  0.00    -0.084 Cl
BRANCH   8  17
ATOM     17  C   UNL     1      -3.509   1.093   1.161  1.00  0.00     0.083 C 
ATOM     18  C   UNL     1      -2.562   2.086   0.477  1.00  0.00     0.031 C 
ATOM     19  C   UNL     1      -4.624   0.519   0.291  1.00  0.00     0.031 C 
ENDBRANCH   8  17
ENDBRANCH   6   7
BRANCH   6  20
ATOM     20  O   UNL     1      -1.909  -0.306  -0.866  1.00  0.00    -0.385 OA
ATOM     21  H   UNL     1      -2.826   0.008  -0.833  1.00  0.00     0.211 HD
ENDBRANCH   6  20
ENDBRANCH   5   6
ENDBRANCH   3   5
ENDBRANCH   2   3
ENDBRANCH   1   2
BRANCH   1  22
ATOM     22  C   UNL     1       0.582  -3.287  -3.501  1.00  0.00     0.275 C 
BRANCH  22  23
ATOM     23  O   UNL     1       0.816  -4.389  -2.611  1.00  0.00    -0.458 OA
BRANCH  23  24
ATOM     24  C   UNL     1       1.418  -4.099  -1.431  1.00  0.00     0.338 C 
ATOM     25  O   UNL     1       2.181  -3.168  -1.213  1.00  0.00    -0.246 OA
BRANCH  24  26
ATOM     26  C   UNL     1       0.673  -4.854  -0.403  1.00  0.00     0.060 A 
ATOM     27  C   UNL     1       0.106  -6.103  -0.687  1.00  0.00     0.016 A 
ATOM     28  C   UNL     1       0.277  -4.138   0.724  1.00  0.00     0.016 A 
ATOM     29  C   UNL     1      -1.010  -6.526   0.031  1.00  0.00     0.010 A 
ATOM     30  C   UNL     1      -0.846  -4.560   1.420  1.00  0.00     0.010 A 
ATOM     31  C   UNL     1      -1.558  -5.693   1.011  1.00  0.00    -0.014 A 
BRANCH  31  32
ATOM     32  C   UNL     1      -2.707  -6.139   1.804  1.00  0.00     0.031 A 
ATOM     33  C   UNL     1      -2.226  -6.931   2.958  1.00  0.00     0.074 A 
ATOM     34  C   UNL     1      -4.025  -5.856   1.663  1.00  0.00     0.049 A 
ATOM     35  N   UNL     1      -2.147  -8.220   3.001  1.00  0.00    -0.248 NA
ATOM     36  C   UNL     1      -1.539  -6.242   4.061  1.00  0.00     0.031 C 
ATOM     37  C   UNL     1      -4.688  -4.930   0.746  1.00  0.00     0.029 A 
ATOM     38  N   UNL     1      -5.082  -6.297   2.417  1.00  0.00    -0.354 N 
ATOM     39  C   UNL     1      -1.642  -8.493   4.262  1.00  0.00     0.074 A 
ATOM     40  C   UNL     1      -1.047  -7.276   4.745  1.00  0.00     0.031 C 
ATOM     41  C   UNL     1      -5.941  -4.651   1.181  1.00  0.00     0.029 A 
ATOM     42  C   UNL     1      -6.253  -5.547   2.275  1.00  0.00     0.049 A 
ATOM     43  H   UNL     1      -5.022  -7.079   3.012  1.00  0.00     0.167 HD
ATOM     44  C   UNL     1      -2.068  -9.579   4.959  1.00  0.00     0.034 A 
ATOM     45  C   UNL     1      -7.399  -5.684   2.991  1.00  0.00     0.034 A 
ATOM     46  C   UNL     1      -2.864 -10.455   4.145  1.00  0.00     0.049 A 
ATOM     47  C   UNL     1      -7.422  -7.086   3.452  1.00  0.00     0.074 A 
ATOM     48  C   UNL     1      -2.657 -11.348   3.118  1.00  0.00     0.029 A 
ATOM     49  N   UNL     1      -4.186 -10.096   4.118  1.00  0.00    -0.354 N 
ATOM     50  N   UNL     1      -7.540  -8.107   2.651  1.00  0.00    -0.248 NA
ATOM     51  C   UNL     1      -7.018  -7.393   4.817  1.00  0.00     0.031 C 
ATOM     52  C   UNL     1      -3.873 -11.384   2.371  1.00  0.00     0.029 A 
ATOM     53  C   UNL     1      -4.800 -10.541   2.981  1.00  0.00     0.049 A 
ATOM     54  H   UNL     1      -4.636  -9.582   4.827  1.00  0.00     0.167 HD
ATOM     55  C   UNL     1      -6.786  -9.086   3.267  1.00  0.00     0.074 A 
ATOM     56  C   UNL     1      -6.663  -8.668   4.656  1.00  0.00     0.031 C 
ATOM     57  C   UNL     1      -6.044  -9.959   2.530  1.00  0.00     0.034 A 
BRANCH  44  58
ATOM     58  C   UNL     1      -2.190  -9.590   6.458  1.00  0.00     0.023 A 
ATOM     59  C   UNL     1      -2.255 -10.834   7.112  1.00  0.00     0.012 A 
ATOM     60  C   UNL     1      -2.489  -8.438   7.223  1.00  0.00     0.148 A 
ATOM     61  C   UNL     1      -2.558 -10.919   8.476  1.00  0.00     0.002 A 
ATOM     62  C   UNL     1      -2.695  -8.519   8.592  1.00  0.00     0.091 A 
ATOM     63  F   UNL     1      -2.718  -7.274   6.604  1.00  0.00    -0.205 F 
ATOM     64  C   UNL     1      -2.748  -9.761   9.223  1.00  0.00     0.022 A 
BRANCH  62  65
ATOM     65  S   UNL     1      -2.898  -7.046   9.599  1.00  0.00     0.127 S 
ATOM     66  O   UNL     1      -4.323  -7.100   9.912  1.00  0.00    -0.237 OA
ATOM     67  O   UNL     1      -2.003  -7.328  10.722  1.00  0.00    -0.237 OA
ATOM     68  O   UNL     1      -2.464  -5.942   8.753  1.00  0.00    -0.744 OA
ENDBRANCH  62  65
ENDBRANCH  44  58
BRANCH  45  69
ATOM     69  C   UNL     1      -8.363  -4.694   3.550  1.00  0.00     0.023 A 
ATOM     70  C   UNL     1      -9.518  -5.183   4.209  1.00  0.00     0.012 A 
ATOM     71  C   UNL     1      -7.994  -3.353   3.780  1.00  0.00     0.148 A 
ATOM     72  C   UNL     1     -10.192  -4.418   5.167  1.00  0.00     0.002 A 
ATOM     73  C   UNL     1      -8.677  -2.589   4.729  1.00  0.00     0.091 A 
ATOM     74  F   UNL     1      -6.926  -2.856   3.145  1.00  0.00    -0.205 F 
ATOM     75  C   UNL     1      -9.753  -3.130   5.448  1.00  0.00     0.022 A 
BRANCH  73  76
ATOM     76  S   UNL     1      -8.182  -0.907   5.133  1.00  0.00     0.127 S 
ATOM     77  O   UNL     1      -9.473  -0.227   5.259  1.00  0.00    -0.237 OA
ATOM     78  O   UNL     1      -7.464  -1.088   6.390  1.00  0.00    -0.237 OA
ATOM     79  O   UNL     1      -7.383  -0.449   4.001  1.00  0.00    -0.744 OA
ENDBRANCH  73  76
ENDBRANCH  45  69
BRANCH  57  80
ATOM     80  C   UNL     1      -6.468 -10.205   1.115  1.00  0.00     0.023 A 
ATOM     81  C   UNL     1      -6.318  -9.258   0.083  1.00  0.00     0.012 A 
ATOM     82  C   UNL     1      -6.957 -11.485   0.809  1.00  0.00     0.148 A 
ATOM     83  C   UNL     1      -6.656  -9.589  -1.234  1.00  0.00     0.002 A 
ATOM     84  C   UNL     1      -7.260 -11.820  -0.501  1.00  0.00     0.091 A 
ATOM     85  F   UNL     1      -7.099 -12.361   1.815  1.00  0.00    -0.205 F 
ATOM     86  C   UNL     1      -7.114 -10.874  -1.528  1.00  0.00     0.022 A 
BRANCH  84  87
ATOM     87  S   UNL     1      -7.779 -13.477  -0.951  1.00  0.00     0.127 S 
ATOM     88  O   UNL     1      -9.171 -13.265  -1.343  1.00  0.00    -0.237 OA
ATOM     89  O   UNL     1      -6.873 -13.795  -2.055  1.00  0.00    -0.237 OA
ATOM     90  O   UNL     1      -7.587 -14.300   0.237  1.00  0.00    -0.744 OA
ENDBRANCH  84  87
ENDBRANCH  57  80
ENDBRANCH  31  32
ENDBRANCH  24  26
ENDBRANCH  23  24
ENDBRANCH  22  23
ENDBRANCH   1  22
TORSDOF 18
