REMARK SMILES O=C(OCCOC(=O)c1ccccc1-c1ccc(/C=C2/SC(=S)N(Cc3ccccc3)C2=O)o1)c1ccc(-c2c3nc(c(-c4cccc(S(=O)(=O)[O-])c4F)c4ccc([nH]4)c(-c4cccc(S(=O)(=O)[O-])c4F)c4nc(c(-c5cccc(S(=O)(=O)[O-])c5F)c5ccc2[nH]5)C=C4)C=C3)cc1
REMARK SMILES IDX 5 1 4 2 3 3 2 4 1 5 35 6 36 7 97 8 37 9 96 10 38 11 39 12
REMARK SMILES IDX 40 13 90 14 41 15 95 16 89 17 91 18 42 19 94 20 88 21 87 22
REMARK SMILES IDX 43 24 75 25 55 26 74 27 56 28 59 29 73 30 92 31 57 32 58 33
REMARK SMILES IDX 72 35 93 36 60 37 44 38 45 39 53 40 46 41 48 42 54 43 47 44
REMARK SMILES IDX 49 45 50 46 51 47 52 48 76 49 77 50 85 51 78 52 80 53 86 54
REMARK SMILES IDX 79 55 81 56 82 57 83 58 84 59 61 60 62 61 70 62 63 63 65 64
REMARK SMILES IDX 71 65 64 66 66 67 67 68 68 69 69 70 6 71 7 72 8 73 9 74
REMARK SMILES IDX 10 75 14 76 11 77 13 78 12 79 15 80 16 81 34 82 17 83 18 84
REMARK SMILES IDX 19 85 20 86 21 87 32 88 22 89 24 90 33 91 23 92 25 93 26 94
REMARK SMILES IDX 27 95 31 96 28 97 30 98 29 99
REMARK H PARENT 91 23 59 34
REMARK Flexibility Score: inf
ROOT
ATOM      1  C   UNL     1       4.100  -1.817  -0.936  1.00  0.00     0.275 C 
ENDROOT
BRANCH   1   2
ATOM      2  C   UNL     1       4.316  -1.340   0.499  1.00  0.00     0.275 C 
BRANCH   2   3
ATOM      3  O   UNL     1       3.179  -0.657   1.054  1.00  0.00    -0.458 OA
BRANCH   3   4
ATOM      4  C   UNL     1       2.817   0.647   1.009  1.00  0.00     0.338 C 
ATOM      5  O   UNL     1       1.854   0.989   1.697  1.00  0.00    -0.246 OA
BRANCH   4   6
ATOM      6  C   UNL     1       3.446   1.696   0.133  1.00  0.00     0.060 A 
ATOM      7  C   UNL     1       4.678   1.615  -0.526  1.00  0.00     0.016 A 
ATOM      8  C   UNL     1       2.697   2.877  -0.050  1.00  0.00     0.016 A 
ATOM      9  C   UNL     1       5.136   2.647  -1.352  1.00  0.00     0.010 A 
ATOM     10  C   UNL     1       3.144   3.910  -0.880  1.00  0.00     0.010 A 
ATOM     11  C   UNL     1       4.381   3.805  -1.523  1.00  0.00    -0.014 A 
BRANCH  11  12
ATOM     12  C   UNL     1       4.972   4.976  -2.209  1.00  0.00     0.031 A 
ATOM     13  C   UNL     1       5.533   6.062  -1.358  1.00  0.00     0.074 A 
ATOM     14  C   UNL     1       5.030   5.064  -3.549  1.00  0.00     0.049 A 
ATOM     15  N   UNL     1       6.081   7.184  -1.724  1.00  0.00    -0.248 NA
ATOM     16  C   UNL     1       5.486   5.847   0.098  1.00  0.00     0.031 C 
ATOM     17  C   UNL     1       4.579   4.016  -4.439  1.00  0.00     0.029 A 
ATOM     18  N   UNL     1       5.455   6.046  -4.402  1.00  0.00    -0.354 N 
ATOM     19  C   UNL     1       6.424   7.824  -0.546  1.00  0.00     0.074 A 
ATOM     20  C   UNL     1       6.006   6.976   0.547  1.00  0.00     0.031 C 
ATOM     21  C   UNL     1       4.691   4.402  -5.716  1.00  0.00     0.029 A 
ATOM     22  C   UNL     1       5.206   5.761  -5.729  1.00  0.00     0.049 A 
ATOM     23  H   UNL     1       5.895   6.874  -4.099  1.00  0.00     0.167 HD
ATOM     24  C   UNL     1       7.045   9.014  -0.401  1.00  0.00     0.034 A 
ATOM     25  C   UNL     1       5.352   6.524  -6.829  1.00  0.00     0.034 A 
ATOM     26  C   UNL     1       7.415   9.845  -1.510  1.00  0.00     0.049 A 
ATOM     27  C   UNL     1       5.968   7.879  -6.641  1.00  0.00     0.074 A 
ATOM     28  C   UNL     1       8.040  11.075  -1.493  1.00  0.00     0.029 A 
ATOM     29  N   UNL     1       7.159   9.537  -2.842  1.00  0.00    -0.354 N 
ATOM     30  N   UNL     1       6.356   8.447  -5.524  1.00  0.00    -0.248 NA
ATOM     31  C   UNL     1       6.219   8.679  -7.845  1.00  0.00     0.031 C 
ATOM     32  C   UNL     1       8.125  11.530  -2.813  1.00  0.00     0.029 A 
ATOM     33  C   UNL     1       7.600  10.561  -3.658  1.00  0.00     0.049 A 
ATOM     34  H   UNL     1       6.726   8.711  -3.157  1.00  0.00     0.167 HD
ATOM     35  C   UNL     1       6.949   9.645  -5.888  1.00  0.00     0.074 A 
ATOM     36  C   UNL     1       6.858   9.725  -7.335  1.00  0.00     0.031 C 
ATOM     37  C   UNL     1       7.525  10.584  -5.100  1.00  0.00     0.034 A 
BRANCH  24  38
ATOM     38  C   UNL     1       7.298   9.462   1.009  1.00  0.00     0.023 A 
ATOM     39  C   UNL     1       8.241   8.782   1.809  1.00  0.00     0.012 A 
ATOM     40  C   UNL     1       6.539  10.505   1.567  1.00  0.00     0.148 A 
ATOM     41  C   UNL     1       8.378   9.094   3.161  1.00  0.00     0.002 A 
ATOM     42  C   UNL     1       6.717  10.844   2.902  1.00  0.00     0.091 A 
ATOM     43  F   UNL     1       5.623  11.112   0.799  1.00  0.00    -0.205 F 
ATOM     44  C   UNL     1       7.620  10.127   3.705  1.00  0.00     0.022 A 
BRANCH  42  45
ATOM     45  S   UNL     1       5.833  12.199   3.676  1.00  0.00     0.127 S 
ATOM     46  O   UNL     1       4.933  11.486   4.582  1.00  0.00    -0.237 OA
ATOM     47  O   UNL     1       6.915  12.927   4.340  1.00  0.00    -0.237 OA
ATOM     48  O   UNL     1       5.185  12.927   2.595  1.00  0.00    -0.744 OA
ENDBRANCH  42  45
ENDBRANCH  24  38
BRANCH  25  49
ATOM     49  C   UNL     1       4.952   6.002  -8.168  1.00  0.00     0.023 A 
ATOM     50  C   UNL     1       5.938   5.668  -9.116  1.00  0.00     0.012 A 
ATOM     51  C   UNL     1       3.595   5.787  -8.490  1.00  0.00     0.148 A 
ATOM     52  C   UNL     1       5.582   5.151 -10.364  1.00  0.00     0.002 A 
ATOM     53  C   UNL     1       3.248   5.236  -9.720  1.00  0.00     0.091 A 
ATOM     54  F   UNL     1       2.668   6.116  -7.580  1.00  0.00    -0.205 F 
ATOM     55  C   UNL     1       4.240   4.927 -10.663  1.00  0.00     0.022 A 
BRANCH  53  56
ATOM     56  S   UNL     1       1.553   4.833 -10.164  1.00  0.00     0.127 S 
ATOM     57  O   UNL     1       1.288   5.798 -11.229  1.00  0.00    -0.237 OA
ATOM     58  O   UNL     1       1.677   3.445 -10.611  1.00  0.00    -0.237 OA
ATOM     59  O   UNL     1       0.772   5.009  -8.947  1.00  0.00    -0.744 OA
ENDBRANCH  53  56
ENDBRANCH  25  49
BRANCH  37  60
ATOM     60  C   UNL     1       8.165  11.756  -5.785  1.00  0.00     0.023 A 
ATOM     61  C   UNL     1       7.371  12.780  -6.332  1.00  0.00     0.012 A 
ATOM     62  C   UNL     1       9.567  11.886  -5.771  1.00  0.00     0.148 A 
ATOM     63  C   UNL     1       7.969  13.917  -6.872  1.00  0.00     0.002 A 
ATOM     64  C   UNL     1      10.151  13.045  -6.257  1.00  0.00     0.091 A 
ATOM     65  F   UNL     1      10.297  10.882  -5.264  1.00  0.00    -0.205 F 
ATOM     66  C   UNL     1       9.355  14.057  -6.819  1.00  0.00     0.022 A 
BRANCH  64  67
ATOM     67  S   UNL     1      11.913  13.359  -6.121  1.00  0.00     0.127 S 
ATOM     68  O   UNL     1      12.335  13.295  -7.519  1.00  0.00    -0.237 OA
ATOM     69  O   UNL     1      11.941  14.699  -5.534  1.00  0.00    -0.237 OA
ATOM     70  O   UNL     1      12.446  12.310  -5.262  1.00  0.00    -0.744 OA
ENDBRANCH  64  67
ENDBRANCH  37  60
ENDBRANCH  11  12
ENDBRANCH   4   6
ENDBRANCH   3   4
ENDBRANCH   2   3
ENDBRANCH   1   2
BRANCH   1  71
ATOM     71  O   UNL     1       3.582  -0.778  -1.771  1.00  0.00    -0.458 OA
BRANCH  71  72
ATOM     72  C   UNL     1       2.248  -0.823  -2.025  1.00  0.00     0.338 C 
ATOM     73  O   UNL     1       1.468  -1.670  -1.645  1.00  0.00    -0.246 OA
BRANCH  72  74
ATOM     74  C   UNL     1       1.835   0.402  -2.746  1.00  0.00     0.071 A 
ATOM     75  C   UNL     1       0.765   1.126  -2.190  1.00  0.00     0.016 A 
ATOM     76  C   UNL     1       2.471   0.850  -3.911  1.00  0.00     0.032 A 
ATOM     77  C   UNL     1       0.344   2.320  -2.775  1.00  0.00     0.001 A 
ATOM     78  C   UNL     1       1.964   2.002  -4.536  1.00  0.00     0.013 A 
ATOM     79  C   UNL     1       0.937   2.753  -3.955  1.00  0.00     0.001 A 
BRANCH  76  80
ATOM     80  C   UNL     1       3.653   0.200  -4.461  1.00  0.00     0.135 A 
ATOM     81  C   UNL     1       3.930  -1.046  -4.967  1.00  0.00     0.051 A 
ATOM     82  O   UNL     1       4.798   0.939  -4.424  1.00  0.00    -0.457 OA
ATOM     83  C   UNL     1       5.308  -1.040  -5.291  1.00  0.00     0.051 A 
ATOM     84  C   UNL     1       5.813   0.223  -4.995  1.00  0.00     0.128 A 
BRANCH  84  85
ATOM     85  C   UNL     1       7.121   0.732  -5.236  1.00  0.00     0.068 C 
ATOM     86  C   UNL     1       7.540   0.950  -6.490  1.00  0.00     0.084 C 
ATOM     87  S   UNL     1       9.185   1.044  -6.982  1.00  0.00    -0.054 SA
ATOM     88  C   UNL     1       6.685   0.897  -7.699  1.00  0.00     0.266 C 
ATOM     89  C   UNL     1       8.785   0.446  -8.605  1.00  0.00     0.148 C 
ATOM     90  N   UNL     1       7.418   0.418  -8.765  1.00  0.00    -0.288 N 
ATOM     91  O   UNL     1       5.519   1.257  -7.726  1.00  0.00    -0.268 OA
ATOM     92  S   UNL     1       9.964  -0.017  -9.692  1.00  0.00    -0.052 S 
BRANCH  90  93
ATOM     93  C   UNL     1       6.690  -0.002  -9.962  1.00  0.00     0.163 C 
BRANCH  93  94
ATOM     94  C   UNL     1       6.091  -1.395  -9.819  1.00  0.00    -0.028 A 
ATOM     95  C   UNL     1       6.541  -2.461 -10.610  1.00  0.00     0.005 A 
ATOM     96  C   UNL     1       5.036  -1.637  -8.922  1.00  0.00     0.005 A 
ATOM     97  C   UNL     1       5.953  -3.727 -10.500  1.00  0.00     0.000 A 
ATOM     98  C   UNL     1       4.469  -2.905  -8.793  1.00  0.00     0.000 A 
ATOM     99  C   UNL     1       4.925  -3.951  -9.586  1.00  0.00     0.000 A 
ENDBRANCH  93  94
ENDBRANCH  90  93
ENDBRANCH  84  85
ENDBRANCH  76  80
ENDBRANCH  72  74
ENDBRANCH  71  72
ENDBRANCH   1  71
TORSDOF 18
