REMARK SMILES O=C(C[S@](=O)c1c([N+](=O)[O-])cc(C(F)(F)F)cc1[N+](=O)[O-])OCCOC(=O)c1ccc(-c2c3nc(c(-c4cccc(S(=O)(=O)[O-])c4F)c4ccc([nH]4)c(-c4cccc(S(=O)(=O)[O-])c4F)c4nc(c(-c5cccc(S(=O)(=O)[O-])c5F)c5ccc2[nH]5)C=C4)C=C3)cc1
REMARK SMILES IDX 23 1 22 2 2 3 1 4 3 5 4 6 5 7 6 8 7 9 18 10 11 11 17 12
REMARK SMILES IDX 12 13 8 14 9 15 10 16 19 17 20 18 21 19 13 20 14 21 15 22
REMARK SMILES IDX 16 23 24 24 25 25 26 26 27 27 28 28 29 29 90 30 30 31 89 32
REMARK SMILES IDX 31 33 32 34 33 35 83 36 34 37 88 38 82 39 84 40 35 41 87 42
REMARK SMILES IDX 81 43 80 44 36 46 68 47 48 48 67 49 49 50 52 51 66 52 85 53
REMARK SMILES IDX 50 54 51 55 65 57 86 58 53 59 37 60 38 61 46 62 39 63 41 64
REMARK SMILES IDX 47 65 40 66 42 67 43 68 44 69 45 70 69 71 70 72 78 73 71 74
REMARK SMILES IDX 73 75 79 76 72 77 74 78 75 79 76 80 77 81 54 82 55 83 63 84
REMARK SMILES IDX 56 85 58 86 64 87 57 88 59 89 60 90 61 91 62 92
REMARK H PARENT 84 45 52 56
REMARK Flexibility Score: inf
ROOT
ATOM      1  C   UNL     1       2.797  -5.066   0.144  1.00  0.00     0.274 C 
ENDROOT
BRANCH   1   2
ATOM      2  O   UNL     1       4.083  -5.204  -0.504  1.00  0.00    -0.461 OA
BRANCH   2   3
ATOM      3  C   UNL     1       5.063  -4.267  -0.517  1.00  0.00     0.319 C 
ATOM      4  O   UNL     1       6.194  -4.566  -0.889  1.00  0.00    -0.251 OA
BRANCH   3   5
ATOM      5  C   UNL     1       4.716  -2.865  -0.159  1.00  0.00     0.233 C 
BRANCH   5   6
ATOM      6  S   UNL     1       4.298  -1.725  -1.497  1.00  0.00     0.078 S 
ATOM      7  O   UNL     1       3.445  -0.697  -0.809  1.00  0.00    -0.253 OA
BRANCH   6   8
ATOM      8  C   UNL     1       3.123  -2.572  -2.609  1.00  0.00     0.194 A 
ATOM      9  C   UNL     1       1.886  -1.972  -2.936  1.00  0.00     0.293 A 
ATOM     10  C   UNL     1       3.365  -3.797  -3.256  1.00  0.00     0.293 A 
ATOM     11  C   UNL     1       0.870  -2.646  -3.651  1.00  0.00     0.100 A 
ATOM     12  C   UNL     1       2.343  -4.505  -3.938  1.00  0.00     0.100 A 
ATOM     13  C   UNL     1       1.072  -3.948  -4.109  1.00  0.00     0.069 A 
BRANCH   9  14
ATOM     14  N   UNL     1       1.674  -0.529  -2.802  1.00  0.00     0.064 N 
ATOM     15  O   UNL     1       0.600  -0.170  -2.300  1.00  0.00    -0.258 OA
ATOM     16  O   UNL     1       2.494   0.202  -3.373  1.00  0.00    -0.258 OA
ENDBRANCH   9  14
BRANCH  10  17
ATOM     17  N   UNL     1       4.725  -4.289  -3.493  1.00  0.00     0.064 N 
ATOM     18  O   UNL     1       4.870  -5.512  -3.605  1.00  0.00    -0.258 OA
ATOM     19  O   UNL     1       5.607  -3.438  -3.648  1.00  0.00    -0.258 OA
ENDBRANCH  10  17
BRANCH  13  20
ATOM     20  C   UNL     1       0.007  -4.660  -4.913  1.00  0.00     0.416 C 
ATOM     21  F   UNL     1      -1.251  -4.394  -4.472  1.00  0.00    -0.166 F 
ATOM     22  F   UNL     1       0.036  -4.303  -6.224  1.00  0.00    -0.166 F 
ATOM     23  F   UNL     1       0.139  -6.013  -4.883  1.00  0.00    -0.166 F 
ENDBRANCH  13  20
ENDBRANCH   6   8
ENDBRANCH   5   6
ENDBRANCH   3   5
ENDBRANCH   2   3
ENDBRANCH   1   2
BRANCH   1  24
ATOM     24  C   UNL     1       2.838  -5.551   1.593  1.00  0.00     0.275 C 
BRANCH  24  25
ATOM     25  O   UNL     1       3.696  -4.696   2.361  1.00  0.00    -0.458 OA
BRANCH  25  26
ATOM     26  C   UNL     1       4.962  -5.157   2.537  1.00  0.00     0.338 C 
ATOM     27  O   UNL     1       5.387  -6.248   2.215  1.00  0.00    -0.246 OA
BRANCH  26  28
ATOM     28  C   UNL     1       5.810  -4.031   2.980  1.00  0.00     0.060 A 
ATOM     29  C   UNL     1       7.094  -3.925   2.430  1.00  0.00     0.016 A 
ATOM     30  C   UNL     1       5.356  -3.094   3.914  1.00  0.00     0.016 A 
ATOM     31  C   UNL     1       7.954  -2.921   2.865  1.00  0.00     0.010 A 
ATOM     32  C   UNL     1       6.220  -2.091   4.354  1.00  0.00     0.010 A 
ATOM     33  C   UNL     1       7.539  -2.041   3.872  1.00  0.00    -0.014 A 
BRANCH  33  34
ATOM     34  C   UNL     1       8.563  -1.272   4.613  1.00  0.00     0.031 A 
ATOM     35  C   UNL     1       9.111  -1.883   5.875  1.00  0.00     0.074 A 
ATOM     36  C   UNL     1       9.009  -0.083   4.174  1.00  0.00     0.049 A 
ATOM     37  N   UNL     1      10.044  -1.443   6.675  1.00  0.00    -0.248 NA
ATOM     38  C   UNL     1       8.521  -3.169   6.293  1.00  0.00     0.031 C 
ATOM     39  C   UNL     1       8.547   0.606   2.970  1.00  0.00     0.029 A 
ATOM     40  N   UNL     1       9.949   0.761   4.707  1.00  0.00    -0.354 N 
ATOM     41  C   UNL     1      10.137  -2.380   7.697  1.00  0.00     0.074 A 
ATOM     42  C   UNL     1       9.152  -3.403   7.431  1.00  0.00     0.031 C 
ATOM     43  C   UNL     1       9.196   1.779   2.865  1.00  0.00     0.029 A 
ATOM     44  C   UNL     1      10.110   1.926   3.997  1.00  0.00     0.049 A 
ATOM     45  H   UNL     1      10.460   0.552   5.522  1.00  0.00     0.167 HD
ATOM     46  C   UNL     1      10.980  -2.399   8.755  1.00  0.00     0.034 A 
ATOM     47  C   UNL     1      10.905   2.986   4.242  1.00  0.00     0.034 A 
ATOM     48  C   UNL     1      11.961  -1.383   9.009  1.00  0.00     0.049 A 
ATOM     49  C   UNL     1      11.832   2.943   5.433  1.00  0.00     0.074 A 
ATOM     50  C   UNL     1      12.894  -1.322  10.028  1.00  0.00     0.029 A 
ATOM     51  N   UNL     1      12.126  -0.240   8.242  1.00  0.00    -0.354 N 
ATOM     52  N   UNL     1      11.999   1.990   6.319  1.00  0.00    -0.248 NA
ATOM     53  C   UNL     1      12.711   4.105   5.630  1.00  0.00     0.031 C 
ATOM     54  C   UNL     1      13.600  -0.122   9.896  1.00  0.00     0.029 A 
ATOM     55  C   UNL     1      13.137   0.540   8.770  1.00  0.00     0.049 A 
ATOM     56  H   UNL     1      11.599  -0.017   7.441  1.00  0.00     0.167 HD
ATOM     57  C   UNL     1      13.038   2.412   7.144  1.00  0.00     0.074 A 
ATOM     58  C   UNL     1      13.466   3.703   6.644  1.00  0.00     0.031 C 
ATOM     59  C   UNL     1      13.587   1.793   8.219  1.00  0.00     0.034 A 
BRANCH  46  60
ATOM     60  C   UNL     1      10.873  -3.561   9.706  1.00  0.00     0.023 A 
ATOM     61  C   UNL     1      11.300  -4.843   9.303  1.00  0.00     0.012 A 
ATOM     62  C   UNL     1      10.371  -3.378  11.008  1.00  0.00     0.148 A 
ATOM     63  C   UNL     1      11.193  -5.932  10.168  1.00  0.00     0.002 A 
ATOM     64  C   UNL     1      10.312  -4.457  11.881  1.00  0.00     0.091 A 
ATOM     65  F   UNL     1       9.943  -2.158  11.363  1.00  0.00    -0.205 F 
ATOM     66  C   UNL     1      10.709  -5.737  11.459  1.00  0.00     0.022 A 
BRANCH  64  67
ATOM     67  S   UNL     1       9.776  -4.293  13.587  1.00  0.00     0.127 S 
ATOM     68  O   UNL     1       8.493  -4.994  13.562  1.00  0.00    -0.237 OA
ATOM     69  O   UNL     1      10.839  -4.991  14.310  1.00  0.00    -0.237 OA
ATOM     70  O   UNL     1       9.700  -2.863  13.849  1.00  0.00    -0.744 OA
ENDBRANCH  64  67
ENDBRANCH  46  60
BRANCH  47  71
ATOM     71  C   UNL     1      10.913   4.152   3.313  1.00  0.00     0.023 A 
ATOM     72  C   UNL     1      12.053   4.405   2.525  1.00  0.00     0.012 A 
ATOM     73  C   UNL     1       9.803   5.011   3.208  1.00  0.00     0.148 A 
ATOM     74  C   UNL     1      12.102   5.513   1.678  1.00  0.00     0.002 A 
ATOM     75  C   UNL     1       9.838   6.083   2.324  1.00  0.00     0.091 A 
ATOM     76  F   UNL     1       8.733   4.761   3.976  1.00  0.00    -0.205 F 
ATOM     77  C   UNL     1      10.993   6.347   1.572  1.00  0.00     0.022 A 
BRANCH  75  78
ATOM     78  S   UNL     1       8.419   7.147   2.038  1.00  0.00     0.127 S 
ATOM     79  O   UNL     1       8.868   8.409   2.620  1.00  0.00    -0.237 OA
ATOM     80  O   UNL     1       8.328   7.139   0.578  1.00  0.00    -0.237 OA
ATOM     81  O   UNL     1       7.301   6.503   2.715  1.00  0.00    -0.744 OA
ENDBRANCH  75  78
ENDBRANCH  47  71
BRANCH  59  82
ATOM     82  C   UNL     1      14.757   2.463   8.892  1.00  0.00     0.023 A 
ATOM     83  C   UNL     1      14.566   3.635   9.650  1.00  0.00     0.012 A 
ATOM     84  C   UNL     1      16.039   1.882   8.829  1.00  0.00     0.148 A 
ATOM     85  C   UNL     1      15.642   4.241  10.299  1.00  0.00     0.002 A 
ATOM     86  C   UNL     1      17.094   2.460   9.523  1.00  0.00     0.091 A 
ATOM     87  F   UNL     1      16.206   0.776   8.089  1.00  0.00    -0.205 F 
ATOM     88  C   UNL     1      16.901   3.648  10.245  1.00  0.00     0.022 A 
BRANCH  86  89
ATOM     89  S   UNL     1      18.720   1.700   9.597  1.00  0.00     0.127 S 
ATOM     90  O   UNL     1      19.485   2.543   8.680  1.00  0.00    -0.237 OA
ATOM     91  O   UNL     1      19.075   1.856  11.008  1.00  0.00    -0.237 OA
ATOM     92  O   UNL     1      18.535   0.319   9.174  1.00  0.00    -0.744 OA
ENDBRANCH  86  89
ENDBRANCH  59  82
ENDBRANCH  33  34
ENDBRANCH  26  28
ENDBRANCH  25  26
ENDBRANCH  24  25
ENDBRANCH   1  24
TORSDOF 19
