REMARK SMILES Cc1nc2scc(C)n2c1CNc1ccc(C(=O)OCCOC(=O)c2ccc(-c3c4nc(c(-c5cccc(S(=O)(=O)[O-])c5F)c5ccc([nH]5)c(-c5cccc(S(=O)(=O)[O-])c5F)c5nc(c(-c6cccc(S(=O)(=O)[O-])c6F)c6ccc3[nH]6)C=C5)C=C4)cc2)cc1
REMARK SMILES IDX 20 1 19 2 17 3 18 4 16 5 13 6 14 7 89 8 15 9 88 10 12 11
REMARK SMILES IDX 11 13 10 14 1 15 2 16 3 17 4 18 9 19 5 20 7 21 6 22 8 23
REMARK SMILES IDX 21 24 22 25 23 26 24 27 25 28 26 29 87 30 27 31 86 32 28 33
REMARK SMILES IDX 29 34 30 35 80 36 31 37 85 38 79 39 81 40 32 41 84 42 78 43
REMARK SMILES IDX 77 44 33 46 65 47 45 48 64 49 46 50 49 51 63 52 82 53 47 54
REMARK SMILES IDX 48 55 62 57 83 58 50 59 34 60 35 61 43 62 36 63 38 64 44 65
REMARK SMILES IDX 37 66 39 67 40 68 41 69 42 70 66 71 67 72 75 73 68 74 70 75
REMARK SMILES IDX 76 76 69 77 71 78 72 79 73 80 74 81 51 82 52 83 60 84 53 85
REMARK SMILES IDX 55 86 61 87 54 88 56 89 57 90 58 91 59 92
REMARK H PARENT 12 12 81 45 49 56
REMARK Flexibility Score: inf
ROOT
ATOM      1  C   UNL     1      -9.396   2.707   4.499  1.00  0.00     0.275 C 
ENDROOT
BRANCH   1   2
ATOM      2  O   UNL     1      -8.123   2.290   3.975  1.00  0.00    -0.458 OA
BRANCH   2   3
ATOM      3  C   UNL     1      -7.090   3.138   4.210  1.00  0.00     0.338 C 
ATOM      4  O   UNL     1      -7.172   4.288   4.620  1.00  0.00    -0.246 OA
BRANCH   3   5
ATOM      5  C   UNL     1      -5.792   2.463   3.974  1.00  0.00     0.060 A 
ATOM      6  C   UNL     1      -3.250   1.447   3.356  1.00  0.00     0.034 A 
ATOM      7  C   UNL     1      -3.400   2.414   4.354  1.00  0.00     0.026 A 
ATOM      8  C   UNL     1      -4.403   0.899   2.777  1.00  0.00     0.026 A 
ATOM      9  C   UNL     1      -4.660   2.940   4.646  1.00  0.00     0.018 A 
ATOM     10  C   UNL     1      -5.670   1.395   3.087  1.00  0.00     0.018 A 
BRANCH   6  11
ATOM     11  N   UNL     1      -1.986   1.203   2.840  1.00  0.00    -0.379 N 
ATOM     12  H   UNL     1      -1.221   1.064   3.443  1.00  0.00     0.160 HD
BRANCH  11  13
ATOM     13  C   UNL     1      -1.803   1.154   1.403  1.00  0.00     0.169 C 
BRANCH  13  14
ATOM     14  C   UNL     1      -0.616   1.898   0.915  1.00  0.00     0.066 A 
ATOM     15  C   UNL     1       0.975   0.003   0.134  1.00  0.00     0.069 C 
ATOM     16  C   UNL     1       0.570   1.411   0.364  1.00  0.00     0.062 A 
ATOM     17  N   UNL     1       1.407   2.433  -0.027  1.00  0.00    -0.224 NA
ATOM     18  C   UNL     1       0.741   3.505   0.292  1.00  0.00     0.194 A 
ATOM     19  N   UNL     1      -0.488   3.271   0.851  1.00  0.00    -0.290 N 
ATOM     20  S   UNL     1       1.069   5.198   0.112  1.00  0.00    -0.105 S 
ATOM     21  C   UNL     1      -1.206   4.428   1.147  1.00  0.00     0.032 A 
ATOM     22  C   UNL     1      -0.510   5.535   0.811  1.00  0.00     0.090 A 
ATOM     23  C   UNL     1      -2.569   4.479   1.735  1.00  0.00     0.066 C 
ENDBRANCH  13  14
ENDBRANCH  11  13
ENDBRANCH   6  11
ENDBRANCH   3   5
ENDBRANCH   2   3
ENDBRANCH   1   2
BRANCH   1  24
ATOM     24  C   UNL     1      -9.584   2.228   5.930  1.00  0.00     0.275 C 
BRANCH  24  25
ATOM     25  O   UNL     1      -8.694   2.899   6.817  1.00  0.00    -0.458 OA
BRANCH  25  26
ATOM     26  C   UNL     1      -7.548   2.230   7.072  1.00  0.00     0.338 C 
ATOM     27  O   UNL     1      -7.063   1.317   6.424  1.00  0.00    -0.246 OA
BRANCH  26  28
ATOM     28  C   UNL     1      -7.072   2.585   8.407  1.00  0.00     0.060 A 
ATOM     29  C   UNL     1      -5.831   2.071   8.796  1.00  0.00     0.016 A 
ATOM     30  C   UNL     1      -7.995   3.099   9.327  1.00  0.00     0.016 A 
ATOM     31  C   UNL     1      -5.589   1.903  10.140  1.00  0.00     0.010 A 
ATOM     32  C   UNL     1      -7.765   2.905  10.662  1.00  0.00     0.010 A 
ATOM     33  C   UNL     1      -6.598   2.245  11.044  1.00  0.00    -0.014 A 
BRANCH  33  34
ATOM     34  C   UNL     1      -6.366   2.016  12.452  1.00  0.00     0.031 A 
ATOM     35  C   UNL     1      -5.423   2.999  13.032  1.00  0.00     0.074 A 
ATOM     36  C   UNL     1      -7.093   1.115  13.140  1.00  0.00     0.049 A 
ATOM     37  N   UNL     1      -4.271   2.778  13.574  1.00  0.00    -0.248 NA
ATOM     38  C   UNL     1      -5.714   4.426  12.803  1.00  0.00     0.031 C 
ATOM     39  C   UNL     1      -8.249   0.351  12.657  1.00  0.00     0.029 A 
ATOM     40  N   UNL     1      -7.064   0.825  14.468  1.00  0.00    -0.354 N 
ATOM     41  C   UNL     1      -3.824   4.033  13.982  1.00  0.00     0.074 A 
ATOM     42  C   UNL     1      -4.605   4.999  13.265  1.00  0.00     0.031 C 
ATOM     43  C   UNL     1      -8.959  -0.089  13.719  1.00  0.00     0.029 A 
ATOM     44  C   UNL     1      -8.247   0.261  14.935  1.00  0.00     0.049 A 
ATOM     45  H   UNL     1      -6.283   0.997  15.042  1.00  0.00     0.167 HD
ATOM     46  C   UNL     1      -3.087   4.174  15.117  1.00  0.00     0.034 A 
ATOM     47  C   UNL     1      -8.652   0.198  16.228  1.00  0.00     0.034 A 
ATOM     48  C   UNL     1      -2.472   2.925  15.493  1.00  0.00     0.049 A 
ATOM     49  C   UNL     1      -7.460   0.436  17.077  1.00  0.00     0.074 A 
ATOM     50  C   UNL     1      -1.621   2.032  14.874  1.00  0.00     0.029 A 
ATOM     51  N   UNL     1      -3.034   2.249  16.548  1.00  0.00    -0.354 N 
ATOM     52  N   UNL     1      -6.454  -0.388  17.161  1.00  0.00    -0.248 NA
ATOM     53  C   UNL     1      -7.192   1.798  17.508  1.00  0.00     0.031 C 
ATOM     54  C   UNL     1      -2.054   0.746  15.310  1.00  0.00     0.029 A 
ATOM     55  C   UNL     1      -3.104   0.925  16.213  1.00  0.00     0.049 A 
ATOM     56  H   UNL     1      -3.334   2.648  17.397  1.00  0.00     0.167 HD
ATOM     57  C   UNL     1      -5.337   0.437  17.209  1.00  0.00     0.074 A 
ATOM     58  C   UNL     1      -5.857   1.761  17.544  1.00  0.00     0.031 C 
ATOM     59  C   UNL     1      -4.144   0.034  16.678  1.00  0.00     0.034 A 
BRANCH  46  60
ATOM     60  C   UNL     1      -3.280   5.301  16.116  1.00  0.00     0.023 A 
ATOM     61  C   UNL     1      -2.408   5.316  17.227  1.00  0.00     0.012 A 
ATOM     62  C   UNL     1      -4.417   6.144  16.192  1.00  0.00     0.148 A 
ATOM     63  C   UNL     1      -2.700   6.048  18.383  1.00  0.00     0.002 A 
ATOM     64  C   UNL     1      -4.664   6.928  17.312  1.00  0.00     0.091 A 
ATOM     65  F   UNL     1      -5.353   6.115  15.244  1.00  0.00    -0.205 F 
ATOM     66  C   UNL     1      -3.830   6.854  18.427  1.00  0.00     0.022 A 
BRANCH  64  67
ATOM     67  S   UNL     1      -6.092   8.019  17.398  1.00  0.00     0.127 S 
ATOM     68  O   UNL     1      -6.960   7.288  18.316  1.00  0.00    -0.237 OA
ATOM     69  O   UNL     1      -5.500   9.241  17.941  1.00  0.00    -0.237 OA
ATOM     70  O   UNL     1      -6.573   8.149  16.028  1.00  0.00    -0.744 OA
ENDBRANCH  64  67
ENDBRANCH  46  60
BRANCH  47  71
ATOM     71  C   UNL     1     -10.024   0.228  16.788  1.00  0.00     0.023 A 
ATOM     72  C   UNL     1     -10.250  -0.250  18.094  1.00  0.00     0.012 A 
ATOM     73  C   UNL     1     -11.057   0.959  16.160  1.00  0.00     0.148 A 
ATOM     74  C   UNL     1     -11.452   0.014  18.762  1.00  0.00     0.002 A 
ATOM     75  C   UNL     1     -12.256   1.207  16.821  1.00  0.00     0.091 A 
ATOM     76  F   UNL     1     -10.830   1.491  14.951  1.00  0.00    -0.205 F 
ATOM     77  C   UNL     1     -12.452   0.747  18.129  1.00  0.00     0.022 A 
BRANCH  75  78
ATOM     78  S   UNL     1     -13.587   2.156  16.071  1.00  0.00     0.127 S 
ATOM     79  O   UNL     1     -14.748   1.302  16.326  1.00  0.00    -0.237 OA
ATOM     80  O   UNL     1     -13.554   3.392  16.848  1.00  0.00    -0.237 OA
ATOM     81  O   UNL     1     -13.239   2.284  14.661  1.00  0.00    -0.744 OA
ENDBRANCH  75  78
ENDBRANCH  47  71
BRANCH  59  82
ATOM     82  C   UNL     1      -3.989  -1.418  16.302  1.00  0.00     0.023 A 
ATOM     83  C   UNL     1      -4.767  -2.027  15.294  1.00  0.00     0.012 A 
ATOM     84  C   UNL     1      -2.912  -2.132  16.852  1.00  0.00     0.148 A 
ATOM     85  C   UNL     1      -4.488  -3.326  14.862  1.00  0.00     0.002 A 
ATOM     86  C   UNL     1      -2.607  -3.403  16.385  1.00  0.00     0.091 A 
ATOM     87  F   UNL     1      -2.180  -1.537  17.808  1.00  0.00    -0.205 F 
ATOM     88  C   UNL     1      -3.398  -4.009  15.397  1.00  0.00     0.022 A 
BRANCH  86  89
ATOM     89  S   UNL     1      -1.139  -4.273  16.940  1.00  0.00     0.127 S 
ATOM     90  O   UNL     1      -1.698  -5.260  17.860  1.00  0.00    -0.237 OA
ATOM     91  O   UNL     1      -0.611  -4.830  15.692  1.00  0.00    -0.237 OA
ATOM     92  O   UNL     1      -0.281  -3.262  17.546  1.00  0.00    -0.744 OA
ENDBRANCH  86  89
ENDBRANCH  59  82
ENDBRANCH  33  34
ENDBRANCH  26  28
ENDBRANCH  25  26
ENDBRANCH  24  25
ENDBRANCH   1  24
TORSDOF 17
