REMARK SMILES CC1(C)CC[NH+](CC[C@H]2CCC[C@]2([NH3+])C(=O)OCCOC(=O)c2ccc(-c3c4nc(c(-c5cccc(S(=O)(=O)[O-])c5F)c5ccc([nH]5)c(-c5cccc(S(=O)(=O)[O-])c5F)c5nc(c(-c6cccc(S(=O)(=O)[O-])c6F)c6ccc3[nH]6)C=C5)C=C4)cc2)CC1
REMARK SMILES IDX 18 1 17 2 15 3 16 4 13 5 9 6 10 7 11 8 12 9 8 10 7 11 6 12
REMARK SMILES IDX 1 13 2 14 3 15 4 16 87 17 5 18 86 19 14 21 19 25 20 26 21 27
REMARK SMILES IDX 22 28 23 29 24 30 85 31 25 32 84 33 26 34 27 35 28 36 78 37
REMARK SMILES IDX 29 38 83 39 77 40 79 41 30 42 82 43 76 44 75 45 31 47 63 48
REMARK SMILES IDX 43 49 62 50 44 51 47 52 61 53 80 54 45 55 46 56 60 58 81 59
REMARK SMILES IDX 48 60 32 61 33 62 41 63 34 64 36 65 42 66 35 67 37 68 38 69
REMARK SMILES IDX 39 70 40 71 64 72 65 73 73 74 66 75 68 76 74 77 67 78 69 79
REMARK SMILES IDX 70 80 71 81 72 82 49 83 50 84 58 85 51 86 53 87 59 88 52 89
REMARK SMILES IDX 54 90 55 91 56 92 57 93
REMARK H PARENT 6 20 14 22 14 23 14 24 79 46 47 57
REMARK Flexibility Score: inf
ROOT
ATOM      1  C   UNL     1       2.359   1.398  -1.117  1.00  0.00     0.274 C 
ENDROOT
BRANCH   1   2
ATOM      2  O   UNL     1       0.951   1.556  -1.398  1.00  0.00    -0.457 OA
BRANCH   2   3
ATOM      3  C   UNL     1       0.239   0.408  -1.584  1.00  0.00     0.368 C 
ATOM      4  O   UNL     1       0.731  -0.717  -1.541  1.00  0.00    -0.245 OA
BRANCH   3   5
ATOM      5  C   UNL     1      -1.251   0.674  -2.013  1.00  0.00     0.195 C 
ATOM      6  C   UNL     1      -1.868   1.944  -1.341  1.00  0.00     0.068 C 
ATOM      7  C   UNL     1      -2.241   1.386   0.035  1.00  0.00     0.011 C 
ATOM      8  C   UNL     1      -2.905   0.061  -0.287  1.00  0.00     0.008 C 
ATOM      9  C   UNL     1      -2.137  -0.490  -1.487  1.00  0.00     0.081 C 
BRANCH   6  10
ATOM     10  C   UNL     1      -3.078   2.563  -2.082  1.00  0.00     0.072 C 
BRANCH  10  11
ATOM     11  C   UNL     1      -4.080   3.429  -1.281  1.00  0.00     0.262 C 
BRANCH  11  12
ATOM     12  N   UNL     1      -3.745   4.740  -0.739  1.00  0.00    -0.335 N 
ATOM     13  C   UNL     1      -1.053   7.372  -0.074  1.00  0.00     0.011 C 
ATOM     14  C   UNL     1      -1.039   5.947  -0.659  1.00  0.00    -0.025 C 
ATOM     15  C   UNL     1       0.411   5.599  -1.050  1.00  0.00     0.011 C 
ATOM     16  C   UNL     1      -1.529   4.956   0.424  1.00  0.00     0.068 C 
ATOM     17  C   UNL     1      -1.905   5.880  -1.939  1.00  0.00     0.068 C 
ATOM     18  C   UNL     1      -3.051   4.843   0.532  1.00  0.00     0.262 C 
ATOM     19  C   UNL     1      -3.402   5.793  -1.673  1.00  0.00     0.262 C 
ATOM     20  H   UNL     1      -4.706   4.939  -0.460  1.00  0.00     0.348 HD
ENDBRANCH  11  12
ENDBRANCH  10  11
ENDBRANCH   6  10
BRANCH   5  21
ATOM     21  N   UNL     1      -1.247   0.706  -3.493  1.00  0.00    -0.343 N 
ATOM     22  H   UNL     1      -2.193   0.877  -3.832  1.00  0.00     0.345 HD
ATOM     23  H   UNL     1      -0.913  -0.189  -3.851  1.00  0.00     0.345 HD
ATOM     24  H   UNL     1      -0.630   1.452  -3.815  1.00  0.00     0.345 HD
ENDBRANCH   5  21
ENDBRANCH   3   5
ENDBRANCH   2   3
ENDBRANCH   1   2
BRANCH   1  25
ATOM     25  C   UNL     1       2.642   1.718   0.346  1.00  0.00     0.275 C 
BRANCH  25  26
ATOM     26  O   UNL     1       1.922   0.784   1.163  1.00  0.00    -0.458 OA
BRANCH  26  27
ATOM     27  C   UNL     1       1.486   1.255   2.350  1.00  0.00     0.338 C 
ATOM     28  O   UNL     1       1.754   2.349   2.840  1.00  0.00    -0.246 OA
BRANCH  27  29
ATOM     29  C   UNL     1       0.567   0.279   2.978  1.00  0.00     0.060 A 
ATOM     30  C   UNL     1      -0.196  -0.592   2.198  1.00  0.00     0.016 A 
ATOM     31  C   UNL     1       0.373   0.312   4.360  1.00  0.00     0.016 A 
ATOM     32  C   UNL     1      -1.237  -1.319   2.778  1.00  0.00     0.010 A 
ATOM     33  C   UNL     1      -0.602  -0.502   4.949  1.00  0.00     0.010 A 
ATOM     34  C   UNL     1      -1.467  -1.281   4.160  1.00  0.00    -0.014 A 
BRANCH  34  35
ATOM     35  C   UNL     1      -2.645  -1.974   4.770  1.00  0.00     0.031 A 
ATOM     36  C   UNL     1      -3.595  -1.204   5.660  1.00  0.00     0.074 A 
ATOM     37  C   UNL     1      -2.896  -3.279   4.536  1.00  0.00     0.049 A 
ATOM     38  N   UNL     1      -4.521  -1.652   6.468  1.00  0.00    -0.248 NA
ATOM     39  C   UNL     1      -3.466   0.264   5.661  1.00  0.00     0.031 C 
ATOM     40  C   UNL     1      -2.109  -4.157   3.671  1.00  0.00     0.029 A 
ATOM     41  N   UNL     1      -3.897  -4.096   5.007  1.00  0.00    -0.354 N 
ATOM     42  C   UNL     1      -4.997  -0.542   7.158  1.00  0.00     0.074 A 
ATOM     43  C   UNL     1      -4.279   0.608   6.650  1.00  0.00     0.031 C 
ATOM     44  C   UNL     1      -2.688  -5.366   3.622  1.00  0.00     0.029 A 
ATOM     45  C   UNL     1      -3.825  -5.386   4.535  1.00  0.00     0.049 A 
ATOM     46  H   UNL     1      -4.599  -3.786   5.624  1.00  0.00     0.167 HD
ATOM     47  C   UNL     1      -5.947  -0.480   8.122  1.00  0.00     0.034 A 
ATOM     48  C   UNL     1      -4.562  -6.477   4.827  1.00  0.00     0.034 A 
ATOM     49  C   UNL     1      -6.758  -1.596   8.530  1.00  0.00     0.049 A 
ATOM     50  C   UNL     1      -5.650  -6.376   5.859  1.00  0.00     0.074 A 
ATOM     51  C   UNL     1      -7.776  -1.624   9.468  1.00  0.00     0.029 A 
ATOM     52  N   UNL     1      -6.673  -2.873   7.996  1.00  0.00    -0.354 N 
ATOM     53  N   UNL     1      -6.067  -5.323   6.519  1.00  0.00    -0.248 NA
ATOM     54  C   UNL     1      -6.364  -7.618   6.192  1.00  0.00     0.031 C 
ATOM     55  C   UNL     1      -8.314  -2.916   9.493  1.00  0.00     0.029 A 
ATOM     56  C   UNL     1      -7.631  -3.691   8.570  1.00  0.00     0.049 A 
ATOM     57  H   UNL     1      -6.027  -3.155   7.309  1.00  0.00     0.167 HD
ATOM     58  C   UNL     1      -7.101  -5.771   7.334  1.00  0.00     0.074 A 
ATOM     59  C   UNL     1      -7.266  -7.184   7.062  1.00  0.00     0.031 C 
ATOM     60  C   UNL     1      -7.826  -5.080   8.247  1.00  0.00     0.034 A 
BRANCH  47  61
ATOM     61  C   UNL     1      -6.182   0.848   8.793  1.00  0.00     0.023 A 
ATOM     62  C   UNL     1      -6.880   1.867   8.117  1.00  0.00     0.012 A 
ATOM     63  C   UNL     1      -5.750   1.068  10.116  1.00  0.00     0.148 A 
ATOM     64  C   UNL     1      -7.115   3.096   8.736  1.00  0.00     0.002 A 
ATOM     65  C   UNL     1      -6.025   2.279  10.741  1.00  0.00     0.091 A 
ATOM     66  F   UNL     1      -5.061   0.099  10.738  1.00  0.00    -0.205 F 
ATOM     67  C   UNL     1      -6.698   3.298  10.050  1.00  0.00     0.022 A 
BRANCH  65  68
ATOM     68  S   UNL     1      -5.593   2.576  12.460  1.00  0.00     0.127 S 
ATOM     69  O   UNL     1      -4.312   3.267  12.332  1.00  0.00    -0.237 OA
ATOM     70  O   UNL     1      -6.695   3.421  12.925  1.00  0.00    -0.237 OA
ATOM     71  O   UNL     1      -5.549   1.258  13.081  1.00  0.00    -0.744 OA
ENDBRANCH  65  68
ENDBRANCH  47  61
BRANCH  48  72
ATOM     72  C   UNL     1      -4.309  -7.756   4.103  1.00  0.00     0.023 A 
ATOM     73  C   UNL     1      -5.274  -8.229   3.193  1.00  0.00     0.012 A 
ATOM     74  C   UNL     1      -3.105  -8.470   4.258  1.00  0.00     0.148 A 
ATOM     75  C   UNL     1      -5.047  -9.391   2.455  1.00  0.00     0.002 A 
ATOM     76  C   UNL     1      -2.857  -9.588   3.471  1.00  0.00     0.091 A 
ATOM     77  F   UNL     1      -2.212  -8.026   5.154  1.00  0.00    -0.205 F 
ATOM     78  C   UNL     1      -3.832 -10.060   2.579  1.00  0.00     0.022 A 
BRANCH  76  79
ATOM     79  S   UNL     1      -1.255 -10.402   3.453  1.00  0.00     0.127 S 
ATOM     80  O   UNL     1      -1.523 -11.609   4.230  1.00  0.00    -0.237 OA
ATOM     81  O   UNL     1      -1.040 -10.625   2.022  1.00  0.00    -0.237 OA
ATOM     82  O   UNL     1      -0.331  -9.448   4.051  1.00  0.00    -0.744 OA
ENDBRANCH  76  79
ENDBRANCH  48  72
BRANCH  60  83
ATOM     83  C   UNL     1      -8.886  -5.834   9.004  1.00  0.00     0.023 A 
ATOM     84  C   UNL     1      -8.508  -6.699  10.049  1.00  0.00     0.012 A 
ATOM     85  C   UNL     1     -10.252  -5.644   8.722  1.00  0.00     0.148 A 
ATOM     86  C   UNL     1      -9.473  -7.384  10.786  1.00  0.00     0.002 A 
ATOM     87  C   UNL     1     -11.210  -6.302   9.485  1.00  0.00     0.091 A 
ATOM     88  F   UNL     1     -10.592  -4.836   7.707  1.00  0.00    -0.205 F 
ATOM     89  C   UNL     1     -10.823  -7.178  10.511  1.00  0.00     0.022 A 
BRANCH  87  90
ATOM     90  S   UNL     1     -12.969  -6.026   9.242  1.00  0.00     0.127 S 
ATOM     91  O   UNL     1     -13.341  -7.175   8.418  1.00  0.00    -0.237 OA
ATOM     92  O   UNL     1     -13.489  -6.062  10.609  1.00  0.00    -0.237 OA
ATOM     93  O   UNL     1     -13.075  -4.724   8.597  1.00  0.00    -0.744 OA
ENDBRANCH  87  90
ENDBRANCH  60  83
ENDBRANCH  34  35
ENDBRANCH  27  29
ENDBRANCH  26  27
ENDBRANCH  25  26
ENDBRANCH   1  25
TORSDOF 18
