REMARK SMILES O=C(OCCOC(=O)c1ccc(S(=O)(=O)[O-])cc1N1C(=O)/C(=C\C=C\c2ccccc2)[NH+]=C1c1ccccc1)c1ccc(-c2c3nc(c(-c4cccc(S(=O)(=O)[O-])c4F)c4ccc([nH]4)c(-c4cccc(S(=O)(=O)[O-])c4F)c4nc(c(-c5cccc(S(=O)(=O)[O-])c5F)c5ccc2[nH]5)C=C4)C=C3)cc1
REMARK SMILES IDX 4 1 3 2 2 3 1 4 40 5 41 6 102 7 42 8 101 9 43 10 44 11 45 12
REMARK SMILES IDX 95 13 46 14 100 15 94 16 96 17 47 18 99 19 93 20 92 21 48 23
REMARK SMILES IDX 80 24 60 25 79 26 61 27 64 28 78 29 97 30 62 31 63 32 77 34
REMARK SMILES IDX 98 35 65 36 49 37 50 38 58 39 51 40 53 41 59 42 52 43 54 44
REMARK SMILES IDX 55 45 56 46 57 47 81 48 82 49 90 50 83 51 85 52 91 53 84 54
REMARK SMILES IDX 86 55 87 56 88 57 89 58 66 59 67 60 75 61 68 62 70 63 76 64
REMARK SMILES IDX 69 65 71 66 72 67 73 68 74 69 5 70 6 71 7 72 8 73 9 74 10 75
REMARK SMILES IDX 18 76 11 77 17 78 12 79 19 80 20 81 33 82 21 83 22 84 32 85
REMARK SMILES IDX 23 86 34 88 35 89 39 90 36 91 38 92 37 93 24 94 25 95 26 96
REMARK SMILES IDX 27 97 31 98 28 99 30 100 29 101 13 102 14 103 15 104 16 105
REMARK H PARENT 96 22 64 33 32 87
REMARK Flexibility Score: inf
ROOT
ATOM      1  C   UNL     1       4.209  -0.977  -1.164  1.00  0.00     0.275 C 
ENDROOT
BRANCH   1   2
ATOM      2  O   UNL     1       2.918  -1.197  -0.558  1.00  0.00    -0.458 OA
BRANCH   2   3
ATOM      3  C   UNL     1       2.392  -0.779   0.620  1.00  0.00     0.338 C 
ATOM      4  O   UNL     1       1.260  -1.163   0.917  1.00  0.00    -0.246 OA
BRANCH   3   5
ATOM      5  C   UNL     1       3.047   0.206   1.550  1.00  0.00     0.060 A 
ATOM      6  C   UNL     1       4.336   0.697   1.421  1.00  0.00     0.016 A 
ATOM      7  C   UNL     1       2.259   0.757   2.587  1.00  0.00     0.016 A 
ATOM      8  C   UNL     1       4.776   1.768   2.190  1.00  0.00     0.010 A 
ATOM      9  C   UNL     1       2.712   1.827   3.388  1.00  0.00     0.010 A 
ATOM     10  C   UNL     1       3.981   2.357   3.182  1.00  0.00    -0.014 A 
BRANCH  10  11
ATOM     11  C   UNL     1       4.728   3.201   4.165  1.00  0.00     0.031 A 
ATOM     12  C   UNL     1       5.357   2.244   5.239  1.00  0.00     0.074 A 
ATOM     13  C   UNL     1       5.102   4.508   3.731  1.00  0.00     0.049 A 
ATOM     14  N   UNL     1       6.579   2.262   5.661  1.00  0.00    -0.248 NA
ATOM     15  C   UNL     1       4.672   1.095   5.856  1.00  0.00     0.031 C 
ATOM     16  C   UNL     1       4.075   5.402   2.295  1.00  0.00     0.029 A 
ATOM     17  N   UNL     1       6.667   5.768   3.797  1.00  0.00    -0.354 N 
ATOM     18  C   UNL     1       6.704   1.612   6.814  1.00  0.00     0.074 A 
ATOM     19  C   UNL     1       5.580   0.683   6.761  1.00  0.00     0.031 C 
ATOM     20  C   UNL     1       4.952   6.755   1.647  1.00  0.00     0.029 A 
ATOM     21  C   UNL     1       6.598   7.078   2.611  1.00  0.00     0.049 A 
ATOM     22  H   UNL     1       7.409   5.665   4.436  1.00  0.00     0.167 HD
ATOM     23  C   UNL     1       7.562   1.942   7.820  1.00  0.00     0.034 A 
ATOM     24  C   UNL     1       7.474   8.071   2.942  1.00  0.00     0.034 A 
ATOM     25  C   UNL     1       8.393   3.175   8.063  1.00  0.00     0.049 A 
ATOM     26  C   UNL     1       8.304   7.960   4.331  1.00  0.00     0.074 A 
ATOM     27  C   UNL     1       9.045   3.475   9.258  1.00  0.00     0.029 A 
ATOM     28  N   UNL     1       8.693   4.320   7.290  1.00  0.00    -0.354 N 
ATOM     29  N   UNL     1       8.488   6.937   5.168  1.00  0.00    -0.248 NA
ATOM     30  C   UNL     1       8.908   9.189   4.857  1.00  0.00     0.031 C 
ATOM     31  C   UNL     1       9.466   4.826   9.258  1.00  0.00     0.029 A 
ATOM     32  C   UNL     1       9.214   5.390   8.013  1.00  0.00     0.049 A 
ATOM     33  H   UNL     1       8.545   4.357   6.318  1.00  0.00     0.167 HD
ATOM     34  C   UNL     1       9.172   7.380   6.315  1.00  0.00     0.074 A 
ATOM     35  C   UNL     1       9.435   8.789   6.017  1.00  0.00     0.031 C 
ATOM     36  C   UNL     1       9.521   6.757   7.504  1.00  0.00     0.034 A 
BRANCH  23  37
ATOM     37  C   UNL     1       7.479   0.910   8.894  1.00  0.00     0.023 A 
ATOM     38  C   UNL     1       8.005  -0.371   8.626  1.00  0.00     0.012 A 
ATOM     39  C   UNL     1       6.838   1.173  10.113  1.00  0.00     0.148 A 
ATOM     40  C   UNL     1       7.865  -1.393   9.554  1.00  0.00     0.002 A 
ATOM     41  C   UNL     1       6.760   0.165  11.058  1.00  0.00     0.091 A 
ATOM     42  F   UNL     1       6.300   2.385  10.310  1.00  0.00    -0.205 F 
ATOM     43  C   UNL     1       7.255  -1.121  10.774  1.00  0.00     0.022 A 
BRANCH  41  44
ATOM     44  S   UNL     1       6.075   0.426  12.692  1.00  0.00     0.127 S 
ATOM     45  O   UNL     1       4.897  -0.438  12.658  1.00  0.00    -0.237 OA
ATOM     46  O   UNL     1       7.161  -0.050  13.548  1.00  0.00    -0.237 OA
ATOM     47  O   UNL     1       5.798   1.852  12.790  1.00  0.00    -0.744 OA
ENDBRANCH  41  44
ENDBRANCH  23  37
BRANCH  24  48
ATOM     48  C   UNL     1       7.383   9.345   2.236  1.00  0.00     0.023 A 
ATOM     49  C   UNL     1       8.496   9.914   1.598  1.00  0.00     0.012 A 
ATOM     50  C   UNL     1       6.141   9.983   2.190  1.00  0.00     0.148 A 
ATOM     51  C   UNL     1       8.344  11.095   0.873  1.00  0.00     0.002 A 
ATOM     52  C   UNL     1       5.974  11.095   1.397  1.00  0.00     0.091 A 
ATOM     53  F   UNL     1       5.143   9.489   2.937  1.00  0.00    -0.205 F 
ATOM     54  C   UNL     1       7.075  11.666   0.742  1.00  0.00     0.022 A 
BRANCH  52  55
ATOM     55  S   UNL     1       4.337  11.737   1.070  1.00  0.00     0.127 S 
ATOM     56  O   UNL     1       4.404  13.055   1.692  1.00  0.00    -0.237 OA
ATOM     57  O   UNL     1       4.308  11.731  -0.391  1.00  0.00    -0.237 OA
ATOM     58  O   UNL     1       3.411  10.794   1.692  1.00  0.00    -0.744 OA
ENDBRANCH  52  55
ENDBRANCH  24  48
BRANCH  36  59
ATOM     59  C   UNL     1      10.423   7.569   8.436  1.00  0.00     0.023 A 
ATOM     60  C   UNL     1       9.983   8.711   9.137  1.00  0.00     0.012 A 
ATOM     61  C   UNL     1      11.753   7.131   8.625  1.00  0.00     0.148 A 
ATOM     62  C   UNL     1      10.872   9.446   9.932  1.00  0.00     0.002 A 
ATOM     63  C   UNL     1      12.613   7.830   9.462  1.00  0.00     0.091 A 
ATOM     64  F   UNL     1      12.156   6.033   7.969  1.00  0.00    -0.205 F 
ATOM     65  C   UNL     1      12.184   9.005  10.097  1.00  0.00     0.022 A 
BRANCH  63  66
ATOM     66  S   UNL     1      14.289   7.274   9.791  1.00  0.00     0.127 S 
ATOM     67  O   UNL     1      15.079   8.280   9.081  1.00  0.00    -0.237 OA
ATOM     68  O   UNL     1      14.363   7.357  11.249  1.00  0.00    -0.237 OA
ATOM     69  O   UNL     1      14.378   5.922   9.255  1.00  0.00    -0.744 OA
ENDBRANCH  63  66
ENDBRANCH  36  59
ENDBRANCH  10  11
ENDBRANCH   3   5
ENDBRANCH   2   3
ENDBRANCH   1   2
BRANCH   1  70
ATOM     70  C   UNL     1       4.339   0.345  -1.940  1.00  0.00     0.275 C 
BRANCH  70  71
ATOM     71  O   UNL     1       3.978   1.507  -1.171  1.00  0.00    -0.458 OA
BRANCH  71  72
ATOM     72  C   UNL     1       2.676   1.869  -1.253  1.00  0.00     0.342 C 
ATOM     73  O   UNL     1       1.838   1.304  -1.944  1.00  0.00    -0.246 OA
BRANCH  72  74
ATOM     74  C   UNL     1       2.290   2.935  -0.280  1.00  0.00     0.107 A 
ATOM     75  C   UNL     1       1.007   2.702   0.289  1.00  0.00     0.021 A 
ATOM     76  C   UNL     1       3.006   4.118   0.048  1.00  0.00     0.152 A 
ATOM     77  C   UNL     1       0.408   3.640   1.113  1.00  0.00     0.020 A 
ATOM     78  C   UNL     1       2.170   5.177   0.448  1.00  0.00     0.072 A 
ATOM     79  C   UNL     1       0.966   4.907   1.135  1.00  0.00     0.059 A 
BRANCH  76  80
ATOM     80  N   UNL     1       4.440   4.318  -0.187  1.00  0.00    -0.153 N 
ATOM     81  C   UNL     1       4.766   4.216  -1.508  1.00  0.00     0.385 C 
ATOM     82  C   UNL     1       5.677   4.647   0.541  1.00  0.00     0.295 C 
ATOM     83  O   UNL     1       3.998   4.182  -2.458  1.00  0.00    -0.236 OA
ATOM     84  C   UNL     1       6.243   4.256  -1.526  1.00  0.00     0.215 C 
ATOM     85  N   UNL     1       6.731   4.542  -0.252  1.00  0.00    -0.233 N 
ATOM     86  C   UNL     1       6.934   4.072  -2.670  1.00  0.00     0.060 C 
ATOM     87  H   UNL     1       7.676   4.645   0.006  1.00  0.00     0.312 HD
BRANCH  82  88
ATOM     88  C   UNL     1       6.019   5.129   2.248  1.00  0.00     0.065 A 
ATOM     89  C   UNL     1       5.017   6.365   3.636  1.00  0.00     0.017 A 
ATOM     90  C   UNL     1       7.179   4.011   2.941  1.00  0.00     0.017 A 
ATOM     91  C   UNL     1       5.202   6.206   5.307  1.00  0.00     0.001 A 
ATOM     92  C   UNL     1       7.303   4.071   4.663  1.00  0.00     0.001 A 
ATOM     93  C   UNL     1       6.277   5.045   5.793  1.00  0.00     0.000 A 
ENDBRANCH  82  88
BRANCH  86  94
ATOM     94  C   UNL     1       6.349   3.703  -3.964  1.00  0.00     0.005 C 
ATOM     95  C   UNL     1       6.952   3.718  -5.163  1.00  0.00     0.008 C 
BRANCH  95  96
ATOM     96  C   UNL     1       6.256   3.312  -6.407  1.00  0.00    -0.026 A 
ATOM     97  C   UNL     1       6.933   2.509  -7.335  1.00  0.00     0.008 A 
ATOM     98  C   UNL     1       4.949   3.724  -6.717  1.00  0.00     0.008 A 
ATOM     99  C   UNL     1       6.318   2.113  -8.530  1.00  0.00     0.001 A 
ATOM    100  C   UNL     1       4.334   3.331  -7.914  1.00  0.00     0.001 A 
ATOM    101  C   UNL     1       5.019   2.524  -8.820  1.00  0.00     0.000 A 
ENDBRANCH  95  96
ENDBRANCH  86  94
ENDBRANCH  76  80
BRANCH  79 102
ATOM    102  S   UNL     1       0.351   6.066   2.352  1.00  0.00     0.124 S 
ATOM    103  O   UNL     1      -0.935   6.542   1.899  1.00  0.00    -0.237 OA
ATOM    104  O   UNL     1       0.514   5.432   3.644  1.00  0.00    -0.237 OA
ATOM    105  O   UNL     1       1.383   7.301   2.303  1.00  0.00    -0.744 OA
ENDBRANCH  79 102
ENDBRANCH  72  74
ENDBRANCH  71  72
ENDBRANCH  70  71
ENDBRANCH   1  70
TORSDOF 19
