REMARK SMILES Cc1cc(NC(=O)[C@@H]2CCC[C@@H](C(=O)OCCOC(=O)c3ccc(-c4c5nc(c(-c6cccc(S(=O)(=O)[O-])c6F)c6ccc([nH]6)c(-c6cccc(S(=O)(=O)[O-])c6F)c6nc(c(-c7cccc(S(=O)(=O)[O-])c7F)c7ccc4[nH]7)C=C6)C=C5)cc3)C2)ncc1Br
REMARK SMILES IDX 17 1 16 2 15 3 13 4 14 5 12 6 8 7 9 8 84 9 10 10 11 11 6 12
REMARK SMILES IDX 5 13 7 15 4 16 1 17 2 18 3 19 87 20 86 21 88 22 85 23 18 24
REMARK SMILES IDX 19 25 20 26 21 27 22 28 83 29 23 30 82 31 24 32 25 33 26 34
REMARK SMILES IDX 76 35 27 36 81 37 75 38 77 39 28 40 80 41 74 42 73 43 29 45
REMARK SMILES IDX 61 46 41 47 60 48 42 49 45 50 59 51 78 52 43 53 44 54 58 56
REMARK SMILES IDX 79 57 46 58 30 59 31 60 39 61 32 62 34 63 40 64 33 65 35 66
REMARK SMILES IDX 36 67 37 68 38 69 62 70 63 71 71 72 64 73 66 74 72 75 65 76
REMARK SMILES IDX 67 77 68 78 69 79 70 80 47 81 48 82 56 83 49 84 51 85 57 86
REMARK SMILES IDX 50 87 52 88 53 89 54 90 55 91
REMARK H PARENT 5 14 77 44 45 55
REMARK Flexibility Score: inf
ROOT
ATOM      1  C   UNL     1      -5.351  -2.216   8.842  1.00  0.00     0.275 C 
ENDROOT
BRANCH   1   2
ATOM      2  C   UNL     1      -4.998  -0.902   8.145  1.00  0.00     0.274 C 
BRANCH   2   3
ATOM      3  O   UNL     1      -3.665  -0.929   7.601  1.00  0.00    -0.462 OA
BRANCH   3   4
ATOM      4  C   UNL     1      -2.704  -0.255   8.285  1.00  0.00     0.309 C 
ATOM      5  O   UNL     1      -2.893   0.331   9.345  1.00  0.00    -0.252 OA
BRANCH   4   6
ATOM      6  C   UNL     1      -1.379  -0.175   7.526  1.00  0.00     0.100 C 
ATOM      7  C   UNL     1      -1.763  -1.581   5.390  1.00  0.00     0.080 C 
ATOM      8  C   UNL     1      -2.311  -0.321   4.699  1.00  0.00     0.013 C 
ATOM      9  C   UNL     1      -0.975  -1.391   6.694  1.00  0.00     0.028 C 
ATOM     10  C   UNL     1      -2.411   0.956   5.540  1.00  0.00     0.002 C 
ATOM     11  C   UNL     1      -1.376   1.069   6.650  1.00  0.00     0.015 C 
BRANCH   7  12
ATOM     12  C   UNL     1      -1.080  -2.660   4.531  1.00  0.00     0.228 C 
ATOM     13  N   UNL     1      -0.277  -2.478   3.458  1.00  0.00    -0.310 N 
ATOM     14  H   UNL     1      -0.013  -3.323   3.026  1.00  0.00     0.171 HD
ATOM     15  O   UNL     1      -1.287  -3.853   4.813  1.00  0.00    -0.274 OA
BRANCH  13  16
ATOM     16  C   UNL     1       0.257  -1.357   2.834  1.00  0.00     0.132 A 
ATOM     17  C   UNL     1       1.251  -0.537  -0.740  1.00  0.00     0.046 C 
ATOM     18  C   UNL     1       0.931  -0.373   0.718  1.00  0.00    -0.032 A 
ATOM     19  C   UNL     1       0.599  -1.500   1.486  1.00  0.00     0.051 A 
ATOM     20  C   UNL     1       0.956   0.864   1.364  1.00  0.00     0.039 A 
ATOM     21  C   UNL     1       0.703   0.898   2.730  1.00  0.00     0.129 A 
ATOM     22  Br  UNL     1       1.268   2.493   0.454  1.00  0.00    -0.049 Br
ATOM     23  N   UNL     1       0.371  -0.186   3.475  1.00  0.00    -0.238 NA
ENDBRANCH  13  16
ENDBRANCH   7  12
ENDBRANCH   4   6
ENDBRANCH   3   4
ENDBRANCH   2   3
ENDBRANCH   1   2
BRANCH   1  24
ATOM     24  O   UNL     1      -4.581  -2.387  10.040  1.00  0.00    -0.458 OA
BRANCH  24  25
ATOM     25  C   UNL     1      -3.376  -2.984   9.865  1.00  0.00     0.338 C 
ATOM     26  O   UNL     1      -2.946  -3.493   8.844  1.00  0.00    -0.246 OA
BRANCH  25  27
ATOM     27  C   UNL     1      -2.569  -2.748  11.071  1.00  0.00     0.060 A 
ATOM     28  C   UNL     1      -3.045  -3.110  12.331  1.00  0.00     0.016 A 
ATOM     29  C   UNL     1      -1.319  -2.136  10.924  1.00  0.00     0.016 A 
ATOM     30  C   UNL     1      -2.270  -2.830  13.454  1.00  0.00     0.010 A 
ATOM     31  C   UNL     1      -0.551  -1.846  12.048  1.00  0.00     0.010 A 
ATOM     32  C   UNL     1      -1.025  -2.188  13.319  1.00  0.00    -0.014 A 
BRANCH  32  33
ATOM     33  C   UNL     1      -0.179  -1.973  14.510  1.00  0.00     0.031 A 
ATOM     34  C   UNL     1      -0.039  -0.617  15.131  1.00  0.00     0.074 A 
ATOM     35  C   UNL     1       0.476  -3.034  15.018  1.00  0.00     0.049 A 
ATOM     36  N   UNL     1       0.544  -0.294  16.256  1.00  0.00    -0.248 NA
ATOM     37  C   UNL     1      -0.613   0.524  14.400  1.00  0.00     0.031 C 
ATOM     38  C   UNL     1       0.479  -4.375  14.430  1.00  0.00     0.029 A 
ATOM     39  N   UNL     1       1.255  -3.154  16.137  1.00  0.00    -0.354 N 
ATOM     40  C   UNL     1       0.411   1.083  16.371  1.00  0.00     0.074 A 
ATOM     41  C   UNL     1      -0.284   1.542  15.188  1.00  0.00     0.031 C 
ATOM     42  C   UNL     1       1.202  -5.192  15.211  1.00  0.00     0.029 A 
ATOM     43  C   UNL     1       1.710  -4.433  16.349  1.00  0.00     0.049 A 
ATOM     44  H   UNL     1       1.469  -2.399  16.731  1.00  0.00     0.167 HD
ATOM     45  C   UNL     1       0.808   1.879  17.390  1.00  0.00     0.034 A 
ATOM     46  C   UNL     1       2.433  -4.943  17.364  1.00  0.00     0.034 A 
ATOM     47  C   UNL     1       1.475   1.400  18.571  1.00  0.00     0.049 A 
ATOM     48  C   UNL     1       2.813  -4.049  18.508  1.00  0.00     0.074 A 
ATOM     49  C   UNL     1       1.841   2.114  19.699  1.00  0.00     0.029 A 
ATOM     50  N   UNL     1       1.884   0.091  18.774  1.00  0.00    -0.354 N 
ATOM     51  N   UNL     1       2.534  -2.780  18.683  1.00  0.00    -0.248 NA
ATOM     52  C   UNL     1       3.575  -4.657  19.607  1.00  0.00     0.031 C 
ATOM     53  C   UNL     1       2.482   1.237  20.579  1.00  0.00     0.029 A 
ATOM     54  C   UNL     1       2.505  -0.024  20.004  1.00  0.00     0.049 A 
ATOM     55  H   UNL     1       1.752  -0.647  18.136  1.00  0.00     0.167 HD
ATOM     56  C   UNL     1       3.070  -2.439  19.917  1.00  0.00     0.074 A 
ATOM     57  C   UNL     1       3.677  -3.641  20.455  1.00  0.00     0.031 C 
ATOM     58  C   UNL     1       3.070  -1.236  20.540  1.00  0.00     0.034 A 
BRANCH  45  59
ATOM     59  C   UNL     1       0.465   3.342  17.328  1.00  0.00     0.023 A 
ATOM     60  C   UNL     1      -0.852   3.744  17.630  1.00  0.00     0.012 A 
ATOM     61  C   UNL     1       1.454   4.319  17.098  1.00  0.00     0.148 A 
ATOM     62  C   UNL     1      -1.183   5.096  17.697  1.00  0.00     0.002 A 
ATOM     63  C   UNL     1       1.122   5.666  17.194  1.00  0.00     0.091 A 
ATOM     64  F   UNL     1       2.697   3.912  16.806  1.00  0.00    -0.205 F 
ATOM     65  C   UNL     1      -0.196   6.055  17.490  1.00  0.00     0.022 A 
BRANCH  63  66
ATOM     66  S   UNL     1       2.325   6.986  17.000  1.00  0.00     0.127 S 
ATOM     67  O   UNL     1       1.827   7.667  15.805  1.00  0.00    -0.237 OA
ATOM     68  O   UNL     1       2.158   7.738  18.244  1.00  0.00    -0.237 OA
ATOM     69  O   UNL     1       3.619   6.336  16.845  1.00  0.00    -0.744 OA
ENDBRANCH  63  66
ENDBRANCH  45  59
BRANCH  46  70
ATOM     70  C   UNL     1       2.735  -6.398  17.372  1.00  0.00     0.023 A 
ATOM     71  C   UNL     1       1.984  -7.250  18.204  1.00  0.00     0.012 A 
ATOM     72  C   UNL     1       3.684  -6.949  16.491  1.00  0.00     0.148 A 
ATOM     73  C   UNL     1       2.177  -8.630  18.162  1.00  0.00     0.002 A 
ATOM     74  C   UNL     1       3.845  -8.328  16.427  1.00  0.00     0.091 A 
ATOM     75  F   UNL     1       4.381  -6.114  15.708  1.00  0.00    -0.205 F 
ATOM     76  C   UNL     1       3.098  -9.169  17.268  1.00  0.00     0.022 A 
BRANCH  74  77
ATOM     77  S   UNL     1       4.931  -9.124  15.239  1.00  0.00     0.127 S 
ATOM     78  O   UNL     1       5.922  -9.747  16.112  1.00  0.00    -0.237 OA
ATOM     79  O   UNL     1       4.018 -10.058  14.579  1.00  0.00    -0.237 OA
ATOM     80  O   UNL     1       5.433  -8.059  14.382  1.00  0.00    -0.744 OA
ENDBRANCH  74  77
ENDBRANCH  46  70
BRANCH  58  81
ATOM     81  C   UNL     1       3.748  -1.136  21.876  1.00  0.00     0.023 A 
ATOM     82  C   UNL     1       5.151  -1.032  21.928  1.00  0.00     0.012 A 
ATOM     83  C   UNL     1       2.994  -1.007  23.059  1.00  0.00     0.148 A 
ATOM     84  C   UNL     1       5.797  -0.806  23.141  1.00  0.00     0.002 A 
ATOM     85  C   UNL     1       3.643  -0.748  24.260  1.00  0.00     0.091 A 
ATOM     86  F   UNL     1       1.660  -1.117  22.980  1.00  0.00    -0.205 F 
ATOM     87  C   UNL     1       5.044  -0.651  24.303  1.00  0.00     0.022 A 
BRANCH  85  88
ATOM     88  S   UNL     1       2.759  -0.458  25.796  1.00  0.00     0.127 S 
ATOM     89  O   UNL     1       3.172  -1.609  26.598  1.00  0.00    -0.237 OA
ATOM     90  O   UNL     1       3.315   0.822  26.235  1.00  0.00    -0.237 OA
ATOM     91  O   UNL     1       1.344  -0.422  25.450  1.00  0.00    -0.744 OA
ENDBRANCH  85  88
ENDBRANCH  58  81
ENDBRANCH  32  33
ENDBRANCH  25  27
ENDBRANCH  24  25
ENDBRANCH   1  24
TORSDOF 16
