REMARK SMILES Cn1ncc(C(=O)OCCOC(=O)c2ccc(-c3c4nc(c(-c5cccc(S(=O)(=O)[O-])c5F)c5ccc([nH]5)c(-c5cccc(S(=O)(=O)[O-])c5F)c5nc(c(-c6cccc(S(=O)(=O)[O-])c6F)c6ccc3[nH]6)C=C5)C=C4)cc2)c1C(=O)Nc1ccccn1
REMARK SMILES IDX 10 1 9 2 8 3 6 4 7 5 5 6 1 7 2 8 3 9 77 10 4 11 78 12 79 13
REMARK SMILES IDX 80 14 81 16 82 17 86 18 83 19 85 20 84 21 11 22 12 23 13 24
REMARK SMILES IDX 14 25 15 26 76 27 16 28 75 29 17 30 18 31 19 32 69 33 20 34
REMARK SMILES IDX 74 35 68 36 70 37 21 38 73 39 67 40 66 41 22 43 54 44 34 45
REMARK SMILES IDX 53 46 35 47 38 48 52 49 71 50 36 51 37 52 51 54 72 55 39 56
REMARK SMILES IDX 23 57 24 58 32 59 25 60 27 61 33 62 26 63 28 64 29 65 30 66
REMARK SMILES IDX 31 67 55 68 56 69 64 70 57 71 59 72 65 73 58 74 60 75 61 76
REMARK SMILES IDX 62 77 63 78 40 79 41 80 49 81 42 82 44 83 50 84 43 85 45 86
REMARK SMILES IDX 46 87 47 88 48 89
REMARK H PARENT 80 15 70 42 38 53
REMARK Flexibility Score: inf
ROOT
ATOM      1  C   UNL     1       4.571  -3.230  -1.374  1.00  0.00     0.275 C 
ENDROOT
BRANCH   1   2
ATOM      2  C   UNL     1       3.632  -3.499  -0.199  1.00  0.00     0.275 C 
BRANCH   2   3
ATOM      3  O   UNL     1       2.426  -2.715  -0.315  1.00  0.00    -0.458 OA
BRANCH   3   4
ATOM      4  C   UNL     1       2.311  -1.679   0.559  1.00  0.00     0.342 C 
ATOM      5  O   UNL     1       3.162  -1.381   1.394  1.00  0.00    -0.246 OA
BRANCH   4   6
ATOM      6  C   UNL     1       1.130  -0.854   0.374  1.00  0.00     0.111 A 
ATOM      7  C   UNL     1      -2.034   0.298   1.332  1.00  0.00     0.174 C 
ATOM      8  N   UNL     1      -0.866  -0.012   0.538  1.00  0.00    -0.262 N 
ATOM      9  N   UNL     1      -0.103   1.051   0.241  1.00  0.00    -0.180 NA
ATOM     10  C   UNL     1      -0.223  -1.223   0.335  1.00  0.00     0.140 A 
ATOM     11  C   UNL     1       1.123   0.556   0.338  1.00  0.00     0.151 A 
BRANCH  10  12
ATOM     12  C   UNL     1      -0.749  -2.575   0.369  1.00  0.00     0.275 C 
ATOM     13  O   UNL     1      -0.030  -3.534   0.667  1.00  0.00    -0.267 OA
ATOM     14  N   UNL     1      -2.072  -2.882   0.188  1.00  0.00    -0.305 N 
ATOM     15  H   UNL     1      -2.284  -3.829   0.358  1.00  0.00     0.171 HD
BRANCH  14  16
ATOM     16  C   UNL     1      -3.170  -2.129  -0.188  1.00  0.00     0.132 A 
ATOM     17  C   UNL     1      -3.157  -1.223  -1.238  1.00  0.00     0.047 A 
ATOM     18  N   UNL     1      -4.231  -2.297   0.629  1.00  0.00    -0.239 NA
ATOM     19  C   UNL     1      -4.262  -0.383  -1.391  1.00  0.00     0.005 A 
ATOM     20  C   UNL     1      -5.261  -1.438   0.492  1.00  0.00     0.113 A 
ATOM     21  C   UNL     1      -5.317  -0.464  -0.486  1.00  0.00     0.020 A 
ENDBRANCH  14  16
ENDBRANCH  10  12
ENDBRANCH   4   6
ENDBRANCH   3   4
ENDBRANCH   2   3
ENDBRANCH   1   2
BRANCH   1  22
ATOM     22  O   UNL     1       5.047  -1.873  -1.335  1.00  0.00    -0.458 OA
BRANCH  22  23
ATOM     23  C   UNL     1       4.460  -1.035  -2.222  1.00  0.00     0.338 C 
ATOM     24  O   UNL     1       3.625  -1.313  -3.063  1.00  0.00    -0.246 OA
BRANCH  23  25
ATOM     25  C   UNL     1       4.895   0.346  -1.969  1.00  0.00     0.060 A 
ATOM     26  C   UNL     1       4.332   1.017  -0.892  1.00  0.00     0.016 A 
ATOM     27  C   UNL     1       5.688   1.036  -2.880  1.00  0.00     0.016 A 
ATOM     28  C   UNL     1       4.420   2.402  -0.801  1.00  0.00     0.010 A 
ATOM     29  C   UNL     1       5.899   2.410  -2.701  1.00  0.00     0.010 A 
ATOM     30  C   UNL     1       5.225   3.124  -1.690  1.00  0.00    -0.014 A 
BRANCH  30  31
ATOM     31  C   UNL     1       5.345   4.609  -1.567  1.00  0.00     0.031 A 
ATOM     32  C   UNL     1       5.074   5.501  -2.756  1.00  0.00     0.074 A 
ATOM     33  C   UNL     1       5.708   5.170  -0.393  1.00  0.00     0.049 A 
ATOM     34  N   UNL     1       5.305   6.782  -2.899  1.00  0.00    -0.248 NA
ATOM     35  C   UNL     1       4.483   4.868  -3.946  1.00  0.00     0.031 C 
ATOM     36  C   UNL     1       5.983   4.443   0.849  1.00  0.00     0.029 A 
ATOM     37  N   UNL     1       5.924   6.486  -0.053  1.00  0.00    -0.354 N 
ATOM     38  C   UNL     1       4.970   7.088  -4.214  1.00  0.00     0.074 A 
ATOM     39  C   UNL     1       4.510   5.860  -4.826  1.00  0.00     0.031 C 
ATOM     40  C   UNL     1       6.306   5.315   1.814  1.00  0.00     0.029 A 
ATOM     41  C   UNL     1       6.364   6.653   1.241  1.00  0.00     0.049 A 
ATOM     42  H   UNL     1       5.779   7.235  -0.675  1.00  0.00     0.167 HD
ATOM     43  C   UNL     1       5.032   8.282  -4.852  1.00  0.00     0.034 A 
ATOM     44  C   UNL     1       6.820   7.743   1.888  1.00  0.00     0.034 A 
ATOM     45  C   UNL     1       5.416   9.517  -4.220  1.00  0.00     0.049 A 
ATOM     46  C   UNL     1       6.885   9.052   1.155  1.00  0.00     0.074 A 
ATOM     47  C   UNL     1       5.458  10.787  -4.770  1.00  0.00     0.029 A 
ATOM     48  N   UNL     1       5.817   9.642  -2.899  1.00  0.00    -0.354 N 
ATOM     49  N   UNL     1       6.520   9.330  -0.072  1.00  0.00    -0.248 NA
ATOM     50  C   UNL     1       7.415  10.203   1.901  1.00  0.00     0.031 C 
ATOM     51  C   UNL     1       5.912  11.675  -3.789  1.00  0.00     0.029 A 
ATOM     52  C   UNL     1       6.120  10.964  -2.618  1.00  0.00     0.049 A 
ATOM     53  H   UNL     1       5.878   8.900  -2.255  1.00  0.00     0.167 HD
ATOM     54  C   UNL     1       6.751  10.689  -0.239  1.00  0.00     0.074 A 
ATOM     55  C   UNL     1       7.261  11.185   1.023  1.00  0.00     0.031 C 
ATOM     56  C   UNL     1       6.577  11.455  -1.344  1.00  0.00     0.034 A 
BRANCH  43  57
ATOM     57  C   UNL     1       4.663   8.323  -6.315  1.00  0.00     0.023 A 
ATOM     58  C   UNL     1       3.317   8.193  -6.710  1.00  0.00     0.012 A 
ATOM     59  C   UNL     1       5.649   8.561  -7.295  1.00  0.00     0.148 A 
ATOM     60  C   UNL     1       2.962   8.262  -8.057  1.00  0.00     0.002 A 
ATOM     61  C   UNL     1       5.282   8.675  -8.631  1.00  0.00     0.091 A 
ATOM     62  F   UNL     1       6.927   8.667  -6.904  1.00  0.00    -0.205 F 
ATOM     63  C   UNL     1       3.941   8.513  -9.015  1.00  0.00     0.022 A 
BRANCH  61  64
ATOM     64  S   UNL     1       6.455   9.079  -9.930  1.00  0.00     0.127 S 
ATOM     65  O   UNL     1       6.522   7.819 -10.670  1.00  0.00    -0.237 OA
ATOM     66  O   UNL     1       5.772  10.163 -10.636  1.00  0.00    -0.237 OA
ATOM     67  O   UNL     1       7.684   9.472  -9.256  1.00  0.00    -0.744 OA
ENDBRANCH  61  64
ENDBRANCH  43  57
BRANCH  44  68
ATOM     68  C   UNL     1       7.263   7.636   3.308  1.00  0.00     0.023 A 
ATOM     69  C   UNL     1       6.525   8.283   4.317  1.00  0.00     0.012 A 
ATOM     70  C   UNL     1       8.395   6.876   3.667  1.00  0.00     0.148 A 
ATOM     71  C   UNL     1       6.920   8.198   5.653  1.00  0.00     0.002 A 
ATOM     72  C   UNL     1       8.745   6.742   5.005  1.00  0.00     0.091 A 
ATOM     73  F   UNL     1       9.098   6.283   2.692  1.00  0.00    -0.205 F 
ATOM     74  C   UNL     1       8.020   7.418   5.998  1.00  0.00     0.022 A 
BRANCH  72  75
ATOM     75  S   UNL     1      10.058   5.644   5.550  1.00  0.00     0.127 S 
ATOM     76  O   UNL     1      11.088   6.592   5.964  1.00  0.00    -0.237 OA
ATOM     77  O   UNL     1       9.411   4.919   6.645  1.00  0.00    -0.237 OA
ATOM     78  O   UNL     1      10.383   4.817   4.395  1.00  0.00    -0.744 OA
ENDBRANCH  72  75
ENDBRANCH  44  68
BRANCH  56  79
ATOM     79  C   UNL     1       6.902  12.921  -1.231  1.00  0.00     0.023 A 
ATOM     80  C   UNL     1       8.245  13.339  -1.150  1.00  0.00     0.012 A 
ATOM     81  C   UNL     1       5.877  13.887  -1.268  1.00  0.00     0.148 A 
ATOM     82  C   UNL     1       8.561  14.695  -1.072  1.00  0.00     0.002 A 
ATOM     83  C   UNL     1       6.203  15.238  -1.242  1.00  0.00     0.091 A 
ATOM     84  F   UNL     1       4.605  13.468  -1.326  1.00  0.00    -0.205 F 
ATOM     85  C   UNL     1       7.543  15.643  -1.130  1.00  0.00     0.022 A 
BRANCH  83  86
ATOM     86  S   UNL     1       4.967  16.530  -1.407  1.00  0.00     0.127 S 
ATOM     87  O   UNL     1       4.944  17.096  -0.059  1.00  0.00    -0.237 OA
ATOM     88  O   UNL     1       5.562  17.399  -2.423  1.00  0.00    -0.237 OA
ATOM     89  O   UNL     1       3.740  15.864  -1.824  1.00  0.00    -0.744 OA
ENDBRANCH  83  86
ENDBRANCH  56  79
ENDBRANCH  30  31
ENDBRANCH  23  25
ENDBRANCH  22  23
ENDBRANCH   1  22
TORSDOF 16
