REMARK SMILES COc1cc2c(CC(=O)OCCOC(=O)c3ccc(-c4c5nc(c(-c6cccc(S(=O)(=O)[O-])c6F)c6ccc([nH]6)c(-c6cccc(S(=O)(=O)[O-])c6F)c6nc(c(-c7cccc(S(=O)(=O)[O-])c7F)c7ccc4[nH]7)C=C6)C=C5)cc3)c(C)n(C(=O)c3ccc(Cl)cc3)c2cc1Cl
REMARK SMILES IDX 11 1 10 2 8 3 9 4 7 5 6 6 3 7 4 8 93 9 5 10 92 11 94 12
REMARK SMILES IDX 91 13 79 14 81 15 80 16 2 17 1 18 82 19 83 20 84 21 85 22
REMARK SMILES IDX 90 23 86 24 89 25 87 26 88 27 12 28 13 29 14 30 15 31 16 32
REMARK SMILES IDX 17 33 78 34 18 35 77 36 19 37 20 38 21 39 71 40 22 41 76 42
REMARK SMILES IDX 70 43 72 44 23 45 75 46 69 47 68 48 24 50 56 51 36 52 55 53
REMARK SMILES IDX 37 54 40 55 54 56 73 57 38 58 39 59 53 61 74 62 41 63 25 64
REMARK SMILES IDX 26 65 34 66 27 67 29 68 35 69 28 70 30 71 31 72 32 73 33 74
REMARK SMILES IDX 57 75 58 76 66 77 59 78 61 79 67 80 60 81 62 82 63 83 64 84
REMARK SMILES IDX 65 85 42 86 43 87 51 88 44 89 46 90 52 91 45 92 47 93 48 94
REMARK SMILES IDX 49 95 50 96
REMARK H PARENT 72 49 40 60
REMARK Flexibility Score: inf
ROOT
ATOM      1  C   UNL     1      -1.617  -5.721  -4.263  1.00  0.00     0.274 C 
ENDROOT
BRANCH   1   2
ATOM      2  O   UNL     1      -1.016  -4.520  -4.794  1.00  0.00    -0.462 OA
BRANCH   2   3
ATOM      3  C   UNL     1      -1.888  -3.708  -5.436  1.00  0.00     0.310 C 
ATOM      4  O   UNL     1      -3.085  -3.965  -5.548  1.00  0.00    -0.252 OA
BRANCH   3   5
ATOM      5  C   UNL     1      -1.284  -2.529  -6.134  1.00  0.00     0.160 C 
BRANCH   5   6
ATOM      6  C   UNL     1       0.111  -2.048  -5.855  1.00  0.00    -0.008 A 
ATOM      7  C   UNL     1       1.306  -1.027  -2.295  1.00  0.00     0.138 A 
ATOM      8  C   UNL     1       0.479  -1.651  -3.256  1.00  0.00     0.058 A 
ATOM      9  C   UNL     1       2.499  -0.458  -2.710  1.00  0.00     0.085 A 
ATOM     10  C   UNL     1       0.777  -1.644  -4.645  1.00  0.00     0.008 A 
ATOM     11  C   UNL     1       2.825  -0.436  -4.069  1.00  0.00     0.051 A 
ATOM     12  Cl  UNL     1       3.726   0.104  -1.627  1.00  0.00    -0.080 Cl
ATOM     13  C   UNL     1       1.996  -1.069  -5.024  1.00  0.00     0.058 A 
ATOM     14  C   UNL     1       0.955  -1.697  -6.906  1.00  0.00     0.028 A 
ATOM     15  N   UNL     1       2.188  -1.344  -6.387  1.00  0.00    -0.280 N 
ATOM     16  C   UNL     1       0.632  -1.715  -8.373  1.00  0.00     0.065 C 
BRANCH   7  17
ATOM     17  O   UNL     1       0.886  -1.120  -0.992  1.00  0.00    -0.495 OA
ATOM     18  C   UNL     1       0.876   0.111  -0.263  1.00  0.00     0.278 C 
ENDBRANCH   7  17
BRANCH  15  19
ATOM     19  C   UNL     1       3.421  -1.328  -7.089  1.00  0.00     0.262 C 
ATOM     20  O   UNL     1       3.465  -1.674  -8.266  1.00  0.00    -0.268 OA
BRANCH  19  21
ATOM     21  C   UNL     1       4.702  -1.005  -6.459  1.00  0.00     0.040 A 
ATOM     22  C   UNL     1       5.259  -1.903  -5.542  1.00  0.00     0.015 A 
ATOM     23  C   UNL     1       5.263   0.253  -6.689  1.00  0.00     0.015 A 
ATOM     24  C   UNL     1       6.360  -1.502  -4.788  1.00  0.00     0.021 A 
ATOM     25  C   UNL     1       6.369   0.643  -5.935  1.00  0.00     0.021 A 
ATOM     26  C   UNL     1       6.901  -0.228  -4.979  1.00  0.00     0.041 A 
ATOM     27  Cl  UNL     1       8.215   0.289  -3.997  1.00  0.00    -0.084 Cl
ENDBRANCH  19  21
ENDBRANCH  15  19
ENDBRANCH   5   6
ENDBRANCH   3   5
ENDBRANCH   2   3
ENDBRANCH   1   2
BRANCH   1  28
ATOM     28  C   UNL     1      -1.933  -5.557  -2.773  1.00  0.00     0.275 C 
BRANCH  28  29
ATOM     29  O   UNL     1      -3.046  -4.662  -2.613  1.00  0.00    -0.458 OA
BRANCH  29  30
ATOM     30  C   UNL     1      -2.816  -3.472  -2.001  1.00  0.00     0.338 C 
ATOM     31  O   UNL     1      -1.894  -3.196  -1.254  1.00  0.00    -0.246 OA
BRANCH  30  32
ATOM     32  C   UNL     1      -3.678  -2.491  -2.694  1.00  0.00     0.060 A 
ATOM     33  C   UNL     1      -4.991  -2.822  -3.030  1.00  0.00     0.016 A 
ATOM     34  C   UNL     1      -3.049  -1.391  -3.283  1.00  0.00     0.016 A 
ATOM     35  C   UNL     1      -5.579  -2.196  -4.120  1.00  0.00     0.010 A 
ATOM     36  C   UNL     1      -3.618  -0.800  -4.395  1.00  0.00     0.010 A 
ATOM     37  C   UNL     1      -4.834  -1.277  -4.870  1.00  0.00    -0.014 A 
BRANCH  37  38
ATOM     38  C   UNL     1      -5.412  -0.662  -6.050  1.00  0.00     0.031 A 
ATOM     39  C   UNL     1      -6.205   0.535  -5.719  1.00  0.00     0.074 A 
ATOM     40  C   UNL     1      -5.235  -1.004  -7.341  1.00  0.00     0.049 A 
ATOM     41  N   UNL     1      -7.478   0.558  -5.514  1.00  0.00    -0.248 NA
ATOM     42  C   UNL     1      -5.508   1.787  -5.410  1.00  0.00     0.031 C 
ATOM     43  C   UNL     1      -4.310  -1.944  -7.966  1.00  0.00     0.029 A 
ATOM     44  N   UNL     1      -5.884  -0.473  -8.412  1.00  0.00    -0.354 N 
ATOM     45  C   UNL     1      -7.782   1.880  -5.237  1.00  0.00     0.074 A 
ATOM     46  C   UNL     1      -6.525   2.547  -5.001  1.00  0.00     0.031 C 
ATOM     47  C   UNL     1      -4.317  -1.770  -9.311  1.00  0.00     0.029 A 
ATOM     48  C   UNL     1      -5.381  -0.844  -9.649  1.00  0.00     0.049 A 
ATOM     49  H   UNL     1      -6.656   0.131  -8.315  1.00  0.00     0.167 HD
ATOM     50  C   UNL     1      -9.034   2.371  -5.423  1.00  0.00     0.034 A 
ATOM     51  C   UNL     1      -5.839  -0.414 -10.850  1.00  0.00     0.034 A 
ATOM     52  C   UNL     1      -9.990   1.331  -5.701  1.00  0.00     0.049 A 
ATOM     53  C   UNL     1      -7.254  -0.019 -10.634  1.00  0.00     0.074 A 
ATOM     54  C   UNL     1     -10.438   0.218  -5.015  1.00  0.00     0.029 A 
ATOM     55  N   UNL     1     -10.301   1.106  -7.023  1.00  0.00    -0.354 N 
ATOM     56  N   UNL     1      -8.198  -0.867 -10.328  1.00  0.00    -0.248 NA
ATOM     57  C   UNL     1      -7.547   1.375 -10.345  1.00  0.00     0.031 C 
ATOM     58  C   UNL     1     -10.543  -0.805  -6.003  1.00  0.00     0.029 A 
ATOM     59  C   UNL     1     -10.201  -0.246  -7.237  1.00  0.00     0.049 A 
ATOM     60  H   UNL     1     -10.548   1.787  -7.690  1.00  0.00     0.167 HD
ATOM     61  C   UNL     1      -9.004  -0.184  -9.425  1.00  0.00     0.074 A 
ATOM     62  C   UNL     1      -8.613   1.218  -9.555  1.00  0.00     0.031 C 
ATOM     63  C   UNL     1      -9.716  -0.844  -8.464  1.00  0.00     0.034 A 
BRANCH  50  64
ATOM     64  C   UNL     1      -9.342   3.818  -5.648  1.00  0.00     0.023 A 
ATOM     65  C   UNL     1     -10.661   4.256  -5.421  1.00  0.00     0.012 A 
ATOM     66  C   UNL     1      -8.450   4.717  -6.271  1.00  0.00     0.148 A 
ATOM     67  C   UNL     1     -11.072   5.537  -5.798  1.00  0.00     0.002 A 
ATOM     68  C   UNL     1      -8.840   6.015  -6.568  1.00  0.00     0.091 A 
ATOM     69  F   UNL     1      -7.257   4.282  -6.696  1.00  0.00    -0.205 F 
ATOM     70  C   UNL     1     -10.157   6.425  -6.354  1.00  0.00     0.022 A 
BRANCH  68  71
ATOM     71  S   UNL     1      -7.673   7.205  -7.234  1.00  0.00     0.127 S 
ATOM     72  O   UNL     1      -8.023   7.198  -8.651  1.00  0.00    -0.237 OA
ATOM     73  O   UNL     1      -8.035   8.424  -6.511  1.00  0.00    -0.237 OA
ATOM     74  O   UNL     1      -6.357   6.680  -6.891  1.00  0.00    -0.744 OA
ENDBRANCH  68  71
ENDBRANCH  50  64
BRANCH  51  75
ATOM     75  C   UNL     1      -5.132  -0.142 -12.123  1.00  0.00     0.023 A 
ATOM     76  C   UNL     1      -5.880   0.016 -13.309  1.00  0.00     0.012 A 
ATOM     77  C   UNL     1      -3.781   0.269 -12.131  1.00  0.00     0.148 A 
ATOM     78  C   UNL     1      -5.323   0.620 -14.443  1.00  0.00     0.002 A 
ATOM     79  C   UNL     1      -3.230   0.868 -13.264  1.00  0.00     0.091 A 
ATOM     80  F   UNL     1      -3.067   0.165 -11.002  1.00  0.00    -0.205 F 
ATOM     81  C   UNL     1      -4.003   1.060 -14.416  1.00  0.00     0.022 A 
BRANCH  79  82
ATOM     82  S   UNL     1      -1.541   1.485 -13.294  1.00  0.00     0.127 S 
ATOM     83  O   UNL     1      -1.064   1.010 -14.593  1.00  0.00    -0.237 OA
ATOM     84  O   UNL     1      -1.744   2.928 -13.208  1.00  0.00    -0.237 OA
ATOM     85  O   UNL     1      -0.877   0.869 -12.152  1.00  0.00    -0.744 OA
ENDBRANCH  79  82
ENDBRANCH  51  75
BRANCH  63  86
ATOM     86  C   UNL     1      -9.764  -2.353  -8.525  1.00  0.00     0.023 A 
ATOM     87  C   UNL     1      -8.614  -3.141  -8.300  1.00  0.00     0.012 A 
ATOM     88  C   UNL     1     -11.017  -2.986  -8.591  1.00  0.00     0.148 A 
ATOM     89  C   UNL     1      -8.711  -4.527  -8.147  1.00  0.00     0.002 A 
ATOM     90  C   UNL     1     -11.115  -4.360  -8.399  1.00  0.00     0.091 A 
ATOM     91  F   UNL     1     -12.100  -2.221  -8.793  1.00  0.00    -0.205 F 
ATOM     92  C   UNL     1      -9.963  -5.135  -8.181  1.00  0.00     0.022 A 
BRANCH  90  93
ATOM     93  S   UNL     1     -12.700  -5.198  -8.310  1.00  0.00     0.127 S 
ATOM     94  O   UNL     1     -12.681  -6.019  -9.519  1.00  0.00    -0.237 OA
ATOM     95  O   UNL     1     -12.585  -5.949  -7.059  1.00  0.00    -0.237 OA
ATOM     96  O   UNL     1     -13.713  -4.149  -8.287  1.00  0.00    -0.744 OA
ENDBRANCH  90  93
ENDBRANCH  63  86
ENDBRANCH  37  38
ENDBRANCH  30  32
ENDBRANCH  29  30
ENDBRANCH  28  29
ENDBRANCH   1  28
TORSDOF 18
