REMARK SMILES CC[C@@H]1CCCN(S(=O)(=O)c2cc(C(=O)OCCOC(=O)c3ccc(-c4c5nc(c(-c6cccc(S(=O)(=O)[O-])c6F)c6ccc([nH]6)c(-c6cccc(S(=O)(=O)[O-])c6F)c6nc(c(-c7cccc(S(=O)(=O)[O-])c7F)c7ccc4[nH]7)C=C6)C=C5)cc3)ccc2F)C1
REMARK SMILES IDX 17 1 16 2 14 3 15 4 13 5 11 6 12 7 87 8 86 9 88 10 85 11
REMARK SMILES IDX 8 12 9 13 10 14 7 15 3 16 4 17 89 18 5 19 6 20 2 21 1 22
REMARK SMILES IDX 18 23 19 24 20 25 21 26 22 27 23 28 84 29 24 30 83 31 25 32
REMARK SMILES IDX 26 33 27 34 77 35 28 36 82 37 76 38 78 39 29 40 81 41 75 42
REMARK SMILES IDX 74 43 30 45 62 46 42 47 61 48 43 49 46 50 60 51 79 52 44 53
REMARK SMILES IDX 45 54 59 56 80 57 47 58 31 59 32 60 40 61 33 62 35 63 41 64
REMARK SMILES IDX 34 65 36 66 37 67 38 68 39 69 63 70 64 71 72 72 65 73 67 74
REMARK SMILES IDX 73 75 66 76 68 77 69 78 70 79 71 80 48 81 49 82 57 83 50 84
REMARK SMILES IDX 52 85 58 86 51 87 53 88 54 89 55 90 56 91
REMARK H PARENT 78 44 46 55
REMARK Flexibility Score: inf
ROOT
ATOM      1  C   UNL     1      -5.414   8.101   6.952  1.00  0.00     0.275 C 
ENDROOT
BRANCH   1   2
ATOM      2  O   UNL     1      -4.046   7.651   6.855  1.00  0.00    -0.458 OA
BRANCH   2   3
ATOM      3  C   UNL     1      -3.808   6.640   5.984  1.00  0.00     0.338 C 
ATOM      4  O   UNL     1      -4.631   6.054   5.303  1.00  0.00    -0.246 OA
BRANCH   3   5
ATOM      5  C   UNL     1      -2.349   6.381   5.879  1.00  0.00     0.061 A 
ATOM      6  C   UNL     1      -0.448   5.809   4.478  1.00  0.00     0.119 A 
ATOM      7  C   UNL     1      -1.831   5.947   4.649  1.00  0.00     0.040 A 
ATOM      8  C   UNL     1       0.403   6.041   5.550  1.00  0.00     0.143 A 
ATOM      9  C   UNL     1      -0.110   6.401   6.796  1.00  0.00     0.041 A 
ATOM     10  F   UNL     1       1.730   5.902   5.434  1.00  0.00    -0.206 F 
ATOM     11  C   UNL     1      -1.484   6.592   6.959  1.00  0.00     0.019 A 
BRANCH   6  12
ATOM     12  S   UNL     1       0.204   5.612   2.847  1.00  0.00     0.246 S 
ATOM     13  O   UNL     1       1.458   6.341   2.770  1.00  0.00    -0.207 OA
ATOM     14  O   UNL     1      -0.867   5.916   1.929  1.00  0.00    -0.207 OA
BRANCH  12  15
ATOM     15  N   UNL     1       0.562   3.918   2.678  1.00  0.00    -0.197 NA
ATOM     16  C   UNL     1       1.361   2.198   0.953  1.00  0.00     0.004 C 
ATOM     17  C   UNL     1       2.432   1.769   1.963  1.00  0.00     0.006 C 
ATOM     18  C   UNL     1       0.891   3.635   1.232  1.00  0.00     0.106 C 
ATOM     19  C   UNL     1       1.968   2.001   3.393  1.00  0.00     0.017 C 
ATOM     20  C   UNL     1       1.632   3.466   3.608  1.00  0.00     0.102 C 
BRANCH  16  21
ATOM     21  C   UNL     1       0.198   1.189   0.862  1.00  0.00     0.001 C 
ATOM     22  C   UNL     1       0.581  -0.045   0.046  1.00  0.00     0.004 C 
ENDBRANCH  16  21
ENDBRANCH  12  15
ENDBRANCH   6  12
ENDBRANCH   3   5
ENDBRANCH   2   3
ENDBRANCH   1   2
BRANCH   1  23
ATOM     23  C   UNL     1      -5.589   9.474   6.305  1.00  0.00     0.275 C 
BRANCH  23  24
ATOM     24  O   UNL     1      -5.416   9.380   4.880  1.00  0.00    -0.458 OA
BRANCH  24  25
ATOM     25  C   UNL     1      -4.272   9.915   4.395  1.00  0.00     0.338 C 
ATOM     26  O   UNL     1      -3.405  10.502   5.019  1.00  0.00    -0.246 OA
BRANCH  25  27
ATOM     27  C   UNL     1      -4.156   9.606   2.963  1.00  0.00     0.060 A 
ATOM     28  C   UNL     1      -3.729   8.333   2.604  1.00  0.00     0.016 A 
ATOM     29  C   UNL     1      -4.323  10.591   1.992  1.00  0.00     0.016 A 
ATOM     30  C   UNL     1      -3.373   8.060   1.287  1.00  0.00     0.010 A 
ATOM     31  C   UNL     1      -4.056  10.283   0.650  1.00  0.00     0.010 A 
ATOM     32  C   UNL     1      -3.540   9.025   0.284  1.00  0.00    -0.014 A 
BRANCH  32  33
ATOM     33  C   UNL     1      -3.148   8.722  -1.125  1.00  0.00     0.031 A 
ATOM     34  C   UNL     1      -2.147   9.592  -1.843  1.00  0.00     0.074 A 
ATOM     35  C   UNL     1      -3.679   7.662  -1.769  1.00  0.00     0.049 A 
ATOM     36  N   UNL     1      -1.815   9.597  -3.110  1.00  0.00    -0.248 NA
ATOM     37  C   UNL     1      -1.438  10.601  -1.039  1.00  0.00     0.031 C 
ATOM     38  C   UNL     1      -4.633   6.713  -1.194  1.00  0.00     0.029 A 
ATOM     39  N   UNL     1      -3.495   7.203  -3.053  1.00  0.00    -0.354 N 
ATOM     40  C   UNL     1      -0.923  10.652  -3.268  1.00  0.00     0.074 A 
ATOM     41  C   UNL     1      -0.756  11.261  -1.966  1.00  0.00     0.031 C 
ATOM     42  C   UNL     1      -4.924   5.771  -2.102  1.00  0.00     0.029 A 
ATOM     43  C   UNL     1      -4.255   6.096  -3.356  1.00  0.00     0.049 A 
ATOM     44  H   UNL     1      -2.879   7.626  -3.694  1.00  0.00     0.167 HD
ATOM     45  C   UNL     1      -0.293  11.068  -4.393  1.00  0.00     0.034 A 
ATOM     46  C   UNL     1      -4.434   5.435  -4.518  1.00  0.00     0.034 A 
ATOM     47  C   UNL     1      -0.388  10.403  -5.666  1.00  0.00     0.049 A 
ATOM     48  C   UNL     1      -3.716   5.910  -5.749  1.00  0.00     0.074 A 
ATOM     49  C   UNL     1       0.247  10.729  -6.852  1.00  0.00     0.029 A 
ATOM     50  N   UNL     1      -1.146   9.270  -5.917  1.00  0.00    -0.354 N 
ATOM     51  N   UNL     1      -2.866   6.898  -5.876  1.00  0.00    -0.248 NA
ATOM     52  C   UNL     1      -3.975   5.176  -6.997  1.00  0.00     0.031 C 
ATOM     53  C   UNL     1      -0.141   9.804  -7.825  1.00  0.00     0.029 A 
ATOM     54  C   UNL     1      -0.997   8.886  -7.239  1.00  0.00     0.049 A 
ATOM     55  H   UNL     1      -1.708   8.808  -5.254  1.00  0.00     0.167 HD
ATOM     56  C   UNL     1      -2.475   6.897  -7.209  1.00  0.00     0.074 A 
ATOM     57  C   UNL     1      -3.160   5.791  -7.845  1.00  0.00     0.031 C 
ATOM     58  C   UNL     1      -1.641   7.751  -7.851  1.00  0.00     0.034 A 
BRANCH  45  59
ATOM     59  C   UNL     1       0.589  12.289  -4.309  1.00  0.00     0.023 A 
ATOM     60  C   UNL     1       1.850  12.204  -3.688  1.00  0.00     0.012 A 
ATOM     61  C   UNL     1       0.208  13.491  -4.941  1.00  0.00     0.148 A 
ATOM     62  C   UNL     1       2.710  13.302  -3.678  1.00  0.00     0.002 A 
ATOM     63  C   UNL     1       1.090  14.566  -4.967  1.00  0.00     0.091 A 
ATOM     64  F   UNL     1      -1.003  13.558  -5.513  1.00  0.00    -0.205 F 
ATOM     65  C   UNL     1       2.337  14.476  -4.328  1.00  0.00     0.022 A 
BRANCH  63  66
ATOM     66  S   UNL     1       0.739  16.089  -5.855  1.00  0.00     0.127 S 
ATOM     67  O   UNL     1       0.563  17.038  -4.756  1.00  0.00    -0.237 OA
ATOM     68  O   UNL     1       1.963  16.281  -6.634  1.00  0.00    -0.237 OA
ATOM     69  O   UNL     1      -0.453  15.828  -6.649  1.00  0.00    -0.744 OA
ENDBRANCH  63  66
ENDBRANCH  45  59
BRANCH  46  70
ATOM     70  C   UNL     1      -5.328   4.241  -4.551  1.00  0.00     0.023 A 
ATOM     71  C   UNL     1      -4.769   2.963  -4.742  1.00  0.00     0.012 A 
ATOM     72  C   UNL     1      -6.714   4.356  -4.317  1.00  0.00     0.148 A 
ATOM     73  C   UNL     1      -5.574   1.823  -4.704  1.00  0.00     0.002 A 
ATOM     74  C   UNL     1      -7.497   3.213  -4.213  1.00  0.00     0.091 A 
ATOM     75  F   UNL     1      -7.233   5.583  -4.165  1.00  0.00    -0.205 F 
ATOM     76  C   UNL     1      -6.932   1.946  -4.422  1.00  0.00     0.022 A 
BRANCH  74  77
ATOM     77  S   UNL     1      -9.216   3.268  -3.693  1.00  0.00     0.127 S 
ATOM     78  O   UNL     1      -9.913   2.909  -4.925  1.00  0.00    -0.237 OA
ATOM     79  O   UNL     1      -9.248   2.246  -2.646  1.00  0.00    -0.237 OA
ATOM     80  O   UNL     1      -9.439   4.625  -3.212  1.00  0.00    -0.744 OA
ENDBRANCH  74  77
ENDBRANCH  46  70
BRANCH  58  81
ATOM     81  C   UNL     1      -1.392   7.525  -9.319  1.00  0.00     0.023 A 
ATOM     82  C   UNL     1      -2.393   7.856 -10.253  1.00  0.00     0.012 A 
ATOM     83  C   UNL     1      -0.133   7.087  -9.777  1.00  0.00     0.148 A 
ATOM     84  C   UNL     1      -2.151   7.737 -11.621  1.00  0.00     0.002 A 
ATOM     85  C   UNL     1       0.116   7.016 -11.142  1.00  0.00     0.091 A 
ATOM     86  F   UNL     1       0.799   6.760  -8.870  1.00  0.00    -0.205 F 
ATOM     87  C   UNL     1      -0.894   7.331 -12.065  1.00  0.00     0.022 A 
BRANCH  85  88
ATOM     88  S   UNL     1       1.732   6.599 -11.808  1.00  0.00     0.127 S 
ATOM     89  O   UNL     1       1.494   5.263 -12.352  1.00  0.00    -0.237 OA
ATOM     90  O   UNL     1       1.932   7.641 -12.815  1.00  0.00    -0.237 OA
ATOM     91  O   UNL     1       2.657   6.658 -10.684  1.00  0.00    -0.744 OA
ENDBRANCH  85  88
ENDBRANCH  58  81
ENDBRANCH  32  33
ENDBRANCH  25  27
ENDBRANCH  24  25
ENDBRANCH  23  24
ENDBRANCH   1  23
TORSDOF 17
