REMARK SMILES O=C(OCCOC(=O)c1cccc2nc(Cl)c(Cl)nc12)c1ccc(-c2c3nc(c(-c4cccc(S(=O)(=O)[O-])c4F)c4ccc([nH]4)c(-c4cccc(S(=O)(=O)[O-])c4F)c4nc(c(-c5cccc(S(=O)(=O)[O-])c5F)c5ccc2[nH]5)C=C4)C=C3)cc1
REMARK SMILES IDX 3 1 2 2 1 3 21 4 22 5 83 6 23 7 82 8 24 9 25 10 26 11 76 12
REMARK SMILES IDX 27 13 81 14 75 15 77 16 28 17 80 18 74 19 73 20 29 22 61 23
REMARK SMILES IDX 41 24 60 25 42 26 45 27 59 28 78 29 43 30 44 31 58 33 79 34
REMARK SMILES IDX 46 35 30 36 31 37 39 38 32 39 34 40 40 41 33 42 35 43 36 44
REMARK SMILES IDX 37 45 38 46 62 47 63 48 71 49 64 50 66 51 72 52 65 53 67 54
REMARK SMILES IDX 68 55 69 56 70 57 47 58 48 59 56 60 49 61 51 62 57 63 50 64
REMARK SMILES IDX 52 65 53 66 54 67 55 68 4 69 5 70 6 71 7 72 8 73 9 74 10 75
REMARK SMILES IDX 20 76 11 77 13 78 19 79 12 80 14 81 17 82 15 83 18 84 16 85
REMARK H PARENT 77 21 45 32
REMARK Flexibility Score: inf
ROOT
ATOM      1  O   UNL     1       3.340   0.997  -0.670  1.00  0.00    -0.458 OA
ENDROOT
BRANCH   1   2
ATOM      2  C   UNL     1       3.334  -0.115  -1.448  1.00  0.00     0.338 C 
ATOM      3  O   UNL     1       2.750  -0.099  -2.529  1.00  0.00    -0.246 OA
BRANCH   2   4
ATOM      4  C   UNL     1       3.825  -1.426  -0.929  1.00  0.00     0.060 A 
ATOM      5  C   UNL     1       3.006  -2.535  -1.183  1.00  0.00     0.016 A 
ATOM      6  C   UNL     1       5.029  -1.639  -0.252  1.00  0.00     0.016 A 
ATOM      7  C   UNL     1       3.312  -3.792  -0.657  1.00  0.00     0.010 A 
ATOM      8  C   UNL     1       5.354  -2.901   0.258  1.00  0.00     0.010 A 
ATOM      9  C   UNL     1       4.493  -3.986   0.075  1.00  0.00    -0.014 A 
BRANCH   9  10
ATOM     10  C   UNL     1       4.941  -5.358   0.408  1.00  0.00     0.031 A 
ATOM     11  C   UNL     1       5.056  -5.867   1.815  1.00  0.00     0.074 A 
ATOM     12  C   UNL     1       5.310  -6.137  -0.627  1.00  0.00     0.049 A 
ATOM     13  N   UNL     1       5.248  -7.096   2.221  1.00  0.00    -0.248 NA
ATOM     14  C   UNL     1       4.923  -4.896   2.911  1.00  0.00     0.031 C 
ATOM     15  C   UNL     1       5.326  -5.708  -2.030  1.00  0.00     0.029 A 
ATOM     16  N   UNL     1       5.764  -7.426  -0.667  1.00  0.00    -0.354 N 
ATOM     17  C   UNL     1       5.198  -7.057   3.609  1.00  0.00     0.074 A 
ATOM     18  C   UNL     1       4.986  -5.678   3.985  1.00  0.00     0.031 C 
ATOM     19  C   UNL     1       5.769  -6.714  -2.792  1.00  0.00     0.029 A 
ATOM     20  C   UNL     1       6.099  -7.842  -1.932  1.00  0.00     0.049 A 
ATOM     21  H   UNL     1       5.843  -7.998   0.130  1.00  0.00     0.167 HD
ATOM     22  C   UNL     1       5.320  -8.086   4.480  1.00  0.00     0.034 A 
ATOM     23  C   UNL     1       6.637  -8.998  -2.358  1.00  0.00     0.034 A 
ATOM     24  C   UNL     1       5.693  -9.420   4.093  1.00  0.00     0.049 A 
ATOM     25  C   UNL     1       6.891 -10.081  -1.360  1.00  0.00     0.074 A 
ATOM     26  C   UNL     1       5.858 -10.533   4.898  1.00  0.00     0.029 A 
ATOM     27  N   UNL     1       6.038  -9.800   2.805  1.00  0.00    -0.354 N 
ATOM     28  N   UNL     1       6.631 -10.083  -0.075  1.00  0.00    -0.248 NA
ATOM     29  C   UNL     1       7.487 -11.324  -1.862  1.00  0.00     0.031 C 
ATOM     30  C   UNL     1       6.363 -11.569   4.107  1.00  0.00     0.029 A 
ATOM     31  C   UNL     1       6.471 -11.113   2.802  1.00  0.00     0.049 A 
ATOM     32  H   UNL     1       5.983  -9.221   2.011  1.00  0.00     0.167 HD
ATOM     33  C   UNL     1       7.013 -11.333   0.387  1.00  0.00     0.074 A 
ATOM     34  C   UNL     1       7.517 -12.065  -0.760  1.00  0.00     0.031 C 
ATOM     35  C   UNL     1       6.954 -11.825   1.647  1.00  0.00     0.034 A 
BRANCH  22  36
ATOM     36  C   UNL     1       5.036  -7.842   5.938  1.00  0.00     0.023 A 
ATOM     37  C   UNL     1       3.699  -7.897   6.382  1.00  0.00     0.012 A 
ATOM     38  C   UNL     1       6.074  -7.719   6.880  1.00  0.00     0.148 A 
ATOM     39  C   UNL     1       3.400  -7.841   7.744  1.00  0.00     0.002 A 
ATOM     40  C   UNL     1       5.769  -7.677   8.236  1.00  0.00     0.091 A 
ATOM     41  F   UNL     1       7.336  -7.666   6.431  1.00  0.00    -0.205 F 
ATOM     42  C   UNL     1       4.434  -7.741   8.670  1.00  0.00     0.022 A 
BRANCH  40  43
ATOM     43  S   UNL     1       7.025  -7.575   9.517  1.00  0.00     0.127 S 
ATOM     44  O   UNL     1       6.688  -6.302  10.155  1.00  0.00    -0.237 OA
ATOM     45  O   UNL     1       6.736  -8.758  10.325  1.00  0.00    -0.237 OA
ATOM     46  O   UNL     1       8.307  -7.593   8.827  1.00  0.00    -0.744 OA
ENDBRANCH  40  43
ENDBRANCH  22  36
BRANCH  23  47
ATOM     47  C   UNL     1       6.918  -9.155  -3.807  1.00  0.00     0.023 A 
ATOM     48  C   UNL     1       6.043  -9.915  -4.603  1.00  0.00     0.012 A 
ATOM     49  C   UNL     1       7.957  -8.424  -4.417  1.00  0.00     0.148 A 
ATOM     50  C   UNL     1       6.195  -9.938  -5.989  1.00  0.00     0.002 A 
ATOM     51  C   UNL     1       8.075  -8.417  -5.800  1.00  0.00     0.091 A 
ATOM     52  F   UNL     1       8.772  -7.706  -3.630  1.00  0.00    -0.205 F 
ATOM     53  C   UNL     1       7.199  -9.178  -6.588  1.00  0.00     0.022 A 
BRANCH  51  54
ATOM     54  S   UNL     1       9.253  -7.369  -6.661  1.00  0.00     0.127 S 
ATOM     55  O   UNL     1      10.173  -8.355  -7.221  1.00  0.00    -0.237 OA
ATOM     56  O   UNL     1       8.399  -6.695  -7.639  1.00  0.00    -0.237 OA
ATOM     57  O   UNL     1       9.816  -6.489  -5.646  1.00  0.00    -0.744 OA
ENDBRANCH  51  54
ENDBRANCH  23  47
BRANCH  35  58
ATOM     58  C   UNL     1       7.445 -13.225   1.869  1.00  0.00     0.023 A 
ATOM     59  C   UNL     1       8.829 -13.471   1.949  1.00  0.00     0.012 A 
ATOM     60  C   UNL     1       6.532 -14.265   2.124  1.00  0.00     0.148 A 
ATOM     61  C   UNL     1       9.298 -14.742   2.275  1.00  0.00     0.002 A 
ATOM     62  C   UNL     1       7.006 -15.518   2.485  1.00  0.00     0.091 A 
ATOM     63  F   UNL     1       5.221 -13.999   2.030  1.00  0.00    -0.205 F 
ATOM     64  C   UNL     1       8.389 -15.760   2.556  1.00  0.00     0.022 A 
BRANCH  62  65
ATOM     65  S   UNL     1       5.914 -16.867   2.943  1.00  0.00     0.127 S 
ATOM     66  O   UNL     1       6.162 -17.827   1.869  1.00  0.00    -0.237 OA
ATOM     67  O   UNL     1       6.443 -17.260   4.249  1.00  0.00    -0.237 OA
ATOM     68  O   UNL     1       4.569 -16.308   2.973  1.00  0.00    -0.744 OA
ENDBRANCH  62  65
ENDBRANCH  35  58
ENDBRANCH   9  10
ENDBRANCH   2   4
ENDBRANCH   1   2
BRANCH   1  69
ATOM     69  C   UNL     1       4.298   1.338   0.345  1.00  0.00     0.275 C 
BRANCH  69  70
ATOM     70  C   UNL     1       3.880   0.956   1.766  1.00  0.00     0.275 C 
BRANCH  70  71
ATOM     71  O   UNL     1       3.297  -0.352   1.855  1.00  0.00    -0.458 OA
BRANCH  71  72
ATOM     72  C   UNL     1       1.941  -0.394   1.948  1.00  0.00     0.340 C 
ATOM     73  O   UNL     1       1.184   0.559   2.024  1.00  0.00    -0.246 OA
BRANCH  72  74
ATOM     74  C   UNL     1       1.515  -1.805   1.973  1.00  0.00     0.088 A 
ATOM     75  C   UNL     1       2.043  -2.646   2.963  1.00  0.00     0.018 A 
ATOM     76  C   UNL     1       0.624  -2.274   0.998  1.00  0.00     0.105 A 
ATOM     77  C   UNL     1       1.687  -3.986   2.980  1.00  0.00     0.003 A 
ATOM     78  C   UNL     1       0.306  -3.660   1.013  1.00  0.00     0.091 A 
ATOM     79  N   UNL     1       0.121  -1.477   0.021  1.00  0.00    -0.230 NA
ATOM     80  C   UNL     1       0.836  -4.483   1.996  1.00  0.00     0.031 A 
ATOM     81  N   UNL     1      -0.470  -4.227   0.071  1.00  0.00    -0.231 NA
ATOM     82  C   UNL     1      -0.652  -2.062  -0.924  1.00  0.00     0.167 A 
ATOM     83  C   UNL     1      -0.933  -3.415  -0.904  1.00  0.00     0.167 A 
ATOM     84  Cl  UNL     1      -1.204  -0.983  -2.138  1.00  0.00    -0.059 Cl
ATOM     85  Cl  UNL     1      -1.865  -4.227  -2.095  1.00  0.00    -0.059 Cl
ENDBRANCH  72  74
ENDBRANCH  71  72
ENDBRANCH  70  71
ENDBRANCH  69  70
ENDBRANCH   1  69
TORSDOF 14
