REMARK SMILES CC(=O)c1nnn(-c2ccc(C(=O)OCCOC(=O)c3ccc(-c4c5nc(c(-c6cccc(S(=O)(=O)[O-])c6F)c6ccc([nH]6)c(-c6cccc(S(=O)(=O)[O-])c6F)c6nc(c(-c7cccc(S(=O)(=O)[O-])c7F)c7ccc4[nH]7)C=C6)C=C5)cc3)cc2)c1C
REMARK SMILES IDX 16 1 15 2 14 3 12 4 13 5 11 6 8 7 9 8 84 9 10 10 83 11 7 12
REMARK SMILES IDX 4 13 5 14 85 15 6 16 86 17 2 18 1 19 3 20 17 21 18 22 19 23
REMARK SMILES IDX 20 24 21 25 82 26 22 27 81 28 23 29 24 30 25 31 75 32 26 33
REMARK SMILES IDX 80 34 74 35 76 36 27 37 79 38 73 39 72 40 28 42 60 43 40 44
REMARK SMILES IDX 59 45 41 46 44 47 58 48 77 49 42 50 43 51 57 53 78 54 45 55
REMARK SMILES IDX 29 56 30 57 38 58 31 59 33 60 39 61 32 62 34 63 35 64 36 65
REMARK SMILES IDX 37 66 61 67 62 68 70 69 63 70 65 71 71 72 64 73 66 74 67 75
REMARK SMILES IDX 68 76 69 77 46 78 47 79 55 80 48 81 50 82 56 83 49 84 51 85
REMARK SMILES IDX 52 86 53 87 54 88
REMARK H PARENT 76 41 44 52
REMARK Flexibility Score: inf
ROOT
ATOM      1  C   UNL     1       9.402   5.093  -6.822  1.00  0.00     0.275 C 
ENDROOT
BRANCH   1   2
ATOM      2  C   UNL     1       9.431   4.574  -5.393  1.00  0.00     0.275 C 
BRANCH   2   3
ATOM      3  O   UNL     1       8.182   3.954  -5.044  1.00  0.00    -0.458 OA
BRANCH   3   4
ATOM      4  C   UNL     1       7.226   4.774  -4.536  1.00  0.00     0.338 C 
ATOM      5  O   UNL     1       7.380   5.928  -4.163  1.00  0.00    -0.246 OA
BRANCH   4   6
ATOM      6  C   UNL     1       5.909   4.089  -4.530  1.00  0.00     0.060 A 
ATOM      7  C   UNL     1       3.458   2.845  -4.156  1.00  0.00     0.067 A 
ATOM      8  C   UNL     1       3.491   4.235  -4.275  1.00  0.00     0.029 A 
ATOM      9  C   UNL     1       4.606   2.072  -4.377  1.00  0.00     0.029 A 
ATOM     10  C   UNL     1       4.733   4.857  -4.437  1.00  0.00     0.018 A 
ATOM     11  C   UNL     1       5.830   2.695  -4.575  1.00  0.00     0.018 A 
BRANCH   7  12
ATOM     12  N   UNL     1       2.320   2.212  -3.621  1.00  0.00    -0.217 N 
ATOM     13  C   UNL     1       0.985   0.915  -2.486  1.00  0.00     0.151 A 
ATOM     14  N   UNL     1       0.272   1.566  -3.466  1.00  0.00    -0.126 NA
ATOM     15  C   UNL     1       2.292   1.377  -2.510  1.00  0.00     0.073 A 
ATOM     16  N   UNL     1       1.072   2.442  -4.061  1.00  0.00    -0.061 NA
ATOM     17  C   UNL     1       3.476   1.188  -1.632  1.00  0.00     0.069 C 
BRANCH  13  18
ATOM     18  C   UNL     1       0.344  -0.050  -1.599  1.00  0.00     0.181 C 
ATOM     19  C   UNL     1       0.790  -0.131  -0.162  1.00  0.00     0.095 C 
ATOM     20  O   UNL     1      -0.547  -0.802  -1.996  1.00  0.00    -0.293 OA
ENDBRANCH  13  18
ENDBRANCH   7  12
ENDBRANCH   4   6
ENDBRANCH   3   4
ENDBRANCH   2   3
ENDBRANCH   1   2
BRANCH   1  21
ATOM     21  O   UNL     1       8.528   6.212  -6.928  1.00  0.00    -0.458 OA
BRANCH  21  22
ATOM     22  C   UNL     1       7.264   5.918  -7.303  1.00  0.00     0.338 C 
ATOM     23  O   UNL     1       6.741   4.816  -7.344  1.00  0.00    -0.246 OA
BRANCH  22  24
ATOM     24  C   UNL     1       6.648   7.116  -7.869  1.00  0.00     0.060 A 
ATOM     25  C   UNL     1       5.296   7.031  -8.219  1.00  0.00     0.016 A 
ATOM     26  C   UNL     1       7.486   8.134  -8.344  1.00  0.00     0.016 A 
ATOM     27  C   UNL     1       4.836   7.851  -9.222  1.00  0.00     0.010 A 
ATOM     28  C   UNL     1       7.032   8.936  -9.356  1.00  0.00     0.010 A 
ATOM     29  C   UNL     1       5.744   8.719  -9.837  1.00  0.00    -0.014 A 
BRANCH  29  30
ATOM     30  C   UNL     1       5.306   9.454 -10.998  1.00  0.00     0.031 A 
ATOM     31  C   UNL     1       4.412  10.584 -10.664  1.00  0.00     0.074 A 
ATOM     32  C   UNL     1       5.812   9.191 -12.217  1.00  0.00     0.049 A 
ATOM     33  N   UNL     1       3.172  10.733 -10.989  1.00  0.00    -0.248 NA
ATOM     34  C   UNL     1       4.908  11.577  -9.698  1.00  0.00     0.031 C 
ATOM     35  C   UNL     1       6.933   8.307 -12.559  1.00  0.00     0.029 A 
ATOM     36  N   UNL     1       5.533   9.801 -13.396  1.00  0.00    -0.354 N 
ATOM     37  C   UNL     1       2.800  11.961 -10.448  1.00  0.00     0.074 A 
ATOM     38  C   UNL     1       3.819  12.318  -9.500  1.00  0.00     0.031 C 
ATOM     39  C   UNL     1       7.407   8.654 -13.777  1.00  0.00     0.029 A 
ATOM     40  C   UNL     1       6.548   9.682 -14.338  1.00  0.00     0.049 A 
ATOM     41  H   UNL     1       4.692  10.283 -13.568  1.00  0.00     0.167 HD
ATOM     42  C   UNL     1       1.819  12.714 -11.012  1.00  0.00     0.034 A 
ATOM     43  C   UNL     1       6.715  10.469 -15.429  1.00  0.00     0.034 A 
ATOM     44  C   UNL     1       1.030  11.945 -11.936  1.00  0.00     0.049 A 
ATOM     45  C   UNL     1       5.425  11.160 -15.677  1.00  0.00     0.074 A 
ATOM     46  C   UNL     1       0.235  10.821 -11.837  1.00  0.00     0.029 A 
ATOM     47  N   UNL     1       1.317  12.098 -13.271  1.00  0.00    -0.354 N 
ATOM     48  N   UNL     1       4.336  10.543 -16.042  1.00  0.00    -0.248 NA
ATOM     49  C   UNL     1       5.229  12.471 -15.074  1.00  0.00     0.031 C 
ATOM     50  C   UNL     1       0.473  10.100 -13.042  1.00  0.00     0.029 A 
ATOM     51  C   UNL     1       1.350  10.850 -13.830  1.00  0.00     0.049 A 
ATOM     52  H   UNL     1       1.471  12.950 -13.740  1.00  0.00     0.167 HD
ATOM     53  C   UNL     1       3.325  11.166 -15.320  1.00  0.00     0.074 A 
ATOM     54  C   UNL     1       3.917  12.409 -14.828  1.00  0.00     0.031 C 
ATOM     55  C   UNL     1       2.208  10.482 -14.934  1.00  0.00     0.034 A 
BRANCH  42  56
ATOM     56  C   UNL     1       1.793  14.222 -11.024  1.00  0.00     0.023 A 
ATOM     57  C   UNL     1       0.620  14.839 -11.511  1.00  0.00     0.012 A 
ATOM     58  C   UNL     1       2.930  15.046 -10.858  1.00  0.00     0.148 A 
ATOM     59  C   UNL     1       0.598  16.189 -11.871  1.00  0.00     0.002 A 
ATOM     60  C   UNL     1       2.880  16.405 -11.139  1.00  0.00     0.091 A 
ATOM     61  F   UNL     1       4.116  14.508 -10.561  1.00  0.00    -0.205 F 
ATOM     62  C   UNL     1       1.726  16.976 -11.679  1.00  0.00     0.022 A 
BRANCH  60  63
ATOM     63  S   UNL     1       4.299  17.473 -10.863  1.00  0.00     0.127 S 
ATOM     64  O   UNL     1       4.775  17.686 -12.226  1.00  0.00    -0.237 OA
ATOM     65  O   UNL     1       3.678  18.638 -10.232  1.00  0.00    -0.237 OA
ATOM     66  O   UNL     1       5.185  16.723  -9.982  1.00  0.00    -0.744 OA
ENDBRANCH  60  63
ENDBRANCH  42  56
BRANCH  43  67
ATOM     67  C   UNL     1       7.975  10.904 -16.076  1.00  0.00     0.023 A 
ATOM     68  C   UNL     1       7.953  11.359 -17.409  1.00  0.00     0.012 A 
ATOM     69  C   UNL     1       9.146  11.125 -15.316  1.00  0.00     0.148 A 
ATOM     70  C   UNL     1       9.052  12.031 -17.959  1.00  0.00     0.002 A 
ATOM     71  C   UNL     1      10.239  11.785 -15.870  1.00  0.00     0.091 A 
ATOM     72  F   UNL     1       9.155  10.773 -14.024  1.00  0.00    -0.205 F 
ATOM     73  C   UNL     1      10.191  12.250 -17.189  1.00  0.00     0.022 A 
BRANCH  71  74
ATOM     74  S   UNL     1      11.734  12.123 -14.928  1.00  0.00     0.127 S 
ATOM     75  O   UNL     1      12.779  11.661 -15.842  1.00  0.00    -0.237 OA
ATOM     76  O   UNL     1      11.664  13.571 -14.759  1.00  0.00    -0.237 OA
ATOM     77  O   UNL     1      11.620  11.337 -13.705  1.00  0.00    -0.744 OA
ENDBRANCH  71  74
ENDBRANCH  43  67
BRANCH  55  78
ATOM     78  C   UNL     1       1.980   9.106 -15.505  1.00  0.00     0.023 A 
ATOM     79  C   UNL     1       2.829   8.019 -15.211  1.00  0.00     0.012 A 
ATOM     80  C   UNL     1       0.762   8.863 -16.160  1.00  0.00     0.148 A 
ATOM     81  C   UNL     1       2.473   6.717 -15.573  1.00  0.00     0.002 A 
ATOM     82  C   UNL     1       0.388   7.562 -16.471  1.00  0.00     0.091 A 
ATOM     83  F   UNL     1      -0.033   9.910 -16.427  1.00  0.00    -0.205 F 
ATOM     84  C   UNL     1       1.244   6.486 -16.186  1.00  0.00     0.022 A 
BRANCH  82  85
ATOM     85  S   UNL     1      -1.241   7.191 -17.123  1.00  0.00     0.127 S 
ATOM     86  O   UNL     1      -0.949   6.898 -18.524  1.00  0.00    -0.237 OA
ATOM     87  O   UNL     1      -1.643   6.031 -16.326  1.00  0.00    -0.237 OA
ATOM     88  O   UNL     1      -2.049   8.382 -16.886  1.00  0.00    -0.744 OA
ENDBRANCH  82  85
ENDBRANCH  55  78
ENDBRANCH  29  30
ENDBRANCH  22  24
ENDBRANCH  21  22
ENDBRANCH   1  21
TORSDOF 16
