REMARK SMILES O=C(Cn1cc(NC(=O)N2CC[N@@H+]3CCC[C@@H]3C2)cn1)OCCOC(=O)c1ccc(-c2c3nc(c(-c4cccc(S(=O)(=O)[O-])c4F)c4ccc([nH]4)c(-c4cccc(S(=O)(=O)[O-])c4F)c4nc(c(-c5cccc(S(=O)(=O)[O-])c5F)c5ccc2[nH]5)C=C4)C=C3)cc1
REMARK SMILES IDX 22 1 21 2 2 3 1 4 3 5 4 6 5 7 20 8 6 9 19 10 7 11 8 12 9 14
REMARK SMILES IDX 10 15 11 16 18 17 12 18 17 19 13 20 16 21 14 22 15 24 23 25
REMARK SMILES IDX 24 26 25 27 26 28 27 29 28 30 89 31 29 32 88 33 30 34 31 35
REMARK SMILES IDX 32 36 82 37 33 38 87 39 81 40 83 41 34 42 86 43 80 44 79 45
REMARK SMILES IDX 35 47 67 48 47 49 66 50 48 51 51 52 65 53 84 54 49 55 50 56
REMARK SMILES IDX 64 58 85 59 52 60 36 61 37 62 45 63 38 64 40 65 46 66 39 67
REMARK SMILES IDX 41 68 42 69 43 70 44 71 68 72 69 73 77 74 70 75 72 76 78 77
REMARK SMILES IDX 71 78 73 79 74 80 75 81 76 82 53 83 54 84 62 85 55 86 57 87
REMARK SMILES IDX 63 88 56 89 58 90 59 91 60 92 61 93
REMARK H PARENT 7 13 13 23 83 46 51 57
REMARK Flexibility Score: inf
ROOT
ATOM      1  C   UNL     1       4.369  -1.004  -0.702  1.00  0.00     0.274 C 
ENDROOT
BRANCH   1   2
ATOM      2  O   UNL     1       2.946  -1.154  -0.497  1.00  0.00    -0.461 OA
BRANCH   2   3
ATOM      3  C   UNL     1       2.165  -0.521   0.416  1.00  0.00     0.327 C 
ATOM      4  O   UNL     1       0.947  -0.706   0.387  1.00  0.00    -0.250 OA
BRANCH   3   5
ATOM      5  C   UNL     1       2.778   0.409   1.430  1.00  0.00     0.266 C 
BRANCH   5   6
ATOM      6  N   UNL     1       3.479  -0.276   2.489  1.00  0.00    -0.259 N 
ATOM      7  C   UNL     1       4.733   0.016   2.965  1.00  0.00     0.135 A 
ATOM      8  N   UNL     1       2.888  -1.301   3.118  1.00  0.00    -0.179 NA
ATOM      9  C   UNL     1       5.028  -0.988   3.851  1.00  0.00     0.081 A 
ATOM     10  C   UNL     1       3.826  -1.724   3.960  1.00  0.00     0.161 A 
BRANCH   9  11
ATOM     11  N   UNL     1       6.240  -1.184   4.488  1.00  0.00    -0.305 N 
ATOM     12  C   UNL     1       6.542  -2.329   5.183  1.00  0.00     0.322 C 
ATOM     13  H   UNL     1       6.917  -0.470   4.441  1.00  0.00     0.171 HD
ATOM     14  O   UNL     1       7.168  -2.283   6.239  1.00  0.00    -0.248 OA
BRANCH  12  15
ATOM     15  N   UNL     1       6.088  -3.512   4.631  1.00  0.00    -0.313 N 
ATOM     16  C   UNL     1       6.288  -3.834   3.212  1.00  0.00     0.183 C 
ATOM     17  C   UNL     1       5.542  -4.545   5.488  1.00  0.00     0.186 C 
ATOM     18  C   UNL     1       5.848  -5.254   2.813  1.00  0.00     0.284 C 
ATOM     19  C   UNL     1       6.094  -5.940   5.183  1.00  0.00     0.204 C 
ATOM     20  N   UNL     1       6.219  -6.316   3.756  1.00  0.00    -0.330 N 
ATOM     21  C   UNL     1       5.225  -7.024   5.823  1.00  0.00     0.073 C 
ATOM     22  C   UNL     1       5.450  -7.544   3.530  1.00  0.00     0.262 C 
ATOM     23  H   UNL     1       7.208  -6.476   3.564  1.00  0.00     0.348 HD
ATOM     24  C   UNL     1       5.392  -8.207   4.893  1.00  0.00     0.068 C 
ENDBRANCH  12  15
ENDBRANCH   9  11
ENDBRANCH   5   6
ENDBRANCH   3   5
ENDBRANCH   2   3
ENDBRANCH   1   2
BRANCH   1  25
ATOM     25  C   UNL     1       4.677   0.017  -1.789  1.00  0.00     0.275 C 
BRANCH  25  26
ATOM     26  O   UNL     1       4.522   1.319  -1.246  1.00  0.00    -0.458 OA
BRANCH  26  27
ATOM     27  C   UNL     1       3.303   1.897  -1.360  1.00  0.00     0.338 C 
ATOM     28  O   UNL     1       2.312   1.438  -1.865  1.00  0.00    -0.246 OA
BRANCH  27  29
ATOM     29  C   UNL     1       3.417   3.217  -0.719  1.00  0.00     0.060 A 
ATOM     30  C   UNL     1       2.362   4.110  -0.899  1.00  0.00     0.016 A 
ATOM     31  C   UNL     1       4.633   3.599  -0.126  1.00  0.00     0.016 A 
ATOM     32  C   UNL     1       2.632   5.449  -0.746  1.00  0.00     0.010 A 
ATOM     33  C   UNL     1       4.908   4.928   0.007  1.00  0.00     0.010 A 
ATOM     34  C   UNL     1       3.938   5.825  -0.415  1.00  0.00    -0.014 A 
BRANCH  34  35
ATOM     35  C   UNL     1       4.292   7.218  -0.499  1.00  0.00     0.031 A 
ATOM     36  C   UNL     1       3.791   7.986   0.654  1.00  0.00     0.074 A 
ATOM     37  C   UNL     1       5.074   7.667  -1.499  1.00  0.00     0.049 A 
ATOM     38  N   UNL     1       2.812   8.827   0.664  1.00  0.00    -0.248 NA
ATOM     39  C   UNL     1       4.264   7.594   1.991  1.00  0.00     0.031 C 
ATOM     40  C   UNL     1       5.821   6.877  -2.487  1.00  0.00     0.029 A 
ATOM     41  N   UNL     1       5.484   8.934  -1.753  1.00  0.00    -0.354 N 
ATOM     42  C   UNL     1       2.756   9.282   1.977  1.00  0.00     0.074 A 
ATOM     43  C   UNL     1       3.446   8.303   2.768  1.00  0.00     0.031 C 
ATOM     44  C   UNL     1       6.774   7.657  -3.046  1.00  0.00     0.029 A 
ATOM     45  C   UNL     1       6.617   9.014  -2.555  1.00  0.00     0.049 A 
ATOM     46  H   UNL     1       5.019   9.727  -1.402  1.00  0.00     0.167 HD
ATOM     47  C   UNL     1       2.471  10.588   2.233  1.00  0.00     0.034 A 
ATOM     48  C   UNL     1       7.412  10.104  -2.706  1.00  0.00     0.034 A 
ATOM     49  C   UNL     1       1.823  11.201   1.094  1.00  0.00     0.049 A 
ATOM     50  C   UNL     1       6.622  11.281  -2.268  1.00  0.00     0.074 A 
ATOM     51  C   UNL     1       0.687  10.930   0.358  1.00  0.00     0.029 A 
ATOM     52  N   UNL     1       2.599  12.020   0.308  1.00  0.00    -0.354 N 
ATOM     53  N   UNL     1       5.561  11.706  -2.895  1.00  0.00    -0.248 NA
ATOM     54  C   UNL     1       6.736  11.694  -0.878  1.00  0.00     0.031 C 
ATOM     55  C   UNL     1       1.042  11.221  -0.992  1.00  0.00     0.029 A 
ATOM     56  C   UNL     1       2.344  11.726  -1.003  1.00  0.00     0.049 A 
ATOM     57  H   UNL     1       3.231  12.701   0.634  1.00  0.00     0.167 HD
ATOM     58  C   UNL     1       4.665  12.018  -1.879  1.00  0.00     0.074 A 
ATOM     59  C   UNL     1       5.479  12.098  -0.666  1.00  0.00     0.031 C 
ATOM     60  C   UNL     1       3.319  11.877  -2.063  1.00  0.00     0.034 A 
BRANCH  47  61
ATOM     61  C   UNL     1       3.178  11.421   3.289  1.00  0.00     0.023 A 
ATOM     62  C   UNL     1       2.759  12.765   3.410  1.00  0.00     0.012 A 
ATOM     63  C   UNL     1       4.389  11.076   3.937  1.00  0.00     0.148 A 
ATOM     64  C   UNL     1       3.551  13.729   4.043  1.00  0.00     0.002 A 
ATOM     65  C   UNL     1       5.144  12.024   4.617  1.00  0.00     0.091 A 
ATOM     66  F   UNL     1       4.904   9.854   3.821  1.00  0.00    -0.205 F 
ATOM     67  C   UNL     1       4.749  13.360   4.641  1.00  0.00     0.022 A 
BRANCH  65  68
ATOM     68  S   UNL     1       6.691  11.588   5.429  1.00  0.00     0.127 S 
ATOM     69  O   UNL     1       7.666  12.227   4.551  1.00  0.00    -0.237 OA
ATOM     70  O   UNL     1       6.524  12.219   6.738  1.00  0.00    -0.237 OA
ATOM     71  O   UNL     1       6.726  10.132   5.468  1.00  0.00    -0.744 OA
ENDBRANCH  65  68
ENDBRANCH  47  61
BRANCH  48  72
ATOM     72  C   UNL     1       8.882  10.175  -2.890  1.00  0.00     0.023 A 
ATOM     73  C   UNL     1       9.469  11.362  -3.373  1.00  0.00     0.012 A 
ATOM     74  C   UNL     1       9.731   9.196  -2.327  1.00  0.00     0.148 A 
ATOM     75  C   UNL     1      10.849  11.579  -3.272  1.00  0.00     0.002 A 
ATOM     76  C   UNL     1      11.103   9.412  -2.236  1.00  0.00     0.091 A 
ATOM     77  F   UNL     1       9.185   8.094  -1.797  1.00  0.00    -0.205 F 
ATOM     78  C   UNL     1      11.665  10.609  -2.696  1.00  0.00     0.022 A 
BRANCH  76  79
ATOM     79  S   UNL     1      12.213   8.213  -1.482  1.00  0.00     0.127 S 
ATOM     80  O   UNL     1      13.261   8.094  -2.495  1.00  0.00    -0.237 OA
ATOM     81  O   UNL     1      12.617   8.902  -0.259  1.00  0.00    -0.237 OA
ATOM     82  O   UNL     1      11.423   7.003  -1.292  1.00  0.00    -0.744 OA
ENDBRANCH  76  79
ENDBRANCH  48  72
BRANCH  60  83
ATOM     83  C   UNL     1       2.819  11.630  -3.466  1.00  0.00     0.023 A 
ATOM     84  C   UNL     1       3.126  10.458  -4.191  1.00  0.00     0.012 A 
ATOM     85  C   UNL     1       1.875  12.525  -3.992  1.00  0.00     0.148 A 
ATOM     86  C   UNL     1       2.518  10.200  -5.424  1.00  0.00     0.002 A 
ATOM     87  C   UNL     1       1.238  12.242  -5.193  1.00  0.00     0.091 A 
ATOM     88  F   UNL     1       1.593  13.632  -3.288  1.00  0.00    -0.205 F 
ATOM     89  C   UNL     1       1.563  11.085  -5.918  1.00  0.00     0.022 A 
BRANCH  87  90
ATOM     90  S   UNL     1      -0.087  13.279  -5.812  1.00  0.00     0.127 S 
ATOM     91  O   UNL     1       0.568  13.989  -6.909  1.00  0.00    -0.237 OA
ATOM     92  O   UNL     1      -1.087  12.295  -6.229  1.00  0.00    -0.237 OA
ATOM     93  O   UNL     1      -0.505  14.109  -4.688  1.00  0.00    -0.744 OA
ENDBRANCH  87  90
ENDBRANCH  60  83
ENDBRANCH  34  35
ENDBRANCH  27  29
ENDBRANCH  26  27
ENDBRANCH  25  26
ENDBRANCH   1  25
TORSDOF 17
