REMARK SMILES CC[C@](C)(C(=O)OCCOC(=O)c1ccc(-c2c3nc(c(-c4cccc(S(=O)(=O)[O-])c4F)c4ccc([nH]4)c(-c4cccc(S(=O)(=O)[O-])c4F)c4nc(c(-c5cccc(S(=O)(=O)[O-])c5F)c5ccc2[nH]5)C=C4)C=C3)cc1)n1nnnc1-c1ccco1
REMARK SMILES IDX 9 1 8 2 7 3 5 4 6 5 3 6 4 7 2 8 1 9 76 10 77 11 80 12 78 13
REMARK SMILES IDX 79 14 81 15 82 16 85 17 83 18 84 19 10 20 11 21 12 22 13 23
REMARK SMILES IDX 14 24 75 25 15 26 74 27 16 28 17 29 18 30 68 31 19 32 73 33
REMARK SMILES IDX 67 34 69 35 20 36 72 37 66 38 65 39 21 41 53 42 33 43 52 44
REMARK SMILES IDX 34 45 37 46 51 47 70 48 35 49 36 50 50 52 71 53 38 54 22 55
REMARK SMILES IDX 23 56 31 57 24 58 26 59 32 60 25 61 27 62 28 63 29 64 30 65
REMARK SMILES IDX 54 66 55 67 63 68 56 69 58 70 64 71 57 72 59 73 60 74 61 75
REMARK SMILES IDX 62 76 39 77 40 78 48 79 41 80 43 81 49 82 42 83 44 84 45 85
REMARK SMILES IDX 46 86 47 87
REMARK H PARENT 69 40 37 51
REMARK Flexibility Score: inf
ROOT
ATOM      1  C   UNL     1      -0.550   5.886   0.491  1.00  0.00     0.275 C 
ENDROOT
BRANCH   1   2
ATOM      2  C   UNL     1      -0.906   5.130  -0.789  1.00  0.00     0.274 C 
BRANCH   2   3
ATOM      3  O   UNL     1      -0.399   3.779  -0.743  1.00  0.00    -0.460 OA
BRANCH   3   4
ATOM      4  C   UNL     1       0.503   3.416  -1.707  1.00  0.00     0.334 C 
ATOM      5  O   UNL     1       0.819   4.170  -2.619  1.00  0.00    -0.249 OA
BRANCH   4   6
ATOM      6  C   UNL     1       0.885   1.903  -1.616  1.00  0.00     0.161 C 
ATOM      7  C   UNL     1       0.584   1.396  -0.186  1.00  0.00     0.050 C 
BRANCH   6   8
ATOM      8  C   UNL     1       0.008   1.230  -2.720  1.00  0.00     0.039 C 
ATOM      9  C   UNL     1      -0.712  -0.056  -2.341  1.00  0.00     0.007 C 
ENDBRANCH   6   8
BRANCH   6  10
ATOM     10  N   UNL     1       2.316   1.696  -1.935  1.00  0.00    -0.205 N 
ATOM     11  N   UNL     1       3.044   2.681  -2.503  1.00  0.00    -0.043 NA
ATOM     12  C   UNL     1       3.122   0.579  -1.849  1.00  0.00     0.218 A 
ATOM     13  N   UNL     1       4.256   2.192  -2.695  1.00  0.00    -0.023 NA
ATOM     14  N   UNL     1       4.319   0.890  -2.300  1.00  0.00    -0.105 NA
BRANCH  12  15
ATOM     15  C   UNL     1       2.781  -0.747  -1.468  1.00  0.00     0.172 A 
ATOM     16  C   UNL     1       2.611  -1.838  -2.303  1.00  0.00     0.054 A 
ATOM     17  O   UNL     1       2.655  -1.163  -0.169  1.00  0.00    -0.461 OA
ATOM     18  C   UNL     1       2.355  -2.959  -1.480  1.00  0.00     0.043 A 
ATOM     19  C   UNL     1       2.413  -2.499  -0.187  1.00  0.00     0.196 A 
ENDBRANCH  12  15
ENDBRANCH   6  10
ENDBRANCH   4   6
ENDBRANCH   3   4
ENDBRANCH   2   3
ENDBRANCH   1   2
BRANCH   1  20
ATOM     20  O   UNL     1       0.875   6.034   0.618  1.00  0.00    -0.458 OA
BRANCH  20  21
ATOM     21  C   UNL     1       1.482   5.105   1.388  1.00  0.00     0.338 C 
ATOM     22  O   UNL     1       0.939   4.212   2.033  1.00  0.00    -0.246 OA
BRANCH  21  23
ATOM     23  C   UNL     1       2.934   5.169   1.186  1.00  0.00     0.060 A 
ATOM     24  C   UNL     1       3.519   4.111   0.492  1.00  0.00     0.016 A 
ATOM     25  C   UNL     1       3.725   6.190   1.710  1.00  0.00     0.016 A 
ATOM     26  C   UNL     1       4.893   4.060   0.301  1.00  0.00     0.010 A 
ATOM     27  C   UNL     1       5.114   6.136   1.529  1.00  0.00     0.010 A 
ATOM     28  C   UNL     1       5.705   5.066   0.829  1.00  0.00    -0.014 A 
BRANCH  28  29
ATOM     29  C   UNL     1       7.175   4.935   0.706  1.00  0.00     0.031 A 
ATOM     30  C   UNL     1       7.979   4.498   1.895  1.00  0.00     0.074 A 
ATOM     31  C   UNL     1       7.777   5.152  -0.478  1.00  0.00     0.049 A 
ATOM     32  N   UNL     1       9.275   4.373   2.015  1.00  0.00    -0.248 NA
ATOM     33  C   UNL     1       7.223   4.146   3.108  1.00  0.00     0.031 C 
ATOM     34  C   UNL     1       7.093   5.509  -1.721  1.00  0.00     0.029 A 
ATOM     35  N   UNL     1       9.104   5.106  -0.826  1.00  0.00    -0.354 N 
ATOM     36  C   UNL     1       9.495   3.971   3.326  1.00  0.00     0.074 A 
ATOM     37  C   UNL     1       8.198   3.863   3.961  1.00  0.00     0.031 C 
ATOM     38  C   UNL     1       8.007   5.663  -2.693  1.00  0.00     0.029 A 
ATOM     39  C   UNL     1       9.341   5.455  -2.134  1.00  0.00     0.049 A 
ATOM     40  H   UNL     1       9.818   4.848  -0.198  1.00  0.00     0.167 HD
ATOM     41  C   UNL     1      10.671   3.707   3.942  1.00  0.00     0.034 A 
ATOM     42  C   UNL     1      10.503   5.613  -2.798  1.00  0.00     0.034 A 
ATOM     43  C   UNL     1      11.954   3.776   3.297  1.00  0.00     0.049 A 
ATOM     44  C   UNL     1      11.799   5.357  -2.074  1.00  0.00     0.074 A 
ATOM     45  C   UNL     1      13.202   3.518   3.836  1.00  0.00     0.029 A 
ATOM     46  N   UNL     1      12.156   4.129   1.972  1.00  0.00    -0.354 N 
ATOM     47  N   UNL     1      11.992   4.924  -0.852  1.00  0.00    -0.248 NA
ATOM     48  C   UNL     1      13.039   5.596  -2.828  1.00  0.00     0.031 C 
ATOM     49  C   UNL     1      14.161   3.731   2.839  1.00  0.00     0.029 A 
ATOM     50  C   UNL     1      13.508   4.108   1.676  1.00  0.00     0.049 A 
ATOM     51  H   UNL     1      11.442   4.361   1.334  1.00  0.00     0.167 HD
ATOM     52  C   UNL     1      13.369   4.813  -0.697  1.00  0.00     0.074 A 
ATOM     53  C   UNL     1      13.963   5.202  -1.960  1.00  0.00     0.031 C 
ATOM     54  C   UNL     1      14.080   4.444   0.397  1.00  0.00     0.034 A 
BRANCH  41  55
ATOM     55  C   UNL     1      10.620   3.313   5.392  1.00  0.00     0.023 A 
ATOM     56  C   UNL     1      10.220   2.011   5.749  1.00  0.00     0.012 A 
ATOM     57  C   UNL     1      11.004   4.222   6.397  1.00  0.00     0.148 A 
ATOM     58  C   UNL     1      10.177   1.626   7.089  1.00  0.00     0.002 A 
ATOM     59  C   UNL     1      10.993   3.821   7.727  1.00  0.00     0.091 A 
ATOM     60  F   UNL     1      11.353   5.465   6.036  1.00  0.00    -0.205 F 
ATOM     61  C   UNL     1      10.572   2.527   8.076  1.00  0.00     0.022 A 
BRANCH  59  62
ATOM     62  S   UNL     1      11.543   4.892   9.059  1.00  0.00     0.127 S 
ATOM     63  O   UNL     1      10.273   5.284   9.668  1.00  0.00    -0.237 OA
ATOM     64  O   UNL     1      12.354   3.986   9.873  1.00  0.00    -0.237 OA
ATOM     65  O   UNL     1      12.294   5.966   8.423  1.00  0.00    -0.744 OA
ENDBRANCH  59  62
ENDBRANCH  41  55
BRANCH  42  66
ATOM     66  C   UNL     1      10.495   6.018  -4.233  1.00  0.00     0.023 A 
ATOM     67  C   UNL     1      10.921   5.103  -5.213  1.00  0.00     0.012 A 
ATOM     68  C   UNL     1      10.055   7.296  -4.632  1.00  0.00     0.148 A 
ATOM     69  C   UNL     1      10.933   5.460  -6.563  1.00  0.00     0.002 A 
ATOM     70  C   UNL     1      10.018   7.627  -5.982  1.00  0.00     0.091 A 
ATOM     71  F   UNL     1       9.680   8.165  -3.683  1.00  0.00    -0.205 F 
ATOM     72  C   UNL     1      10.471   6.716  -6.948  1.00  0.00     0.022 A 
BRANCH  70  73
ATOM     73  S   UNL     1       9.329   9.178  -6.571  1.00  0.00     0.127 S 
ATOM     74  O   UNL     1      10.532   9.920  -6.939  1.00  0.00    -0.237 OA
ATOM     75  O   UNL     1       8.507   8.740  -7.699  1.00  0.00    -0.237 OA
ATOM     76  O   UNL     1       8.569   9.718  -5.452  1.00  0.00    -0.744 OA
ENDBRANCH  70  73
ENDBRANCH  42  66
BRANCH  54  77
ATOM     77  C   UNL     1      15.581   4.422   0.281  1.00  0.00     0.023 A 
ATOM     78  C   UNL     1      16.293   5.637   0.266  1.00  0.00     0.012 A 
ATOM     79  C   UNL     1      16.290   3.204   0.273  1.00  0.00     0.148 A 
ATOM     80  C   UNL     1      17.687   5.642   0.220  1.00  0.00     0.002 A 
ATOM     81  C   UNL     1      17.680   3.217   0.272  1.00  0.00     0.091 A 
ATOM     82  F   UNL     1      15.594   2.058   0.268  1.00  0.00    -0.205 F 
ATOM     83  C   UNL     1      18.380   4.434   0.235  1.00  0.00     0.022 A 
BRANCH  81  84
ATOM     84  S   UNL     1      18.653   1.710   0.386  1.00  0.00     0.127 S 
ATOM     85  O   UNL     1      19.124   1.552  -0.989  1.00  0.00    -0.237 OA
ATOM     86  O   UNL     1      19.693   2.080   1.347  1.00  0.00    -0.237 OA
ATOM     87  O   UNL     1      17.738   0.680   0.859  1.00  0.00    -0.744 OA
ENDBRANCH  81  84
ENDBRANCH  54  77
ENDBRANCH  28  29
ENDBRANCH  21  23
ENDBRANCH  20  21
ENDBRANCH   1  20
TORSDOF 17
