REMARK SMILES COc1cc2nc(SCC(=O)OCCOC(=O)c3ccc(-c4c5nc(c(-c6cccc(S(=O)(=O)[O-])c6F)c6ccc([nH]6)c(-c6cccc(S(=O)(=O)[O-])c6F)c6nc(c(-c7cccc(S(=O)(=O)[O-])c7F)c7ccc4[nH]7)C=C6)C=C5)cc3)nc(O)c2cc1OC
REMARK SMILES IDX 13 1 12 2 10 3 11 4 9 5 8 6 7 7 3 8 4 9 86 10 5 11 85 12
REMARK SMILES IDX 6 13 84 14 82 15 81 16 2 17 1 18 87 19 88 20 83 21 14 23
REMARK SMILES IDX 15 24 16 25 17 26 18 27 19 28 80 29 20 30 79 31 21 32 22 33
REMARK SMILES IDX 23 34 73 35 24 36 78 37 72 38 74 39 25 40 77 41 71 42 70 43
REMARK SMILES IDX 26 45 58 46 38 47 57 48 39 49 42 50 56 51 75 52 40 53 41 54
REMARK SMILES IDX 55 56 76 57 43 58 27 59 28 60 36 61 29 62 31 63 37 64 30 65
REMARK SMILES IDX 32 66 33 67 34 68 35 69 59 70 60 71 68 72 61 73 63 74 69 75
REMARK SMILES IDX 62 76 64 77 65 78 66 79 67 80 44 81 45 82 53 83 46 84 48 85
REMARK SMILES IDX 54 86 47 87 49 88 50 89 51 90 52 91
REMARK H PARENT 83 22 74 44 42 55
REMARK Flexibility Score: inf
ROOT
ATOM      1  C   UNL     1      -1.103   4.027  -8.926  1.00  0.00     0.274 C 
ENDROOT
BRANCH   1   2
ATOM      2  O   UNL     1      -1.499   2.690  -8.553  1.00  0.00    -0.461 OA
BRANCH   2   3
ATOM      3  C   UNL     1      -1.409   1.751  -9.530  1.00  0.00     0.316 C 
ATOM      4  O   UNL     1      -1.014   1.991 -10.670  1.00  0.00    -0.251 OA
BRANCH   3   5
ATOM      5  C   UNL     1      -1.858   0.359  -9.148  1.00  0.00     0.200 C 
BRANCH   5   6
ATOM      6  S   UNL     1      -2.517   0.154  -7.479  1.00  0.00    -0.074 SA
BRANCH   6   7
ATOM      7  C   UNL     1      -1.052  -0.196  -6.533  1.00  0.00     0.192 A 
ATOM      8  C   UNL     1       0.707  -0.662  -2.163  1.00  0.00     0.162 A 
ATOM      9  C   UNL     1      -0.376  -0.543  -3.041  1.00  0.00     0.079 A 
ATOM     10  C   UNL     1       2.018  -0.699  -2.653  1.00  0.00     0.161 A 
ATOM     11  C   UNL     1      -0.197  -0.452  -4.412  1.00  0.00     0.083 A 
ATOM     12  C   UNL     1       2.202  -0.701  -4.036  1.00  0.00     0.066 A 
ATOM     13  N   UNL     1      -1.257  -0.253  -5.205  1.00  0.00    -0.222 NA
ATOM     14  C   UNL     1       1.092  -0.584  -4.911  1.00  0.00     0.066 A 
ATOM     15  C   UNL     1       1.152  -0.604  -6.298  1.00  0.00     0.223 A 
ATOM     16  N   UNL     1       0.122  -0.413  -7.141  1.00  0.00    -0.187 NA
BRANCH   8  17
ATOM     17  O   UNL     1       0.368  -0.808  -0.841  1.00  0.00    -0.493 OA
ATOM     18  C   UNL     1       0.920   0.205  -0.008  1.00  0.00     0.278 C 
ENDBRANCH   8  17
BRANCH  10  19
ATOM     19  O   UNL     1       3.040  -0.783  -1.748  1.00  0.00    -0.493 OA
ATOM     20  C   UNL     1       4.308  -0.305  -2.190  1.00  0.00     0.278 C 
ENDBRANCH  10  19
BRANCH  15  21
ATOM     21  O   UNL     1       2.337  -0.887  -6.913  1.00  0.00    -0.493 OA
ATOM     22  H   UNL     1       2.388  -0.903  -7.848  1.00  0.00     0.295 HD
ENDBRANCH  15  21
ENDBRANCH   6   7
ENDBRANCH   5   6
ENDBRANCH   3   5
ENDBRANCH   2   3
ENDBRANCH   1   2
BRANCH   1  23
ATOM     23  C   UNL     1       0.322   4.326  -8.473  1.00  0.00     0.275 C 
BRANCH  23  24
ATOM     24  O   UNL     1       1.232   3.402  -9.090  1.00  0.00    -0.458 OA
BRANCH  24  25
ATOM     25  C   UNL     1       1.849   2.547  -8.246  1.00  0.00     0.338 C 
ATOM     26  O   UNL     1       1.785   2.532  -7.027  1.00  0.00    -0.246 OA
BRANCH  25  27
ATOM     27  C   UNL     1       2.687   1.625  -9.026  1.00  0.00     0.060 A 
ATOM     28  C   UNL     1       4.068   1.659  -8.841  1.00  0.00     0.016 A 
ATOM     29  C   UNL     1       2.104   0.658  -9.851  1.00  0.00     0.016 A 
ATOM     30  C   UNL     1       4.871   0.731  -9.505  1.00  0.00     0.010 A 
ATOM     31  C   UNL     1       2.902  -0.306 -10.465  1.00  0.00     0.010 A 
ATOM     32  C   UNL     1       4.294  -0.264 -10.312  1.00  0.00    -0.014 A 
BRANCH  32  33
ATOM     33  C   UNL     1       5.155  -1.261 -10.989  1.00  0.00     0.031 A 
ATOM     34  C   UNL     1       5.354  -1.208 -12.476  1.00  0.00     0.074 A 
ATOM     35  C   UNL     1       5.751  -2.227 -10.265  1.00  0.00     0.049 A 
ATOM     36  N   UNL     1       6.189  -1.893 -13.213  1.00  0.00    -0.248 NA
ATOM     37  C   UNL     1       4.503  -0.279 -13.236  1.00  0.00     0.031 C 
ATOM     38  C   UNL     1       5.563  -2.444  -8.829  1.00  0.00     0.029 A 
ATOM     39  N   UNL     1       6.634  -3.208 -10.639  1.00  0.00    -0.354 N 
ATOM     40  C   UNL     1       5.964  -1.481 -14.520  1.00  0.00     0.074 A 
ATOM     41  C   UNL     1       4.887  -0.517 -14.482  1.00  0.00     0.031 C 
ATOM     42  C   UNL     1       6.323  -3.481  -8.441  1.00  0.00     0.029 A 
ATOM     43  C   UNL     1       7.059  -3.993  -9.595  1.00  0.00     0.049 A 
ATOM     44  H   UNL     1       6.934  -3.337 -11.568  1.00  0.00     0.167 HD
ATOM     45  C   UNL     1       6.623  -1.843 -15.644  1.00  0.00     0.034 A 
ATOM     46  C   UNL     1       7.966  -4.989  -9.563  1.00  0.00     0.034 A 
ATOM     47  C   UNL     1       7.717  -2.772 -15.675  1.00  0.00     0.049 A 
ATOM     48  C   UNL     1       8.723  -5.341 -10.813  1.00  0.00     0.074 A 
ATOM     49  C   UNL     1       8.518  -3.121 -16.747  1.00  0.00     0.029 A 
ATOM     50  N   UNL     1       8.156  -3.509 -14.587  1.00  0.00    -0.354 N 
ATOM     51  N   UNL     1       8.637  -4.800 -12.004  1.00  0.00    -0.248 NA
ATOM     52  C   UNL     1       9.732  -6.406 -10.708  1.00  0.00     0.031 C 
ATOM     53  C   UNL     1       9.440  -4.077 -16.308  1.00  0.00     0.029 A 
ATOM     54  C   UNL     1       9.211  -4.320 -14.962  1.00  0.00     0.049 A 
ATOM     55  H   UNL     1       7.773  -3.462 -13.681  1.00  0.00     0.167 HD
ATOM     56  C   UNL     1       9.598  -5.435 -12.782  1.00  0.00     0.074 A 
ATOM     57  C   UNL     1      10.260  -6.399 -11.927  1.00  0.00     0.031 C 
ATOM     58  C   UNL     1       9.895  -5.240 -14.090  1.00  0.00     0.034 A 
BRANCH  45  59
ATOM     59  C   UNL     1       6.233  -1.163 -16.925  1.00  0.00     0.023 A 
ATOM     60  C   UNL     1       6.686   0.151 -17.162  1.00  0.00     0.012 A 
ATOM     61  C   UNL     1       5.479  -1.828 -17.909  1.00  0.00     0.148 A 
ATOM     62  C   UNL     1       6.378   0.802 -18.355  1.00  0.00     0.002 A 
ATOM     63  C   UNL     1       5.199  -1.181 -19.108  1.00  0.00     0.091 A 
ATOM     64  F   UNL     1       5.040  -3.067 -17.650  1.00  0.00    -0.205 F 
ATOM     65  C   UNL     1       5.643   0.134 -19.330  1.00  0.00     0.022 A 
BRANCH  63  66
ATOM     66  S   UNL     1       4.299  -1.970 -20.447  1.00  0.00     0.127 S 
ATOM     67  O   UNL     1       3.025  -1.254 -20.407  1.00  0.00    -0.237 OA
ATOM     68  O   UNL     1       5.137  -1.661 -21.606  1.00  0.00    -0.237 OA
ATOM     69  O   UNL     1       4.231  -3.384 -20.106  1.00  0.00    -0.744 OA
ENDBRANCH  63  66
ENDBRANCH  45  59
BRANCH  46  70
ATOM     70  C   UNL     1       8.289  -5.627  -8.259  1.00  0.00     0.023 A 
ATOM     71  C   UNL     1       9.454  -5.228  -7.576  1.00  0.00     0.012 A 
ATOM     72  C   UNL     1       7.411  -6.547  -7.655  1.00  0.00     0.148 A 
ATOM     73  C   UNL     1       9.743  -5.738  -6.311  1.00  0.00     0.002 A 
ATOM     74  C   UNL     1       7.690  -7.027  -6.381  1.00  0.00     0.091 A 
ATOM     75  F   UNL     1       6.306  -6.899  -8.325  1.00  0.00    -0.205 F 
ATOM     76  C   UNL     1       8.859  -6.630  -5.711  1.00  0.00     0.022 A 
BRANCH  74  77
ATOM     77  S   UNL     1       6.575  -8.111  -5.483  1.00  0.00     0.127 S 
ATOM     78  O   UNL     1       7.434  -9.261  -5.204  1.00  0.00    -0.237 OA
ATOM     79  O   UNL     1       6.244  -7.292  -4.318  1.00  0.00    -0.237 OA
ATOM     80  O   UNL     1       5.463  -8.375  -6.386  1.00  0.00    -0.744 OA
ENDBRANCH  74  77
ENDBRANCH  46  70
BRANCH  58  81
ATOM     81  C   UNL     1      10.988  -6.071 -14.703  1.00  0.00     0.023 A 
ATOM     82  C   UNL     1      10.704  -7.389 -15.107  1.00  0.00     0.012 A 
ATOM     83  C   UNL     1      12.241  -5.503 -15.006  1.00  0.00     0.148 A 
ATOM     84  C   UNL     1      11.655  -8.134 -15.803  1.00  0.00     0.002 A 
ATOM     85  C   UNL     1      13.171  -6.240 -15.729  1.00  0.00     0.091 A 
ATOM     86  F   UNL     1      12.489  -4.250 -14.599  1.00  0.00    -0.205 F 
ATOM     87  C   UNL     1      12.881  -7.556 -16.125  1.00  0.00     0.022 A 
BRANCH  85  88
ATOM     88  S   UNL     1      14.744  -5.553 -16.262  1.00  0.00     0.127 S 
ATOM     89  O   UNL     1      15.688  -6.281 -15.417  1.00  0.00    -0.237 OA
ATOM     90  O   UNL     1      14.780  -5.923 -17.678  1.00  0.00    -0.237 OA
ATOM     91  O   UNL     1      14.662  -4.120 -16.014  1.00  0.00    -0.744 OA
ENDBRANCH  85  88
ENDBRANCH  58  81
ENDBRANCH  32  33
ENDBRANCH  25  27
ENDBRANCH  24  25
ENDBRANCH  23  24
ENDBRANCH   1  23
TORSDOF 19
