REMARK SMILES C=CCOc1ccccc1-c1cc(C(=O)OCCOC(=O)c2ccc(-c3c4nc(c(-c5cccc(S(=O)(=O)[O-])c5F)c5ccc([nH]5)c(-c5cccc(S(=O)(=O)[O-])c5F)c5nc(c(-c6cccc(S(=O)(=O)[O-])c6F)c6ccc3[nH]6)C=C5)C=C4)cc2)nc(N)n1
REMARK SMILES IDX 17 1 16 2 14 3 15 4 13 5 11 6 12 7 88 8 86 9 85 10 10 11
REMARK SMILES IDX 5 12 6 13 7 14 9 15 8 16 4 17 3 18 2 19 1 20 87 21 18 24
REMARK SMILES IDX 19 25 20 26 21 27 22 28 23 29 84 30 24 31 83 32 25 33 26 34
REMARK SMILES IDX 27 35 77 36 28 37 82 38 76 39 78 40 29 41 81 42 75 43 74 44
REMARK SMILES IDX 30 46 62 47 42 48 61 49 43 50 46 51 60 52 79 53 44 54 45 55
REMARK SMILES IDX 59 57 80 58 47 59 31 60 32 61 40 62 33 63 35 64 41 65 34 66
REMARK SMILES IDX 36 67 37 68 38 69 39 70 63 71 64 72 72 73 65 74 67 75 73 76
REMARK SMILES IDX 66 77 68 78 69 79 70 80 71 81 48 82 49 83 57 84 50 85 52 86
REMARK SMILES IDX 58 87 51 88 53 89 54 90 55 91 56 92
REMARK H PARENT 87 22 87 23 78 45 46 56
REMARK Flexibility Score: inf
ROOT
ATOM      1  C   UNL     1       3.819   4.057   2.663  1.00  0.00     0.275 C 
ENDROOT
BRANCH   1   2
ATOM      2  O   UNL     1       3.604   2.834   1.930  1.00  0.00    -0.457 OA
BRANCH   2   3
ATOM      3  C   UNL     1       3.475   1.711   2.685  1.00  0.00     0.357 C 
ATOM      4  O   UNL     1       3.576   1.644   3.903  1.00  0.00    -0.244 OA
BRANCH   3   5
ATOM      5  C   UNL     1       3.059   0.555   1.850  1.00  0.00     0.154 A 
ATOM      6  C   UNL     1       1.689  -1.298   1.544  1.00  0.00     0.080 A 
ATOM      7  C   UNL     1       2.165  -0.333   2.397  1.00  0.00     0.065 A 
ATOM      8  N   UNL     1       2.182  -1.460   0.299  1.00  0.00    -0.213 NA
ATOM      9  C   UNL     1       3.092  -0.571  -0.115  1.00  0.00     0.221 A 
ATOM     10  N   UNL     1       3.539   0.465   0.593  1.00  0.00    -0.206 NA
BRANCH   6  11
ATOM     11  C   UNL     1       0.541  -2.131   1.921  1.00  0.00     0.042 A 
ATOM     12  C   UNL     1      -0.728  -1.561   2.153  1.00  0.00     0.129 A 
ATOM     13  C   UNL     1      -1.803  -2.326   2.611  1.00  0.00     0.047 A 
ATOM     14  C   UNL     1      -1.635  -3.694   2.807  1.00  0.00     0.004 A 
ATOM     15  C   UNL     1       0.679  -3.514   2.103  1.00  0.00     0.014 A 
ATOM     16  C   UNL     1      -0.400  -4.288   2.545  1.00  0.00     0.001 A 
BRANCH  12  17
ATOM     17  O   UNL     1      -0.904  -0.206   2.018  1.00  0.00    -0.489 OA
BRANCH  17  18
ATOM     18  C   UNL     1      -1.513   0.128   0.766  1.00  0.00     0.257 C 
BRANCH  18  19
ATOM     19  C   UNL     1      -0.593   1.076   0.054  1.00  0.00     0.006 C 
ATOM     20  C   UNL     1      -0.039   0.836  -1.142  1.00  0.00     0.007 C 
ENDBRANCH  18  19
ENDBRANCH  17  18
ENDBRANCH  12  17
ENDBRANCH   6  11
BRANCH   9  21
ATOM     21  N   UNL     1       3.585  -0.727  -1.378  1.00  0.00    -0.368 N 
ATOM     22  H   UNL     1       4.256  -0.096  -1.725  1.00  0.00     0.159 HD
ATOM     23  H   UNL     1       3.268  -1.469  -1.942  1.00  0.00     0.159 HD
ENDBRANCH   9  21
ENDBRANCH   3   5
ENDBRANCH   2   3
ENDBRANCH   1   2
BRANCH   1  24
ATOM     24  C   UNL     1       2.505   4.818   2.841  1.00  0.00     0.275 C 
BRANCH  24  25
ATOM     25  O   UNL     1       1.605   4.035   3.643  1.00  0.00    -0.458 OA
BRANCH  25  26
ATOM     26  C   UNL     1       0.286   4.219   3.393  1.00  0.00     0.338 C 
ATOM     27  O   UNL     1      -0.203   5.018   2.611  1.00  0.00    -0.246 OA
BRANCH  26  28
ATOM     28  C   UNL     1      -0.512   3.276   4.206  1.00  0.00     0.060 A 
ATOM     29  C   UNL     1      -0.107   1.951   4.342  1.00  0.00     0.016 A 
ATOM     30  C   UNL     1      -1.730   3.682   4.749  1.00  0.00     0.016 A 
ATOM     31  C   UNL     1      -0.953   1.008   4.929  1.00  0.00     0.010 A 
ATOM     32  C   UNL     1      -2.538   2.752   5.417  1.00  0.00     0.010 A 
ATOM     33  C   UNL     1      -2.189   1.390   5.468  1.00  0.00    -0.014 A 
BRANCH  33  34
ATOM     34  C   UNL     1      -3.148   0.373   6.000  1.00  0.00     0.031 A 
ATOM     35  C   UNL     1      -4.553   0.303   5.446  1.00  0.00     0.074 A 
ATOM     36  C   UNL     1      -2.792  -0.490   6.975  1.00  0.00     0.049 A 
ATOM     37  N   UNL     1      -5.595  -0.346   5.902  1.00  0.00    -0.248 NA
ATOM     38  C   UNL     1      -4.828   1.082   4.227  1.00  0.00     0.031 C 
ATOM     39  C   UNL     1      -1.471  -0.572   7.598  1.00  0.00     0.029 A 
ATOM     40  N   UNL     1      -3.521  -1.461   7.623  1.00  0.00    -0.354 N 
ATOM     41  C   UNL     1      -6.663   0.025   5.093  1.00  0.00     0.074 A 
ATOM     42  C   UNL     1      -6.141   0.941   4.101  1.00  0.00     0.031 C 
ATOM     43  C   UNL     1      -1.474  -1.552   8.515  1.00  0.00     0.029 A 
ATOM     44  C   UNL     1      -2.816  -2.117   8.606  1.00  0.00     0.049 A 
ATOM     45  H   UNL     1      -4.459  -1.666   7.404  1.00  0.00     0.167 HD
ATOM     46  C   UNL     1      -7.959  -0.365   5.158  1.00  0.00     0.034 A 
ATOM     47  C   UNL     1      -3.207  -3.042   9.507  1.00  0.00     0.034 A 
ATOM     48  C   UNL     1      -8.462  -1.358   6.069  1.00  0.00     0.049 A 
ATOM     49  C   UNL     1      -4.640  -3.499   9.524  1.00  0.00     0.074 A 
ATOM     50  C   UNL     1      -9.754  -1.843   6.186  1.00  0.00     0.029 A 
ATOM     51  N   UNL     1      -7.695  -2.045   6.996  1.00  0.00    -0.354 N 
ATOM     52  N   UNL     1      -5.629  -3.146   8.740  1.00  0.00    -0.248 NA
ATOM     53  C   UNL     1      -5.010  -4.493  10.544  1.00  0.00     0.031 C 
ATOM     54  C   UNL     1      -9.765  -2.830   7.177  1.00  0.00     0.029 A 
ATOM     55  C   UNL     1      -8.479  -2.963   7.672  1.00  0.00     0.049 A 
ATOM     56  H   UNL     1      -6.733  -1.901   7.151  1.00  0.00     0.167 HD
ATOM     57  C   UNL     1      -6.729  -3.889   9.156  1.00  0.00     0.074 A 
ATOM     58  C   UNL     1      -6.278  -4.734  10.242  1.00  0.00     0.031 C 
ATOM     59  C   UNL     1      -8.004  -3.853   8.698  1.00  0.00     0.034 A 
BRANCH  46  60
ATOM     60  C   UNL     1      -8.932   0.251   4.187  1.00  0.00     0.023 A 
ATOM     61  C   UNL     1      -8.933  -0.162   2.841  1.00  0.00     0.012 A 
ATOM     62  C   UNL     1      -9.895   1.183   4.625  1.00  0.00     0.148 A 
ATOM     63  C   UNL     1      -9.859   0.362   1.939  1.00  0.00     0.002 A 
ATOM     64  C   UNL     1     -10.841   1.669   3.730  1.00  0.00     0.091 A 
ATOM     65  F   UNL     1      -9.866   1.580   5.906  1.00  0.00    -0.205 F 
ATOM     66  C   UNL     1     -10.819   1.267   2.385  1.00  0.00     0.022 A 
BRANCH  64  67
ATOM     67  S   UNL     1     -12.168   2.773   4.232  1.00  0.00     0.127 S 
ATOM     68  O   UNL     1     -11.715   4.049   3.680  1.00  0.00    -0.237 OA
ATOM     69  O   UNL     1     -13.328   2.193   3.554  1.00  0.00    -0.237 OA
ATOM     70  O   UNL     1     -12.219   2.699   5.685  1.00  0.00    -0.744 OA
ENDBRANCH  64  67
ENDBRANCH  46  60
BRANCH  47  71
ATOM     71  C   UNL     1      -2.214  -3.623  10.457  1.00  0.00     0.023 A 
ATOM     72  C   UNL     1      -1.838  -4.974  10.320  1.00  0.00     0.012 A 
ATOM     73  C   UNL     1      -1.621  -2.847  11.471  1.00  0.00     0.148 A 
ATOM     74  C   UNL     1      -0.907  -5.545  11.189  1.00  0.00     0.002 A 
ATOM     75  C   UNL     1      -0.648  -3.405  12.292  1.00  0.00     0.091 A 
ATOM     76  F   UNL     1      -2.013  -1.572  11.611  1.00  0.00    -0.205 F 
ATOM     77  C   UNL     1      -0.301  -4.758  12.164  1.00  0.00     0.022 A 
BRANCH  75  78
ATOM     78  S   UNL     1       0.280  -2.411  13.466  1.00  0.00     0.127 S 
ATOM     79  O   UNL     1      -0.405  -2.709  14.720  1.00  0.00    -0.237 OA
ATOM     80  O   UNL     1       1.627  -2.972  13.352  1.00  0.00    -0.237 OA
ATOM     81  O   UNL     1       0.164  -1.042  12.980  1.00  0.00    -0.744 OA
ENDBRANCH  75  78
ENDBRANCH  47  71
BRANCH  59  82
ATOM     82  C   UNL     1      -9.001  -4.783   9.335  1.00  0.00     0.023 A 
ATOM     83  C   UNL     1      -9.508  -4.488  10.616  1.00  0.00     0.012 A 
ATOM     84  C   UNL     1      -9.486  -5.907   8.640  1.00  0.00     0.148 A 
ATOM     85  C   UNL     1     -10.464  -5.315  11.207  1.00  0.00     0.002 A 
ATOM     86  C   UNL     1     -10.467  -6.705   9.219  1.00  0.00     0.091 A 
ATOM     87  F   UNL     1      -8.974  -6.184   7.432  1.00  0.00    -0.205 F 
ATOM     88  C   UNL     1     -10.951  -6.416  10.505  1.00  0.00     0.022 A 
BRANCH  86  89
ATOM     89  S   UNL     1     -11.205  -8.091   8.345  1.00  0.00     0.127 S 
ATOM     90  O   UNL     1     -10.500  -9.227   8.937  1.00  0.00    -0.237 OA
ATOM     91  O   UNL     1     -12.616  -7.987   8.721  1.00  0.00    -0.237 OA
ATOM     92  O   UNL     1     -10.942  -7.852   6.933  1.00  0.00    -0.744 OA
ENDBRANCH  86  89
ENDBRANCH  59  82
ENDBRANCH  33  34
ENDBRANCH  26  28
ENDBRANCH  25  26
ENDBRANCH  24  25
ENDBRANCH   1  24
TORSDOF 19
