REMARK SMILES O=C(CNC(=O)N1CC(OCCOC(=O)c2ccc(-c3c4nc(c(-c5cccc(S(=O)(=O)[O-])c5F)c5ccc([nH]5)c(-c5cccc(S(=O)(=O)[O-])c5F)c5nc(c(-c6cccc(S(=O)(=O)[O-])c6F)c6ccc3[nH]6)C=C5)C=C4)cc2)=Nc2ccccc21)N[C@H](C(=O)[O-])c1ccccc1
REMARK SMILES IDX 11 1 10 2 9 3 7 4 8 5 85 6 80 7 84 8 79 9 81 10 83 11 82 12
REMARK SMILES IDX 5 13 4 14 6 16 3 17 2 18 1 19 86 20 87 22 91 23 92 24 96 25
REMARK SMILES IDX 93 26 95 27 94 28 88 29 89 30 90 31 12 32 13 33 14 34 15 35
REMARK SMILES IDX 16 36 17 37 78 38 18 39 77 40 19 41 20 42 21 43 71 44 22 45
REMARK SMILES IDX 76 46 70 47 72 48 23 49 75 50 69 51 68 52 24 54 56 55 36 56
REMARK SMILES IDX 55 57 37 58 40 59 54 60 73 61 38 62 39 63 53 65 74 66 41 67
REMARK SMILES IDX 25 68 26 69 34 70 27 71 29 72 35 73 28 74 30 75 31 76 32 77
REMARK SMILES IDX 33 78 57 79 58 80 66 81 59 82 61 83 67 84 60 85 62 86 63 87
REMARK SMILES IDX 64 88 65 89 42 90 43 91 51 92 44 93 46 94 52 95 45 96 47 97
REMARK SMILES IDX 48 98 49 99 50 100
REMARK H PARENT 4 15 86 21 72 53 40 64
REMARK Flexibility Score: inf
ROOT
ATOM      1  C   UNL     1       5.412  -3.069  -1.670  1.00  0.00     0.272 C 
ENDROOT
BRANCH   1   2
ATOM      2  O   UNL     1       4.518  -4.034  -1.067  1.00  0.00    -0.476 OA
BRANCH   2   3
ATOM      3  C   UNL     1       5.053  -4.883  -0.158  1.00  0.00     0.209 C 
ATOM      4  N   UNL     1       4.462  -5.845   1.995  1.00  0.00    -0.283 N 
ATOM      5  C   UNL     1       4.027  -5.670   0.614  1.00  0.00     0.224 C 
ATOM      6  C   UNL     1       5.847  -6.220   2.123  1.00  0.00     0.072 A 
ATOM      7  C   UNL     1       6.744  -5.786   1.100  1.00  0.00     0.091 A 
ATOM      8  C   UNL     1       6.374  -6.810   3.276  1.00  0.00     0.029 A 
ATOM      9  N   UNL     1       6.328  -5.008   0.004  1.00  0.00    -0.214 NA
ATOM     10  C   UNL     1       8.126  -5.903   1.277  1.00  0.00     0.030 A 
ATOM     11  C   UNL     1       7.767  -6.917   3.433  1.00  0.00     0.002 A 
ATOM     12  C   UNL     1       8.638  -6.452   2.446  1.00  0.00     0.002 A 
BRANCH   4  13
ATOM     13  C   UNL     1       3.465  -6.142   2.886  1.00  0.00     0.322 C 
ATOM     14  N   UNL     1       2.977  -5.141   3.684  1.00  0.00    -0.329 N 
ATOM     15  H   UNL     1       2.005  -5.166   3.835  1.00  0.00     0.165 HD
ATOM     16  O   UNL     1       2.815  -7.187   2.818  1.00  0.00    -0.248 OA
BRANCH  14  17
ATOM     17  C   UNL     1       3.677  -4.041   4.346  1.00  0.00     0.218 C 
BRANCH  17  18
ATOM     18  C   UNL     1       3.513  -2.546   3.955  1.00  0.00     0.240 C 
ATOM     19  O   UNL     1       4.264  -1.702   4.442  1.00  0.00    -0.273 OA
ATOM     20  N   UNL     1       2.399  -2.211   3.218  1.00  0.00    -0.342 N 
ATOM     21  H   UNL     1       1.796  -2.942   2.953  1.00  0.00     0.164 HD
BRANCH  20  22
ATOM     22  C   UNL     1       2.036  -0.836   2.791  1.00  0.00     0.158 C 
BRANCH  22  23
ATOM     23  C   UNL     1       2.123   0.278   3.844  1.00  0.00    -0.020 A 
ATOM     24  C   UNL     1       1.889   0.012   5.201  1.00  0.00     0.006 A 
ATOM     25  C   UNL     1       2.402   1.615   3.486  1.00  0.00     0.006 A 
ATOM     26  C   UNL     1       2.042   1.011   6.167  1.00  0.00     0.000 A 
ATOM     27  C   UNL     1       2.549   2.615   4.450  1.00  0.00     0.000 A 
ATOM     28  C   UNL     1       2.387   2.307   5.794  1.00  0.00     0.000 A 
ENDBRANCH  22  23
BRANCH  22  29
ATOM     29  C   UNL     1       2.704  -0.430   1.454  1.00  0.00     0.068 C 
ATOM     30  O   UNL     1       3.780   0.102   1.259  1.00  0.00    -0.548 OA
ATOM     31  O   UNL     1       1.904  -0.680   0.382  1.00  0.00    -0.548 OA
ENDBRANCH  22  29
ENDBRANCH  20  22
ENDBRANCH  17  18
ENDBRANCH  14  17
ENDBRANCH   4  13
ENDBRANCH   2   3
ENDBRANCH   1   2
BRANCH   1  32
ATOM     32  C   UNL     1       5.449  -1.730  -0.912  1.00  0.00     0.274 C 
BRANCH  32  33
ATOM     33  O   UNL     1       6.373  -1.665   0.203  1.00  0.00    -0.458 OA
BRANCH  33  34
ATOM     34  C   UNL     1       5.840  -2.066   1.383  1.00  0.00     0.338 C 
ATOM     35  O   UNL     1       4.722  -2.564   1.486  1.00  0.00    -0.246 OA
BRANCH  34  36
ATOM     36  C   UNL     1       6.801  -2.078   2.523  1.00  0.00     0.060 A 
ATOM     37  C   UNL     1       6.785  -3.268   3.234  1.00  0.00     0.016 A 
ATOM     38  C   UNL     1       7.604  -1.052   3.013  1.00  0.00     0.016 A 
ATOM     39  C   UNL     1       7.551  -3.507   4.360  1.00  0.00     0.010 A 
ATOM     40  C   UNL     1       8.406  -1.278   4.171  1.00  0.00     0.010 A 
ATOM     41  C   UNL     1       8.399  -2.521   4.834  1.00  0.00    -0.014 A 
BRANCH  41  42
ATOM     42  C   UNL     1       9.248  -2.926   5.986  1.00  0.00     0.031 A 
ATOM     43  C   UNL     1       8.729  -2.843   7.393  1.00  0.00     0.074 A 
ATOM     44  C   UNL     1      10.360  -3.654   5.753  1.00  0.00     0.049 A 
ATOM     45  N   UNL     1       9.316  -3.198   8.508  1.00  0.00    -0.248 NA
ATOM     46  C   UNL     1       7.357  -2.343   7.564  1.00  0.00     0.031 C 
ATOM     47  C   UNL     1      10.845  -4.030   4.426  1.00  0.00     0.029 A 
ATOM     48  N   UNL     1      11.250  -4.251   6.614  1.00  0.00    -0.354 N 
ATOM     49  C   UNL     1       8.415  -2.901   9.522  1.00  0.00     0.074 A 
ATOM     50  C   UNL     1       7.213  -2.407   8.882  1.00  0.00     0.031 C 
ATOM     51  C   UNL     1      11.935  -4.801   4.560  1.00  0.00     0.029 A 
ATOM     52  C   UNL     1      12.281  -4.902   5.976  1.00  0.00     0.049 A 
ATOM     53  H   UNL     1      11.158  -4.217   7.594  1.00  0.00     0.167 HD
ATOM     54  C   UNL     1       8.594  -2.993  10.862  1.00  0.00     0.034 A 
ATOM     55  C   UNL     1      13.405  -5.464   6.469  1.00  0.00     0.034 A 
ATOM     56  C   UNL     1       9.796  -3.476  11.493  1.00  0.00     0.049 A 
ATOM     57  C   UNL     1      13.648  -5.419   7.955  1.00  0.00     0.074 A 
ATOM     58  C   UNL     1      10.111  -3.503  12.841  1.00  0.00     0.029 A 
ATOM     59  N   UNL     1      10.888  -4.003  10.821  1.00  0.00    -0.354 N 
ATOM     60  N   UNL     1      12.836  -5.045   8.914  1.00  0.00    -0.248 NA
ATOM     61  C   UNL     1      14.970  -5.856   8.429  1.00  0.00     0.031 C 
ATOM     62  C   UNL     1      11.411  -4.004  12.979  1.00  0.00     0.029 A 
ATOM     63  C   UNL     1      11.886  -4.339  11.722  1.00  0.00     0.049 A 
ATOM     64  H   UNL     1      10.946  -4.122   9.845  1.00  0.00     0.167 HD
ATOM     65  C   UNL     1      13.542  -5.208  10.100  1.00  0.00     0.074 A 
ATOM     66  C   UNL     1      14.837  -5.750   9.745  1.00  0.00     0.031 C 
ATOM     67  C   UNL     1      13.160  -4.912  11.367  1.00  0.00     0.034 A 
BRANCH  54  68
ATOM     68  C   UNL     1       7.499  -2.449  11.738  1.00  0.00     0.023 A 
ATOM     69  C   UNL     1       6.307  -3.170  11.940  1.00  0.00     0.012 A 
ATOM     70  C   UNL     1       7.675  -1.206  12.379  1.00  0.00     0.148 A 
ATOM     71  C   UNL     1       5.290  -2.642  12.738  1.00  0.00     0.002 A 
ATOM     72  C   UNL     1       6.677  -0.707  13.204  1.00  0.00     0.091 A 
ATOM     73  F   UNL     1       8.810  -0.529  12.155  1.00  0.00    -0.205 F 
ATOM     74  C   UNL     1       5.478  -1.417  13.375  1.00  0.00     0.022 A 
BRANCH  72  75
ATOM     75  S   UNL     1       6.859   0.828  14.118  1.00  0.00     0.127 S 
ATOM     76  O   UNL     1       5.901   1.695  13.433  1.00  0.00    -0.237 OA
ATOM     77  O   UNL     1       6.463   0.430  15.469  1.00  0.00    -0.237 OA
ATOM     78  O   UNL     1       8.257   1.216  13.984  1.00  0.00    -0.744 OA
ENDBRANCH  72  75
ENDBRANCH  54  68
BRANCH  55  79
ATOM     79  C   UNL     1      14.431  -6.045   5.550  1.00  0.00     0.023 A 
ATOM     80  C   UNL     1      14.784  -7.405   5.646  1.00  0.00     0.012 A 
ATOM     81  C   UNL     1      15.075  -5.241   4.587  1.00  0.00     0.148 A 
ATOM     82  C   UNL     1      15.768  -7.945   4.813  1.00  0.00     0.002 A 
ATOM     83  C   UNL     1      15.994  -5.803   3.711  1.00  0.00     0.091 A 
ATOM     84  F   UNL     1      14.774  -3.936   4.544  1.00  0.00    -0.205 F 
ATOM     85  C   UNL     1      16.360  -7.150   3.835  1.00  0.00     0.022 A 
BRANCH  83  86
ATOM     86  S   UNL     1      16.679  -4.881   2.330  1.00  0.00     0.127 S 
ATOM     87  O   UNL     1      18.062  -4.683   2.757  1.00  0.00    -0.237 OA
ATOM     88  O   UNL     1      16.503  -5.821   1.223  1.00  0.00    -0.237 OA
ATOM     89  O   UNL     1      15.869  -3.675   2.224  1.00  0.00    -0.744 OA
ENDBRANCH  83  86
ENDBRANCH  55  79
BRANCH  67  90
ATOM     90  C   UNL     1      14.139  -5.193  12.479  1.00  0.00     0.023 A 
ATOM     91  C   UNL     1      15.283  -4.385  12.635  1.00  0.00     0.012 A 
ATOM     92  C   UNL     1      13.884  -6.216  13.415  1.00  0.00     0.148 A 
ATOM     93  C   UNL     1      16.175  -4.612  13.684  1.00  0.00     0.002 A 
ATOM     94  C   UNL     1      14.750  -6.404  14.486  1.00  0.00     0.091 A 
ATOM     95  F   UNL     1      12.800  -6.985  13.240  1.00  0.00    -0.205 F 
ATOM     96  C   UNL     1      15.903  -5.612  14.614  1.00  0.00     0.022 A 
BRANCH  94  97
ATOM     97  S   UNL     1      14.433  -7.603  15.785  1.00  0.00     0.127 S 
ATOM     98  O   UNL     1      15.486  -8.589  15.544  1.00  0.00    -0.237 OA
ATOM     99  O   UNL     1      14.613  -6.801  16.995  1.00  0.00    -0.237 OA
ATOM    100  O   UNL     1      13.074  -8.081  15.571  1.00  0.00    -0.744 OA
ENDBRANCH  94  97
ENDBRANCH  67  90
ENDBRANCH  41  42
ENDBRANCH  34  36
ENDBRANCH  33  34
ENDBRANCH  32  33
ENDBRANCH   1  32
TORSDOF 19
