REMARK SMILES C[N@H+](CCC(=O)Nc1sccc1C#N)CC(=O)OCCOC(=O)c1ccc(-c2c3nc(c(-c4cccc(S(=O)(=O)[O-])c4F)c4ccc([nH]4)c(-c4cccc(S(=O)(=O)[O-])c4F)c4nc(c(-c5cccc(S(=O)(=O)[O-])c5F)c5ccc2[nH]5)C=C4)C=C3)cc1
REMARK SMILES IDX 18 1 16 2 17 3 15 4 2 5 1 6 3 8 4 9 5 10 6 11 7 12 8 14 9 15
REMARK SMILES IDX 12 16 10 17 11 18 13 19 14 20 19 21 20 22 21 23 22 24 23 25
REMARK SMILES IDX 24 26 25 27 86 28 26 29 85 30 27 31 28 32 29 33 79 34 30 35
REMARK SMILES IDX 84 36 78 37 80 38 31 39 83 40 77 41 76 42 32 44 64 45 44 46
REMARK SMILES IDX 63 47 45 48 48 49 62 50 81 51 46 52 47 53 61 55 82 56 49 57
REMARK SMILES IDX 33 58 34 59 42 60 35 61 37 62 43 63 36 64 38 65 39 66 40 67
REMARK SMILES IDX 41 68 65 69 66 70 74 71 67 72 69 73 75 74 68 75 70 76 71 77
REMARK SMILES IDX 72 78 73 79 50 80 51 81 59 82 52 83 54 84 60 85 53 86 55 87
REMARK SMILES IDX 56 88 57 89 58 90
REMARK H PARENT 2 7 7 13 80 43 48 54
REMARK Flexibility Score: inf
ROOT
ATOM      1  O   UNL     1      -1.159   2.884   0.946  1.00  0.00    -0.458 OA
ENDROOT
BRANCH   1   2
ATOM      2  C   UNL     1      -0.147   2.534   0.108  1.00  0.00     0.361 C 
ATOM      3  O   UNL     1       0.493   3.314  -0.585  1.00  0.00    -0.245 OA
BRANCH   2   4
ATOM      4  C   UNL     1       0.134   1.051   0.199  1.00  0.00     0.386 C 
BRANCH   4   5
ATOM      5  N   UNL     1      -1.083   0.265  -0.061  1.00  0.00    -0.328 N 
ATOM      6  C   UNL     1      -0.981  -1.006   0.663  1.00  0.00     0.333 C 
ATOM      7  H   UNL     1      -1.878   0.807   0.276  1.00  0.00     0.348 HD
BRANCH   5   8
ATOM      8  C   UNL     1      -1.361   0.044  -1.490  1.00  0.00     0.272 C 
BRANCH   8   9
ATOM      9  C   UNL     1      -1.670   1.246  -2.385  1.00  0.00     0.161 C 
BRANCH   9  10
ATOM     10  C   UNL     1      -0.710   2.169  -3.134  1.00  0.00     0.230 C 
ATOM     11  O   UNL     1      -1.223   3.165  -3.676  1.00  0.00    -0.274 OA
ATOM     12  N   UNL     1       0.636   2.110  -3.217  1.00  0.00    -0.316 N 
ATOM     13  H   UNL     1       1.039   2.954  -3.524  1.00  0.00     0.170 HD
BRANCH  12  14
ATOM     14  C   UNL     1       1.561   1.138  -2.970  1.00  0.00     0.113 A 
ATOM     15  S   UNL     1       3.032   1.804  -2.408  1.00  0.00    -0.125 S 
ATOM     16  C   UNL     1       1.666  -0.223  -3.127  1.00  0.00     0.087 A 
ATOM     17  C   UNL     1       3.601   0.270  -1.915  1.00  0.00     0.068 A 
ATOM     18  C   UNL     1       2.810  -0.736  -2.429  1.00  0.00     0.033 A 
BRANCH  16  19
ATOM     19  C   UNL     1       0.774  -1.023  -3.910  1.00  0.00     0.102 C 
ATOM     20  N   UNL     1       0.045  -1.675  -4.532  1.00  0.00    -0.192 NA
ENDBRANCH  16  19
ENDBRANCH  12  14
ENDBRANCH   9  10
ENDBRANCH   8   9
ENDBRANCH   5   8
ENDBRANCH   4   5
ENDBRANCH   2   4
ENDBRANCH   1   2
BRANCH   1  21
ATOM     21  C   UNL     1      -1.325   4.291   1.149  1.00  0.00     0.274 C 
BRANCH  21  22
ATOM     22  C   UNL     1      -0.511   4.722   2.368  1.00  0.00     0.275 C 
BRANCH  22  23
ATOM     23  O   UNL     1       0.904   4.693   2.082  1.00  0.00    -0.458 OA
BRANCH  23  24
ATOM     24  C   UNL     1       1.577   3.620   2.560  1.00  0.00     0.338 C 
ATOM     25  O   UNL     1       1.114   2.699   3.216  1.00  0.00    -0.246 OA
BRANCH  24  26
ATOM     26  C   UNL     1       2.994   3.639   2.151  1.00  0.00     0.060 A 
ATOM     27  C   UNL     1       3.351   3.720   0.807  1.00  0.00     0.016 A 
ATOM     28  C   UNL     1       3.975   3.395   3.112  1.00  0.00     0.016 A 
ATOM     29  C   UNL     1       4.667   3.448   0.421  1.00  0.00     0.010 A 
ATOM     30  C   UNL     1       5.311   3.244   2.724  1.00  0.00     0.010 A 
ATOM     31  C   UNL     1       5.677   3.224   1.367  1.00  0.00    -0.014 A 
BRANCH  31  32
ATOM     32  C   UNL     1       7.101   2.965   0.973  1.00  0.00     0.031 A 
ATOM     33  C   UNL     1       7.866   1.822   1.603  1.00  0.00     0.074 A 
ATOM     34  C   UNL     1       7.748   3.777   0.109  1.00  0.00     0.049 A 
ATOM     35  N   UNL     1       9.158   1.633   1.690  1.00  0.00    -0.248 NA
ATOM     36  C   UNL     1       7.068   0.761   2.242  1.00  0.00     0.031 C 
ATOM     37  C   UNL     1       7.154   4.893  -0.628  1.00  0.00     0.029 A 
ATOM     38  N   UNL     1       9.073   3.809  -0.267  1.00  0.00    -0.354 N 
ATOM     39  C   UNL     1       9.330   0.504   2.486  1.00  0.00     0.074 A 
ATOM     40  C   UNL     1       8.007   0.026   2.824  1.00  0.00     0.031 C 
ATOM     41  C   UNL     1       8.094   5.490  -1.371  1.00  0.00     0.029 A 
ATOM     42  C   UNL     1       9.384   4.893  -1.058  1.00  0.00     0.049 A 
ATOM     43  H   UNL     1       9.730   3.127   0.001  1.00  0.00     0.167 HD
ATOM     44  C   UNL     1      10.485  -0.070   2.905  1.00  0.00     0.034 A 
ATOM     45  C   UNL     1      10.570   5.423  -1.420  1.00  0.00     0.034 A 
ATOM     46  C   UNL     1      11.795   0.362   2.488  1.00  0.00     0.049 A 
ATOM     47  C   UNL     1      11.836   4.786  -0.931  1.00  0.00     0.074 A 
ATOM     48  C   UNL     1      13.025  -0.191   2.804  1.00  0.00     0.029 A 
ATOM     49  N   UNL     1      12.049   1.445   1.660  1.00  0.00    -0.354 N 
ATOM     50  N   UNL     1      11.987   3.726  -0.177  1.00  0.00    -0.248 NA
ATOM     51  C   UNL     1      13.096   5.417  -1.345  1.00  0.00     0.031 C 
ATOM     52  C   UNL     1      14.022   0.577   2.194  1.00  0.00     0.029 A 
ATOM     53  C   UNL     1      13.413   1.583   1.462  1.00  0.00     0.049 A 
ATOM     54  H   UNL     1      11.360   2.031   1.270  1.00  0.00     0.167 HD
ATOM     55  C   UNL     1      13.358   3.544  -0.049  1.00  0.00     0.074 A 
ATOM     56  C   UNL     1      13.992   4.592  -0.823  1.00  0.00     0.031 C 
ATOM     57  C   UNL     1      14.031   2.602   0.655  1.00  0.00     0.034 A 
BRANCH  44  58
ATOM     58  C   UNL     1      10.405  -1.229   3.871  1.00  0.00     0.023 A 
ATOM     59  C   UNL     1       9.959  -2.493   3.438  1.00  0.00     0.012 A 
ATOM     60  C   UNL     1      10.864  -1.079   5.198  1.00  0.00     0.148 A 
ATOM     61  C   UNL     1       9.940  -3.579   4.315  1.00  0.00     0.002 A 
ATOM     62  C   UNL     1      10.887  -2.176   6.051  1.00  0.00     0.091 A 
ATOM     63  F   UNL     1      11.270   0.133   5.600  1.00  0.00    -0.205 F 
ATOM     64  C   UNL     1      10.415  -3.424   5.615  1.00  0.00     0.022 A 
BRANCH  62  65
ATOM     65  S   UNL     1      11.564  -2.099   7.715  1.00  0.00     0.127 S 
ATOM     66  O   UNL     1      10.357  -2.228   8.530  1.00  0.00    -0.237 OA
ATOM     67  O   UNL     1      12.445  -3.267   7.743  1.00  0.00    -0.237 OA
ATOM     68  O   UNL     1      12.249  -0.818   7.811  1.00  0.00    -0.744 OA
ENDBRANCH  62  65
ENDBRANCH  44  58
BRANCH  45  69
ATOM     69  C   UNL     1      10.601   6.652  -2.265  1.00  0.00     0.023 A 
ATOM     70  C   UNL     1      11.067   6.570  -3.591  1.00  0.00     0.012 A 
ATOM     71  C   UNL     1      10.114   7.884  -1.782  1.00  0.00     0.148 A 
ATOM     72  C   UNL     1      11.058   7.696  -4.416  1.00  0.00     0.002 A 
ATOM     73  C   UNL     1      10.042   8.981  -2.631  1.00  0.00     0.091 A 
ATOM     74  F   UNL     1       9.699   7.948  -0.509  1.00  0.00    -0.205 F 
ATOM     75  C   UNL     1      10.530   8.895  -3.943  1.00  0.00     0.022 A 
BRANCH  73  76
ATOM     76  S   UNL     1       9.226  10.509  -2.155  1.00  0.00     0.127 S 
ATOM     77  O   UNL     1      10.357  11.424  -2.021  1.00  0.00    -0.237 OA
ATOM     78  O   UNL     1       8.361  10.761  -3.309  1.00  0.00    -0.237 OA
ATOM     79  O   UNL     1       8.507  10.204  -0.925  1.00  0.00    -0.744 OA
ENDBRANCH  73  76
ENDBRANCH  45  69
BRANCH  57  80
ATOM     80  C   UNL     1      15.534   2.622   0.573  1.00  0.00     0.023 A 
ATOM     81  C   UNL     1      16.266   3.632   1.228  1.00  0.00     0.012 A 
ATOM     82  C   UNL     1      16.222   1.608  -0.122  1.00  0.00     0.148 A 
ATOM     83  C   UNL     1      17.658   3.656   1.157  1.00  0.00     0.002 A 
ATOM     84  C   UNL     1      17.611   1.609  -0.145  1.00  0.00     0.091 A 
ATOM     85  F   UNL     1      15.506   0.667  -0.755  1.00  0.00    -0.205 F 
ATOM     86  C   UNL     1      18.330   2.640   0.481  1.00  0.00     0.022 A 
BRANCH  84  87
ATOM     87  S   UNL     1      18.561   0.292  -0.911  1.00  0.00     0.127 S 
ATOM     88  O   UNL     1      19.113   0.967  -2.085  1.00  0.00    -0.237 OA
ATOM     89  O   UNL     1      19.542  -0.025   0.127  1.00  0.00    -0.237 OA
ATOM     90  O   UNL     1      17.613  -0.777  -1.194  1.00  0.00    -0.744 OA
ENDBRANCH  84  87
ENDBRANCH  57  80
ENDBRANCH  31  32
ENDBRANCH  24  26
ENDBRANCH  23  24
ENDBRANCH  22  23
ENDBRANCH  21  22
ENDBRANCH   1  21
TORSDOF 20
