REMARK SMILES CC1=CC[C@@](C(=O)N/N=C/C2=C([O-])CC(C)(C)CC2=O)(C(=O)OCCOC(=O)c2ccc(-c3c4nc(c(-c5cccc(S(=O)(=O)[O-])c5F)c5ccc([nH]5)c(-c5cccc(S(=O)(=O)[O-])c5F)c5nc(c(-c6cccc(S(=O)(=O)[O-])c6F)c6ccc3[nH]6)C=C5)C=C4)cc2)C[C@@H]1c1ccccc1
REMARK SMILES IDX 24 1 23 2 21 3 22 4 5 5 1 6 2 7 3 8 93 9 4 10 92 11 94 12
REMARK SMILES IDX 95 13 99 14 96 15 98 16 97 17 6 18 7 19 8 20 9 22 10 23
REMARK SMILES IDX 11 24 12 25 19 26 13 27 14 28 18 29 20 30 15 31 16 32 17 33
REMARK SMILES IDX 25 34 26 35 27 36 28 37 29 38 30 39 91 40 31 41 90 42 32 43
REMARK SMILES IDX 33 44 34 45 84 46 35 47 89 48 83 49 85 50 36 51 88 52 82 53
REMARK SMILES IDX 81 54 37 56 69 57 49 58 68 59 50 60 53 61 67 62 86 63 51 64
REMARK SMILES IDX 52 65 66 67 87 68 54 69 38 70 39 71 47 72 40 73 42 74 48 75
REMARK SMILES IDX 41 76 43 77 44 78 45 79 46 80 70 81 71 82 79 83 72 84 74 85
REMARK SMILES IDX 80 86 73 87 75 88 76 89 77 90 78 91 55 92 56 93 64 94 57 95
REMARK SMILES IDX 59 96 65 97 58 98 60 99 61 100 62 101 63 102
REMARK H PARENT 8 21 85 55 53 66
REMARK Flexibility Score: inf
ROOT
ATOM      1  C   UNL     1      -5.354   1.186  -0.111  1.00  0.00     0.274 C 
ENDROOT
BRANCH   1   2
ATOM      2  O   UNL     1      -3.947   1.173   0.212  1.00  0.00    -0.461 OA
BRANCH   2   3
ATOM      3  C   UNL     1      -3.529   0.081   0.913  1.00  0.00     0.322 C 
ATOM      4  O   UNL     1      -4.301  -0.702   1.460  1.00  0.00    -0.251 OA
BRANCH   3   5
ATOM      5  C   UNL     1      -1.999  -0.086   0.902  1.00  0.00     0.152 C 
ATOM      6  C   UNL     1       1.706  -2.005  -0.620  1.00  0.00     0.040 C 
ATOM      7  C   UNL     1       0.360  -1.462  -0.224  1.00  0.00    -0.070 C 
ATOM      8  C   UNL     1      -0.194  -0.435  -0.894  1.00  0.00    -0.026 C 
ATOM      9  C   UNL     1      -0.407  -2.202   0.846  1.00  0.00     0.046 C 
ATOM     10  C   UNL     1      -1.479   0.253  -0.508  1.00  0.00     0.056 C 
ATOM     11  C   UNL     1      -1.784  -1.600   1.183  1.00  0.00     0.042 C 
BRANCH   9  12
ATOM     12  C   UNL     1       0.273  -2.577   2.153  1.00  0.00    -0.041 A 
ATOM     13  C   UNL     1      -0.103  -3.802   2.743  1.00  0.00     0.004 A 
ATOM     14  C   UNL     1       1.086  -1.708   2.883  1.00  0.00     0.004 A 
ATOM     15  C   UNL     1       0.277  -4.125   4.042  1.00  0.00     0.000 A 
ATOM     16  C   UNL     1       1.470  -2.034   4.188  1.00  0.00     0.000 A 
ATOM     17  C   UNL     1       1.053  -3.232   4.771  1.00  0.00     0.000 A 
ENDBRANCH   9  12
BRANCH   5  18
ATOM     18  C   UNL     1      -1.444   0.751   2.080  1.00  0.00     0.257 C 
ATOM     19  O   UNL     1      -2.036   0.788   3.168  1.00  0.00    -0.272 OA
ATOM     20  N   UNL     1      -0.249   1.428   2.027  1.00  0.00    -0.246 N 
ATOM     21  H   UNL     1       0.080   1.844   2.856  1.00  0.00     0.193 HD
BRANCH  20  22
ATOM     22  N   UNL     1       0.503   1.562   0.916  1.00  0.00    -0.181 NA
ATOM     23  C   UNL     1       1.764   1.812   1.060  1.00  0.00     0.144 C 
BRANCH  23  24
ATOM     24  C   UNL     1       2.713   1.811  -0.090  1.00  0.00     0.026 C 
ATOM     25  C   UNL     1       4.021   1.515   0.069  1.00  0.00    -0.119 C 
ATOM     26  C   UNL     1       2.219   2.015  -1.486  1.00  0.00     0.164 C 
ATOM     27  O   UNL     1       4.640   1.305   1.288  1.00  0.00    -0.875 OA
ATOM     28  C   UNL     1       4.982   1.281  -1.079  1.00  0.00     0.026 C 
ATOM     29  C   UNL     1       2.989   1.350  -2.606  1.00  0.00     0.087 C 
ATOM     30  O   UNL     1       1.236   2.715  -1.719  1.00  0.00    -0.294 OA
ATOM     31  C   UNL     1       4.483   1.665  -2.489  1.00  0.00    -0.025 C 
ATOM     32  C   UNL     1       4.730   3.161  -2.764  1.00  0.00     0.012 C 
ATOM     33  C   UNL     1       5.261   0.849  -3.538  1.00  0.00     0.012 C 
ENDBRANCH  23  24
ENDBRANCH  20  22
ENDBRANCH   5  18
ENDBRANCH   3   5
ENDBRANCH   2   3
ENDBRANCH   1   2
BRANCH   1  34
ATOM     34  C   UNL     1      -5.523   0.947  -1.611  1.00  0.00     0.275 C 
BRANCH  34  35
ATOM     35  O   UNL     1      -4.879  -0.288  -1.972  1.00  0.00    -0.458 OA
BRANCH  35  36
ATOM     36  C   UNL     1      -4.477  -0.385  -3.263  1.00  0.00     0.338 C 
ATOM     37  O   UNL     1      -4.717   0.430  -4.148  1.00  0.00    -0.246 OA
BRANCH  36  38
ATOM     38  C   UNL     1      -3.650  -1.604  -3.470  1.00  0.00     0.060 A 
ATOM     39  C   UNL     1      -3.055  -2.269  -2.397  1.00  0.00     0.016 A 
ATOM     40  C   UNL     1      -3.403  -2.066  -4.763  1.00  0.00     0.016 A 
ATOM     41  C   UNL     1      -2.159  -3.318  -2.611  1.00  0.00     0.010 A 
ATOM     42  C   UNL     1      -2.604  -3.203  -4.966  1.00  0.00     0.010 A 
ATOM     43  C   UNL     1      -1.953  -3.841  -3.894  1.00  0.00    -0.014 A 
BRANCH  43  44
ATOM     44  C   UNL     1      -1.107  -5.060  -4.113  1.00  0.00     0.031 A 
ATOM     45  C   UNL     1      -0.034  -5.075  -5.176  1.00  0.00     0.074 A 
ATOM     46  C   UNL     1      -1.333  -6.192  -3.410  1.00  0.00     0.049 A 
ATOM     47  N   UNL     1       0.603  -6.096  -5.694  1.00  0.00    -0.248 NA
ATOM     48  C   UNL     1       0.361  -3.777  -5.749  1.00  0.00     0.031 C 
ATOM     49  C   UNL     1      -2.331  -6.355  -2.350  1.00  0.00     0.029 A 
ATOM     50  N   UNL     1      -0.754  -7.440  -3.501  1.00  0.00    -0.354 N 
ATOM     51  C   UNL     1       1.388  -5.580  -6.720  1.00  0.00     0.074 A 
ATOM     52  C   UNL     1       1.177  -4.148  -6.729  1.00  0.00     0.031 C 
ATOM     53  C   UNL     1      -2.283  -7.608  -1.879  1.00  0.00     0.029 A 
ATOM     54  C   UNL     1      -1.331  -8.376  -2.670  1.00  0.00     0.049 A 
ATOM     55  H   UNL     1      -0.001  -7.643  -4.102  1.00  0.00     0.167 HD
ATOM     56  C   UNL     1       2.210  -6.237  -7.574  1.00  0.00     0.034 A 
ATOM     57  C   UNL     1      -1.177  -9.713  -2.587  1.00  0.00     0.034 A 
ATOM     58  C   UNL     1       2.511  -7.643  -7.499  1.00  0.00     0.049 A 
ATOM     59  C   UNL     1      -0.233 -10.410  -3.524  1.00  0.00     0.074 A 
ATOM     60  C   UNL     1       3.403  -8.371  -8.271  1.00  0.00     0.029 A 
ATOM     61  N   UNL     1       1.946  -8.533  -6.601  1.00  0.00    -0.354 N 
ATOM     62  N   UNL     1       0.540  -9.896  -4.448  1.00  0.00    -0.248 NA
ATOM     63  C   UNL     1      -0.140 -11.873  -3.407  1.00  0.00     0.031 C 
ATOM     64  C   UNL     1       3.369  -9.703  -7.846  1.00  0.00     0.029 A 
ATOM     65  C   UNL     1       2.464  -9.802  -6.803  1.00  0.00     0.049 A 
ATOM     66  H   UNL     1       1.275  -8.298  -5.920  1.00  0.00     0.167 HD
ATOM     67  C   UNL     1       1.213 -10.969  -5.019  1.00  0.00     0.074 A 
ATOM     68  C   UNL     1       0.790 -12.158  -4.309  1.00  0.00     0.031 C 
ATOM     69  C   UNL     1       2.078 -10.973  -6.062  1.00  0.00     0.034 A 
BRANCH  56  70
ATOM     70  C   UNL     1       2.884  -5.448  -8.666  1.00  0.00     0.023 A 
ATOM     71  C   UNL     1       3.997  -4.640  -8.365  1.00  0.00     0.012 A 
ATOM     72  C   UNL     1       2.482  -5.602 -10.009  1.00  0.00     0.148 A 
ATOM     73  C   UNL     1       4.691  -3.984  -9.382  1.00  0.00     0.002 A 
ATOM     74  C   UNL     1       3.202  -4.977 -11.021  1.00  0.00     0.091 A 
ATOM     75  F   UNL     1       1.410  -6.364 -10.272  1.00  0.00    -0.205 F 
ATOM     76  C   UNL     1       4.302  -4.162 -10.708  1.00  0.00     0.022 A 
BRANCH  74  77
ATOM     77  S   UNL     1       2.832  -5.210 -12.764  1.00  0.00     0.127 S 
ATOM     78  O   UNL     1       2.301  -3.898 -13.130  1.00  0.00    -0.237 OA
ATOM     79  O   UNL     1       4.152  -5.510 -13.321  1.00  0.00    -0.237 OA
ATOM     80  O   UNL     1       1.880  -6.309 -12.830  1.00  0.00    -0.744 OA
ENDBRANCH  74  77
ENDBRANCH  56  70
BRANCH  57  81
ATOM     81  C   UNL     1      -1.966 -10.489  -1.586  1.00  0.00     0.023 A 
ATOM     82  C   UNL     1      -1.306 -11.097  -0.501  1.00  0.00     0.012 A 
ATOM     83  C   UNL     1      -3.368 -10.595  -1.682  1.00  0.00     0.148 A 
ATOM     84  C   UNL     1      -2.026 -11.808   0.460  1.00  0.00     0.002 A 
ATOM     85  C   UNL     1      -4.085 -11.243  -0.683  1.00  0.00     0.091 A 
ATOM     86  F   UNL     1      -3.980 -10.043  -2.740  1.00  0.00    -0.205 F 
ATOM     87  C   UNL     1      -3.416 -11.866   0.379  1.00  0.00     0.022 A 
BRANCH  85  88
ATOM     88  S   UNL     1      -5.880 -11.200  -0.641  1.00  0.00     0.127 S 
ATOM     89  O   UNL     1      -6.227 -12.484  -1.242  1.00  0.00    -0.237 OA
ATOM     90  O   UNL     1      -6.156 -11.097   0.793  1.00  0.00    -0.237 OA
ATOM     91  O   UNL     1      -6.246 -10.012  -1.401  1.00  0.00    -0.744 OA
ENDBRANCH  85  88
ENDBRANCH  57  81
BRANCH  69  92
ATOM     92  C   UNL     1       2.638 -12.301  -6.496  1.00  0.00     0.023 A 
ATOM     93  C   UNL     1       1.818 -13.195  -7.213  1.00  0.00     0.012 A 
ATOM     94  C   UNL     1       3.981 -12.640  -6.246  1.00  0.00     0.148 A 
ATOM     95  C   UNL     1       2.319 -14.420  -7.651  1.00  0.00     0.002 A 
ATOM     96  C   UNL     1       4.485 -13.846  -6.721  1.00  0.00     0.091 A 
ATOM     97  F   UNL     1       4.738 -11.785  -5.544  1.00  0.00    -0.205 F 
ATOM     98  C   UNL     1       3.654 -14.741  -7.414  1.00  0.00     0.022 A 
BRANCH  96  99
ATOM     99  S   UNL     1       6.212 -14.305  -6.532  1.00  0.00     0.127 S 
ATOM    100  O   UNL     1       6.140 -15.309  -5.473  1.00  0.00    -0.237 OA
ATOM    101  O   UNL     1       6.542 -14.836  -7.856  1.00  0.00    -0.237 OA
ATOM    102  O   UNL     1       6.915 -13.077  -6.186  1.00  0.00    -0.744 OA
ENDBRANCH  96  99
ENDBRANCH  69  92
ENDBRANCH  43  44
ENDBRANCH  36  38
ENDBRANCH  35  36
ENDBRANCH  34  35
ENDBRANCH   1  34
TORSDOF 18
