REMARK SMILES CCn1ncc(NC(=O)[C@@H]2CCCC[C@@H]2C(=O)OCCOC(=O)c2ccc(-c3c4nc(c(-c5cccc(S(=O)(=O)[O-])c5F)c5ccc([nH]5)c(-c5cccc(S(=O)(=O)[O-])c5F)c5nc(c(-c6cccc(S(=O)(=O)[O-])c6F)c6ccc3[nH]6)C=C5)C=C4)cc2)c1C(=O)Nc1cnn(C)c1C
REMARK SMILES IDX 19 1 18 2 16 3 17 4 15 5 10 6 11 7 12 8 14 9 13 10 8 11 7 12
REMARK SMILES IDX 9 14 6 15 3 16 4 17 87 18 5 19 2 20 1 21 88 22 89 23 90 24
REMARK SMILES IDX 91 26 92 27 96 28 93 29 94 30 97 31 95 32 20 33 21 34 22 35
REMARK SMILES IDX 23 36 24 37 25 38 86 39 26 40 85 41 27 42 28 43 29 44 79 45
REMARK SMILES IDX 30 46 84 47 78 48 80 49 31 50 83 51 77 52 76 53 32 55 64 56
REMARK SMILES IDX 44 57 63 58 45 59 48 60 62 61 81 62 46 63 47 64 61 66 82 67
REMARK SMILES IDX 49 68 33 69 34 70 42 71 35 72 37 73 43 74 36 75 38 76 39 77
REMARK SMILES IDX 40 78 41 79 65 80 66 81 74 82 67 83 69 84 75 85 68 86 70 87
REMARK SMILES IDX 71 88 72 89 73 90 50 91 51 92 59 93 52 94 54 95 60 96 53 97
REMARK SMILES IDX 55 98 56 99 57 100 58 101
REMARK H PARENT 7 13 90 25 80 54 48 65
REMARK Flexibility Score: inf
ROOT
ATOM      1  C   UNL     1       5.386  -1.414   9.822  1.00  0.00     0.274 C 
ENDROOT
BRANCH   1   2
ATOM      2  O   UNL     1       5.415  -1.493   8.381  1.00  0.00    -0.462 OA
BRANCH   2   3
ATOM      3  C   UNL     1       4.421  -0.834   7.707  1.00  0.00     0.309 C 
ATOM      4  O   UNL     1       3.528  -0.202   8.256  1.00  0.00    -0.252 OA
BRANCH   3   5
ATOM      5  C   UNL     1       4.515  -1.111   6.199  1.00  0.00     0.111 C 
ATOM      6  C   UNL     1       3.504  -0.349   5.292  1.00  0.00     0.093 C 
ATOM      7  C   UNL     1       2.073  -0.532   5.808  1.00  0.00     0.014 C 
ATOM      8  C   UNL     1       1.712  -2.009   6.028  1.00  0.00     0.001 C 
ATOM      9  C   UNL     1       4.230  -2.601   5.988  1.00  0.00     0.016 C 
ATOM     10  C   UNL     1       2.827  -2.959   6.480  1.00  0.00     0.001 C 
BRANCH   6  11
ATOM     11  C   UNL     1       3.966   1.072   4.976  1.00  0.00     0.228 C 
ATOM     12  N   UNL     1       3.155   2.001   4.397  1.00  0.00    -0.322 N 
ATOM     13  H   UNL     1       3.362   2.929   4.654  1.00  0.00     0.170 HD
ATOM     14  O   UNL     1       5.127   1.412   5.211  1.00  0.00    -0.274 OA
BRANCH  12  15
ATOM     15  C   UNL     1       2.097   1.885   3.517  1.00  0.00     0.092 A 
ATOM     16  N   UNL     1       0.629   1.346   1.971  1.00  0.00    -0.258 N 
ATOM     17  N   UNL     1       0.209   2.546   2.402  1.00  0.00    -0.178 NA
ATOM     18  C   UNL     1       1.779   0.899   2.599  1.00  0.00     0.150 A 
ATOM     19  C   UNL     1       1.135   2.900   3.291  1.00  0.00     0.162 A 
BRANCH  16  20
ATOM     20  C   UNL     1      -0.120   0.709   0.900  1.00  0.00     0.142 C 
ATOM     21  C   UNL     1       0.506   0.900  -0.469  1.00  0.00     0.029 C 
ENDBRANCH  16  20
BRANCH  18  22
ATOM     22  C   UNL     1       2.505  -0.255   2.132  1.00  0.00     0.276 C 
ATOM     23  O   UNL     1       3.545  -0.185   1.491  1.00  0.00    -0.267 OA
ATOM     24  N   UNL     1       1.827  -1.431   2.380  1.00  0.00    -0.318 N 
ATOM     25  H   UNL     1       1.545  -1.646   3.298  1.00  0.00     0.170 HD
BRANCH  24  26
ATOM     26  C   UNL     1       1.538  -2.308   1.353  1.00  0.00     0.082 A 
ATOM     27  C   UNL     1       1.964  -2.311   0.009  1.00  0.00     0.161 A 
ATOM     28  C   UNL     1       0.546  -3.263   1.423  1.00  0.00     0.059 A 
ATOM     29  N   UNL     1       1.159  -3.051  -0.758  1.00  0.00    -0.179 NA
ATOM     30  N   UNL     1       0.245  -3.528   0.108  1.00  0.00    -0.271 N 
ATOM     31  C   UNL     1      -0.223  -3.816   2.563  1.00  0.00     0.068 C 
ATOM     32  C   UNL     1      -1.031  -3.973  -0.405  1.00  0.00     0.174 C 
ENDBRANCH  24  26
ENDBRANCH  18  22
ENDBRANCH  12  15
ENDBRANCH   6  11
ENDBRANCH   3   5
ENDBRANCH   2   3
ENDBRANCH   1   2
BRANCH   1  33
ATOM     33  C   UNL     1       6.152  -0.220  10.387  1.00  0.00     0.275 C 
BRANCH  33  34
ATOM     34  O   UNL     1       5.462   1.009  10.171  1.00  0.00    -0.458 OA
BRANCH  34  35
ATOM     35  C   UNL     1       5.754   1.562   8.975  1.00  0.00     0.338 C 
ATOM     36  O   UNL     1       6.397   1.052   8.070  1.00  0.00    -0.246 OA
BRANCH  35  37
ATOM     37  C   UNL     1       5.331   2.957   8.928  1.00  0.00     0.060 A 
ATOM     38  C   UNL     1       5.152   3.501   7.656  1.00  0.00     0.016 A 
ATOM     39  C   UNL     1       5.514   3.754  10.056  1.00  0.00     0.016 A 
ATOM     40  C   UNL     1       5.403   4.832   7.452  1.00  0.00     0.010 A 
ATOM     41  C   UNL     1       5.727   5.100   9.861  1.00  0.00     0.010 A 
ATOM     42  C   UNL     1       5.785   5.595   8.550  1.00  0.00    -0.014 A 
BRANCH  42  43
ATOM     43  C   UNL     1       6.225   6.956   8.296  1.00  0.00     0.031 A 
ATOM     44  C   UNL     1       5.165   7.866   7.785  1.00  0.00     0.074 A 
ATOM     45  C   UNL     1       7.458   7.330   8.694  1.00  0.00     0.049 A 
ATOM     46  N   UNL     1       5.250   8.779   6.871  1.00  0.00    -0.248 NA
ATOM     47  C   UNL     1       3.795   7.653   8.294  1.00  0.00     0.031 C 
ATOM     48  C   UNL     1       8.444   6.492   9.393  1.00  0.00     0.029 A 
ATOM     49  N   UNL     1       7.992   8.581   8.785  1.00  0.00    -0.354 N 
ATOM     50  C   UNL     1       4.003   9.403   6.866  1.00  0.00     0.074 A 
ATOM     51  C   UNL     1       3.108   8.570   7.620  1.00  0.00     0.031 C 
ATOM     52  C   UNL     1       9.251   7.290  10.118  1.00  0.00     0.029 A 
ATOM     53  C   UNL     1       8.902   8.671   9.838  1.00  0.00     0.049 A 
ATOM     54  H   UNL     1       7.764   9.327   8.183  1.00  0.00     0.167 HD
ATOM     55  C   UNL     1       3.847  10.696   6.482  1.00  0.00     0.034 A 
ATOM     56  C   UNL     1       9.224   9.782  10.540  1.00  0.00     0.034 A 
ATOM     57  C   UNL     1       4.899  11.146   5.618  1.00  0.00     0.049 A 
ATOM     58  C   UNL     1       8.794  10.958   9.752  1.00  0.00     0.074 A 
ATOM     59  C   UNL     1       5.402  10.732   4.401  1.00  0.00     0.029 A 
ATOM     60  N   UNL     1       5.829  12.009   6.139  1.00  0.00    -0.354 N 
ATOM     61  N   UNL     1       9.335  11.316   8.621  1.00  0.00    -0.248 NA
ATOM     62  C   UNL     1       7.485  11.531  10.027  1.00  0.00     0.031 C 
ATOM     63  C   UNL     1       6.797  11.008   4.462  1.00  0.00     0.029 A 
ATOM     64  C   UNL     1       7.058  11.591   5.704  1.00  0.00     0.049 A 
ATOM     65  H   UNL     1       5.647  12.785   6.718  1.00  0.00     0.167 HD
ATOM     66  C   UNL     1       8.273  11.790   7.862  1.00  0.00     0.074 A 
ATOM     67  C   UNL     1       7.198  12.026   8.821  1.00  0.00     0.031 C 
ATOM     68  C   UNL     1       8.264  11.660   6.501  1.00  0.00     0.034 A 
BRANCH  55  69
ATOM     69  C   UNL     1       2.917  11.649   7.189  1.00  0.00     0.023 A 
ATOM     70  C   UNL     1       2.655  12.892   6.577  1.00  0.00     0.012 A 
ATOM     71  C   UNL     1       2.507  11.496   8.536  1.00  0.00     0.148 A 
ATOM     72  C   UNL     1       2.048  13.938   7.280  1.00  0.00     0.002 A 
ATOM     73  C   UNL     1       1.823  12.506   9.200  1.00  0.00     0.091 A 
ATOM     74  F   UNL     1       2.894  10.428   9.242  1.00  0.00    -0.205 F 
ATOM     75  C   UNL     1       1.617  13.741   8.588  1.00  0.00     0.022 A 
BRANCH  73  76
ATOM     76  S   UNL     1       1.194  12.242  10.861  1.00  0.00     0.127 S 
ATOM     77  O   UNL     1       2.274  12.788  11.676  1.00  0.00    -0.237 OA
ATOM     78  O   UNL     1      -0.038  13.031  10.854  1.00  0.00    -0.237 OA
ATOM     79  O   UNL     1       0.972  10.803  10.949  1.00  0.00    -0.744 OA
ENDBRANCH  73  76
ENDBRANCH  55  69
BRANCH  56  80
ATOM     80  C   UNL     1       9.641   9.880  11.958  1.00  0.00     0.023 A 
ATOM     81  C   UNL     1      10.385  10.994  12.385  1.00  0.00     0.012 A 
ATOM     82  C   UNL     1       9.150   8.991  12.943  1.00  0.00     0.148 A 
ATOM     83  C   UNL     1      10.631  11.218  13.745  1.00  0.00     0.002 A 
ATOM     84  C   UNL     1       9.425   9.198  14.291  1.00  0.00     0.091 A 
ATOM     85  F   UNL     1       8.337   7.991  12.573  1.00  0.00    -0.205 F 
ATOM     86  C   UNL     1      10.158  10.318  14.697  1.00  0.00     0.022 A 
BRANCH  84  87
ATOM     87  S   UNL     1       8.867   8.052  15.561  1.00  0.00     0.127 S 
ATOM     88  O   UNL     1      10.034   7.974  16.442  1.00  0.00    -0.237 OA
ATOM     89  O   UNL     1       7.721   8.757  16.128  1.00  0.00    -0.237 OA
ATOM     90  O   UNL     1       8.570   6.808  14.861  1.00  0.00    -0.744 OA
ENDBRANCH  84  87
ENDBRANCH  56  80
BRANCH  68  91
ATOM     91  C   UNL     1       9.535  11.220   5.813  1.00  0.00     0.023 A 
ATOM     92  C   UNL     1      10.122   9.966   6.082  1.00  0.00     0.012 A 
ATOM     93  C   UNL     1      10.031  11.981   4.741  1.00  0.00     0.148 A 
ATOM     94  C   UNL     1      11.195   9.494   5.323  1.00  0.00     0.002 A 
ATOM     95  C   UNL     1      11.068  11.487   3.956  1.00  0.00     0.091 A 
ATOM     96  F   UNL     1       9.459  13.168   4.483  1.00  0.00    -0.205 F 
ATOM     97  C   UNL     1      11.659  10.248   4.250  1.00  0.00     0.022 A 
BRANCH  95  98
ATOM     98  S   UNL     1      11.613  12.347   2.477  1.00  0.00     0.127 S 
ATOM     99  O   UNL     1      12.815  13.032   2.945  1.00  0.00    -0.237 OA
ATOM    100  O   UNL     1      11.862  11.248   1.540  1.00  0.00    -0.237 OA
ATOM    101  O   UNL     1      10.502  13.209   2.091  1.00  0.00    -0.744 OA
ENDBRANCH  95  98
ENDBRANCH  68  91
ENDBRANCH  42  43
ENDBRANCH  35  37
ENDBRANCH  34  35
ENDBRANCH  33  34
ENDBRANCH   1  33
TORSDOF 19
