REMARK SMILES COc1ccccc1[C@H]([NH3+])c1nc(C(=O)OCCOC(=O)c2ccc(-c3c4nc(c(-c5cccc(S(=O)(=O)[O-])c5F)c5ccc([nH]5)c(-c5cccc(S(=O)(=O)[O-])c5F)c5nc(c(-c6cccc(S(=O)(=O)[O-])c6F)c6ccc3[nH]6)C=C5)C=C4)cc2)c[nH]1
REMARK SMILES IDX 17 1 16 2 14 3 15 4 13 5 11 6 12 7 86 8 85 9 9 11 8 12 3 13
REMARK SMILES IDX 4 14 5 15 7 16 6 17 2 18 1 19 10 20 18 24 19 25 20 26 21 27
REMARK SMILES IDX 22 28 23 29 84 30 24 31 83 32 25 33 26 34 27 35 77 36 28 37
REMARK SMILES IDX 82 38 76 39 78 40 29 41 81 42 75 43 74 44 30 46 62 47 42 48
REMARK SMILES IDX 61 49 43 50 46 51 60 52 79 53 44 54 45 55 59 57 80 58 47 59
REMARK SMILES IDX 31 60 32 61 40 62 33 63 35 64 41 65 34 66 36 67 37 68 38 69
REMARK SMILES IDX 39 70 63 71 64 72 72 73 65 74 67 75 73 76 66 77 68 78 69 79
REMARK SMILES IDX 70 80 71 81 48 82 49 83 57 84 50 85 52 86 58 87 51 88 53 89
REMARK SMILES IDX 54 90 55 91 56 92
REMARK H PARENT 86 10 10 21 10 22 10 23 78 45 46 56
REMARK Flexibility Score: inf
ROOT
ATOM      1  C   UNL     1       1.665  -6.480   2.206  1.00  0.00     0.275 C 
ENDROOT
BRANCH   1   2
ATOM      2  O   UNL     1       1.958  -5.078   2.078  1.00  0.00    -0.457 OA
BRANCH   2   3
ATOM      3  C   UNL     1       2.926  -4.605   2.922  1.00  0.00     0.358 C 
ATOM      4  O   UNL     1       3.481  -5.281   3.775  1.00  0.00    -0.244 OA
BRANCH   3   5
ATOM      5  C   UNL     1       3.293  -3.208   2.668  1.00  0.00     0.166 A 
ATOM      6  C   UNL     1       3.273  -1.168   1.933  1.00  0.00     0.170 A 
ATOM      7  N   UNL     1       2.584  -2.300   1.896  1.00  0.00    -0.220 NA
ATOM      8  N   UNL     1       4.433  -1.338   2.652  1.00  0.00    -0.342 N 
ATOM      9  C   UNL     1       4.431  -2.598   3.164  1.00  0.00     0.120 A 
ATOM     10  H   UNL     1       5.140  -0.665   2.776  1.00  0.00     0.167 HD
BRANCH   6  11
ATOM     11  C   UNL     1       2.875   0.158   1.316  1.00  0.00     0.283 C 
BRANCH  11  12
ATOM     12  C   UNL     1       3.990   1.204   1.362  1.00  0.00     0.059 A 
ATOM     13  C   UNL     1       4.104   2.244   2.302  1.00  0.00     0.128 A 
ATOM     14  C   UNL     1       5.205   3.111   2.290  1.00  0.00     0.047 A 
ATOM     15  C   UNL     1       6.234   2.933   1.369  1.00  0.00     0.004 A 
ATOM     16  C   UNL     1       5.043   1.057   0.429  1.00  0.00     0.014 A 
ATOM     17  C   UNL     1       6.153   1.905   0.437  1.00  0.00     0.001 A 
BRANCH  13  18
ATOM     18  O   UNL     1       3.119   2.534   3.208  1.00  0.00    -0.496 OA
ATOM     19  C   UNL     1       3.326   1.834   4.435  1.00  0.00     0.278 C 
ENDBRANCH  13  18
ENDBRANCH  11  12
BRANCH  11  20
ATOM     20  N   UNL     1       1.606   0.584   1.912  1.00  0.00    -0.345 N 
ATOM     21  H   UNL     1       1.728   0.710   2.917  1.00  0.00     0.345 HD
ATOM     22  H   UNL     1       0.895  -0.128   1.742  1.00  0.00     0.345 HD
ATOM     23  H   UNL     1       1.312   1.465   1.491  1.00  0.00     0.345 HD
ENDBRANCH  11  20
ENDBRANCH   6  11
ENDBRANCH   3   5
ENDBRANCH   2   3
ENDBRANCH   1   2
BRANCH   1  24
ATOM     24  C   UNL     1       2.420  -7.310   1.165  1.00  0.00     0.275 C 
BRANCH  24  25
ATOM     25  O   UNL     1       3.841  -7.280   1.403  1.00  0.00    -0.458 OA
BRANCH  25  26
ATOM     26  C   UNL     1       4.562  -6.536   0.532  1.00  0.00     0.338 C 
ATOM     27  O   UNL     1       4.150  -5.920  -0.436  1.00  0.00    -0.246 OA
BRANCH  26  28
ATOM     28  C   UNL     1       5.968  -6.491   0.959  1.00  0.00     0.060 A 
ATOM     29  C   UNL     1       6.378  -5.428   1.761  1.00  0.00     0.016 A 
ATOM     30  C   UNL     1       6.903  -7.397   0.461  1.00  0.00     0.016 A 
ATOM     31  C   UNL     1       7.727  -5.236   2.041  1.00  0.00     0.010 A 
ATOM     32  C   UNL     1       8.257  -7.229   0.780  1.00  0.00     0.010 A 
ATOM     33  C   UNL     1       8.687  -6.132   1.551  1.00  0.00    -0.014 A 
BRANCH  33  34
ATOM     34  C   UNL     1      10.132  -5.889   1.813  1.00  0.00     0.031 A 
ATOM     35  C   UNL     1      11.075  -5.614   0.670  1.00  0.00     0.074 A 
ATOM     36  C   UNL     1      10.604  -5.907   3.076  1.00  0.00     0.049 A 
ATOM     37  N   UNL     1      12.377  -5.485   0.685  1.00  0.00    -0.248 NA
ATOM     38  C   UNL     1      10.476  -5.473  -0.668  1.00  0.00     0.031 C 
ATOM     39  C   UNL     1       9.799  -6.145   4.275  1.00  0.00     0.029 A 
ATOM     40  N   UNL     1      11.878  -5.736   3.561  1.00  0.00    -0.354 N 
ATOM     41  C   UNL     1      12.759  -5.312  -0.641  1.00  0.00     0.074 A 
ATOM     42  C   UNL     1      11.550  -5.343  -1.435  1.00  0.00     0.031 C 
ATOM     43  C   UNL     1      10.594  -6.104   5.355  1.00  0.00     0.029 A 
ATOM     44  C   UNL     1      11.973  -5.900   4.924  1.00  0.00     0.049 A 
ATOM     45  H   UNL     1      12.649  -5.517   2.989  1.00  0.00     0.167 HD
ATOM     46  C   UNL     1      14.002  -5.135  -1.149  1.00  0.00     0.034 A 
ATOM     47  C   UNL     1      13.051  -5.923   5.734  1.00  0.00     0.034 A 
ATOM     48  C   UNL     1      15.198  -5.043  -0.354  1.00  0.00     0.049 A 
ATOM     49  C   UNL     1      14.419  -5.723   5.141  1.00  0.00     0.074 A 
ATOM     50  C   UNL     1      16.496  -4.816  -0.777  1.00  0.00     0.029 A 
ATOM     51  N   UNL     1      15.245  -5.171   1.026  1.00  0.00    -0.354 N 
ATOM     52  N   UNL     1      14.752  -5.488   3.895  1.00  0.00    -0.248 NA
ATOM     53  C   UNL     1      15.559  -5.771   6.069  1.00  0.00     0.031 C 
ATOM     54  C   UNL     1      17.331  -4.824   0.346  1.00  0.00     0.029 A 
ATOM     55  C   UNL     1      16.549  -5.032   1.470  1.00  0.00     0.049 A 
ATOM     56  H   UNL     1      14.466  -5.335   1.604  1.00  0.00     0.167 HD
ATOM     57  C   UNL     1      16.133  -5.334   3.893  1.00  0.00     0.074 A 
ATOM     58  C   UNL     1      16.572  -5.475   5.266  1.00  0.00     0.031 C 
ATOM     59  C   UNL     1      16.966  -5.116   2.846  1.00  0.00     0.034 A 
BRANCH  46  60
ATOM     60  C   UNL     1      14.141  -5.004  -2.644  1.00  0.00     0.023 A 
ATOM     61  C   UNL     1      13.746  -3.812  -3.284  1.00  0.00     0.012 A 
ATOM     62  C   UNL     1      14.730  -6.034  -3.405  1.00  0.00     0.148 A 
ATOM     63  C   UNL     1      13.910  -3.657  -4.660  1.00  0.00     0.002 A 
ATOM     64  C   UNL     1      14.929  -5.856  -4.769  1.00  0.00     0.091 A 
ATOM     65  F   UNL     1      15.082  -7.167  -2.781  1.00  0.00    -0.205 F 
ATOM     66  C   UNL     1      14.510  -4.673  -5.400  1.00  0.00     0.022 A 
BRANCH  64  67
ATOM     67  S   UNL     1      15.765  -7.072  -5.794  1.00  0.00     0.127 S 
ATOM     68  O   UNL     1      14.659  -7.588  -6.600  1.00  0.00    -0.237 OA
ATOM     69  O   UNL     1      16.723  -6.248  -6.531  1.00  0.00    -0.237 OA
ATOM     70  O   UNL     1      16.366  -8.028  -4.874  1.00  0.00    -0.744 OA
ENDBRANCH  64  67
ENDBRANCH  46  60
BRANCH  47  71
ATOM     71  C   UNL     1      12.877  -6.135   7.200  1.00  0.00     0.023 A 
ATOM     72  C   UNL     1      13.159  -5.083   8.092  1.00  0.00     0.012 A 
ATOM     73  C   UNL     1      12.412  -7.363   7.711  1.00  0.00     0.148 A 
ATOM     74  C   UNL     1      13.007  -5.259   9.469  1.00  0.00     0.002 A 
ATOM     75  C   UNL     1      12.204  -7.511   9.077  1.00  0.00     0.091 A 
ATOM     76  F   UNL     1      12.172  -8.361   6.849  1.00  0.00    -0.205 F 
ATOM     77  C   UNL     1      12.517  -6.466   9.960  1.00  0.00     0.022 A 
BRANCH  75  78
ATOM     78  S   UNL     1      11.444  -8.981   9.775  1.00  0.00     0.127 S 
ATOM     79  O   UNL     1      12.588  -9.642  10.397  1.00  0.00    -0.237 OA
ATOM     80  O   UNL     1      10.478  -8.409  10.713  1.00  0.00    -0.237 OA
ATOM     81  O   UNL     1      10.840  -9.679   8.648  1.00  0.00    -0.744 OA
ENDBRANCH  75  78
ENDBRANCH  47  71
BRANCH  59  82
ATOM     82  C   UNL     1      18.436  -4.977   3.141  1.00  0.00     0.023 A 
ATOM     83  C   UNL     1      19.193  -6.114   3.484  1.00  0.00     0.012 A 
ATOM     84  C   UNL     1      19.081  -3.731   3.009  1.00  0.00     0.148 A 
ATOM     85  C   UNL     1      20.563  -6.009   3.722  1.00  0.00     0.002 A 
ATOM     86  C   UNL     1      20.454  -3.642   3.201  1.00  0.00     0.091 A 
ATOM     87  F   UNL     1      18.340  -2.656   2.701  1.00  0.00    -0.205 F 
ATOM     88  C   UNL     1      21.195  -4.777   3.569  1.00  0.00     0.022 A 
BRANCH  86  89
ATOM     89  S   UNL     1      21.365  -2.116   2.934  1.00  0.00     0.127 S 
ATOM     90  O   UNL     1      21.667  -1.706   4.304  1.00  0.00    -0.237 OA
ATOM     91  O   UNL     1      22.523  -2.574   2.165  1.00  0.00    -0.237 OA
ATOM     92  O   UNL     1      20.465  -1.236   2.201  1.00  0.00    -0.744 OA
ENDBRANCH  86  89
ENDBRANCH  59  82
ENDBRANCH  33  34
ENDBRANCH  26  28
ENDBRANCH  25  26
ENDBRANCH  24  25
ENDBRANCH   1  24
TORSDOF 18
