REMARK SMILES C[C@H](C(=O)OCCOC(=O)c1ccc(-c2c3nc(c(-c4cccc(S(=O)(=O)[O-])c4F)c4ccc([nH]4)c(-c4cccc(S(=O)(=O)[O-])c4F)c4nc(c(-c5cccc(S(=O)(=O)[O-])c5F)c5ccc2[nH]5)C=C4)C=C3)cc1)c1ccc(-c2ccccc2)c(F)c1
REMARK SMILES IDX 7 1 6 2 5 3 3 4 4 5 2 6 1 7 74 8 75 9 86 10 76 11 84 12
REMARK SMILES IDX 77 13 85 14 78 15 79 16 83 17 80 18 82 19 81 20 8 21 9 22
REMARK SMILES IDX 10 23 11 24 12 25 73 26 13 27 72 28 14 29 15 30 16 31 66 32
REMARK SMILES IDX 17 33 71 34 65 35 67 36 18 37 70 38 64 39 63 40 19 42 51 43
REMARK SMILES IDX 31 44 50 45 32 46 35 47 49 48 68 49 33 50 34 51 48 53 69 54
REMARK SMILES IDX 36 55 20 56 21 57 29 58 22 59 24 60 30 61 23 62 25 63 26 64
REMARK SMILES IDX 27 65 28 66 52 67 53 68 61 69 54 70 56 71 62 72 55 73 57 74
REMARK SMILES IDX 58 75 59 76 60 77 37 78 38 79 46 80 39 81 41 82 47 83 40 84
REMARK SMILES IDX 42 85 43 86 44 87 45 88
REMARK H PARENT 67 41 35 52
REMARK Flexibility Score: inf
ROOT
ATOM      1  C   UNL     1       1.152   1.704  -1.992  1.00  0.00     0.275 C 
ENDROOT
BRANCH   1   2
ATOM      2  C   UNL     1       0.803   0.220  -2.014  1.00  0.00     0.274 C 
BRANCH   2   3
ATOM      3  O   UNL     1       0.139  -0.172  -0.795  1.00  0.00    -0.462 OA
BRANCH   3   4
ATOM      4  C   UNL     1       0.864  -0.911   0.085  1.00  0.00     0.313 C 
ATOM      5  O   UNL     1       2.039  -1.222  -0.081  1.00  0.00    -0.252 OA
BRANCH   4   6
ATOM      6  C   UNL     1       0.089  -1.335   1.328  1.00  0.00     0.126 C 
ATOM      7  C   UNL     1       0.664  -0.689   2.590  1.00  0.00     0.025 C 
BRANCH   6   8
ATOM      8  C   UNL     1      -1.418  -1.154   1.284  1.00  0.00    -0.031 A 
ATOM      9  C   UNL     1      -2.020   0.112   1.312  1.00  0.00     0.005 A 
ATOM     10  C   UNL     1      -2.240  -2.287   1.289  1.00  0.00     0.044 A 
ATOM     11  C   UNL     1      -3.413   0.238   1.371  1.00  0.00     0.012 A 
ATOM     12  C   UNL     1      -3.624  -2.152   1.353  1.00  0.00     0.131 A 
ATOM     13  C   UNL     1      -4.241  -0.896   1.407  1.00  0.00     0.017 A 
ATOM     14  F   UNL     1      -4.363  -3.273   1.375  1.00  0.00    -0.206 F 
BRANCH  13  15
ATOM     15  C   UNL     1      -5.699  -0.765   1.527  1.00  0.00    -0.015 A 
ATOM     16  C   UNL     1      -6.440  -0.017   0.599  1.00  0.00     0.009 A 
ATOM     17  C   UNL     1      -6.391  -1.384   2.582  1.00  0.00     0.009 A 
ATOM     18  C   UNL     1      -7.827   0.101   0.717  1.00  0.00     0.001 A 
ATOM     19  C   UNL     1      -7.776  -1.265   2.703  1.00  0.00     0.001 A 
ATOM     20  C   UNL     1      -8.494  -0.523   1.769  1.00  0.00     0.000 A 
ENDBRANCH  13  15
ENDBRANCH   6   8
ENDBRANCH   4   6
ENDBRANCH   3   4
ENDBRANCH   2   3
ENDBRANCH   1   2
BRANCH   1  21
ATOM     21  O   UNL     1       2.147   1.951  -0.985  1.00  0.00    -0.458 OA
BRANCH  21  22
ATOM     22  C   UNL     1       1.762   2.737   0.044  1.00  0.00     0.338 C 
ATOM     23  O   UNL     1       0.691   3.300   0.192  1.00  0.00    -0.246 OA
BRANCH  22  24
ATOM     24  C   UNL     1       2.839   2.783   1.043  1.00  0.00     0.060 A 
ATOM     25  C   UNL     1       3.149   1.626   1.754  1.00  0.00     0.016 A 
ATOM     26  C   UNL     1       3.452   3.992   1.364  1.00  0.00     0.016 A 
ATOM     27  C   UNL     1       3.993   1.689   2.857  1.00  0.00     0.010 A 
ATOM     28  C   UNL     1       4.382   4.032   2.408  1.00  0.00     0.010 A 
ATOM     29  C   UNL     1       4.632   2.891   3.193  1.00  0.00    -0.014 A 
BRANCH  29  30
ATOM     30  C   UNL     1       5.537   2.960   4.373  1.00  0.00     0.031 A 
ATOM     31  C   UNL     1       5.246   3.920   5.497  1.00  0.00     0.074 A 
ATOM     32  C   UNL     1       6.630   2.173   4.435  1.00  0.00     0.049 A 
ATOM     33  N   UNL     1       5.995   4.246   6.519  1.00  0.00    -0.248 NA
ATOM     34  C   UNL     1       3.949   4.616   5.460  1.00  0.00     0.031 C 
ATOM     35  C   UNL     1       7.026   1.193   3.422  1.00  0.00     0.029 A 
ATOM     36  N   UNL     1       7.615   2.079   5.388  1.00  0.00    -0.354 N 
ATOM     37  C   UNL     1       5.298   5.235   7.202  1.00  0.00     0.074 A 
ATOM     38  C   UNL     1       4.057   5.448   6.488  1.00  0.00     0.031 C 
ATOM     39  C   UNL     1       8.156   0.586   3.813  1.00  0.00     0.029 A 
ATOM     40  C   UNL     1       8.606   1.180   5.066  1.00  0.00     0.049 A 
ATOM     41  H   UNL     1       7.613   2.604   6.221  1.00  0.00     0.167 HD
ATOM     42  C   UNL     1       5.652   5.898   8.328  1.00  0.00     0.034 A 
ATOM     43  C   UNL     1       9.766   0.889   5.688  1.00  0.00     0.034 A 
ATOM     44  C   UNL     1       6.845   5.628   9.084  1.00  0.00     0.049 A 
ATOM     45  C   UNL     1      10.117   1.611   6.957  1.00  0.00     0.074 A 
ATOM     46  C   UNL     1       7.275   6.226  10.256  1.00  0.00     0.029 A 
ATOM     47  N   UNL     1       7.787   4.665   8.758  1.00  0.00    -0.354 N 
ATOM     48  N   UNL     1       9.426   2.517   7.607  1.00  0.00    -0.248 NA
ATOM     49  C   UNL     1      11.400   1.266   7.586  1.00  0.00     0.031 C 
ATOM     50  C   UNL     1       8.476   5.619  10.642  1.00  0.00     0.029 A 
ATOM     51  C   UNL     1       8.792   4.644   9.709  1.00  0.00     0.049 A 
ATOM     52  H   UNL     1       7.747   4.082   7.965  1.00  0.00     0.167 HD
ATOM     53  C   UNL     1      10.185   2.845   8.723  1.00  0.00     0.074 A 
ATOM     54  C   UNL     1      11.372   2.015   8.681  1.00  0.00     0.031 C 
ATOM     55  C   UNL     1       9.938   3.772   9.680  1.00  0.00     0.034 A 
BRANCH  42  56
ATOM     56  C   UNL     1       4.715   6.959   8.839  1.00  0.00     0.023 A 
ATOM     57  C   UNL     1       3.550   6.579   9.535  1.00  0.00     0.012 A 
ATOM     58  C   UNL     1       5.013   8.326   8.683  1.00  0.00     0.148 A 
ATOM     59  C   UNL     1       2.685   7.545  10.049  1.00  0.00     0.002 A 
ATOM     60  C   UNL     1       4.162   9.283   9.227  1.00  0.00     0.091 A 
ATOM     61  F   UNL     1       6.110   8.669   7.992  1.00  0.00    -0.205 F 
ATOM     62  C   UNL     1       2.996   8.895   9.904  1.00  0.00     0.022 A 
BRANCH  60  63
ATOM     63  S   UNL     1       4.523  11.042   9.142  1.00  0.00     0.127 S 
ATOM     64  O   UNL     1       3.663  11.468   8.040  1.00  0.00    -0.237 OA
ATOM     65  O   UNL     1       4.101  11.514  10.462  1.00  0.00    -0.237 OA
ATOM     66  O   UNL     1       5.957  11.138   8.901  1.00  0.00    -0.744 OA
ENDBRANCH  60  63
ENDBRANCH  42  56
BRANCH  43  67
ATOM     67  C   UNL     1      10.660  -0.159   5.120  1.00  0.00     0.023 A 
ATOM     68  C   UNL     1      10.792  -1.391   5.788  1.00  0.00     0.012 A 
ATOM     69  C   UNL     1      11.322   0.028   3.890  1.00  0.00     0.148 A 
ATOM     70  C   UNL     1      11.573  -2.413   5.247  1.00  0.00     0.002 A 
ATOM     71  C   UNL     1      12.049  -1.015   3.328  1.00  0.00     0.091 A 
ATOM     72  F   UNL     1      11.213   1.217   3.280  1.00  0.00    -0.205 F 
ATOM     73  C   UNL     1      12.187  -2.232   4.010  1.00  0.00     0.022 A 
BRANCH  71  74
ATOM     74  S   UNL     1      12.724  -0.896   1.666  1.00  0.00     0.127 S 
ATOM     75  O   UNL     1      14.103  -0.497   1.928  1.00  0.00    -0.237 OA
ATOM     76  O   UNL     1      12.563  -2.261   1.163  1.00  0.00    -0.237 OA
ATOM     77  O   UNL     1      11.885   0.085   0.990  1.00  0.00    -0.744 OA
ENDBRANCH  71  74
ENDBRANCH  43  67
BRANCH  55  78
ATOM     78  C   UNL     1      10.966   3.939  10.764  1.00  0.00     0.023 A 
ATOM     79  C   UNL     1      12.146   4.656  10.485  1.00  0.00     0.012 A 
ATOM     80  C   UNL     1      10.739   3.455  12.065  1.00  0.00     0.148 A 
ATOM     81  C   UNL     1      13.096   4.871  11.483  1.00  0.00     0.002 A 
ATOM     82  C   UNL     1      11.674   3.702  13.064  1.00  0.00     0.091 A 
ATOM     83  F   UNL     1       9.621   2.753  12.303  1.00  0.00    -0.205 F 
ATOM     84  C   UNL     1      12.855   4.404  12.774  1.00  0.00     0.022 A 
BRANCH  82  85
ATOM     85  S   UNL     1      11.398   3.199  14.766  1.00  0.00     0.127 S 
ATOM     86  O   UNL     1      12.159   1.954  14.838  1.00  0.00    -0.237 OA
ATOM     87  O   UNL     1      11.974   4.310  15.525  1.00  0.00    -0.237 OA
ATOM     88  O   UNL     1       9.953   3.068  14.905  1.00  0.00    -0.744 OA
ENDBRANCH  82  85
ENDBRANCH  55  78
ENDBRANCH  29  30
ENDBRANCH  22  24
ENDBRANCH  21  22
ENDBRANCH   1  21
TORSDOF 16
