REMARK SMILES Cc1nc(C[N@@H+]2CCC[C@H]2C(=O)OCCOC(=O)c2ccc(-c3c4nc(c(-c5cccc(S(=O)(=O)[O-])c5F)c5ccc([nH]5)c(-c5cccc(S(=O)(=O)[O-])c5F)c5nc(c(-c6cccc(S(=O)(=O)[O-])c6F)c6ccc3[nH]6)C=C5)C=C4)cc2)cs1
REMARK SMILES IDX 15 1 14 2 13 3 11 4 12 5 10 6 6 7 7 8 8 10 9 11 5 12 4 13
REMARK SMILES IDX 1 14 2 15 3 16 83 17 82 18 16 19 17 20 18 21 19 22 20 23
REMARK SMILES IDX 81 24 21 25 80 26 22 27 23 28 24 29 74 30 25 31 79 32 73 33
REMARK SMILES IDX 75 34 26 35 78 36 72 37 71 38 27 40 59 41 39 42 58 43 40 44
REMARK SMILES IDX 43 45 57 46 76 47 41 48 42 49 56 51 77 52 44 53 28 54 29 55
REMARK SMILES IDX 37 56 30 57 32 58 38 59 31 60 33 61 34 62 35 63 36 64 60 65
REMARK SMILES IDX 61 66 69 67 62 68 64 69 70 70 63 71 65 72 66 73 67 74 68 75
REMARK SMILES IDX 45 76 46 77 54 78 47 79 49 80 55 81 48 82 50 83 51 84 52 85
REMARK SMILES IDX 53 86
REMARK H PARENT 6 9 75 39 43 50
REMARK Flexibility Score: inf
ROOT
ATOM      1  C   UNL     1       2.383  -5.841  -4.766  1.00  0.00     0.275 C 
ENDROOT
BRANCH   1   2
ATOM      2  C   UNL     1       3.581  -5.144  -4.125  1.00  0.00     0.274 C 
BRANCH   2   3
ATOM      3  O   UNL     1       3.109  -4.279  -3.077  1.00  0.00    -0.458 OA
BRANCH   3   4
ATOM      4  C   UNL     1       3.374  -2.947  -3.226  1.00  0.00     0.365 C 
ATOM      5  O   UNL     1       4.123  -2.472  -4.070  1.00  0.00    -0.245 OA
BRANCH   4   6
ATOM      6  C   UNL     1       2.560  -2.130  -2.207  1.00  0.00     0.295 C 
ATOM      7  N   UNL     1       3.235  -2.149  -0.897  1.00  0.00    -0.318 N 
ATOM      8  C   UNL     1       4.125  -0.992  -0.872  1.00  0.00     0.263 C 
ATOM      9  H   UNL     1       3.800  -2.990  -0.777  1.00  0.00     0.349 HD
ATOM     10  C   UNL     1       3.538   0.057  -1.803  1.00  0.00     0.068 C 
ATOM     11  C   UNL     1       2.474  -0.659  -2.619  1.00  0.00     0.083 C 
BRANCH   7  12
ATOM     12  C   UNL     1       2.306  -2.279   0.234  1.00  0.00     0.321 C 
BRANCH  12  13
ATOM     13  C   UNL     1       1.295  -1.175   0.387  1.00  0.00     0.106 A 
ATOM     14  C   UNL     1      -2.181  -0.186  -0.213  1.00  0.00     0.079 C 
ATOM     15  C   UNL     1      -0.742  -0.312   0.153  1.00  0.00     0.090 A 
ATOM     16  N   UNL     1       0.012  -1.357  -0.120  1.00  0.00    -0.241 NA
ATOM     17  S   UNL     1       0.044   0.960   0.997  1.00  0.00    -0.127 S 
ATOM     18  C   UNL     1       1.478   0.028   1.044  1.00  0.00     0.096 A 
ENDBRANCH  12  13
ENDBRANCH   7  12
ENDBRANCH   4   6
ENDBRANCH   3   4
ENDBRANCH   2   3
ENDBRANCH   1   2
BRANCH   1  19
ATOM     19  O   UNL     1       1.492  -4.854  -5.320  1.00  0.00    -0.458 OA
BRANCH  19  20
ATOM     20  C   UNL     1       0.316  -4.690  -4.669  1.00  0.00     0.338 C 
ATOM     21  O   UNL     1      -0.110  -5.323  -3.721  1.00  0.00    -0.246 OA
BRANCH  20  22
ATOM     22  C   UNL     1      -0.389  -3.546  -5.265  1.00  0.00     0.060 A 
ATOM     23  C   UNL     1      -0.029  -2.256  -4.875  1.00  0.00     0.016 A 
ATOM     24  C   UNL     1      -1.435  -3.747  -6.161  1.00  0.00     0.016 A 
ATOM     25  C   UNL     1      -0.721  -1.153  -5.367  1.00  0.00     0.010 A 
ATOM     26  C   UNL     1      -2.097  -2.638  -6.696  1.00  0.00     0.010 A 
ATOM     27  C   UNL     1      -1.748  -1.333  -6.300  1.00  0.00    -0.014 A 
BRANCH  27  28
ATOM     28  C   UNL     1      -2.440  -0.159  -6.887  1.00  0.00     0.031 A 
ATOM     29  C   UNL     1      -3.896   0.079  -6.609  1.00  0.00     0.074 A 
ATOM     30  C   UNL     1      -1.762   0.668  -7.707  1.00  0.00     0.049 A 
ATOM     31  N   UNL     1      -4.702   0.958  -7.144  1.00  0.00    -0.248 NA
ATOM     32  C   UNL     1      -4.530  -0.784  -5.599  1.00  0.00     0.031 C 
ATOM     33  C   UNL     1      -0.340   0.551  -8.037  1.00  0.00     0.029 A 
ATOM     34  N   UNL     1      -2.183   1.755  -8.432  1.00  0.00    -0.354 N 
ATOM     35  C   UNL     1      -5.950   0.719  -6.583  1.00  0.00     0.074 A 
ATOM     36  C   UNL     1      -5.792  -0.378  -5.651  1.00  0.00     0.031 C 
ATOM     37  C   UNL     1      -0.009   1.518  -8.906  1.00  0.00     0.029 A 
ATOM     38  C   UNL     1      -1.204   2.284  -9.242  1.00  0.00     0.049 A 
ATOM     39  H   UNL     1      -3.095   2.121  -8.378  1.00  0.00     0.167 HD
ATOM     40  C   UNL     1      -7.118   1.361  -6.819  1.00  0.00     0.034 A 
ATOM     41  C   UNL     1      -1.271   3.244 -10.185  1.00  0.00     0.034 A 
ATOM     42  C   UNL     1      -7.257   2.485  -7.706  1.00  0.00     0.049 A 
ATOM     43  C   UNL     1      -2.592   3.908 -10.457  1.00  0.00     0.074 A 
ATOM     44  C   UNL     1      -8.382   3.253  -7.950  1.00  0.00     0.029 A 
ATOM     45  N   UNL     1      -6.244   2.995  -8.503  1.00  0.00    -0.354 N 
ATOM     46  N   UNL     1      -3.740   3.741  -9.847  1.00  0.00    -0.248 NA
ATOM     47  C   UNL     1      -2.627   4.894 -11.547  1.00  0.00     0.031 C 
ATOM     48  C   UNL     1      -8.053   4.215  -8.912  1.00  0.00     0.029 A 
ATOM     49  C   UNL     1      -6.722   4.051  -9.260  1.00  0.00     0.049 A 
ATOM     50  H   UNL     1      -5.319   2.656  -8.527  1.00  0.00     0.167 HD
ATOM     51  C   UNL     1      -4.631   4.606 -10.469  1.00  0.00     0.074 A 
ATOM     52  C   UNL     1      -3.882   5.320 -11.483  1.00  0.00     0.031 C 
ATOM     53  C   UNL     1      -5.955   4.778 -10.238  1.00  0.00     0.034 A 
BRANCH  40  54
ATOM     54  C   UNL     1      -8.343   0.885  -6.090  1.00  0.00     0.023 A 
ATOM     55  C   UNL     1      -8.530   1.237  -4.739  1.00  0.00     0.012 A 
ATOM     56  C   UNL     1      -9.341   0.151  -6.761  1.00  0.00     0.148 A 
ATOM     57  C   UNL     1      -9.686   0.851  -4.061  1.00  0.00     0.002 A 
ATOM     58  C   UNL     1     -10.504  -0.202  -6.088  1.00  0.00     0.091 A 
ATOM     59  F   UNL     1      -9.129  -0.195  -8.039  1.00  0.00    -0.205 F 
ATOM     60  C   UNL     1     -10.676   0.142  -4.737  1.00  0.00     0.022 A 
BRANCH  58  61
ATOM     61  S   UNL     1     -11.862  -1.060  -6.893  1.00  0.00     0.127 S 
ATOM     62  O   UNL     1     -11.736  -2.403  -6.330  1.00  0.00    -0.237 OA
ATOM     63  O   UNL     1     -13.027  -0.309  -6.422  1.00  0.00    -0.237 OA
ATOM     64  O   UNL     1     -11.611  -0.953  -8.323  1.00  0.00    -0.744 OA
ENDBRANCH  58  61
ENDBRANCH  40  54
BRANCH  41  65
ATOM     65  C   UNL     1      -0.045   3.635 -10.937  1.00  0.00     0.023 A 
ATOM     66  C   UNL     1       0.521   4.905 -10.717  1.00  0.00     0.012 A 
ATOM     67  C   UNL     1       0.580   2.750 -11.836  1.00  0.00     0.148 A 
ATOM     68  C   UNL     1       1.681   5.291 -11.391  1.00  0.00     0.002 A 
ATOM     69  C   UNL     1       1.766   3.119 -12.461  1.00  0.00     0.091 A 
ATOM     70  F   UNL     1       0.010   1.557 -12.058  1.00  0.00    -0.205 F 
ATOM     71  C   UNL     1       2.311   4.394 -12.251  1.00  0.00     0.022 A 
BRANCH  69  72
ATOM     72  S   UNL     1       2.705   1.969 -13.473  1.00  0.00     0.127 S 
ATOM     73  O   UNL     1       2.356   2.404 -14.823  1.00  0.00    -0.237 OA
ATOM     74  O   UNL     1       4.082   2.256 -13.070  1.00  0.00    -0.237 OA
ATOM     75  O   UNL     1       2.235   0.645 -13.086  1.00  0.00    -0.744 OA
ENDBRANCH  69  72
ENDBRANCH  41  65
BRANCH  53  76
ATOM     76  C   UNL     1      -6.688   5.769 -11.100  1.00  0.00     0.023 A 
ATOM     77  C   UNL     1      -7.013   5.419 -12.425  1.00  0.00     0.012 A 
ATOM     78  C   UNL     1      -7.120   7.006 -10.583  1.00  0.00     0.148 A 
ATOM     79  C   UNL     1      -7.740   6.294 -13.231  1.00  0.00     0.002 A 
ATOM     80  C   UNL     1      -7.880   7.855 -11.378  1.00  0.00     0.091 A 
ATOM     81  F   UNL     1      -6.782   7.326  -9.325  1.00  0.00    -0.205 F 
ATOM     82  C   UNL     1      -8.184   7.505 -12.704  1.00  0.00     0.022 A 
BRANCH  80  83
ATOM     83  S   UNL     1      -8.566   9.396 -10.759  1.00  0.00     0.127 S 
ATOM     84  O   UNL     1      -7.728  10.387 -11.432  1.00  0.00    -0.237 OA
ATOM     85  O   UNL     1      -9.947   9.338 -11.240  1.00  0.00    -0.237 OA
ATOM     86  O   UNL     1      -8.429   9.342  -9.310  1.00  0.00    -0.744 OA
ENDBRANCH  80  83
ENDBRANCH  53  76
ENDBRANCH  27  28
ENDBRANCH  20  22
ENDBRANCH  19  20
ENDBRANCH   1  19
TORSDOF 16
