REMARK SMILES Cc1cccc(NC(=O)c2c(NC(=O)C[C@@H](C)CC(=O)OCCOC(=O)c3ccc(-c4c5nc(c(-c6cccc(S(=O)(=O)[O-])c6F)c6ccc([nH]6)c(-c6cccc(S(=O)(=O)[O-])c6F)c6nc(c(-c7cccc(S(=O)(=O)[O-])c7F)c7ccc4[nH]7)C=C6)C=C5)cc3)sc3c2CCCCC3)c1
REMARK SMILES IDX 19 1 20 2 18 3 16 4 17 5 15 6 13 7 12 8 14 10 11 11 10 12
REMARK SMILES IDX 92 13 90 14 91 15 8 16 7 17 9 19 6 20 1 21 2 22 3 23 98 24
REMARK SMILES IDX 4 25 5 26 93 27 94 28 95 29 97 31 96 32 21 34 22 35 23 36
REMARK SMILES IDX 24 37 25 38 26 39 27 40 28 41 89 42 29 43 88 44 30 45 31 46
REMARK SMILES IDX 32 47 82 48 33 49 87 50 81 51 83 52 34 53 86 54 80 55 79 56
REMARK SMILES IDX 35 58 67 59 47 60 66 61 48 62 51 63 65 64 84 65 49 66 50 67
REMARK SMILES IDX 64 69 85 70 52 71 36 72 37 73 45 74 38 75 40 76 46 77 39 78
REMARK SMILES IDX 41 79 42 80 43 81 44 82 68 83 69 84 77 85 70 86 72 87 78 88
REMARK SMILES IDX 71 89 73 90 74 91 75 92 76 93 53 94 54 95 62 96 55 97 57 98
REMARK SMILES IDX 63 99 56 100 58 101 59 102 60 103 61 104
REMARK H PARENT 12 9 7 18 83 57 51 68
REMARK Flexibility Score: 90.00
ROOT
ATOM      1  C   UNL     1      -8.703  -0.710  -3.030  1.00  0.00     0.306 C 
ATOM      2  O   UNL     1      -9.758  -0.632  -2.445  1.00  0.00    -0.252 OA
ENDROOT
BRANCH   1   3
ATOM      3  C   UNL     1      -7.353  -0.965  -2.401  1.00  0.00     0.126 C 
BRANCH   3   4
ATOM      4  C   UNL     1      -6.391   0.159  -2.817  1.00  0.00     0.006 C 
ATOM      5  C   UNL     1      -4.954  -0.242  -2.501  1.00  0.00     0.009 C 
BRANCH   4   6
ATOM      6  C   UNL     1      -6.980   1.482  -2.282  1.00  0.00     0.104 C 
BRANCH   6   7
ATOM      7  C   UNL     1      -6.052   2.639  -2.063  1.00  0.00     0.225 C 
ATOM      8  N   UNL     1      -5.231   2.729  -0.985  1.00  0.00    -0.317 N 
ATOM      9  H   UNL     1      -4.752   3.587  -0.913  1.00  0.00     0.170 HD
ATOM     10  O   UNL     1      -5.996   3.541  -2.909  1.00  0.00    -0.275 OA
BRANCH   8  11
ATOM     11  C   UNL     1      -4.947   1.835   0.029  1.00  0.00     0.108 A 
ATOM     12  C   UNL     1      -3.742   1.763   0.710  1.00  0.00     0.078 A 
ATOM     13  C   UNL     1      -3.720   0.625   1.618  1.00  0.00    -0.019 A 
ATOM     14  S   UNL     1      -6.064   0.721   0.628  1.00  0.00    -0.122 S 
ATOM     15  C   UNL     1      -4.838  -0.172   1.408  1.00  0.00     0.011 A 
BRANCH  12  16
ATOM     16  C   UNL     1      -2.705   2.748   0.433  1.00  0.00     0.258 C 
ATOM     17  N   UNL     1      -1.409   2.393   0.160  1.00  0.00    -0.322 N 
ATOM     18  H   UNL     1      -0.783   3.152   0.205  1.00  0.00     0.170 HD
ATOM     19  O   UNL     1      -2.969   3.954   0.410  1.00  0.00    -0.269 OA
BRANCH  17  20
ATOM     20  C   UNL     1      -0.784   1.183  -0.168  1.00  0.00     0.041 A 
ATOM     21  C   UNL     1       2.812  -0.052   0.044  1.00  0.00     0.044 C 
ATOM     22  C   UNL     1       1.336  -0.022  -0.214  1.00  0.00    -0.049 A 
ATOM     23  C   UNL     1       0.657  -1.183  -0.593  1.00  0.00     0.003 A 
ATOM     24  C   UNL     1       0.608   1.156  -0.015  1.00  0.00     0.029 A 
ATOM     25  C   UNL     1      -0.719  -1.147  -0.817  1.00  0.00     0.002 A 
ATOM     26  C   UNL     1      -1.434   0.038  -0.623  1.00  0.00     0.026 A 
ENDBRANCH  17  20
ENDBRANCH  12  16
BRANCH  13  27
ATOM     27  C   UNL     1      -2.603   0.295   2.575  1.00  0.00     0.037 C 
BRANCH  27  28
ATOM     28  C   UNL     1      -3.036  -0.599   3.737  1.00  0.00     0.005 C 
BRANCH  28  29
ATOM     29  C   UNL     1      -3.143  -2.083   3.369  1.00  0.00     0.001 CG0
ATOM     30  G   UNL     1      -3.830  -2.396   2.038  1.00  0.00     0.000 G0
ENDBRANCH  28  29
ENDBRANCH  27  28
ENDBRANCH  13  27
BRANCH  15  31
ATOM     31  C   UNL     1      -5.114  -1.597   1.811  1.00  0.00     0.047 C 
BRANCH  31  32
ATOM     32  C   UNL     1      -3.830  -2.396   2.038  1.00  0.00     0.006 CG0
ATOM     33  G   UNL     1      -3.143  -2.083   3.369  1.00  0.00     0.000 G0
ENDBRANCH  31  32
ENDBRANCH  15  31
ENDBRANCH   8  11
ENDBRANCH   6   7
ENDBRANCH   4   6
ENDBRANCH   3   4
ENDBRANCH   1   3
BRANCH   1  34
ATOM     34  O   UNL     1      -8.527  -0.512  -4.366  1.00  0.00    -0.462 OA
BRANCH  34  35
ATOM     35  C   UNL     1      -9.711  -0.275  -5.103  1.00  0.00     0.274 C 
BRANCH  35  36
ATOM     36  C   UNL     1      -9.420  -0.490  -6.589  1.00  0.00     0.275 C 
BRANCH  36  37
ATOM     37  O   UNL     1      -8.405  -1.454  -7.037  1.00  0.00    -0.458 OA
BRANCH  37  38
ATOM     38  C   UNL     1      -7.779  -2.494  -6.420  1.00  0.00     0.338 C 
ATOM     39  O   UNL     1      -6.647  -2.828  -6.744  1.00  0.00    -0.246 OA
BRANCH  38  40
ATOM     40  C   UNL     1      -8.523  -3.231  -5.379  1.00  0.00     0.060 A 
ATOM     41  C   UNL     1      -7.870  -3.790  -4.264  1.00  0.00     0.016 A 
ATOM     42  C   UNL     1      -9.903  -3.250  -5.457  1.00  0.00     0.016 A 
ATOM     43  C   UNL     1      -8.610  -4.183  -3.135  1.00  0.00     0.010 A 
ATOM     44  C   UNL     1     -10.614  -3.506  -4.309  1.00  0.00     0.010 A 
ATOM     45  C   UNL     1      -9.987  -3.973  -3.133  1.00  0.00    -0.014 A 
BRANCH  45  46
ATOM     46  C   UNL     1     -10.936  -4.445  -2.119  1.00  0.00     0.031 A 
ATOM     47  C   UNL     1     -11.126  -3.912  -0.748  1.00  0.00     0.074 A 
ATOM     48  C   UNL     1     -11.781  -5.373  -2.627  1.00  0.00     0.049 A 
ATOM     49  N   UNL     1     -11.900  -4.482   0.115  1.00  0.00    -0.248 NA
ATOM     50  C   UNL     1     -10.479  -2.728  -0.201  1.00  0.00     0.031 C 
ATOM     51  C   UNL     1     -13.064  -5.852  -2.154  1.00  0.00     0.029 A 
ATOM     52  N   UNL     1     -11.484  -6.218  -3.708  1.00  0.00    -0.354 N 
ATOM     53  C   UNL     1     -12.055  -3.646   1.205  1.00  0.00     0.074 A 
ATOM     54  C   UNL     1     -11.104  -2.587   0.980  1.00  0.00     0.031 C 
ATOM     55  C   UNL     1     -13.294  -7.055  -2.714  1.00  0.00     0.029 A 
ATOM     56  C   UNL     1     -12.070  -7.440  -3.409  1.00  0.00     0.049 A 
ATOM     57  H   UNL     1     -10.966  -5.990  -4.513  1.00  0.00     0.167 HD
ATOM     58  C   UNL     1     -13.056  -3.919   2.093  1.00  0.00     0.034 A 
ATOM     59  C   UNL     1     -11.308  -8.550  -3.174  1.00  0.00     0.034 A 
ATOM     60  C   UNL     1     -13.648  -5.229   1.788  1.00  0.00     0.049 A 
ATOM     61  C   UNL     1     -11.626  -9.127  -1.820  1.00  0.00     0.074 A 
ATOM     62  C   UNL     1     -14.770  -5.607   1.073  1.00  0.00     0.029 A 
ATOM     63  N   UNL     1     -12.908  -6.381   2.018  1.00  0.00    -0.354 N 
ATOM     64  N   UNL     1     -12.094  -8.425  -0.826  1.00  0.00    -0.248 NA
ATOM     65  C   UNL     1     -11.501 -10.542  -1.502  1.00  0.00     0.031 C 
ATOM     66  C   UNL     1     -14.647  -6.989   0.780  1.00  0.00     0.029 A 
ATOM     67  C   UNL     1     -13.472  -7.453   1.350  1.00  0.00     0.049 A 
ATOM     68  H   UNL     1     -12.098  -6.429   2.576  1.00  0.00     0.167 HD
ATOM     69  C   UNL     1     -12.356  -9.247   0.233  1.00  0.00     0.074 A 
ATOM     70  C   UNL     1     -11.973 -10.567  -0.243  1.00  0.00     0.031 C 
ATOM     71  C   UNL     1     -12.864  -8.774   1.410  1.00  0.00     0.034 A 
BRANCH  58  72
ATOM     72  C   UNL     1     -13.718  -2.979   3.101  1.00  0.00     0.023 A 
ATOM     73  C   UNL     1     -14.991  -3.380   3.591  1.00  0.00     0.012 A 
ATOM     74  C   UNL     1     -13.264  -1.720   3.554  1.00  0.00     0.148 A 
ATOM     75  C   UNL     1     -15.799  -2.567   4.392  1.00  0.00     0.002 A 
ATOM     76  C   UNL     1     -14.075  -0.898   4.357  1.00  0.00     0.091 A 
ATOM     77  F   UNL     1     -12.037  -1.305   3.236  1.00  0.00    -0.205 F 
ATOM     78  C   UNL     1     -15.348  -1.314   4.762  1.00  0.00     0.022 A 
BRANCH  76  79
ATOM     79  S   UNL     1     -13.584   0.749   4.907  1.00  0.00     0.127 S 
ATOM     80  O   UNL     1     -14.598   1.596   4.276  1.00  0.00    -0.237 OA
ATOM     81  O   UNL     1     -13.705   0.644   6.361  1.00  0.00    -0.237 OA
ATOM     82  O   UNL     1     -12.227   0.957   4.420  1.00  0.00    -0.744 OA
ENDBRANCH  76  79
ENDBRANCH  58  72
BRANCH  59  83
ATOM     83  C   UNL     1      -9.952  -8.537  -3.827  1.00  0.00     0.023 A 
ATOM     84  C   UNL     1      -9.918  -8.382  -5.238  1.00  0.00     0.012 A 
ATOM     85  C   UNL     1      -8.760  -8.317  -3.109  1.00  0.00     0.148 A 
ATOM     86  C   UNL     1      -8.778  -7.910  -5.894  1.00  0.00     0.002 A 
ATOM     87  C   UNL     1      -7.618  -7.858  -3.776  1.00  0.00     0.091 A 
ATOM     88  F   UNL     1      -8.761  -8.501  -1.782  1.00  0.00    -0.205 F 
ATOM     89  C   UNL     1      -7.634  -7.626  -5.160  1.00  0.00     0.022 A 
BRANCH  87  90
ATOM     90  S   UNL     1      -6.117  -7.428  -2.877  1.00  0.00     0.127 S 
ATOM     91  O   UNL     1      -5.426  -8.712  -2.821  1.00  0.00    -0.237 OA
ATOM     92  O   UNL     1      -5.488  -6.430  -3.743  1.00  0.00    -0.237 OA
ATOM     93  O   UNL     1      -6.594  -6.884  -1.612  1.00  0.00    -0.744 OA
ENDBRANCH  87  90
ENDBRANCH  59  83
BRANCH  71  94
ATOM     94  C   UNL     1     -12.864  -9.532   2.719  1.00  0.00     0.023 A 
ATOM     95  C   UNL     1     -11.988 -10.609   2.950  1.00  0.00     0.012 A 
ATOM     96  C   UNL     1     -13.613  -9.069   3.830  1.00  0.00     0.148 A 
ATOM     97  C   UNL     1     -11.897 -11.237   4.195  1.00  0.00     0.002 A 
ATOM     98  C   UNL     1     -13.434  -9.623   5.094  1.00  0.00     0.091 A 
ATOM     99  F   UNL     1     -14.516  -8.090   3.675  1.00  0.00    -0.205 F 
ATOM    100  C   UNL     1     -12.601 -10.728   5.275  1.00  0.00     0.022 A 
BRANCH  98 101
ATOM    101  S   UNL     1     -14.128  -8.823   6.548  1.00  0.00     0.127 S 
ATOM    102  O   UNL     1     -15.438  -9.460   6.652  1.00  0.00    -0.237 OA
ATOM    103  O   UNL     1     -13.182  -9.200   7.600  1.00  0.00    -0.237 OA
ATOM    104  O   UNL     1     -14.121  -7.402   6.225  1.00  0.00    -0.744 OA
ENDBRANCH  98 101
ENDBRANCH  71  94
ENDBRANCH  45  46
ENDBRANCH  38  40
ENDBRANCH  37  38
ENDBRANCH  36  37
ENDBRANCH  35  36
ENDBRANCH  34  35
ENDBRANCH   1  34
TORSDOF 20
