REMARK SMILES CC1=C(CC(=O)OCCOC(=O)c2ccc(-c3c4nc(c(-c5cccc(S(=O)(=O)[O-])c5F)c5ccc([nH]5)c(-c5cccc(S(=O)(=O)[O-])c5F)c5nc(c(-c6cccc(S(=O)(=O)[O-])c6F)c6ccc3[nH]6)C=C5)C=C4)cc2)c2cc(F)ccc2/C1=C\c1ccc([S@@+](C)[O-])cc1
REMARK SMILES IDX 8 1 7 2 5 3 6 4 4 5 3 6 1 7 2 8 83 9 76 10 82 11 84 12 77 13
REMARK SMILES IDX 81 14 78 15 80 16 79 17 85 18 86 19 93 20 87 21 92 22 88 23
REMARK SMILES IDX 89 24 90 25 91 26 9 27 10 28 11 29 12 30 13 31 14 32 75 33
REMARK SMILES IDX 15 34 74 35 16 36 17 37 18 38 68 39 19 40 73 41 67 42 69 43
REMARK SMILES IDX 20 44 72 45 66 46 65 47 21 49 53 50 33 51 52 52 34 53 37 54
REMARK SMILES IDX 51 55 70 56 35 57 36 58 50 60 71 61 38 62 22 63 23 64 31 65
REMARK SMILES IDX 24 66 26 67 32 68 25 69 27 70 28 71 29 72 30 73 54 74 55 75
REMARK SMILES IDX 63 76 56 77 58 78 64 79 57 80 59 81 60 82 61 83 62 84 39 85
REMARK SMILES IDX 40 86 48 87 41 88 43 89 49 90 42 91 44 92 45 93 46 94 47 95
REMARK H PARENT 69 48 37 59
REMARK Flexibility Score: inf
ROOT
ATOM      1  C   UNL     1       0.589   0.285   5.224  1.00  0.00     0.274 C 
ENDROOT
BRANCH   1   2
ATOM      2  O   UNL     1       0.328   0.621   3.846  1.00  0.00    -0.462 OA
BRANCH   2   3
ATOM      3  C   UNL     1      -0.713  -0.036   3.269  1.00  0.00     0.310 C 
ATOM      4  O   UNL     1      -1.384  -0.897   3.830  1.00  0.00    -0.252 OA
BRANCH   3   5
ATOM      5  C   UNL     1      -1.004   0.381   1.835  1.00  0.00     0.159 C 
BRANCH   5   6
ATOM      6  C   UNL     1      -0.152   1.456   1.247  1.00  0.00    -0.025 C 
ATOM      7  C   UNL     1       1.565   0.067  -0.021  1.00  0.00     0.045 C 
ATOM      8  C   UNL     1       0.928   1.334   0.441  1.00  0.00    -0.039 C 
ATOM      9  C   UNL     1       1.401   2.670   0.042  1.00  0.00    -0.014 C 
ATOM     10  C   UNL     1      -0.456   2.891   1.375  1.00  0.00    -0.011 A 
ATOM     11  C   UNL     1       0.478   3.651   0.652  1.00  0.00    -0.010 A 
ATOM     12  C   UNL     1       2.476   2.894  -0.737  1.00  0.00     0.017 C 
ATOM     13  C   UNL     1      -1.501   3.515   2.040  1.00  0.00     0.048 A 
ATOM     14  C   UNL     1       0.366   5.037   0.600  1.00  0.00     0.012 A 
ATOM     15  C   UNL     1      -1.585   4.903   2.011  1.00  0.00     0.123 A 
ATOM     16  C   UNL     1      -0.664   5.667   1.301  1.00  0.00     0.040 A 
ATOM     17  F   UNL     1      -2.582   5.516   2.662  1.00  0.00    -0.207 F 
BRANCH  12  18
ATOM     18  C   UNL     1       2.959   4.221  -1.119  1.00  0.00    -0.025 A 
ATOM     19  C   UNL     1       3.646   5.008  -0.190  1.00  0.00     0.013 A 
ATOM     20  C   UNL     1       2.603   4.761  -2.357  1.00  0.00     0.013 A 
ATOM     21  C   UNL     1       3.884   6.359  -0.455  1.00  0.00     0.061 A 
ATOM     22  C   UNL     1       2.864   6.106  -2.629  1.00  0.00     0.061 A 
ATOM     23  C   UNL     1       3.478   6.924  -1.671  1.00  0.00     0.152 A 
BRANCH  23  24
ATOM     24  S   UNL     1       3.567   8.709  -1.967  1.00  0.00    -0.018 S 
ATOM     25  C   UNL     1       5.213   9.057  -1.320  1.00  0.00     0.346 C 
ATOM     26  O   UNL     1       3.618   8.908  -3.525  1.00  0.00    -0.612 OA
ENDBRANCH  23  24
ENDBRANCH  12  18
ENDBRANCH   5   6
ENDBRANCH   3   5
ENDBRANCH   2   3
ENDBRANCH   1   2
BRANCH   1  27
ATOM     27  C   UNL     1       0.003   1.339   6.159  1.00  0.00     0.275 C 
BRANCH  27  28
ATOM     28  O   UNL     1      -1.410   1.456   5.926  1.00  0.00    -0.458 OA
BRANCH  28  29
ATOM     29  C   UNL     1      -1.847   2.697   5.609  1.00  0.00     0.338 C 
ATOM     30  O   UNL     1      -1.192   3.723   5.575  1.00  0.00    -0.246 OA
BRANCH  29  31
ATOM     31  C   UNL     1      -3.293   2.647   5.331  1.00  0.00     0.060 A 
ATOM     32  C   UNL     1      -4.132   3.534   6.001  1.00  0.00     0.016 A 
ATOM     33  C   UNL     1      -3.805   1.797   4.347  1.00  0.00     0.016 A 
ATOM     34  C   UNL     1      -5.497   3.536   5.711  1.00  0.00     0.010 A 
ATOM     35  C   UNL     1      -5.149   1.877   3.986  1.00  0.00     0.010 A 
ATOM     36  C   UNL     1      -6.018   2.718   4.692  1.00  0.00    -0.014 A 
BRANCH  36  37
ATOM     37  C   UNL     1      -7.475   2.732   4.399  1.00  0.00     0.031 A 
ATOM     38  C   UNL     1      -8.315   1.503   4.633  1.00  0.00     0.074 A 
ATOM     39  C   UNL     1      -8.051   3.860   3.937  1.00  0.00     0.049 A 
ATOM     40  N   UNL     1      -9.616   1.380   4.577  1.00  0.00    -0.248 NA
ATOM     41  C   UNL     1      -7.613   0.249   4.956  1.00  0.00     0.031 C 
ATOM     42  C   UNL     1      -7.338   5.088   3.578  1.00  0.00     0.029 A 
ATOM     43  N   UNL     1      -9.370   4.162   3.706  1.00  0.00    -0.354 N 
ATOM     44  C   UNL     1      -9.883   0.041   4.836  1.00  0.00     0.074 A 
ATOM     45  C   UNL     1      -8.611  -0.621   5.011  1.00  0.00     0.031 C 
ATOM     46  C   UNL     1      -8.231   6.026   3.222  1.00  0.00     0.029 A 
ATOM     47  C   UNL     1      -9.576   5.466   3.321  1.00  0.00     0.049 A 
ATOM     48  H   UNL     1     -10.098   3.507   3.806  1.00  0.00     0.167 HD
ATOM     49  C   UNL     1     -11.080  -0.574   4.966  1.00  0.00     0.034 A 
ATOM     50  C   UNL     1     -10.720   6.147   3.109  1.00  0.00     0.034 A 
ATOM     51  C   UNL     1     -12.346   0.095   4.866  1.00  0.00     0.049 A 
ATOM     52  C   UNL     1     -12.039   5.460   3.330  1.00  0.00     0.074 A 
ATOM     53  C   UNL     1     -13.609  -0.423   5.087  1.00  0.00     0.029 A 
ATOM     54  N   UNL     1     -12.509   1.425   4.521  1.00  0.00    -0.354 N 
ATOM     55  N   UNL     1     -12.270   4.237   3.741  1.00  0.00    -0.248 NA
ATOM     56  C   UNL     1     -13.255   6.253   3.091  1.00  0.00     0.031 C 
ATOM     57  C   UNL     1     -14.539   0.597   4.874  1.00  0.00     0.029 A 
ATOM     58  C   UNL     1     -13.853   1.748   4.520  1.00  0.00     0.049 A 
ATOM     59  H   UNL     1     -11.777   2.049   4.308  1.00  0.00     0.167 HD
ATOM     60  C   UNL     1     -13.651   4.119   3.831  1.00  0.00     0.074 A 
ATOM     61  C   UNL     1     -14.208   5.400   3.447  1.00  0.00     0.031 C 
ATOM     62  C   UNL     1     -14.390   3.040   4.185  1.00  0.00     0.034 A 
BRANCH  49  63
ATOM     63  C   UNL     1     -11.086  -2.032   5.330  1.00  0.00     0.023 A 
ATOM     64  C   UNL     1     -10.849  -2.399   6.670  1.00  0.00     0.012 A 
ATOM     65  C   UNL     1     -11.413  -3.022   4.384  1.00  0.00     0.148 A 
ATOM     66  C   UNL     1     -10.927  -3.733   7.063  1.00  0.00     0.002 A 
ATOM     67  C   UNL     1     -11.517  -4.347   4.790  1.00  0.00     0.091 A 
ATOM     68  F   UNL     1     -11.621  -2.647   3.114  1.00  0.00    -0.205 F 
ATOM     69  C   UNL     1     -11.270  -4.704   6.127  1.00  0.00     0.022 A 
BRANCH  67  70
ATOM     70  S   UNL     1     -12.002  -5.673   3.680  1.00  0.00     0.127 S 
ATOM     71  O   UNL     1     -10.792  -6.496   3.657  1.00  0.00    -0.237 OA
ATOM     72  O   UNL     1     -13.131  -6.270   4.392  1.00  0.00    -0.237 OA
ATOM     73  O   UNL     1     -12.341  -5.038   2.414  1.00  0.00    -0.744 OA
ENDBRANCH  67  70
ENDBRANCH  49  63
BRANCH  50  74
ATOM     74  C   UNL     1     -10.657   7.597   2.783  1.00  0.00     0.023 A 
ATOM     75  C   UNL     1     -10.944   8.535   3.794  1.00  0.00     0.012 A 
ATOM     76  C   UNL     1     -10.257   8.050   1.512  1.00  0.00     0.148 A 
ATOM     77  C   UNL     1     -10.843   9.903   3.542  1.00  0.00     0.002 A 
ATOM     78  C   UNL     1     -10.124   9.415   1.278  1.00  0.00     0.091 A 
ATOM     79  F   UNL     1      -9.995   7.136   0.568  1.00  0.00    -0.205 F 
ATOM     80  C   UNL     1     -10.425  10.342   2.289  1.00  0.00     0.022 A 
BRANCH  78  81
ATOM     81  S   UNL     1      -9.506  10.079  -0.272  1.00  0.00     0.127 S 
ATOM     82  O   UNL     1     -10.674  10.799  -0.775  1.00  0.00    -0.237 OA
ATOM     83  O   UNL     1      -8.407  10.930   0.185  1.00  0.00    -0.237 OA
ATOM     84  O   UNL     1      -9.093   8.927  -1.061  1.00  0.00    -0.744 OA
ENDBRANCH  78  81
ENDBRANCH  50  74
BRANCH  62  85
ATOM     85  C   UNL     1     -15.887   3.170   4.180  1.00  0.00     0.023 A 
ATOM     86  C   UNL     1     -16.577   3.068   2.958  1.00  0.00     0.012 A 
ATOM     87  C   UNL     1     -16.609   3.242   5.387  1.00  0.00     0.148 A 
ATOM     88  C   UNL     1     -17.970   3.038   2.935  1.00  0.00     0.002 A 
ATOM     89  C   UNL     1     -17.997   3.179   5.359  1.00  0.00     0.091 A 
ATOM     90  F   UNL     1     -15.925   3.346   6.535  1.00  0.00    -0.205 F 
ATOM     91  C   UNL     1     -18.678   3.081   4.134  1.00  0.00     0.022 A 
BRANCH  89  92
ATOM     92  S   UNL     1     -18.996   3.146   6.852  1.00  0.00     0.127 S 
ATOM     93  O   UNL     1     -19.680   4.436   6.781  1.00  0.00    -0.237 OA
ATOM     94  O   UNL     1     -19.856   1.985   6.623  1.00  0.00    -0.237 OA
ATOM     95  O   UNL     1     -18.061   3.000   7.960  1.00  0.00    -0.744 OA
ENDBRANCH  89  92
ENDBRANCH  62  85
ENDBRANCH  36  37
ENDBRANCH  29  31
ENDBRANCH  28  29
ENDBRANCH  27  28
ENDBRANCH   1  27
TORSDOF 17
