REMARK SMILES O=C(OCCOC(=O)[C@@H]1CCCN(C(=O)c2c(F)cc(Br)cc2F)C1)c1ccc(-c2c3nc(c(-c4cccc(S(=O)(=O)[O-])c4F)c4ccc([nH]4)c(-c4cccc(S(=O)(=O)[O-])c4F)c4nc(c(-c5cccc(S(=O)(=O)[O-])c5F)c5ccc2[nH]5)C=C4)C=C3)cc1
REMARK SMILES IDX 4 1 3 2 2 3 1 4 26 5 27 6 88 7 28 8 87 9 29 10 30 11 31 12
REMARK SMILES IDX 81 13 32 14 86 15 80 16 82 17 33 18 85 19 79 20 78 21 34 23
REMARK SMILES IDX 66 24 46 25 65 26 47 27 50 28 64 29 83 30 48 31 49 32 63 34
REMARK SMILES IDX 84 35 51 36 35 37 36 38 44 39 37 40 39 41 45 42 38 43 40 44
REMARK SMILES IDX 41 45 42 46 43 47 67 48 68 49 76 50 69 51 71 52 77 53 70 54
REMARK SMILES IDX 72 55 73 56 74 57 75 58 52 59 53 60 61 61 54 62 56 63 62 64
REMARK SMILES IDX 55 65 57 66 58 67 59 68 60 69 5 70 6 71 7 72 8 73 9 74 10 75
REMARK SMILES IDX 25 76 11 77 13 78 12 79 14 80 15 81 16 82 17 83 23 84 18 85
REMARK SMILES IDX 19 86 22 87 24 88 20 89 21 90
REMARK H PARENT 82 22 50 33
REMARK Flexibility Score: inf
ROOT
ATOM      1  C   UNL     1       4.606  -1.044   1.140  1.00  0.00     0.275 C 
ENDROOT
BRANCH   1   2
ATOM      2  O   UNL     1       3.590  -0.043   1.298  1.00  0.00    -0.458 OA
BRANCH   2   3
ATOM      3  C   UNL     1       3.491   1.177   0.720  1.00  0.00     0.338 C 
ATOM      4  O   UNL     1       2.757   2.017   1.240  1.00  0.00    -0.246 OA
BRANCH   3   5
ATOM      5  C   UNL     1       4.107   1.507  -0.606  1.00  0.00     0.060 A 
ATOM      6  C   UNL     1       5.200   0.863  -1.193  1.00  0.00     0.016 A 
ATOM      7  C   UNL     1       3.471   2.521  -1.349  1.00  0.00     0.016 A 
ATOM      8  C   UNL     1       5.571   1.109  -2.515  1.00  0.00     0.010 A 
ATOM      9  C   UNL     1       3.832   2.770  -2.678  1.00  0.00     0.010 A 
ATOM     10  C   UNL     1       4.872   2.039  -3.277  1.00  0.00    -0.014 A 
BRANCH  10  11
ATOM     11  C   UNL     1       5.364   2.374  -4.628  1.00  0.00     0.031 A 
ATOM     12  C   UNL     1       6.025   3.706  -4.783  1.00  0.00     0.074 A 
ATOM     13  C   UNL     1       5.259   1.522  -5.667  1.00  0.00     0.049 A 
ATOM     14  N   UNL     1       6.503   4.273  -5.853  1.00  0.00    -0.248 NA
ATOM     15  C   UNL     1       6.133   4.522  -3.561  1.00  0.00     0.031 C 
ATOM     16  C   UNL     1       4.648   0.193  -5.624  1.00  0.00     0.029 A 
ATOM     17  N   UNL     1       5.660   1.656  -6.973  1.00  0.00    -0.354 N 
ATOM     18  C   UNL     1       6.909   5.533  -5.442  1.00  0.00     0.074 A 
ATOM     19  C   UNL     1       6.572   5.667  -4.046  1.00  0.00     0.031 C 
ATOM     20  C   UNL     1       4.696  -0.357  -6.851  1.00  0.00     0.029 A 
ATOM     21  C   UNL     1       5.329   0.584  -7.771  1.00  0.00     0.049 A 
ATOM     22  H   UNL     1       6.140   2.447  -7.309  1.00  0.00     0.167 HD
ATOM     23  C   UNL     1       7.545   6.486  -6.155  1.00  0.00     0.034 A 
ATOM     24  C   UNL     1       5.513   0.397  -9.095  1.00  0.00     0.034 A 
ATOM     25  C   UNL     1       7.912   6.324  -7.527  1.00  0.00     0.049 A 
ATOM     26  C   UNL     1       6.229   1.472  -9.877  1.00  0.00     0.074 A 
ATOM     27  C   UNL     1       8.594   7.202  -8.345  1.00  0.00     0.029 A 
ATOM     28  N   UNL     1       7.612   5.203  -8.288  1.00  0.00    -0.354 N 
ATOM     29  N   UNL     1       6.709   2.618  -9.452  1.00  0.00    -0.248 NA
ATOM     30  C   UNL     1       6.461   1.222 -11.308  1.00  0.00     0.031 C 
ATOM     31  C   UNL     1       8.677   6.624  -9.615  1.00  0.00     0.029 A 
ATOM     32  C   UNL     1       8.086   5.368  -9.573  1.00  0.00     0.049 A 
ATOM     33  H   UNL     1       7.133   4.409  -7.959  1.00  0.00     0.167 HD
ATOM     34  C   UNL     1       7.331   3.206 -10.548  1.00  0.00     0.074 A 
ATOM     35  C   UNL     1       7.176   2.285 -11.656  1.00  0.00     0.031 C 
ATOM     36  C   UNL     1       7.966   4.400 -10.635  1.00  0.00     0.034 A 
BRANCH  23  37
ATOM     37  C   UNL     1       7.845   7.767  -5.432  1.00  0.00     0.023 A 
ATOM     38  C   UNL     1       8.781   7.783  -4.375  1.00  0.00     0.012 A 
ATOM     39  C   UNL     1       7.119   8.932  -5.733  1.00  0.00     0.148 A 
ATOM     40  C   UNL     1       8.928   8.915  -3.577  1.00  0.00     0.002 A 
ATOM     41  C   UNL     1       7.316  10.075  -4.972  1.00  0.00     0.091 A 
ATOM     42  F   UNL     1       6.213   8.885  -6.720  1.00  0.00    -0.205 F 
ATOM     43  C   UNL     1       8.199  10.062  -3.878  1.00  0.00     0.022 A 
BRANCH  41  44
ATOM     44  S   UNL     1       6.481  11.622  -5.329  1.00  0.00     0.127 S 
ATOM     45  O   UNL     1       5.552  11.722  -4.204  1.00  0.00    -0.237 OA
ATOM     46  O   UNL     1       7.588  12.578  -5.294  1.00  0.00    -0.237 OA
ATOM     47  O   UNL     1       5.865  11.453  -6.637  1.00  0.00    -0.744 OA
ENDBRANCH  41  44
ENDBRANCH  23  37
BRANCH  24  48
ATOM     48  C   UNL     1       5.048  -0.857  -9.761  1.00  0.00     0.023 A 
ATOM     49  C   UNL     1       5.989  -1.781 -10.259  1.00  0.00     0.012 A 
ATOM     50  C   UNL     1       3.675  -1.137  -9.906  1.00  0.00     0.148 A 
ATOM     51  C   UNL     1       5.571  -2.940 -10.919  1.00  0.00     0.002 A 
ATOM     52  C   UNL     1       3.266  -2.316 -10.521  1.00  0.00     0.091 A 
ATOM     53  F   UNL     1       2.794  -0.245  -9.433  1.00  0.00    -0.205 F 
ATOM     54  C   UNL     1       4.212  -3.211 -11.044  1.00  0.00     0.022 A 
BRANCH  52  55
ATOM     55  S   UNL     1       1.540  -2.803 -10.635  1.00  0.00     0.127 S 
ATOM     56  O   UNL     1       1.320  -2.789 -12.079  1.00  0.00    -0.237 OA
ATOM     57  O   UNL     1       1.567  -4.133 -10.027  1.00  0.00    -0.237 OA
ATOM     58  O   UNL     1       0.798  -1.806  -9.877  1.00  0.00    -0.744 OA
ENDBRANCH  52  55
ENDBRANCH  24  48
BRANCH  36  59
ATOM     59  C   UNL     1       8.599   4.776 -11.947  1.00  0.00     0.023 A 
ATOM     60  C   UNL     1       7.796   5.206 -13.020  1.00  0.00     0.012 A 
ATOM     61  C   UNL     1      10.002   4.861 -12.046  1.00  0.00     0.148 A 
ATOM     62  C   UNL     1       8.383   5.711 -14.178  1.00  0.00     0.002 A 
ATOM     63  C   UNL     1      10.577   5.418 -13.179  1.00  0.00     0.091 A 
ATOM     64  F   UNL     1      10.742   4.428 -11.015  1.00  0.00    -0.205 F 
ATOM     65  C   UNL     1       9.770   5.835 -14.251  1.00  0.00     0.022 A 
BRANCH  63  66
ATOM     66  S   UNL     1      12.341   5.733 -13.305  1.00  0.00     0.127 S 
ATOM     67  O   UNL     1      12.738   4.783 -14.343  1.00  0.00    -0.237 OA
ATOM     68  O   UNL     1      12.374   7.136 -13.715  1.00  0.00    -0.237 OA
ATOM     69  O   UNL     1      12.893   5.474 -11.983  1.00  0.00    -0.744 OA
ENDBRANCH  63  66
ENDBRANCH  36  59
ENDBRANCH  10  11
ENDBRANCH   3   5
ENDBRANCH   2   3
ENDBRANCH   1   2
BRANCH   1  70
ATOM     70  C   UNL     1       4.281  -2.153   0.128  1.00  0.00     0.274 C 
BRANCH  70  71
ATOM     71  O   UNL     1       3.826  -1.729  -1.173  1.00  0.00    -0.462 OA
BRANCH  71  72
ATOM     72  C   UNL     1       2.466  -1.613  -1.290  1.00  0.00     0.310 C 
ATOM     73  O   UNL     1       1.717  -1.641  -0.329  1.00  0.00    -0.252 OA
BRANCH  72  74
ATOM     74  C   UNL     1       2.033  -1.395  -2.745  1.00  0.00     0.119 C 
ATOM     75  C   UNL     1       1.798   0.078  -3.047  1.00  0.00     0.019 C 
ATOM     76  C   UNL     1       0.742  -2.136  -3.083  1.00  0.00     0.135 C 
ATOM     77  C   UNL     1       0.627   0.666  -2.264  1.00  0.00     0.022 C 
ATOM     78  N   UNL     1      -0.374  -1.605  -2.299  1.00  0.00    -0.338 N 
ATOM     79  C   UNL     1      -0.636  -0.167  -2.461  1.00  0.00     0.120 C 
BRANCH  78  80
ATOM     80  C   UNL     1      -0.951  -2.464  -1.368  1.00  0.00     0.259 C 
ATOM     81  O   UNL     1      -0.717  -3.672  -1.319  1.00  0.00    -0.269 OA
BRANCH  80  82
ATOM     82  C   UNL     1      -1.853  -1.943  -0.344  1.00  0.00     0.111 A 
ATOM     83  C   UNL     1      -3.088  -1.400  -0.675  1.00  0.00     0.140 A 
ATOM     84  C   UNL     1      -1.518  -2.112   0.999  1.00  0.00     0.140 A 
ATOM     85  F   UNL     1      -3.458  -1.257  -1.956  1.00  0.00    -0.206 F 
ATOM     86  C   UNL     1      -3.974  -0.994   0.320  1.00  0.00     0.056 A 
ATOM     87  C   UNL     1      -2.394  -1.716   2.005  1.00  0.00     0.056 A 
ATOM     88  F   UNL     1      -0.357  -2.674   1.364  1.00  0.00    -0.206 F 
ATOM     89  C   UNL     1      -3.622  -1.160   1.659  1.00  0.00     0.023 A 
ATOM     90  Br  UNL     1      -4.835  -0.655   3.016  1.00  0.00    -0.051 Br
ENDBRANCH  80  82
ENDBRANCH  78  80
ENDBRANCH  72  74
ENDBRANCH  71  72
ENDBRANCH  70  71
ENDBRANCH   1  70
TORSDOF 16
