REMARK SMILES O=C(OCCOC(=O)c1ccc([C@H]2CCCN(C(=O)c3ccc4[nH]ccc4c3)C2)cc1)c1ccc(-c2c3nc(c(-c4cccc(S(=O)(=O)[O-])c4F)c4ccc([nH]4)c(-c4cccc(S(=O)(=O)[O-])c4F)c4nc(c(-c5cccc(S(=O)(=O)[O-])c5F)c5ccc2[nH]5)C=C4)C=C3)cc1
REMARK SMILES IDX 4 1 3 2 2 3 1 4 32 5 33 6 94 7 34 8 93 9 35 10 36 11 37 12
REMARK SMILES IDX 87 13 38 14 92 15 86 16 88 17 39 18 91 19 85 20 84 21 40 23
REMARK SMILES IDX 72 24 52 25 71 26 53 27 56 28 70 29 89 30 54 31 55 32 69 34
REMARK SMILES IDX 90 35 57 36 41 37 42 38 50 39 43 40 45 41 51 42 44 43 46 44
REMARK SMILES IDX 47 45 48 46 49 47 73 48 74 49 82 50 75 51 77 52 83 53 76 54
REMARK SMILES IDX 78 55 79 56 80 57 81 58 58 59 59 60 67 61 60 62 62 63 68 64
REMARK SMILES IDX 61 65 63 66 64 67 65 68 66 69 5 70 6 71 7 72 8 73 9 74 10 75
REMARK SMILES IDX 31 76 11 77 30 78 12 79 13 80 14 81 29 82 15 83 17 84 16 85
REMARK SMILES IDX 18 86 19 87 20 88 21 89 28 90 22 91 27 92 23 93 26 94 24 95
REMARK SMILES IDX 25 96
REMARK H PARENT 88 22 56 33 24 97
REMARK Flexibility Score: inf
ROOT
ATOM      1  C   UNL     1       4.007  -1.309  -0.633  1.00  0.00     0.275 C 
ENDROOT
BRANCH   1   2
ATOM      2  O   UNL     1       3.060  -1.019   0.409  1.00  0.00    -0.458 OA
BRANCH   2   3
ATOM      3  C   UNL     1       2.922   0.077   1.192  1.00  0.00     0.338 C 
ATOM      4  O   UNL     1       2.093   0.049   2.101  1.00  0.00    -0.246 OA
BRANCH   3   5
ATOM      5  C   UNL     1       3.650   1.363   0.959  1.00  0.00     0.060 A 
ATOM      6  C   UNL     1       4.941   1.488   0.441  1.00  0.00     0.016 A 
ATOM      7  C   UNL     1       2.976   2.539   1.335  1.00  0.00     0.016 A 
ATOM      8  C   UNL     1       5.514   2.746   0.227  1.00  0.00     0.010 A 
ATOM      9  C   UNL     1       3.541   3.800   1.120  1.00  0.00     0.010 A 
ATOM     10  C   UNL     1       4.821   3.908   0.568  1.00  0.00    -0.014 A 
BRANCH  10  11
ATOM     11  C   UNL     1       5.510   5.217   0.505  1.00  0.00     0.031 A 
ATOM     12  C   UNL     1       6.038   5.798   1.783  1.00  0.00     0.074 A 
ATOM     13  C   UNL     1       5.694   5.848  -0.670  1.00  0.00     0.049 A 
ATOM     14  N   UNL     1       6.747   6.878   1.963  1.00  0.00    -0.248 NA
ATOM     15  C   UNL     1       5.771   5.037   3.017  1.00  0.00     0.031 C 
ATOM     16  C   UNL     1       5.279   5.333  -1.972  1.00  0.00     0.029 A 
ATOM     17  N   UNL     1       6.256   7.064  -0.965  1.00  0.00    -0.354 N 
ATOM     18  C   UNL     1       7.017   6.923   3.325  1.00  0.00     0.074 A 
ATOM     19  C   UNL     1       6.370   5.783   3.931  1.00  0.00     0.031 C 
ATOM     20  C   UNL     1       5.516   6.260  -2.916  1.00  0.00     0.029 A 
ATOM     21  C   UNL     1       6.140   7.419  -2.290  1.00  0.00     0.049 A 
ATOM     22  H   UNL     1       6.701   7.629  -0.292  1.00  0.00     0.167 HD
ATOM     23  C   UNL     1       7.775   7.816   4.001  1.00  0.00     0.034 A 
ATOM     24  C   UNL     1       6.506   8.550  -2.924  1.00  0.00     0.034 A 
ATOM     25  C   UNL     1       8.381   8.960   3.384  1.00  0.00     0.049 A 
ATOM     26  C   UNL     1       7.278   9.574  -2.138  1.00  0.00     0.074 A 
ATOM     27  C   UNL     1       9.183   9.928   3.956  1.00  0.00     0.029 A 
ATOM     28  N   UNL     1       8.217   9.306   2.049  1.00  0.00    -0.354 N 
ATOM     29  N   UNL     1       7.614   9.550  -0.870  1.00  0.00    -0.248 NA
ATOM     30  C   UNL     1       7.761  10.756  -2.865  1.00  0.00     0.031 C 
ATOM     31  C   UNL     1       9.486  10.873   2.969  1.00  0.00     0.029 A 
ATOM     32  C   UNL     1       8.898  10.476   1.776  1.00  0.00     0.049 A 
ATOM     33  H   UNL     1       7.692   8.792   1.394  1.00  0.00     0.167 HD
ATOM     34  C   UNL     1       8.375  10.690  -0.651  1.00  0.00     0.074 A 
ATOM     35  C   UNL     1       8.455  11.383  -1.923  1.00  0.00     0.031 C 
ATOM     36  C   UNL     1       8.954  11.129   0.492  1.00  0.00     0.034 A 
BRANCH  23  37
ATOM     37  C   UNL     1       7.997   7.550   5.465  1.00  0.00     0.023 A 
ATOM     38  C   UNL     1       8.832   6.479   5.853  1.00  0.00     0.012 A 
ATOM     39  C   UNL     1       7.377   8.335   6.455  1.00  0.00     0.148 A 
ATOM     40  C   UNL     1       9.010   6.166   7.200  1.00  0.00     0.002 A 
ATOM     41  C   UNL     1       7.590   8.040   7.797  1.00  0.00     0.091 A 
ATOM     42  F   UNL     1       6.571   9.333   6.068  1.00  0.00    -0.205 F 
ATOM     43  C   UNL     1       8.393   6.949   8.171  1.00  0.00     0.022 A 
BRANCH  41  44
ATOM     44  S   UNL     1       6.889   9.020   9.129  1.00  0.00     0.127 S 
ATOM     45  O   UNL     1       5.891   8.104   9.679  1.00  0.00    -0.237 OA
ATOM     46  O   UNL     1       8.052   9.241   9.990  1.00  0.00    -0.237 OA
ATOM     47  O   UNL     1       6.358  10.225   8.507  1.00  0.00    -0.744 OA
ENDBRANCH  41  44
ENDBRANCH  23  37
BRANCH  24  48
ATOM     48  C   UNL     1       6.208   8.743  -4.373  1.00  0.00     0.023 A 
ATOM     49  C   UNL     1       7.255   8.721  -5.313  1.00  0.00     0.012 A 
ATOM     50  C   UNL     1       4.889   8.946  -4.828  1.00  0.00     0.148 A 
ATOM     51  C   UNL     1       7.000   8.930  -6.670  1.00  0.00     0.002 A 
ATOM     52  C   UNL     1       4.635   9.110  -6.187  1.00  0.00     0.091 A 
ATOM     53  F   UNL     1       3.907   8.982  -3.918  1.00  0.00    -0.205 F 
ATOM     54  C   UNL     1       5.692   9.117  -7.108  1.00  0.00     0.022 A 
BRANCH  52  55
ATOM     55  S   UNL     1       2.973   9.250  -6.859  1.00  0.00     0.127 S 
ATOM     56  O   UNL     1       2.916  10.662  -7.227  1.00  0.00    -0.237 OA
ATOM     57  O   UNL     1       3.022   8.320  -7.987  1.00  0.00    -0.237 OA
ATOM     58  O   UNL     1       2.081   8.837  -5.786  1.00  0.00    -0.744 OA
ENDBRANCH  52  55
ENDBRANCH  24  48
BRANCH  36  59
ATOM     59  C   UNL     1       9.726  12.415   0.416  1.00  0.00     0.023 A 
ATOM     60  C   UNL     1       9.035  13.641   0.368  1.00  0.00     0.012 A 
ATOM     61  C   UNL     1      11.132  12.405   0.481  1.00  0.00     0.148 A 
ATOM     62  C   UNL     1       9.738  14.844   0.363  1.00  0.00     0.002 A 
ATOM     63  C   UNL     1      11.823  13.608   0.524  1.00  0.00     0.091 A 
ATOM     64  F   UNL     1      11.764  11.223   0.500  1.00  0.00    -0.205 F 
ATOM     65  C   UNL     1      11.129  14.828   0.455  1.00  0.00     0.022 A 
BRANCH  63  66
ATOM     66  S   UNL     1      13.604  13.679   0.741  1.00  0.00     0.127 S 
ATOM     67  O   UNL     1      14.050  14.052  -0.600  1.00  0.00    -0.237 OA
ATOM     68  O   UNL     1      13.753  14.729   1.749  1.00  0.00    -0.237 OA
ATOM     69  O   UNL     1      14.005  12.352   1.189  1.00  0.00    -0.744 OA
ENDBRANCH  63  66
ENDBRANCH  36  59
ENDBRANCH  10  11
ENDBRANCH   3   5
ENDBRANCH   2   3
ENDBRANCH   1   2
BRANCH   1  70
ATOM     70  C   UNL     1       3.650  -0.761  -2.016  1.00  0.00     0.275 C 
BRANCH  70  71
ATOM     71  O   UNL     1       3.237   0.610  -2.013  1.00  0.00    -0.458 OA
BRANCH  71  72
ATOM     72  C   UNL     1       1.893   0.826  -1.963  1.00  0.00     0.338 C 
ATOM     73  O   UNL     1       1.023  -0.025  -1.887  1.00  0.00    -0.246 OA
BRANCH  72  74
ATOM     74  C   UNL     1       1.640   2.284  -1.926  1.00  0.00     0.060 A 
ATOM     75  C   UNL     1       0.729   2.819  -1.004  1.00  0.00     0.016 A 
ATOM     76  C   UNL     1       2.328   3.130  -2.788  1.00  0.00     0.016 A 
ATOM     77  C   UNL     1       0.583   4.213  -0.870  1.00  0.00     0.005 A 
ATOM     78  C   UNL     1       2.142   4.506  -2.681  1.00  0.00     0.005 A 
ATOM     79  C   UNL     1       1.315   5.075  -1.691  1.00  0.00    -0.043 A 
BRANCH  79  80
ATOM     80  C   UNL     1       1.295   6.595  -1.626  1.00  0.00     0.039 C 
ATOM     81  C   UNL     1       0.454   7.152  -2.789  1.00  0.00     0.012 C 
ATOM     82  C   UNL     1       0.870   7.316  -0.325  1.00  0.00     0.128 C 
ATOM     83  C   UNL     1       0.686   8.652  -2.921  1.00  0.00     0.022 C 
ATOM     84  N   UNL     1       1.084   8.770  -0.486  1.00  0.00    -0.338 N 
ATOM     85  C   UNL     1       0.398   9.388  -1.623  1.00  0.00     0.120 C 
BRANCH  84  86
ATOM     86  C   UNL     1       2.020   9.411   0.328  1.00  0.00     0.253 C 
ATOM     87  O   UNL     1       2.458   8.913   1.362  1.00  0.00    -0.269 OA
BRANCH  86  88
ATOM     88  C   UNL     1       2.598  10.702  -0.119  1.00  0.00     0.040 A 
ATOM     89  C   UNL     1       3.877  10.665  -0.675  1.00  0.00     0.016 A 
ATOM     90  C   UNL     1       1.911  11.919   0.035  1.00  0.00     0.024 A 
ATOM     91  C   UNL     1       4.488  11.831  -1.141  1.00  0.00     0.027 A 
ATOM     92  C   UNL     1       2.516  13.106  -0.440  1.00  0.00     0.000 A 
ATOM     93  C   UNL     1       3.781  13.029  -1.024  1.00  0.00     0.045 A 
ATOM     94  C   UNL     1       2.135  14.479  -0.475  1.00  0.00     0.028 A 
ATOM     95  N   UNL     1       4.137  14.300  -1.413  1.00  0.00    -0.361 N 
ATOM     96  C   UNL     1       3.150  15.189  -1.080  1.00  0.00     0.083 A 
ATOM     97  H   UNL     1       4.979  14.536  -1.865  1.00  0.00     0.166 HD
ENDBRANCH  86  88
ENDBRANCH  84  86
ENDBRANCH  79  80
ENDBRANCH  72  74
ENDBRANCH  71  72
ENDBRANCH  70  71
ENDBRANCH   1  70
TORSDOF 17
