REMARK SMILES CCCC1CN(c2cc(C(=O)OCCOC(=O)c3ccc(-c4c5nc(c(-c6cccc(S(=O)(=O)[O-])c6F)c6ccc([nH]6)c(-c6cccc(S(=O)(=O)[O-])c6F)c6nc(c(-c7cccc(S(=O)(=O)[O-])c7F)c7ccc4[nH]7)C=C6)C=C5)cc3)ccc2C)C1
REMARK SMILES IDX 13 1 12 2 10 3 11 4 9 5 7 6 8 7 83 8 82 9 84 10 81 11 6 12
REMARK SMILES IDX 4 13 5 14 85 15 3 16 2 17 1 18 14 19 15 20 16 21 17 22 18 23
REMARK SMILES IDX 19 24 80 25 20 26 79 27 21 28 22 29 23 30 73 31 24 32 78 33
REMARK SMILES IDX 72 34 74 35 25 36 77 37 71 38 70 39 26 41 58 42 38 43 57 44
REMARK SMILES IDX 39 45 42 46 56 47 75 48 40 49 41 50 55 52 76 53 43 54 27 55
REMARK SMILES IDX 28 56 36 57 29 58 31 59 37 60 30 61 32 62 33 63 34 64 35 65
REMARK SMILES IDX 59 66 60 67 68 68 61 69 63 70 69 71 62 72 64 73 65 74 66 75
REMARK SMILES IDX 67 76 44 77 45 78 53 79 46 80 48 81 54 82 47 83 49 84 50 85
REMARK SMILES IDX 51 86 52 87
REMARK H PARENT 74 40 42 51
REMARK Flexibility Score: inf
ROOT
ATOM      1  C   UNL     1      -3.876   6.062  -1.105  1.00  0.00     0.275 C 
ENDROOT
BRANCH   1   2
ATOM      2  O   UNL     1      -3.150   5.839   0.101  1.00  0.00    -0.458 OA
BRANCH   2   3
ATOM      3  C   UNL     1      -3.771   5.122   1.060  1.00  0.00     0.338 C 
ATOM      4  O   UNL     1      -4.884   4.638   1.005  1.00  0.00    -0.246 OA
BRANCH   3   5
ATOM      5  C   UNL     1      -2.878   5.062   2.231  1.00  0.00     0.062 A 
ATOM      6  C   UNL     1      -0.839   4.268   3.272  1.00  0.00     0.040 A 
ATOM      7  C   UNL     1      -1.634   4.434   2.130  1.00  0.00     0.041 A 
ATOM      8  C   UNL     1      -1.249   4.857   4.489  1.00  0.00    -0.028 A 
ATOM      9  C   UNL     1      -2.473   5.543   4.551  1.00  0.00     0.006 A 
ATOM     10  C   UNL     1      -0.387   4.838   5.724  1.00  0.00     0.046 C 
ATOM     11  C   UNL     1      -3.312   5.596   3.442  1.00  0.00     0.016 A 
BRANCH   6  12
ATOM     12  N   UNL     1       0.272   3.383   3.262  1.00  0.00    -0.371 N 
ATOM     13  C   UNL     1       0.384   1.554   2.301  1.00  0.00     0.028 C 
ATOM     14  C   UNL     1       0.088   2.028   3.732  1.00  0.00     0.122 C 
ATOM     15  C   UNL     1       1.065   2.930   2.144  1.00  0.00     0.122 C 
BRANCH  13  16
ATOM     16  C   UNL     1       1.195   0.268   2.235  1.00  0.00     0.007 C 
BRANCH  16  17
ATOM     17  C   UNL     1       0.724  -0.631   1.091  1.00  0.00    -0.003 C 
ATOM     18  C   UNL     1       1.127  -0.107  -0.277  1.00  0.00     0.004 C 
ENDBRANCH  16  17
ENDBRANCH  13  16
ENDBRANCH   6  12
ENDBRANCH   3   5
ENDBRANCH   2   3
ENDBRANCH   1   2
BRANCH   1  19
ATOM     19  C   UNL     1      -5.231   6.797  -1.016  1.00  0.00     0.275 C 
BRANCH  19  20
ATOM     20  O   UNL     1      -5.714   7.383   0.226  1.00  0.00    -0.458 OA
BRANCH  20  21
ATOM     21  C   UNL     1      -5.157   8.296   1.071  1.00  0.00     0.338 C 
ATOM     22  O   UNL     1      -5.748   8.769   2.008  1.00  0.00    -0.246 OA
BRANCH  21  23
ATOM     23  C   UNL     1      -3.755   8.636   0.809  1.00  0.00     0.060 A 
ATOM     24  C   UNL     1      -2.798   8.473   1.823  1.00  0.00     0.016 A 
ATOM     25  C   UNL     1      -3.403   9.022  -0.476  1.00  0.00     0.016 A 
ATOM     26  C   UNL     1      -1.448   8.600   1.522  1.00  0.00     0.010 A 
ATOM     27  C   UNL     1      -2.075   9.026  -0.809  1.00  0.00     0.010 A 
ATOM     28  C   UNL     1      -1.105   8.886   0.203  1.00  0.00    -0.014 A 
BRANCH  28  29
ATOM     29  C   UNL     1       0.148   9.529  -0.152  1.00  0.00     0.031 A 
ATOM     30  C   UNL     1       1.388   8.809  -0.437  1.00  0.00     0.074 A 
ATOM     31  C   UNL     1      -0.041  10.849  -0.382  1.00  0.00     0.049 A 
ATOM     32  N   UNL     1       2.538   9.383  -0.412  1.00  0.00    -0.248 NA
ATOM     33  C   UNL     1       1.456   7.384  -0.750  1.00  0.00     0.031 C 
ATOM     34  C   UNL     1       0.721  11.793  -1.168  1.00  0.00     0.029 A 
ATOM     35  N   UNL     1      -1.060  11.627   0.192  1.00  0.00    -0.354 N 
ATOM     36  C   UNL     1       3.442   8.516  -0.987  1.00  0.00     0.074 A 
ATOM     37  C   UNL     1       2.749   7.250  -1.078  1.00  0.00     0.031 C 
ATOM     38  C   UNL     1       0.311  13.037  -0.846  1.00  0.00     0.029 A 
ATOM     39  C   UNL     1      -0.580  12.924   0.307  1.00  0.00     0.049 A 
ATOM     40  H   UNL     1      -1.952  11.310   0.463  1.00  0.00     0.167 HD
ATOM     41  C   UNL     1       4.595   9.026  -1.505  1.00  0.00     0.034 A 
ATOM     42  C   UNL     1      -0.428  13.511   1.532  1.00  0.00     0.034 A 
ATOM     43  C   UNL     1       4.633  10.484  -1.312  1.00  0.00     0.049 A 
ATOM     44  C   UNL     1       1.035  13.815   1.790  1.00  0.00     0.074 A 
ATOM     45  C   UNL     1       4.211  11.525  -2.124  1.00  0.00     0.029 A 
ATOM     46  N   UNL     1       4.787  11.021  -0.038  1.00  0.00    -0.354 N 
ATOM     47  N   UNL     1       2.016  13.322   1.086  1.00  0.00    -0.248 NA
ATOM     48  C   UNL     1       1.504  14.659   2.882  1.00  0.00     0.031 C 
ATOM     49  C   UNL     1       4.024  12.672  -1.311  1.00  0.00     0.029 A 
ATOM     50  C   UNL     1       4.357  12.342  -0.009  1.00  0.00     0.049 A 
ATOM     51  H   UNL     1       5.150  10.532   0.736  1.00  0.00     0.167 HD
ATOM     52  C   UNL     1       3.209  13.651   1.659  1.00  0.00     0.074 A 
ATOM     53  C   UNL     1       2.837  14.549   2.741  1.00  0.00     0.031 C 
ATOM     54  C   UNL     1       4.391  13.107   1.235  1.00  0.00     0.034 A 
BRANCH  41  55
ATOM     55  C   UNL     1       5.459   8.302  -2.522  1.00  0.00     0.023 A 
ATOM     56  C   UNL     1       6.058   9.094  -3.530  1.00  0.00     0.012 A 
ATOM     57  C   UNL     1       5.694   6.909  -2.599  1.00  0.00     0.148 A 
ATOM     58  C   UNL     1       6.768   8.549  -4.603  1.00  0.00     0.002 A 
ATOM     59  C   UNL     1       6.375   6.357  -3.695  1.00  0.00     0.091 A 
ATOM     60  F   UNL     1       5.298   6.120  -1.592  1.00  0.00    -0.205 F 
ATOM     61  C   UNL     1       6.905   7.176  -4.700  1.00  0.00     0.022 A 
BRANCH  59  62
ATOM     62  S   UNL     1       6.557   4.582  -3.953  1.00  0.00     0.127 S 
ATOM     63  O   UNL     1       6.103   4.423  -5.337  1.00  0.00    -0.237 OA
ATOM     64  O   UNL     1       7.992   4.380  -3.763  1.00  0.00    -0.237 OA
ATOM     65  O   UNL     1       5.693   3.942  -2.969  1.00  0.00    -0.744 OA
ENDBRANCH  59  62
ENDBRANCH  41  55
BRANCH  42  66
ATOM     66  C   UNL     1      -1.381  13.009   2.591  1.00  0.00     0.023 A 
ATOM     67  C   UNL     1      -2.774  13.055   2.317  1.00  0.00     0.012 A 
ATOM     68  C   UNL     1      -0.945  12.183   3.642  1.00  0.00     0.148 A 
ATOM     69  C   UNL     1      -3.674  12.208   2.976  1.00  0.00     0.002 A 
ATOM     70  C   UNL     1      -1.847  11.330   4.283  1.00  0.00     0.091 A 
ATOM     71  F   UNL     1       0.352  12.178   3.974  1.00  0.00    -0.205 F 
ATOM     72  C   UNL     1      -3.205  11.324   3.940  1.00  0.00     0.022 A 
BRANCH  70  73
ATOM     73  S   UNL     1      -1.231  10.082   5.423  1.00  0.00     0.127 S 
ATOM     74  O   UNL     1      -2.326   9.112   5.480  1.00  0.00    -0.237 OA
ATOM     75  O   UNL     1      -0.034   9.581   4.762  1.00  0.00    -0.237 OA
ATOM     76  O   UNL     1      -1.036  10.857   6.644  1.00  0.00    -0.744 OA
ENDBRANCH  70  73
ENDBRANCH  42  66
BRANCH  54  77
ATOM     77  C   UNL     1       5.706  13.259   1.960  1.00  0.00     0.023 A 
ATOM     78  C   UNL     1       5.775  13.489   3.346  1.00  0.00     0.012 A 
ATOM     79  C   UNL     1       6.929  13.022   1.285  1.00  0.00     0.148 A 
ATOM     80  C   UNL     1       6.997  13.568   4.018  1.00  0.00     0.002 A 
ATOM     81  C   UNL     1       8.130  12.971   1.982  1.00  0.00     0.091 A 
ATOM     82  F   UNL     1       6.942  12.861  -0.046  1.00  0.00    -0.205 F 
ATOM     83  C   UNL     1       8.175  13.285   3.341  1.00  0.00     0.022 A 
BRANCH  81  84
ATOM     84  S   UNL     1       9.613  12.330   1.195  1.00  0.00     0.127 S 
ATOM     85  O   UNL     1      10.218  13.542   0.649  1.00  0.00    -0.237 OA
ATOM     86  O   UNL     1      10.340  11.740   2.321  1.00  0.00    -0.237 OA
ATOM     87  O   UNL     1       9.129  11.356   0.226  1.00  0.00    -0.744 OA
ENDBRANCH  81  84
ENDBRANCH  54  77
ENDBRANCH  28  29
ENDBRANCH  21  23
ENDBRANCH  20  21
ENDBRANCH  19  20
ENDBRANCH   1  19
TORSDOF 17
