REMARK SMILES CCc1ccc(NC(=O)c2cnn3c2N=C(C(=O)OCCOC(=O)c2ccc(-c4c5nc(c(-c6cccc(S(=O)(=O)[O-])c6F)c6ccc([nH]6)c(-c6cccc(S(=O)(=O)[O-])c6F)c6nc(c(-c7cccc(S(=O)(=O)[O-])c7F)c7ccc4[nH]7)C=C6)C=C5)cc2)C[C@H]3c2ccccc2Cl)cc1
REMARK SMILES IDX 20 1 19 2 17 3 18 4 16 5 10 6 11 7 14 8 12 9 13 10 15 11
REMARK SMILES IDX 89 12 88 13 8 14 7 15 9 17 6 18 3 19 4 20 98 21 5 22 97 23
REMARK SMILES IDX 2 24 1 25 90 26 91 27 95 28 92 29 94 30 96 31 93 32 21 33
REMARK SMILES IDX 22 34 23 35 24 36 25 37 26 38 87 39 27 40 86 41 28 42 29 43
REMARK SMILES IDX 30 44 80 45 31 46 85 47 79 48 81 49 32 50 84 51 78 52 77 53
REMARK SMILES IDX 33 55 65 56 45 57 64 58 46 59 49 60 63 61 82 62 47 63 48 64
REMARK SMILES IDX 62 66 83 67 50 68 34 69 35 70 43 71 36 72 38 73 44 74 37 75
REMARK SMILES IDX 39 76 40 77 41 78 42 79 66 80 67 81 75 82 68 83 70 84 76 85
REMARK SMILES IDX 69 86 71 87 72 88 73 89 74 90 51 91 52 92 60 93 53 94 55 95
REMARK SMILES IDX 61 96 54 97 56 98 57 99 58 100 59 101
REMARK H PARENT 7 16 81 54 49 65
REMARK Flexibility Score: inf
ROOT
ATOM      1  C   UNL     1      -3.414   0.093  -5.060  1.00  0.00     0.275 C 
ENDROOT
BRANCH   1   2
ATOM      2  O   UNL     1      -3.142  -1.068  -4.252  1.00  0.00    -0.458 OA
BRANCH   2   3
ATOM      3  C   UNL     1      -2.677  -2.163  -4.894  1.00  0.00     0.352 C 
ATOM      4  O   UNL     1      -2.668  -2.353  -6.099  1.00  0.00    -0.245 OA
BRANCH   3   5
ATOM      5  C   UNL     1      -2.144  -3.191  -3.884  1.00  0.00     0.130 C 
ATOM      6  C   UNL     1       0.206  -5.825  -3.142  1.00  0.00     0.104 A 
ATOM      7  C   UNL     1      -0.198  -6.773  -2.172  1.00  0.00     0.151 A 
ATOM      8  C   UNL     1      -0.918  -5.043  -3.372  1.00  0.00     0.164 A 
ATOM      9  N   UNL     1      -1.401  -6.498  -1.660  1.00  0.00    -0.178 NA
ATOM     10  N   UNL     1      -1.768  -5.398  -2.347  1.00  0.00    -0.239 N 
ATOM     11  N   UNL     1      -1.258  -4.073  -4.267  1.00  0.00    -0.225 NA
ATOM     12  C   UNL     1      -2.808  -4.501  -1.853  1.00  0.00     0.147 C 
ATOM     13  C   UNL     1      -2.678  -3.107  -2.471  1.00  0.00     0.096 C 
BRANCH   6  14
ATOM     14  C   UNL     1       1.536  -5.699  -3.683  1.00  0.00     0.261 C 
ATOM     15  N   UNL     1       2.364  -4.686  -3.226  1.00  0.00    -0.322 N 
ATOM     16  H   UNL     1       3.275  -4.712  -3.600  1.00  0.00     0.170 HD
ATOM     17  O   UNL     1       1.973  -6.517  -4.492  1.00  0.00    -0.269 OA
BRANCH  15  18
ATOM     18  C   UNL     1       2.141  -3.623  -2.321  1.00  0.00     0.041 A 
ATOM     19  C   UNL     1       1.381  -1.163  -1.209  1.00  0.00    -0.048 A 
ATOM     20  C   UNL     1       0.688  -2.325  -0.884  1.00  0.00     0.006 A 
ATOM     21  C   UNL     1       2.602  -1.288  -1.871  1.00  0.00     0.006 A 
ATOM     22  C   UNL     1       1.091  -3.550  -1.413  1.00  0.00     0.026 A 
ATOM     23  C   UNL     1       2.989  -2.522  -2.409  1.00  0.00     0.026 A 
BRANCH  19  24
ATOM     24  C   UNL     1       0.794   0.185  -0.895  1.00  0.00     0.032 C 
ATOM     25  C   UNL     1       1.012   0.590   0.547  1.00  0.00     0.009 C 
ENDBRANCH  19  24
ENDBRANCH  15  18
ENDBRANCH   6  14
BRANCH  12  26
ATOM     26  C   UNL     1      -4.202  -5.051  -2.082  1.00  0.00    -0.004 A 
ATOM     27  C   UNL     1      -4.586  -5.478  -3.368  1.00  0.00     0.007 A 
ATOM     28  C   UNL     1      -5.174  -5.044  -1.065  1.00  0.00     0.046 A 
ATOM     29  C   UNL     1      -5.900  -5.858  -3.635  1.00  0.00     0.000 A 
ATOM     30  C   UNL     1      -6.487  -5.434  -1.336  1.00  0.00     0.021 A 
ATOM     31  Cl  UNL     1      -4.833  -4.516   0.547  1.00  0.00    -0.084 Cl
ATOM     32  C   UNL     1      -6.852  -5.830  -2.621  1.00  0.00     0.002 A 
ENDBRANCH  12  26
ENDBRANCH   3   5
ENDBRANCH   2   3
ENDBRANCH   1   2
BRANCH   1  33
ATOM     33  C   UNL     1      -2.287   1.113  -4.939  1.00  0.00     0.275 C 
BRANCH  33  34
ATOM     34  O   UNL     1      -1.145   0.746  -5.716  1.00  0.00    -0.458 OA
BRANCH  34  35
ATOM     35  C   UNL     1      -0.284  -0.058  -5.057  1.00  0.00     0.338 C 
ATOM     36  O   UNL     1      -0.527  -0.744  -4.076  1.00  0.00    -0.246 OA
BRANCH  35  37
ATOM     37  C   UNL     1       1.083   0.189  -5.501  1.00  0.00     0.060 A 
ATOM     38  C   UNL     1       2.017  -0.790  -5.189  1.00  0.00     0.016 A 
ATOM     39  C   UNL     1       1.467   1.485  -5.868  1.00  0.00     0.016 A 
ATOM     40  C   UNL     1       3.328  -0.401  -5.030  1.00  0.00     0.010 A 
ATOM     41  C   UNL     1       2.793   1.853  -5.744  1.00  0.00     0.010 A 
ATOM     42  C   UNL     1       3.698   0.940  -5.208  1.00  0.00    -0.014 A 
BRANCH  42  43
ATOM     43  C   UNL     1       5.088   1.291  -4.902  1.00  0.00     0.031 A 
ATOM     44  C   UNL     1       6.073   0.345  -5.502  1.00  0.00     0.074 A 
ATOM     45  C   UNL     1       5.440   2.396  -4.210  1.00  0.00     0.049 A 
ATOM     46  N   UNL     1       7.003  -0.333  -4.907  1.00  0.00    -0.248 NA
ATOM     47  C   UNL     1       5.847  -0.049  -6.907  1.00  0.00     0.031 C 
ATOM     48  C   UNL     1       4.558   3.467  -3.734  1.00  0.00     0.029 A 
ATOM     49  N   UNL     1       6.687   2.890  -3.939  1.00  0.00    -0.354 N 
ATOM     50  C   UNL     1       7.623  -1.056  -5.925  1.00  0.00     0.074 A 
ATOM     51  C   UNL     1       6.741  -1.022  -7.058  1.00  0.00     0.031 C 
ATOM     52  C   UNL     1       5.286   4.587  -3.546  1.00  0.00     0.029 A 
ATOM     53  C   UNL     1       6.685   4.276  -3.769  1.00  0.00     0.049 A 
ATOM     54  H   UNL     1       7.495   2.331  -3.871  1.00  0.00     0.167 HD
ATOM     55  C   UNL     1       8.946  -1.362  -5.880  1.00  0.00     0.034 A 
ATOM     56  C   UNL     1       7.732   5.122  -3.935  1.00  0.00     0.034 A 
ATOM     57  C   UNL     1       9.458  -1.360  -4.539  1.00  0.00     0.049 A 
ATOM     58  C   UNL     1       8.973   4.322  -3.871  1.00  0.00     0.074 A 
ATOM     59  C   UNL     1       9.167  -2.047  -3.378  1.00  0.00     0.029 A 
ATOM     60  N   UNL     1      10.230  -0.290  -4.168  1.00  0.00    -0.354 N 
ATOM     61  N   UNL     1       9.412   3.751  -2.787  1.00  0.00    -0.248 NA
ATOM     62  C   UNL     1       9.525   3.816  -5.117  1.00  0.00     0.031 C 
ATOM     63  C   UNL     1       9.399  -1.114  -2.328  1.00  0.00     0.029 A 
ATOM     64  C   UNL     1       9.860   0.072  -2.902  1.00  0.00     0.049 A 
ATOM     65  H   UNL     1      10.927   0.141  -4.714  1.00  0.00     0.167 HD
ATOM     66  C   UNL     1       9.920   2.536  -3.224  1.00  0.00     0.074 A 
ATOM     67  C   UNL     1      10.073   2.685  -4.669  1.00  0.00     0.031 C 
ATOM     68  C   UNL     1       9.887   1.433  -2.420  1.00  0.00     0.034 A 
BRANCH  55  69
ATOM     69  C   UNL     1       9.849  -1.246  -7.088  1.00  0.00     0.023 A 
ATOM     70  C   UNL     1      11.168  -1.730  -6.971  1.00  0.00     0.012 A 
ATOM     71  C   UNL     1       9.563  -0.439  -8.217  1.00  0.00     0.148 A 
ATOM     72  C   UNL     1      12.155  -1.392  -7.904  1.00  0.00     0.002 A 
ATOM     73  C   UNL     1      10.520  -0.185  -9.188  1.00  0.00     0.091 A 
ATOM     74  F   UNL     1       8.405   0.222  -8.298  1.00  0.00    -0.205 F 
ATOM     75  C   UNL     1      11.829  -0.630  -9.021  1.00  0.00     0.022 A 
BRANCH  73  76
ATOM     76  S   UNL     1      10.114   0.750 -10.668  1.00  0.00     0.127 S 
ATOM     77  O   UNL     1      10.724   2.043 -10.373  1.00  0.00    -0.237 OA
ATOM     78  O   UNL     1      10.782  -0.031 -11.709  1.00  0.00    -0.237 OA
ATOM     79  O   UNL     1       8.658   0.729 -10.754  1.00  0.00    -0.744 OA
ENDBRANCH  73  76
ENDBRANCH  55  69
BRANCH  56  80
ATOM     80  C   UNL     1       7.734   6.519  -4.438  1.00  0.00     0.023 A 
ATOM     81  C   UNL     1       8.854   7.342  -4.206  1.00  0.00     0.012 A 
ATOM     82  C   UNL     1       6.766   6.967  -5.366  1.00  0.00     0.148 A 
ATOM     83  C   UNL     1       9.017   8.553  -4.891  1.00  0.00     0.002 A 
ATOM     84  C   UNL     1       6.921   8.181  -6.029  1.00  0.00     0.091 A 
ATOM     85  F   UNL     1       5.742   6.162  -5.676  1.00  0.00    -0.205 F 
ATOM     86  C   UNL     1       8.053   8.972  -5.804  1.00  0.00     0.022 A 
BRANCH  84  87
ATOM     87  S   UNL     1       5.712   8.773  -7.221  1.00  0.00     0.127 S 
ATOM     88  O   UNL     1       5.543  10.169  -6.815  1.00  0.00    -0.237 OA
ATOM     89  O   UNL     1       6.415   8.584  -8.486  1.00  0.00    -0.237 OA
ATOM     90  O   UNL     1       4.525   7.950  -7.025  1.00  0.00    -0.744 OA
ENDBRANCH  84  87
ENDBRANCH  56  80
BRANCH  68  91
ATOM     91  C   UNL     1       9.589   1.628  -0.957  1.00  0.00     0.023 A 
ATOM     92  C   UNL     1       8.363   2.152  -0.495  1.00  0.00     0.012 A 
ATOM     93  C   UNL     1      10.505   1.115  -0.024  1.00  0.00     0.148 A 
ATOM     94  C   UNL     1       8.071   2.184   0.871  1.00  0.00     0.002 A 
ATOM     95  C   UNL     1      10.190   1.104   1.328  1.00  0.00     0.091 A 
ATOM     96  F   UNL     1      11.665   0.618  -0.481  1.00  0.00    -0.205 F 
ATOM     97  C   UNL     1       8.978   1.647   1.782  1.00  0.00     0.022 A 
BRANCH  95  98
ATOM     98  S   UNL     1      11.260   0.311   2.530  1.00  0.00     0.127 S 
ATOM     99  O   UNL     1      11.890   1.458   3.181  1.00  0.00    -0.237 OA
ATOM    100  O   UNL     1      10.307  -0.421   3.366  1.00  0.00    -0.237 OA
ATOM    101  O   UNL     1      12.156  -0.547   1.764  1.00  0.00    -0.744 OA
ENDBRANCH  95  98
ENDBRANCH  68  91
ENDBRANCH  42  43
ENDBRANCH  35  37
ENDBRANCH  34  35
ENDBRANCH  33  34
ENDBRANCH   1  33
TORSDOF 18
