REMARK SMILES COc1ccc2c(c1)[C@@](NC=O)(C(=O)OCCOC(=O)c1ccc(-c3c4nc(c(-c5cccc(S(=O)(=O)[O-])c5F)c5ccc([nH]5)c(-c5cccc(S(=O)(=O)[O-])c5F)c5nc(c(-c6cccc(S(=O)(=O)[O-])c6F)c6ccc3[nH]6)C=C5)C=C4)cc1)CCC2
REMARK SMILES IDX 17 1 16 2 15 3 13 4 14 5 9 6 3 7 4 8 8 9 5 10 7 11 6 12
REMARK SMILES IDX 86 13 84 14 85 15 2 16 1 17 10 18 11 19 12 21 18 22 19 23
REMARK SMILES IDX 20 24 21 25 22 26 83 27 23 28 82 29 24 30 25 31 26 32 76 33
REMARK SMILES IDX 27 34 81 35 75 36 77 37 28 38 80 39 74 40 73 41 29 43 61 44
REMARK SMILES IDX 41 45 60 46 42 47 45 48 59 49 78 50 43 51 44 52 58 54 79 55
REMARK SMILES IDX 46 56 30 57 31 58 39 59 32 60 34 61 40 62 33 63 35 64 36 65
REMARK SMILES IDX 37 66 38 67 62 68 63 69 71 70 64 71 66 72 72 73 65 74 67 75
REMARK SMILES IDX 68 76 69 77 70 78 47 79 48 80 56 81 49 82 51 83 57 84 50 85
REMARK SMILES IDX 52 86 53 87 54 88 55 89
REMARK H PARENT 10 20 77 42 45 53
REMARK Flexibility Score: inf
ROOT
ATOM      1  C   UNL     1       5.763  -0.434   3.878  1.00  0.00     0.275 C 
ENDROOT
BRANCH   1   2
ATOM      2  C   UNL     1       5.970  -1.032   2.487  1.00  0.00     0.274 C 
BRANCH   2   3
ATOM      3  O   UNL     1       4.882  -1.920   2.150  1.00  0.00    -0.460 OA
BRANCH   3   4
ATOM      4  C   UNL     1       5.217  -3.133   1.639  1.00  0.00     0.336 C 
ATOM      5  O   UNL     1       6.384  -3.473   1.439  1.00  0.00    -0.249 OA
BRANCH   4   6
ATOM      6  C   UNL     1       4.012  -4.013   1.153  1.00  0.00     0.164 C 
ATOM      7  C   UNL     1       0.885  -1.788   1.554  1.00  0.00     0.119 A 
ATOM      8  C   UNL     1       0.014  -2.635   2.227  1.00  0.00     0.047 A 
ATOM      9  C   UNL     1       2.170  -2.231   1.229  1.00  0.00     0.053 A 
ATOM     10  C   UNL     1       0.391  -3.946   2.495  1.00  0.00     0.008 A 
ATOM     11  C   UNL     1       2.602  -3.540   1.542  1.00  0.00    -0.004 A 
ATOM     12  C   UNL     1       1.660  -4.421   2.122  1.00  0.00    -0.042 A 
ATOM     13  C   UNL     1       1.958  -5.873   2.401  1.00  0.00     0.036 C 
ATOM     14  C   UNL     1       4.328  -5.433   1.705  1.00  0.00     0.046 C 
ATOM     15  C   UNL     1       3.159  -6.403   1.638  1.00  0.00     0.008 C 
BRANCH   7  16
ATOM     16  O   UNL     1       0.400  -0.536   1.288  1.00  0.00    -0.497 OA
ATOM     17  C   UNL     1       0.846   0.022   0.058  1.00  0.00     0.278 C 
ENDBRANCH   7  16
BRANCH   6  18
ATOM     18  N   UNL     1       4.168  -4.003  -0.318  1.00  0.00    -0.339 N 
ATOM     19  C   UNL     1       3.301  -4.503  -1.236  1.00  0.00     0.338 C 
ATOM     20  H   UNL     1       4.988  -3.588  -0.670  1.00  0.00     0.164 HD
ATOM     21  O   UNL     1       3.552  -4.518  -2.433  1.00  0.00    -0.279 OA
ENDBRANCH   6  18
ENDBRANCH   4   6
ENDBRANCH   3   4
ENDBRANCH   2   3
ENDBRANCH   1   2
BRANCH   1  22
ATOM     22  O   UNL     1       5.683  -1.479   4.862  1.00  0.00    -0.458 OA
BRANCH  22  23
ATOM     23  C   UNL     1       4.419  -1.893   5.124  1.00  0.00     0.338 C 
ATOM     24  O   UNL     1       3.384  -1.405   4.706  1.00  0.00    -0.246 OA
BRANCH  23  25
ATOM     25  C   UNL     1       4.463  -3.170   5.854  1.00  0.00     0.060 A 
ATOM     26  C   UNL     1       3.766  -4.241   5.292  1.00  0.00     0.016 A 
ATOM     27  C   UNL     1       5.119  -3.316   7.076  1.00  0.00     0.016 A 
ATOM     28  C   UNL     1       3.724  -5.471   5.939  1.00  0.00     0.010 A 
ATOM     29  C   UNL     1       5.054  -4.546   7.742  1.00  0.00     0.010 A 
ATOM     30  C   UNL     1       4.348  -5.624   7.180  1.00  0.00    -0.014 A 
BRANCH  30  31
ATOM     31  C   UNL     1       4.176  -6.898   7.912  1.00  0.00     0.031 A 
ATOM     32  C   UNL     1       3.104  -7.012   8.953  1.00  0.00     0.074 A 
ATOM     33  C   UNL     1       4.954  -7.955   7.617  1.00  0.00     0.049 A 
ATOM     34  N   UNL     1       2.795  -8.030   9.711  1.00  0.00    -0.248 NA
ATOM     35  C   UNL     1       2.260  -5.824   9.161  1.00  0.00     0.031 C 
ATOM     36  C   UNL     1       6.003  -7.970   6.599  1.00  0.00     0.029 A 
ATOM     37  N   UNL     1       4.993  -9.213   8.164  1.00  0.00    -0.354 N 
ATOM     38  C   UNL     1       1.742  -7.602  10.508  1.00  0.00     0.074 A 
ATOM     39  C   UNL     1       1.461  -6.231  10.137  1.00  0.00     0.031 C 
ATOM     40  C   UNL     1       6.614  -9.166   6.624  1.00  0.00     0.029 A 
ATOM     41  C   UNL     1       6.016  -9.988   7.674  1.00  0.00     0.049 A 
ATOM     42  H   UNL     1       4.351  -9.528   8.840  1.00  0.00     0.167 HD
ATOM     43  C   UNL     1       1.067  -8.290  11.458  1.00  0.00     0.034 A 
ATOM     44  C   UNL     1       6.444 -11.208   8.055  1.00  0.00     0.034 A 
ATOM     45  C   UNL     1       1.347  -9.653  11.822  1.00  0.00     0.049 A 
ATOM     46  C   UNL     1       5.704 -11.938   9.145  1.00  0.00     0.074 A 
ATOM     47  C   UNL     1       0.700 -10.446  12.754  1.00  0.00     0.029 A 
ATOM     48  N   UNL     1       2.372 -10.419  11.288  1.00  0.00    -0.354 N 
ATOM     49  N   UNL     1       4.640 -11.564   9.813  1.00  0.00    -0.248 NA
ATOM     50  C   UNL     1       6.204 -13.271   9.513  1.00  0.00     0.031 C 
ATOM     51  C   UNL     1       1.352 -11.684  12.801  1.00  0.00     0.029 A 
ATOM     52  C   UNL     1       2.389 -11.670  11.882  1.00  0.00     0.049 A 
ATOM     53  H   UNL     1       2.996 -10.118  10.588  1.00  0.00     0.167 HD
ATOM     54  C   UNL     1       4.329 -12.620  10.663  1.00  0.00     0.074 A 
ATOM     55  C   UNL     1       5.303 -13.661  10.405  1.00  0.00     0.031 C 
ATOM     56  C   UNL     1       3.337 -12.714  11.584  1.00  0.00     0.034 A 
BRANCH  43  57
ATOM     57  C   UNL     1      -0.048  -7.572  12.168  1.00  0.00     0.023 A 
ATOM     58  C   UNL     1      -1.269  -7.344  11.503  1.00  0.00     0.012 A 
ATOM     59  C   UNL     1       0.105  -7.142  13.501  1.00  0.00     0.148 A 
ATOM     60  C   UNL     1      -2.310  -6.671  12.142  1.00  0.00     0.002 A 
ATOM     61  C   UNL     1      -0.950  -6.506  14.143  1.00  0.00     0.091 A 
ATOM     62  F   UNL     1       1.285  -7.341  14.106  1.00  0.00    -0.205 F 
ATOM     63  C   UNL     1      -2.154  -6.261  13.463  1.00  0.00     0.022 A 
BRANCH  61  64
ATOM     64  S   UNL     1      -0.859  -6.000  15.864  1.00  0.00     0.127 S 
ATOM     65  O   UNL     1      -0.664  -4.557  15.738  1.00  0.00    -0.237 OA
ATOM     66  O   UNL     1      -2.173  -6.395  16.374  1.00  0.00    -0.237 OA
ATOM     67  O   UNL     1       0.257  -6.740  16.437  1.00  0.00    -0.744 OA
ENDBRANCH  61  64
ENDBRANCH  43  57
BRANCH  44  68
ATOM     68  C   UNL     1       7.631 -11.813   7.390  1.00  0.00     0.023 A 
ATOM     69  C   UNL     1       7.471 -12.929   6.548  1.00  0.00     0.012 A 
ATOM     70  C   UNL     1       8.915 -11.257   7.560  1.00  0.00     0.148 A 
ATOM     71  C   UNL     1       8.572 -13.494   5.902  1.00  0.00     0.002 A 
ATOM     72  C   UNL     1       9.998 -11.789   6.869  1.00  0.00     0.091 A 
ATOM     73  F   UNL     1       9.049 -10.208   8.384  1.00  0.00    -0.205 F 
ATOM     74  C   UNL     1       9.831 -12.917   6.052  1.00  0.00     0.022 A 
BRANCH  72  75
ATOM     75  S   UNL     1      11.624 -11.027   6.899  1.00  0.00     0.127 S 
ATOM     76  O   UNL     1      12.389 -11.987   7.690  1.00  0.00    -0.237 OA
ATOM     77  O   UNL     1      11.965 -10.988   5.477  1.00  0.00    -0.237 OA
ATOM     78  O   UNL     1      11.432  -9.717   7.506  1.00  0.00    -0.744 OA
ENDBRANCH  72  75
ENDBRANCH  44  68
BRANCH  56  79
ATOM     79  C   UNL     1       3.237 -13.992  12.376  1.00  0.00     0.023 A 
ATOM     80  C   UNL     1       4.178 -14.260  13.390  1.00  0.00     0.012 A 
ATOM     81  C   UNL     1       2.167 -14.886  12.173  1.00  0.00     0.148 A 
ATOM     82  C   UNL     1       4.072 -15.411  14.170  1.00  0.00     0.002 A 
ATOM     83  C   UNL     1       2.042 -16.007  12.985  1.00  0.00     0.091 A 
ATOM     84  F   UNL     1       1.293 -14.625  11.190  1.00  0.00    -0.205 F 
ATOM     85  C   UNL     1       2.998 -16.276  13.977  1.00  0.00     0.022 A 
BRANCH  83  86
ATOM     86  S   UNL     1       0.639 -17.125  12.869  1.00  0.00     0.127 S 
ATOM     87  O   UNL     1       1.234 -18.282  12.205  1.00  0.00    -0.237 OA
ATOM     88  O   UNL     1       0.293 -17.339  14.275  1.00  0.00    -0.237 OA
ATOM     89  O   UNL     1      -0.375 -16.413  12.102  1.00  0.00    -0.744 OA
ENDBRANCH  83  86
ENDBRANCH  56  79
ENDBRANCH  30  31
ENDBRANCH  23  25
ENDBRANCH  22  23
ENDBRANCH   1  22
TORSDOF 16
