REMARK SMILES COC(=O)c1sc(SCC(=O)OCCOC(=O)c2ccc(-c3c4nc(c(-c5cccc(S(=O)(=O)[O-])c5F)c5ccc([nH]5)c(-c5cccc(S(=O)(=O)[O-])c5F)c5nc(c(-c6cccc(S(=O)(=O)[O-])c6F)c6ccc3[nH]6)C=C5)C=C4)cc2)c(NC(=O)c2ccccc2)c1O
REMARK SMILES IDX 13 1 12 2 10 3 11 4 9 5 8 6 7 7 5 8 6 9 91 10 81 11 3 12
REMARK SMILES IDX 4 13 2 14 1 15 92 16 82 18 83 19 84 21 85 22 86 23 90 24
REMARK SMILES IDX 87 25 89 26 88 27 14 28 15 29 16 30 17 31 18 32 19 33 80 34
REMARK SMILES IDX 20 35 79 36 21 37 22 38 23 39 73 40 24 41 78 42 72 43 74 44
REMARK SMILES IDX 25 45 77 46 71 47 70 48 26 50 58 51 38 52 57 53 39 54 42 55
REMARK SMILES IDX 56 56 75 57 40 58 41 59 55 61 76 62 43 63 27 64 28 65 36 66
REMARK SMILES IDX 29 67 31 68 37 69 30 70 32 71 33 72 34 73 35 74 59 75 60 76
REMARK SMILES IDX 68 77 61 78 63 79 69 80 62 81 64 82 65 83 66 84 67 85 44 86
REMARK SMILES IDX 45 87 53 88 46 89 48 90 54 91 47 92 49 93 50 94 51 95 52 96
REMARK H PARENT 92 17 82 20 74 49 42 60
REMARK Flexibility Score: inf
ROOT
ATOM      1  C   UNL     1      -2.292  -2.320   9.274  1.00  0.00     0.274 C 
ENDROOT
BRANCH   1   2
ATOM      2  O   UNL     1      -1.257  -3.270   8.926  1.00  0.00    -0.461 OA
BRANCH   2   3
ATOM      3  C   UNL     1      -1.616  -4.564   8.614  1.00  0.00     0.316 C 
ATOM      4  O   UNL     1      -2.738  -5.033   8.778  1.00  0.00    -0.251 OA
BRANCH   3   5
ATOM      5  C   UNL     1      -0.240  -5.500   8.315  1.00  0.00     0.198 C 
BRANCH   5   6
ATOM      6  S   UNL     1       0.975  -6.106   6.113  1.00  0.00    -0.101 SA
BRANCH   6   7
ATOM      7  C   UNL     1       0.790  -5.038   4.661  1.00  0.00     0.089 A 
ATOM      8  C   UNL     1       1.315  -3.477   2.794  1.00  0.00     0.157 A 
ATOM      9  S   UNL     1       2.204  -4.320   3.995  1.00  0.00    -0.116 S 
ATOM     10  C   UNL     1      -0.009  -3.866   2.814  1.00  0.00     0.166 A 
ATOM     11  C   UNL     1      -0.337  -4.721   3.911  1.00  0.00     0.109 A 
BRANCH   8  12
ATOM     12  C   UNL     1       2.013  -2.497   1.986  1.00  0.00     0.352 C 
ATOM     13  O   UNL     1       3.208  -2.230   2.041  1.00  0.00    -0.245 OA
BRANCH  12  14
ATOM     14  O   UNL     1       1.117  -1.837   1.198  1.00  0.00    -0.465 OA
ATOM     15  C   UNL     1       1.640  -0.703   0.498  1.00  0.00     0.282 C 
ENDBRANCH  12  14
ENDBRANCH   8  12
BRANCH  10  16
ATOM     16  O   UNL     1      -0.951  -3.414   1.956  1.00  0.00    -0.504 OA
ATOM     17  H   UNL     1      -0.707  -2.854   1.246  1.00  0.00     0.293 HD
ENDBRANCH  10  16
BRANCH  11  18
ATOM     18  N   UNL     1      -1.658  -5.091   4.158  1.00  0.00    -0.317 N 
ATOM     19  C   UNL     1      -2.159  -5.608   5.326  1.00  0.00     0.255 C 
ATOM     20  H   UNL     1      -2.297  -4.969   3.418  1.00  0.00     0.170 HD
ATOM     21  O   UNL     1      -3.275  -6.104   5.418  1.00  0.00    -0.269 OA
BRANCH  19  22
ATOM     22  C   UNL     1      -1.245  -5.589   6.480  1.00  0.00     0.040 A 
ATOM     23  C   UNL     1      -0.818  -7.193   7.165  1.00  0.00     0.014 A 
ATOM     24  C   UNL     1      -0.147  -4.149   6.764  1.00  0.00     0.014 A 
ATOM     25  C   UNL     1       0.730  -7.394   8.070  1.00  0.00     0.001 A 
ATOM     26  C   UNL     1       1.401  -4.367   7.658  1.00  0.00     0.001 A 
ATOM     27  C   UNL     1       1.831  -5.996   8.308  1.00  0.00     0.000 A 
ENDBRANCH  19  22
ENDBRANCH  11  18
ENDBRANCH   6   7
ENDBRANCH   5   6
ENDBRANCH   3   5
ENDBRANCH   2   3
ENDBRANCH   1   2
BRANCH   1  28
ATOM     28  C   UNL     1      -2.147  -1.053   8.413  1.00  0.00     0.275 C 
BRANCH  28  29
ATOM     29  O   UNL     1      -3.063  -0.862   7.301  1.00  0.00    -0.458 OA
BRANCH  29  30
ATOM     30  C   UNL     1      -3.297  -1.901   6.470  1.00  0.00     0.338 C 
ATOM     31  O   UNL     1      -2.992  -3.057   6.699  1.00  0.00    -0.246 OA
BRANCH  30  32
ATOM     32  C   UNL     1      -3.789  -1.490   5.132  1.00  0.00     0.060 A 
ATOM     33  C   UNL     1      -3.949  -2.501   4.175  1.00  0.00     0.016 A 
ATOM     34  C   UNL     1      -3.947  -0.158   4.750  1.00  0.00     0.016 A 
ATOM     35  C   UNL     1      -4.077  -2.182   2.827  1.00  0.00     0.010 A 
ATOM     36  C   UNL     1      -4.150   0.155   3.400  1.00  0.00     0.010 A 
ATOM     37  C   UNL     1      -4.120  -0.848   2.419  1.00  0.00    -0.014 A 
BRANCH  37  38
ATOM     38  C   UNL     1      -4.096  -0.587   0.968  1.00  0.00     0.031 A 
ATOM     39  C   UNL     1      -5.079  -1.280   0.085  1.00  0.00     0.074 A 
ATOM     40  C   UNL     1      -3.315   0.332   0.361  1.00  0.00     0.049 A 
ATOM     41  N   UNL     1      -4.846  -1.901  -1.033  1.00  0.00    -0.248 NA
ATOM     42  C   UNL     1      -6.491  -1.250   0.484  1.00  0.00     0.031 C 
ATOM     43  C   UNL     1      -2.477   1.338   1.009  1.00  0.00     0.029 A 
ATOM     44  N   UNL     1      -3.254   0.665  -0.973  1.00  0.00    -0.354 N 
ATOM     45  C   UNL     1      -6.097  -2.207  -1.556  1.00  0.00     0.074 A 
ATOM     46  C   UNL     1      -7.072  -1.849  -0.553  1.00  0.00     0.031 C 
ATOM     47  C   UNL     1      -2.243   2.330   0.130  1.00  0.00     0.029 A 
ATOM     48  C   UNL     1      -2.789   1.952  -1.164  1.00  0.00     0.049 A 
ATOM     49  H   UNL     1      -3.512   0.059  -1.704  1.00  0.00     0.167 HD
ATOM     50  C   UNL     1      -6.319  -2.622  -2.828  1.00  0.00     0.034 A 
ATOM     51  C   UNL     1      -2.895   2.725  -2.263  1.00  0.00     0.034 A 
ATOM     52  C   UNL     1      -5.152  -2.963  -3.583  1.00  0.00     0.049 A 
ATOM     53  C   UNL     1      -3.125   1.906  -3.469  1.00  0.00     0.074 A 
ATOM     54  C   UNL     1      -4.214  -3.972  -3.572  1.00  0.00     0.029 A 
ATOM     55  N   UNL     1      -4.742  -2.053  -4.524  1.00  0.00    -0.354 N 
ATOM     56  N   UNL     1      -2.217   1.179  -4.059  1.00  0.00    -0.248 NA
ATOM     57  C   UNL     1      -4.472   1.789  -4.013  1.00  0.00     0.031 C 
ATOM     58  C   UNL     1      -3.099  -3.486  -4.312  1.00  0.00     0.029 A 
ATOM     59  C   UNL     1      -3.382  -2.172  -4.684  1.00  0.00     0.049 A 
ATOM     60  H   UNL     1      -5.325  -1.421  -5.004  1.00  0.00     0.167 HD
ATOM     61  C   UNL     1      -2.939   0.244  -4.783  1.00  0.00     0.074 A 
ATOM     62  C   UNL     1      -4.281   0.796  -4.883  1.00  0.00     0.031 C 
ATOM     63  C   UNL     1      -2.496  -1.042  -4.912  1.00  0.00     0.034 A 
BRANCH  50  64
ATOM     64  C   UNL     1      -7.666  -2.547  -3.475  1.00  0.00     0.023 A 
ATOM     65  C   UNL     1      -8.039  -3.563  -4.374  1.00  0.00     0.012 A 
ATOM     66  C   UNL     1      -8.522  -1.431  -3.331  1.00  0.00     0.148 A 
ATOM     67  C   UNL     1      -9.248  -3.483  -5.075  1.00  0.00     0.002 A 
ATOM     68  C   UNL     1      -9.748  -1.388  -3.992  1.00  0.00     0.091 A 
ATOM     69  F   UNL     1      -8.127  -0.383  -2.589  1.00  0.00    -0.205 F 
ATOM     70  C   UNL     1     -10.114  -2.404  -4.877  1.00  0.00     0.022 A 
BRANCH  68  71
ATOM     71  S   UNL     1     -10.868  -0.025  -3.651  1.00  0.00     0.127 S 
ATOM     72  O   UNL     1     -10.143   1.118  -4.194  1.00  0.00    -0.237 OA
ATOM     73  O   UNL     1     -12.082  -0.380  -4.388  1.00  0.00    -0.237 OA
ATOM     74  O   UNL     1     -11.010  -0.093  -2.200  1.00  0.00    -0.744 OA
ENDBRANCH  68  71
ENDBRANCH  50  64
BRANCH  51  75
ATOM     75  C   UNL     1      -2.833   4.198  -2.320  1.00  0.00     0.023 A 
ATOM     76  C   UNL     1      -2.322   4.831  -3.464  1.00  0.00     0.012 A 
ATOM     77  C   UNL     1      -3.403   5.000  -1.307  1.00  0.00     0.148 A 
ATOM     78  C   UNL     1      -2.356   6.224  -3.583  1.00  0.00     0.002 A 
ATOM     79  C   UNL     1      -3.398   6.386  -1.415  1.00  0.00     0.091 A 
ATOM     80  F   UNL     1      -4.001   4.416  -0.255  1.00  0.00    -0.205 F 
ATOM     81  C   UNL     1      -2.884   7.006  -2.556  1.00  0.00     0.022 A 
BRANCH  79  82
ATOM     82  S   UNL     1      -4.001   7.368  -0.040  1.00  0.00     0.127 S 
ATOM     83  O   UNL     1      -3.538   8.719  -0.361  1.00  0.00    -0.237 OA
ATOM     84  O   UNL     1      -5.445   7.184  -0.121  1.00  0.00    -0.237 OA
ATOM     85  O   UNL     1      -3.330   6.772   1.113  1.00  0.00    -0.744 OA
ENDBRANCH  79  82
ENDBRANCH  51  75
BRANCH  63  86
ATOM     86  C   UNL     1      -1.011  -1.313  -4.818  1.00  0.00     0.023 A 
ATOM     87  C   UNL     1      -0.284  -1.012  -3.648  1.00  0.00     0.012 A 
ATOM     88  C   UNL     1      -0.358  -2.018  -5.851  1.00  0.00     0.148 A 
ATOM     89  C   UNL     1       1.064  -1.356  -3.529  1.00  0.00     0.002 A 
ATOM     90  C   UNL     1       0.976  -2.401  -5.706  1.00  0.00     0.091 A 
ATOM     91  F   UNL     1      -1.050  -2.323  -6.960  1.00  0.00    -0.205 F 
ATOM     92  C   UNL     1       1.693  -2.059  -4.552  1.00  0.00     0.022 A 
BRANCH  90  93
ATOM     93  S   UNL     1       1.777  -3.431  -6.943  1.00  0.00     0.127 S 
ATOM     94  O   UNL     1       2.236  -2.450  -7.923  1.00  0.00    -0.237 OA
ATOM     95  O   UNL     1       2.850  -4.084  -6.190  1.00  0.00    -0.237 OA
ATOM     96  O   UNL     1       0.730  -4.346  -7.387  1.00  0.00    -0.744 OA
ENDBRANCH  90  93
ENDBRANCH  63  86
ENDBRANCH  37  38
ENDBRANCH  30  32
ENDBRANCH  29  30
ENDBRANCH  28  29
ENDBRANCH   1  28
TORSDOF 21
