REMARK SMILES O=C(OCCOC(=O)[C@H]1[C@H]2CC[C@H](C2)[C@@H]1C(=O)N1CCN(c2cccc(Cl)c2)CC1)c1ccc(-c2c3nc(c(-c4cccc(S(=O)(=O)[O-])c4F)c4ccc([nH]4)c(-c4cccc(S(=O)(=O)[O-])c4F)c4nc(c(-c5cccc(S(=O)(=O)[O-])c5F)c5ccc2[nH]5)C=C4)C=C3)cc1
REMARK SMILES IDX 4 1 3 2 2 3 1 4 31 5 32 6 93 7 33 8 92 9 34 10 35 11 36 12
REMARK SMILES IDX 86 13 37 14 91 15 85 16 87 17 38 18 90 19 84 20 83 21 39 23
REMARK SMILES IDX 71 24 51 25 70 26 52 27 55 28 69 29 88 30 53 31 54 32 68 34
REMARK SMILES IDX 89 35 56 36 40 37 41 38 49 39 42 40 44 41 50 42 43 43 45 44
REMARK SMILES IDX 46 45 47 46 48 47 72 48 73 49 81 50 74 51 76 52 82 53 75 54
REMARK SMILES IDX 77 55 78 56 79 57 80 58 57 59 58 60 66 61 59 62 61 63 67 64
REMARK SMILES IDX 60 65 62 66 63 67 64 68 65 69 5 70 6 71 7 72 8 73 9 74 10 75
REMARK SMILES IDX 15 76 11 77 14 78 13 79 12 80 16 81 17 82 18 83 19 84 30 85
REMARK SMILES IDX 20 86 29 87 21 88 22 89 23 90 28 91 24 92 26 93 25 94 27 95
REMARK H PARENT 87 22 55 33
REMARK Flexibility Score: inf
ROOT
ATOM      1  C   UNL     1       0.972  -2.575   5.401  1.00  0.00     0.275 C 
ENDROOT
BRANCH   1   2
ATOM      2  O   UNL     1       0.196  -3.404   4.531  1.00  0.00    -0.458 OA
BRANCH   2   3
ATOM      3  C   UNL     1      -0.419  -3.059   3.376  1.00  0.00     0.338 C 
ATOM      4  O   UNL     1      -1.043  -3.931   2.773  1.00  0.00    -0.246 OA
BRANCH   3   5
ATOM      5  C   UNL     1      -0.265  -1.710   2.729  1.00  0.00     0.060 A 
ATOM      6  C   UNL     1       0.228  -0.533   3.311  1.00  0.00     0.016 A 
ATOM      7  C   UNL     1      -0.546  -1.667   1.365  1.00  0.00     0.016 A 
ATOM      8  C   UNL     1       0.610   0.576   2.547  1.00  0.00     0.010 A 
ATOM      9  C   UNL     1      -0.149  -0.570   0.599  1.00  0.00     0.010 A 
ATOM     10  C   UNL     1       0.463   0.560   1.171  1.00  0.00    -0.014 A 
BRANCH  10  11
ATOM     11  C   UNL     1       0.774   1.748   0.331  1.00  0.00     0.031 A 
ATOM     12  C   UNL     1      -0.344   2.282  -0.519  1.00  0.00     0.074 A 
ATOM     13  C   UNL     1       1.993   2.333   0.263  1.00  0.00     0.049 A 
ATOM     14  N   UNL     1      -0.300   3.179  -1.464  1.00  0.00    -0.248 NA
ATOM     15  C   UNL     1      -1.695   1.744  -0.258  1.00  0.00     0.031 C 
ATOM     16  C   UNL     1       3.170   2.028   1.084  1.00  0.00     0.029 A 
ATOM     17  N   UNL     1       2.481   3.247  -0.651  1.00  0.00    -0.354 N 
ATOM     18  C   UNL     1      -1.616   3.331  -1.868  1.00  0.00     0.074 A 
ATOM     19  C   UNL     1      -2.399   2.309  -1.220  1.00  0.00     0.031 C 
ATOM     20  C   UNL     1       4.260   2.586   0.521  1.00  0.00     0.029 A 
ATOM     21  C   UNL     1       3.863   3.280  -0.695  1.00  0.00     0.049 A 
ATOM     22  H   UNL     1       1.905   3.816  -1.212  1.00  0.00     0.167 HD
ATOM     23  C   UNL     1      -2.159   4.331  -2.593  1.00  0.00     0.034 A 
ATOM     24  C   UNL     1       4.693   3.753  -1.649  1.00  0.00     0.034 A 
ATOM     25  C   UNL     1      -1.391   5.369  -3.202  1.00  0.00     0.049 A 
ATOM     26  C   UNL     1       4.110   4.694  -2.668  1.00  0.00     0.074 A 
ATOM     27  C   UNL     1      -1.831   6.492  -3.870  1.00  0.00     0.029 A 
ATOM     28  N   UNL     1      -0.008   5.381  -3.244  1.00  0.00    -0.354 N 
ATOM     29  N   UNL     1       2.853   4.969  -2.905  1.00  0.00    -0.248 NA
ATOM     30  C   UNL     1       5.061   5.511  -3.436  1.00  0.00     0.031 C 
ATOM     31  C   UNL     1      -0.708   7.159  -4.367  1.00  0.00     0.029 A 
ATOM     32  C   UNL     1       0.428   6.479  -3.955  1.00  0.00     0.049 A 
ATOM     33  H   UNL     1       0.577   4.707  -2.828  1.00  0.00     0.167 HD
ATOM     34  C   UNL     1       2.861   6.070  -3.751  1.00  0.00     0.074 A 
ATOM     35  C   UNL     1       4.248   6.371  -4.034  1.00  0.00     0.031 C 
ATOM     36  C   UNL     1       1.810   6.798  -4.198  1.00  0.00     0.034 A 
BRANCH  23  37
ATOM     37  C   UNL     1      -3.655   4.363  -2.666  1.00  0.00     0.023 A 
ATOM     38  C   UNL     1      -4.406   4.617  -1.496  1.00  0.00     0.012 A 
ATOM     39  C   UNL     1      -4.314   4.101  -3.875  1.00  0.00     0.148 A 
ATOM     40  C   UNL     1      -5.795   4.546  -1.517  1.00  0.00     0.002 A 
ATOM     41  C   UNL     1      -5.700   4.089  -3.901  1.00  0.00     0.091 A 
ATOM     42  F   UNL     1      -3.575   3.839  -4.961  1.00  0.00    -0.205 F 
ATOM     43  C   UNL     1      -6.442   4.289  -2.722  1.00  0.00     0.022 A 
BRANCH  41  44
ATOM     44  S   UNL     1      -6.629   3.844  -5.413  1.00  0.00     0.127 S 
ATOM     45  O   UNL     1      -7.331   2.594  -5.129  1.00  0.00    -0.237 OA
ATOM     46  O   UNL     1      -7.480   5.033  -5.437  1.00  0.00    -0.237 OA
ATOM     47  O   UNL     1      -5.646   3.773  -6.485  1.00  0.00    -0.744 OA
ENDBRANCH  41  44
ENDBRANCH  23  37
BRANCH  24  48
ATOM     48  C   UNL     1       6.168   3.466  -1.664  1.00  0.00     0.023 A 
ATOM     49  C   UNL     1       7.010   4.409  -1.095  1.00  0.00     0.012 A 
ATOM     50  C   UNL     1       6.696   2.297  -2.352  1.00  0.00     0.148 A 
ATOM     51  C   UNL     1       8.364   4.275  -1.276  1.00  0.00     0.002 A 
ATOM     52  C   UNL     1       8.222   1.835  -2.482  1.00  0.00     0.091 A 
ATOM     53  F   UNL     1       5.652   1.654  -2.932  1.00  0.00    -0.205 F 
ATOM     54  C   UNL     1       8.918   3.133  -1.915  1.00  0.00     0.022 A 
BRANCH  52  55
ATOM     55  S   UNL     1       9.277  -0.355  -3.278  1.00  0.00     0.127 S 
ATOM     56  O   UNL     1      10.294  -0.169  -4.365  1.00  0.00    -0.237 OA
ATOM     57  O   UNL     1       9.984  -1.081  -2.177  1.00  0.00    -0.237 OA
ATOM     58  O   UNL     1       8.316  -1.351  -3.844  1.00  0.00    -0.744 OA
ENDBRANCH  52  55
ENDBRANCH  24  48
BRANCH  36  59
ATOM     59  C   UNL     1       2.097   8.064  -4.949  1.00  0.00     0.023 A 
ATOM     60  C   UNL     1       2.598   8.027  -6.262  1.00  0.00     0.012 A 
ATOM     61  C   UNL     1       1.766   9.303  -4.361  1.00  0.00     0.148 A 
ATOM     62  C   UNL     1       2.788   9.211  -6.973  1.00  0.00     0.002 A 
ATOM     63  C   UNL     1       1.894  10.469  -5.098  1.00  0.00     0.091 A 
ATOM     64  F   UNL     1       1.316   9.311  -3.098  1.00  0.00    -0.205 F 
ATOM     65  C   UNL     1       2.419  10.428  -6.399  1.00  0.00     0.022 A 
BRANCH  63  66
ATOM     66  S   UNL     1       1.332  12.058  -4.482  1.00  0.00     0.127 S 
ATOM     67  O   UNL     1       2.595  12.776  -4.318  1.00  0.00    -0.237 OA
ATOM     68  O   UNL     1       0.496  12.534  -5.583  1.00  0.00    -0.237 OA
ATOM     69  O   UNL     1       0.610  11.783  -3.247  1.00  0.00    -0.744 OA
ENDBRANCH  63  66
ENDBRANCH  36  59
ENDBRANCH  10  11
ENDBRANCH   3   5
ENDBRANCH   2   3
ENDBRANCH   1   2
BRANCH   1  70
ATOM     70  C   UNL     1       2.386  -2.223   4.895  1.00  0.00     0.274 C 
BRANCH  70  71
ATOM     71  O   UNL     1       2.542  -2.124   3.447  1.00  0.00    -0.462 OA
BRANCH  71  72
ATOM     72  C   UNL     1       2.892  -3.300   2.855  1.00  0.00     0.310 C 
ATOM     73  O   UNL     1       3.045  -4.307   3.543  1.00  0.00    -0.252 OA
BRANCH  72  74
ATOM     74  C   UNL     1       3.275  -3.229   1.347  1.00  0.00     0.115 C 
ATOM     75  C   UNL     1       3.916  -4.633   1.061  1.00  0.00     0.004 C 
ATOM     76  C   UNL     1       2.266  -3.145   0.149  1.00  0.00     0.096 C 
ATOM     77  C   UNL     1       2.877  -5.789   1.190  1.00  0.00     0.005 C 
ATOM     78  C   UNL     1       4.094  -4.604  -0.439  1.00  0.00     0.009 C 
ATOM     79  C   UNL     1       2.602  -4.408  -0.697  1.00  0.00     0.003 C 
ATOM     80  C   UNL     1       1.971  -5.612  -0.023  1.00  0.00     0.005 C 
BRANCH  76  81
ATOM     81  C   UNL     1       2.295  -2.063  -0.954  1.00  0.00     0.226 C 
ATOM     82  O   UNL     1       1.294  -1.824  -1.630  1.00  0.00    -0.275 OA
ATOM     83  N   UNL     1       3.534  -1.639  -1.351  1.00  0.00    -0.339 N 
ATOM     84  C   UNL     1       3.954  -0.337  -0.903  1.00  0.00     0.141 C 
ATOM     85  C   UNL     1       4.101  -1.967  -2.668  1.00  0.00     0.141 C 
ATOM     86  C   UNL     1       5.455  -0.366  -0.640  1.00  0.00     0.138 C 
ATOM     87  C   UNL     1       5.648  -1.881  -2.652  1.00  0.00     0.138 C 
ATOM     88  N   UNL     1       6.122  -0.733  -1.871  1.00  0.00    -0.368 N 
BRANCH  88  89
ATOM     89  C   UNL     1       7.241  -0.025  -2.264  1.00  0.00     0.038 A 
ATOM     90  C   UNL     1       7.347   0.645  -3.978  1.00  0.00     0.026 A 
ATOM     91  C   UNL     1       8.560   0.295  -1.095  1.00  0.00     0.046 A 
ATOM     92  C   UNL     1       8.779   1.590  -4.486  1.00  0.00     0.004 A 
ATOM     93  C   UNL     1      10.063   1.115  -1.655  1.00  0.00     0.043 A 
ATOM     94  C   UNL     1      10.171   1.774  -3.346  1.00  0.00     0.020 A 
ATOM     95  Cl  UNL     1      11.405   1.294  -0.571  1.00  0.00    -0.084 Cl
ENDBRANCH  88  89
ENDBRANCH  76  81
ENDBRANCH  72  74
ENDBRANCH  71  72
ENDBRANCH  70  71
ENDBRANCH   1  70
TORSDOF 16
