REMARK SMILES Cc1ccc(S(=O)(=O)N(c2ccccc2)[C@H](C)C(=O)OCCOC(=O)c2ccc(-c3c4nc(c(-c5cccc(S(=O)(=O)[O-])c5F)c5ccc([nH]5)c(-c5cccc(S(=O)(=O)[O-])c5F)c5nc(c(-c6cccc(S(=O)(=O)[O-])c6F)c6ccc3[nH]6)C=C5)C=C4)cc2)cc1
REMARK SMILES IDX 21 1 20 2 18 3 19 4 16 5 17 6 9 7 6 8 7 9 8 10 5 11 1 12
REMARK SMILES IDX 2 13 3 14 90 15 4 16 89 17 10 18 11 19 15 20 12 21 14 22
REMARK SMILES IDX 13 23 22 24 23 25 24 26 25 27 26 28 27 29 88 30 28 31 87 32
REMARK SMILES IDX 29 33 30 34 31 35 81 36 32 37 86 38 80 39 82 40 33 41 85 42
REMARK SMILES IDX 79 43 78 44 34 46 66 47 46 48 65 49 47 50 50 51 64 52 83 53
REMARK SMILES IDX 48 54 49 55 63 57 84 58 51 59 35 60 36 61 44 62 37 63 39 64
REMARK SMILES IDX 45 65 38 66 40 67 41 68 42 69 43 70 67 71 68 72 76 73 69 74
REMARK SMILES IDX 71 75 77 76 70 77 72 78 73 79 74 80 75 81 52 82 53 83 61 84
REMARK SMILES IDX 54 85 56 86 62 87 55 88 57 89 58 90 59 91 60 92
REMARK H PARENT 82 45 50 56
REMARK Flexibility Score: inf
ROOT
ATOM      1  C   UNL     1      -6.968  -0.026   4.103  1.00  0.00     0.274 C 
ENDROOT
BRANCH   1   2
ATOM      2  O   UNL     1      -6.893  -0.126   2.679  1.00  0.00    -0.461 OA
BRANCH   2   3
ATOM      3  C   UNL     1      -6.642   1.087   1.897  1.00  0.00     0.329 C 
ATOM      4  O   UNL     1      -7.207   1.984   2.589  1.00  0.00    -0.250 OA
BRANCH   3   5
ATOM      5  C   UNL     1      -5.410   1.141   0.082  1.00  0.00     0.206 C 
ATOM      6  C   UNL     1      -3.691   1.163  -0.131  1.00  0.00     0.045 C 
BRANCH   5   7
ATOM      7  N   UNL     1      -5.720   0.312  -1.552  1.00  0.00    -0.252 N 
BRANCH   7   8
ATOM      8  S   UNL     1      -6.080   1.586  -2.866  1.00  0.00     0.265 S 
ATOM      9  O   UNL     1      -4.793   2.029  -3.380  1.00  0.00    -0.201 OA
ATOM     10  O   UNL     1      -6.989   2.573  -2.333  1.00  0.00    -0.201 OA
BRANCH   8  11
ATOM     11  C   UNL     1      -6.975   0.884  -4.273  1.00  0.00     0.088 A 
ATOM     12  C   UNL     1      -8.697  -0.734  -7.918  1.00  0.00     0.044 C 
ATOM     13  C   UNL     1      -8.129  -0.133  -6.665  1.00  0.00    -0.051 A 
ATOM     14  C   UNL     1      -8.186   1.234  -6.378  1.00  0.00     0.005 A 
ATOM     15  C   UNL     1      -7.532  -0.969  -5.731  1.00  0.00     0.005 A 
ATOM     16  C   UNL     1      -7.599   1.744  -5.197  1.00  0.00     0.022 A 
ATOM     17  C   UNL     1      -7.022  -0.472  -4.530  1.00  0.00     0.022 A 
ENDBRANCH   8  11
ENDBRANCH   7   8
BRANCH   7  18
ATOM     18  C   UNL     1      -4.768  -0.807  -1.982  1.00  0.00     0.053 A 
ATOM     19  C   UNL     1      -4.530  -1.905  -1.140  1.00  0.00     0.027 A 
ATOM     20  C   UNL     1      -4.360  -1.007  -3.304  1.00  0.00     0.027 A 
ATOM     21  C   UNL     1      -4.267  -3.196  -1.618  1.00  0.00     0.002 A 
ATOM     22  C   UNL     1      -4.079  -2.294  -3.805  1.00  0.00     0.002 A 
ATOM     23  C   UNL     1      -4.110  -3.400  -2.972  1.00  0.00     0.000 A 
ENDBRANCH   7  18
ENDBRANCH   5   7
ENDBRANCH   3   5
ENDBRANCH   2   3
ENDBRANCH   1   2
BRANCH   1  24
ATOM     24  C   UNL     1      -5.582   0.285   4.686  1.00  0.00     0.275 C 
BRANCH  24  25
ATOM     25  O   UNL     1      -5.053   1.629   4.471  1.00  0.00    -0.458 OA
BRANCH  25  26
ATOM     26  C   UNL     1      -4.214   2.012   3.460  1.00  0.00     0.338 C 
ATOM     27  O   UNL     1      -3.233   2.719   3.631  1.00  0.00    -0.246 OA
BRANCH  26  28
ATOM     28  C   UNL     1      -4.686   1.694   2.091  1.00  0.00     0.060 A 
ATOM     29  C   UNL     1      -5.754   2.891   1.284  1.00  0.00     0.016 A 
ATOM     30  C   UNL     1      -4.870  -0.045   1.748  1.00  0.00     0.016 A 
ATOM     31  C   UNL     1      -7.193   2.303   0.325  1.00  0.00     0.010 A 
ATOM     32  C   UNL     1      -6.262  -0.615   0.762  1.00  0.00     0.010 A 
ATOM     33  C   UNL     1      -7.476   0.545   0.112  1.00  0.00    -0.014 A 
BRANCH  33  34
ATOM     34  C   UNL     1      -8.727  -0.159  -0.180  1.00  0.00     0.031 A 
ATOM     35  C   UNL     1      -8.764  -1.150  -1.285  1.00  0.00     0.074 A 
ATOM     36  C   UNL     1      -9.637  -0.293   0.808  1.00  0.00     0.049 A 
ATOM     37  N   UNL     1      -9.628  -1.205  -2.247  1.00  0.00    -0.248 NA
ATOM     38  C   UNL     1      -7.775  -2.219  -1.351  1.00  0.00     0.031 C 
ATOM     39  C   UNL     1     -10.604  -1.381   0.913  1.00  0.00     0.029 A 
ATOM     40  N   UNL     1      -9.931   0.515   1.907  1.00  0.00    -0.354 N 
ATOM     41  C   UNL     1      -9.356  -2.388  -2.930  1.00  0.00     0.074 A 
ATOM     42  C   UNL     1      -8.080  -2.854  -2.471  1.00  0.00     0.031 C 
ATOM     43  C   UNL     1     -11.520  -1.065   1.842  1.00  0.00     0.029 A 
ATOM     44  C   UNL     1     -11.282   0.310   2.236  1.00  0.00     0.049 A 
ATOM     45  H   UNL     1      -9.305   1.119   2.368  1.00  0.00     0.167 HD
ATOM     46  C   UNL     1     -10.309  -3.243  -3.390  1.00  0.00     0.034 A 
ATOM     47  C   UNL     1     -12.226   1.299   2.228  1.00  0.00     0.034 A 
ATOM     48  C   UNL     1     -11.554  -2.992  -2.675  1.00  0.00     0.049 A 
ATOM     49  C   UNL     1     -13.209   1.108   1.060  1.00  0.00     0.074 A 
ATOM     50  C   UNL     1     -12.121  -3.601  -1.566  1.00  0.00     0.029 A 
ATOM     51  N   UNL     1     -12.207  -1.784  -2.830  1.00  0.00    -0.354 N 
ATOM     52  N   UNL     1     -13.254   0.073   0.260  1.00  0.00    -0.248 NA
ATOM     53  C   UNL     1     -14.158   2.138   0.653  1.00  0.00     0.031 C 
ATOM     54  C   UNL     1     -13.139  -2.745  -1.065  1.00  0.00     0.029 A 
ATOM     55  C   UNL     1     -13.214  -1.635  -1.887  1.00  0.00     0.049 A 
ATOM     56  H   UNL     1     -11.986  -1.115  -3.518  1.00  0.00     0.167 HD
ATOM     57  C   UNL     1     -14.027   0.363  -0.849  1.00  0.00     0.074 A 
ATOM     58  C   UNL     1     -14.594   1.661  -0.522  1.00  0.00     0.031 C 
ATOM     59  C   UNL     1     -14.072  -0.456  -1.957  1.00  0.00     0.034 A 
BRANCH  46  60
ATOM     60  C   UNL     1      -9.965  -4.558  -4.093  1.00  0.00     0.023 A 
ATOM     61  C   UNL     1     -10.923  -5.587  -4.088  1.00  0.00     0.012 A 
ATOM     62  C   UNL     1      -8.759  -4.835  -4.801  1.00  0.00     0.148 A 
ATOM     63  C   UNL     1     -10.679  -6.837  -4.671  1.00  0.00     0.002 A 
ATOM     64  C   UNL     1      -8.496  -6.095  -5.348  1.00  0.00     0.091 A 
ATOM     65  F   UNL     1      -7.847  -3.870  -4.950  1.00  0.00    -0.205 F 
ATOM     66  C   UNL     1      -9.459  -7.101  -5.281  1.00  0.00     0.022 A 
BRANCH  64  67
ATOM     67  S   UNL     1      -6.912  -6.532  -6.099  1.00  0.00     0.127 S 
ATOM     68  O   UNL     1      -6.551  -7.748  -5.368  1.00  0.00    -0.237 OA
ATOM     69  O   UNL     1      -7.274  -6.750  -7.498  1.00  0.00    -0.237 OA
ATOM     70  O   UNL     1      -6.016  -5.408  -5.852  1.00  0.00    -0.744 OA
ENDBRANCH  64  67
ENDBRANCH  46  60
BRANCH  47  71
ATOM     71  C   UNL     1     -11.679   2.619   2.689  1.00  0.00     0.023 A 
ATOM     72  C   UNL     1     -11.055   2.656   3.962  1.00  0.00     0.012 A 
ATOM     73  C   UNL     1     -11.345   3.604   1.757  1.00  0.00     0.148 A 
ATOM     74  C   UNL     1      -9.954   3.489   4.186  1.00  0.00     0.002 A 
ATOM     75  C   UNL     1     -10.228   4.400   1.969  1.00  0.00     0.091 A 
ATOM     76  F   UNL     1     -12.044   3.710   0.622  1.00  0.00    -0.205 F 
ATOM     77  C   UNL     1      -9.498   4.313   3.160  1.00  0.00     0.022 A 
BRANCH  75  78
ATOM     78  S   UNL     1      -9.596   5.323   0.566  1.00  0.00     0.127 S 
ATOM     79  O   UNL     1      -8.207   5.585   0.944  1.00  0.00    -0.237 OA
ATOM     80  O   UNL     1      -9.758   4.388  -0.539  1.00  0.00    -0.237 OA
ATOM     81  O   UNL     1     -10.466   6.494   0.552  1.00  0.00    -0.744 OA
ENDBRANCH  75  78
ENDBRANCH  47  71
BRANCH  59  82
ATOM     82  C   UNL     1     -14.874  -0.248  -3.260  1.00  0.00     0.023 A 
ATOM     83  C   UNL     1     -15.731   0.843  -3.469  1.00  0.00     0.012 A 
ATOM     84  C   UNL     1     -14.809  -1.178  -4.346  1.00  0.00     0.148 A 
ATOM     85  C   UNL     1     -16.415   1.053  -4.675  1.00  0.00     0.002 A 
ATOM     86  C   UNL     1     -15.442  -0.942  -5.566  1.00  0.00     0.091 A 
ATOM     87  F   UNL     1     -14.200  -2.360  -4.190  1.00  0.00    -0.205 F 
ATOM     88  C   UNL     1     -16.248   0.179  -5.734  1.00  0.00     0.022 A 
BRANCH  86  89
ATOM     89  S   UNL     1     -15.246  -2.035  -6.982  1.00  0.00     0.127 S 
ATOM     90  O   UNL     1     -16.536  -2.723  -7.005  1.00  0.00    -0.237 OA
ATOM     91  O   UNL     1     -15.045  -1.084  -8.077  1.00  0.00    -0.237 OA
ATOM     92  O   UNL     1     -14.089  -2.870  -6.691  1.00  0.00    -0.744 OA
ENDBRANCH  86  89
ENDBRANCH  59  82
ENDBRANCH  33  34
ENDBRANCH  26  28
ENDBRANCH  25  26
ENDBRANCH  24  25
ENDBRANCH   1  24
TORSDOF 18
