REMARK SMILES O=C(CSc1cc(-c2ccccc2)nc(-c2ccccc2F)n1)OCCOC(=O)c1ccc(-c2c3nc(c(-c4cccc(S(=O)(=O)[O-])c4F)c4ccc([nH]4)c(-c4cccc(S(=O)(=O)[O-])c4F)c4nc(c(-c5cccc(S(=O)(=O)[O-])c5F)c5ccc2[nH]5)C=C4)C=C3)cc1
REMARK SMILES IDX 25 1 24 2 2 3 1 4 3 5 4 6 5 7 6 8 23 9 7 10 15 11 14 12 8 13
REMARK SMILES IDX 9 14 13 15 10 16 12 17 11 18 16 19 17 20 21 21 18 22 20 23
REMARK SMILES IDX 22 24 19 25 26 26 27 27 28 28 29 29 30 30 31 31 92 32 32 33
REMARK SMILES IDX 91 34 33 35 34 36 35 37 85 38 36 39 90 40 84 41 86 42 37 43
REMARK SMILES IDX 89 44 83 45 82 46 38 48 70 49 50 50 69 51 51 52 54 53 68 54
REMARK SMILES IDX 87 55 52 56 53 57 67 59 88 60 55 61 39 62 40 63 48 64 41 65
REMARK SMILES IDX 43 66 49 67 42 68 44 69 45 70 46 71 47 72 71 73 72 74 80 75
REMARK SMILES IDX 73 76 75 77 81 78 74 79 76 80 77 81 78 82 79 83 56 84 57 85
REMARK SMILES IDX 65 86 58 87 60 88 66 89 59 90 61 91 62 92 63 93 64 94
REMARK H PARENT 86 47 54 58
REMARK Flexibility Score: inf
ROOT
ATOM      1  C   UNL     1       4.582  -0.581  -0.608  1.00  0.00     0.274 C 
ENDROOT
BRANCH   1   2
ATOM      2  O   UNL     1       3.291  -0.761   0.013  1.00  0.00    -0.461 OA
BRANCH   2   3
ATOM      3  C   UNL     1       2.694   0.126   0.848  1.00  0.00     0.316 C 
ATOM      4  O   UNL     1       1.535  -0.072   1.211  1.00  0.00    -0.251 OA
BRANCH   3   5
ATOM      5  C   UNL     1       3.488   1.311   1.358  1.00  0.00     0.199 C 
BRANCH   5   6
ATOM      6  S   UNL     1       4.588   0.821   2.710  1.00  0.00    -0.094 SA
BRANCH   6   7
ATOM      7  C   UNL     1       3.329   0.388   3.884  1.00  0.00     0.101 A 
ATOM      8  C   UNL     1       3.158  -0.927   4.227  1.00  0.00     0.064 A 
ATOM      9  N   UNL     1       2.598   1.386   4.387  1.00  0.00    -0.222 NA
ATOM     10  C   UNL     1       2.168  -1.197   5.148  1.00  0.00     0.075 A 
ATOM     11  C   UNL     1       1.682   1.040   5.307  1.00  0.00     0.163 A 
ATOM     12  N   UNL     1       1.412  -0.222   5.698  1.00  0.00    -0.228 NA
BRANCH  10  13
ATOM     13  C   UNL     1       1.905  -2.580   5.577  1.00  0.00     0.000 A 
ATOM     14  C   UNL     1       0.598  -3.083   5.663  1.00  0.00     0.010 A 
ATOM     15  C   UNL     1       2.967  -3.459   5.868  1.00  0.00     0.010 A 
ATOM     16  C   UNL     1       0.364  -4.420   6.002  1.00  0.00     0.001 A 
ATOM     17  C   UNL     1       2.736  -4.793   6.208  1.00  0.00     0.001 A 
ATOM     18  C   UNL     1       1.432  -5.274   6.269  1.00  0.00     0.000 A 
ENDBRANCH  10  13
BRANCH  11  19
ATOM     19  C   UNL     1       1.000   2.147   5.964  1.00  0.00     0.055 A 
ATOM     20  C   UNL     1       0.181   3.037   5.244  1.00  0.00     0.015 A 
ATOM     21  C   UNL     1       1.238   2.424   7.315  1.00  0.00     0.134 A 
ATOM     22  C   UNL     1      -0.371   4.164   5.862  1.00  0.00     0.001 A 
ATOM     23  C   UNL     1       0.707   3.556   7.931  1.00  0.00     0.040 A 
ATOM     24  F   UNL     1       2.031   1.619   8.041  1.00  0.00    -0.206 F 
ATOM     25  C   UNL     1      -0.098   4.428   7.203  1.00  0.00     0.003 A 
ENDBRANCH  11  19
ENDBRANCH   6   7
ENDBRANCH   5   6
ENDBRANCH   3   5
ENDBRANCH   2   3
ENDBRANCH   1   2
BRANCH   1  26
ATOM     26  C   UNL     1       4.448   0.062  -1.988  1.00  0.00     0.275 C 
BRANCH  26  27
ATOM     27  O   UNL     1       3.957   1.407  -1.853  1.00  0.00    -0.458 OA
BRANCH  27  28
ATOM     28  C   UNL     1       2.629   1.579  -2.075  1.00  0.00     0.338 C 
ATOM     29  O   UNL     1       1.857   0.748  -2.521  1.00  0.00    -0.246 OA
BRANCH  28  30
ATOM     30  C   UNL     1       2.206   2.877  -1.497  1.00  0.00     0.060 A 
ATOM     31  C   UNL     1       0.948   2.947  -0.886  1.00  0.00     0.016 A 
ATOM     32  C   UNL     1       3.042   4.000  -1.507  1.00  0.00     0.016 A 
ATOM     33  C   UNL     1       0.511   4.145  -0.315  1.00  0.00     0.010 A 
ATOM     34  C   UNL     1       2.604   5.197  -0.931  1.00  0.00     0.010 A 
ATOM     35  C   UNL     1       1.326   5.285  -0.355  1.00  0.00    -0.014 A 
BRANCH  35  36
ATOM     36  C   UNL     1       0.802   6.593   0.112  1.00  0.00     0.031 A 
ATOM     37  C   UNL     1       0.293   7.585  -0.899  1.00  0.00     0.074 A 
ATOM     38  C   UNL     1       0.796   6.908   1.420  1.00  0.00     0.049 A 
ATOM     39  N   UNL     1      -0.239   8.764  -0.705  1.00  0.00    -0.248 NA
ATOM     40  C   UNL     1       0.406   7.202  -2.317  1.00  0.00     0.031 C 
ATOM     41  C   UNL     1       1.302   6.061   2.499  1.00  0.00     0.029 A 
ATOM     42  N   UNL     1       0.365   8.045   2.059  1.00  0.00    -0.354 N 
ATOM     43  C   UNL     1      -0.516   9.268  -1.970  1.00  0.00     0.074 A 
ATOM     44  C   UNL     1      -0.070   8.278  -2.927  1.00  0.00     0.031 C 
ATOM     45  C   UNL     1       1.173   6.719   3.665  1.00  0.00     0.029 A 
ATOM     46  C   UNL     1       0.571   8.028   3.418  1.00  0.00     0.049 A 
ATOM     47  H   UNL     1      -0.052   8.802   1.588  1.00  0.00     0.167 HD
ATOM     48  C   UNL     1      -1.112  10.436  -2.308  1.00  0.00     0.034 A 
ATOM     49  C   UNL     1       0.303   8.961   4.355  1.00  0.00     0.034 A 
ATOM     50  C   UNL     1      -1.573  11.418  -1.365  1.00  0.00     0.049 A 
ATOM     51  C   UNL     1      -0.362  10.253   3.949  1.00  0.00     0.074 A 
ATOM     52  C   UNL     1      -2.237  12.606  -1.617  1.00  0.00     0.029 A 
ATOM     53  N   UNL     1      -1.407  11.336   0.008  1.00  0.00    -0.354 N 
ATOM     54  N   UNL     1      -0.775  10.637   2.765  1.00  0.00    -0.248 NA
ATOM     55  C   UNL     1      -0.631  11.227   5.019  1.00  0.00     0.031 C 
ATOM     56  C   UNL     1      -2.459  13.251  -0.395  1.00  0.00     0.029 A 
ATOM     57  C   UNL     1      -1.947  12.457   0.617  1.00  0.00     0.049 A 
ATOM     58  H   UNL     1      -0.971  10.591   0.480  1.00  0.00     0.167 HD
ATOM     59  C   UNL     1      -1.380  11.876   2.954  1.00  0.00     0.074 A 
ATOM     60  C   UNL     1      -1.307  12.166   4.370  1.00  0.00     0.031 C 
ATOM     61  C   UNL     1      -1.928  12.710   2.034  1.00  0.00     0.034 A 
BRANCH  48  62
ATOM     62  C   UNL     1      -1.354  10.695  -3.770  1.00  0.00     0.023 A 
ATOM     63  C   UNL     1      -2.394  10.006  -4.427  1.00  0.00     0.012 A 
ATOM     64  C   UNL     1      -0.609  11.660  -4.473  1.00  0.00     0.148 A 
ATOM     65  C   UNL     1      -2.675  10.258  -5.769  1.00  0.00     0.002 A 
ATOM     66  C   UNL     1      -0.919  11.932  -5.801  1.00  0.00     0.091 A 
ATOM     67  F   UNL     1       0.391  12.286  -3.836  1.00  0.00    -0.205 F 
ATOM     68  C   UNL     1      -1.946  11.227  -6.451  1.00  0.00     0.022 A 
BRANCH  66  69
ATOM     69  S   UNL     1      -0.084  13.209  -6.749  1.00  0.00     0.127 S 
ATOM     70  O   UNL     1       0.706  12.411  -7.686  1.00  0.00    -0.237 OA
ATOM     71  O   UNL     1      -1.206  13.928  -7.354  1.00  0.00    -0.237 OA
ATOM     72  O   UNL     1       0.686  13.985  -5.787  1.00  0.00    -0.744 OA
ENDBRANCH  66  69
ENDBRANCH  48  62
BRANCH  49  73
ATOM     73  C   UNL     1       0.602   8.692   5.790  1.00  0.00     0.023 A 
ATOM     74  C   UNL     1      -0.464   8.531   6.698  1.00  0.00     0.012 A 
ATOM     75  C   UNL     1       1.925   8.617   6.264  1.00  0.00     0.148 A 
ATOM     76  C   UNL     1      -0.218   8.339   8.058  1.00  0.00     0.002 A 
ATOM     77  C   UNL     1       2.163   8.370   7.612  1.00  0.00     0.091 A 
ATOM     78  F   UNL     1       2.926   8.802   5.392  1.00  0.00    -0.205 F 
ATOM     79  C   UNL     1       1.095   8.248   8.513  1.00  0.00     0.022 A 
BRANCH  77  80
ATOM     80  S   UNL     1       3.820   8.131   8.261  1.00  0.00     0.127 S 
ATOM     81  O   UNL     1       4.069   9.409   8.922  1.00  0.00    -0.237 OA
ATOM     82  O   UNL     1       3.632   6.996   9.166  1.00  0.00    -0.237 OA
ATOM     83  O   UNL     1       4.652   7.840   7.101  1.00  0.00    -0.744 OA
ENDBRANCH  77  80
ENDBRANCH  49  73
BRANCH  61  84
ATOM     84  C   UNL     1      -2.518  14.008   2.523  1.00  0.00     0.023 A 
ATOM     85  C   UNL     1      -1.664  15.044   2.950  1.00  0.00     0.012 A 
ATOM     86  C   UNL     1      -3.910  14.231   2.490  1.00  0.00     0.148 A 
ATOM     87  C   UNL     1      -2.186  16.269   3.368  1.00  0.00     0.002 A 
ATOM     88  C   UNL     1      -4.420  15.469   2.865  1.00  0.00     0.091 A 
ATOM     89  F   UNL     1      -4.710  13.228   2.100  1.00  0.00    -0.205 F 
ATOM     90  C   UNL     1      -3.561  16.485   3.314  1.00  0.00     0.022 A 
BRANCH  88  91
ATOM     91  S   UNL     1      -6.169  15.864   2.739  1.00  0.00     0.127 S 
ATOM     92  O   UNL     1      -6.599  15.764   4.132  1.00  0.00    -0.237 OA
ATOM     93  O   UNL     1      -6.146  17.226   2.204  1.00  0.00    -0.237 OA
ATOM     94  O   UNL     1      -6.734  14.873   1.832  1.00  0.00    -0.744 OA
ENDBRANCH  88  91
ENDBRANCH  61  84
ENDBRANCH  35  36
ENDBRANCH  28  30
ENDBRANCH  27  28
ENDBRANCH  26  27
ENDBRANCH   1  26
TORSDOF 18
