REMARK SMILES COC(=O)c1c(NC(=O)[C@@H]2C[C@@H]2C(=O)OCCOC(=O)c2ccc(-c3c4nc(c(-c5cccc(S(=O)(=O)[O-])c5F)c5ccc([nH]5)c(-c5cccc(S(=O)(=O)[O-])c5F)c5nc(c(-c6cccc(S(=O)(=O)[O-])c6F)c6ccc3[nH]6)C=C5)C=C4)cc2)sc2c1CC[N@@H+](Cc1ccccc1)C2
REMARK SMILES IDX 16 1 15 2 13 3 14 4 12 5 10 6 11 7 8 8 7 9 9 11 6 12 5 13
REMARK SMILES IDX 86 14 84 15 85 16 87 17 97 18 88 19 89 20 3 22 4 23 2 24
REMARK SMILES IDX 1 25 90 26 91 27 92 28 96 29 93 30 95 31 94 32 17 33 18 34
REMARK SMILES IDX 19 35 20 36 21 37 22 38 83 39 23 40 82 41 24 42 25 43 26 44
REMARK SMILES IDX 76 45 27 46 81 47 75 48 77 49 28 50 80 51 74 52 73 53 29 55
REMARK SMILES IDX 61 56 41 57 60 58 42 59 45 60 59 61 78 62 43 63 44 64 58 66
REMARK SMILES IDX 79 67 46 68 30 69 31 70 39 71 32 72 34 73 40 74 33 75 35 76
REMARK SMILES IDX 36 77 37 78 38 79 62 80 63 81 71 82 64 83 66 84 72 85 65 86
REMARK SMILES IDX 67 87 68 88 69 89 70 90 47 91 48 92 56 93 49 94 51 95 57 96
REMARK SMILES IDX 50 97 52 98 53 99 54 100 55 101
REMARK H PARENT 7 10 89 21 77 54 45 65
REMARK Flexibility Score: inf
ROOT
ATOM      1  C   UNL     1      -3.469  -2.049  -2.539  1.00  0.00     0.274 C 
ENDROOT
BRANCH   1   2
ATOM      2  O   UNL     1      -2.877  -1.418  -1.387  1.00  0.00    -0.462 OA
BRANCH   2   3
ATOM      3  C   UNL     1      -1.693  -0.817  -1.656  1.00  0.00     0.309 C 
ATOM      4  O   UNL     1      -1.074  -0.912  -2.714  1.00  0.00    -0.252 OA
BRANCH   3   5
ATOM      5  C   UNL     1      -1.052  -0.147  -0.513  1.00  0.00     0.112 C 
ATOM      6  C   UNL     1      -1.258   1.055   0.375  1.00  0.00     0.094 C 
ATOM      7  C   UNL     1      -0.512   1.208  -0.925  1.00  0.00     0.030 C 
BRANCH   6   8
ATOM      8  C   UNL     1      -2.357   1.996   0.600  1.00  0.00     0.229 C 
ATOM      9  N   UNL     1      -2.067   3.334   0.748  1.00  0.00    -0.317 N 
ATOM     10  H   UNL     1      -2.869   3.901   0.678  1.00  0.00     0.170 HD
ATOM     11  O   UNL     1      -3.510   1.595   0.715  1.00  0.00    -0.274 OA
BRANCH   9  12
ATOM     12  C   UNL     1      -0.913   4.077   0.971  1.00  0.00     0.110 A 
ATOM     13  C   UNL     1       0.417   3.969   1.390  1.00  0.00     0.098 A 
ATOM     14  C   UNL     1       1.072   5.275   1.336  1.00  0.00    -0.006 A 
ATOM     15  S   UNL     1      -1.344   5.733   0.694  1.00  0.00    -0.116 S 
ATOM     16  C   UNL     1       0.240   6.278   0.897  1.00  0.00     0.065 A 
ATOM     17  C   UNL     1       2.532   5.557   1.580  1.00  0.00     0.099 C 
ATOM     18  C   UNL     1       0.670   7.688   0.596  1.00  0.00     0.310 C 
ATOM     19  C   UNL     1       2.900   7.045   1.363  1.00  0.00     0.267 C 
ATOM     20  N   UNL     1       2.125   7.792   0.361  1.00  0.00    -0.326 N 
ATOM     21  H   UNL     1       2.365   8.771   0.517  1.00  0.00     0.348 HD
BRANCH  13  22
ATOM     22  C   UNL     1       1.196   2.821   1.864  1.00  0.00     0.341 C 
ATOM     23  O   UNL     1       1.831   2.824   2.913  1.00  0.00    -0.246 OA
BRANCH  22  24
ATOM     24  O   UNL     1       1.300   1.835   0.951  1.00  0.00    -0.465 OA
ATOM     25  C   UNL     1       2.119   0.704   1.254  1.00  0.00     0.282 C 
ENDBRANCH  22  24
ENDBRANCH  13  22
BRANCH  20  26
ATOM     26  C   UNL     1       2.549   7.624  -1.040  1.00  0.00     0.299 C 
BRANCH  26  27
ATOM     27  C   UNL     1       2.468   6.234  -1.631  1.00  0.00     0.006 A 
ATOM     28  C   UNL     1       3.608   5.421  -1.721  1.00  0.00     0.009 A 
ATOM     29  C   UNL     1       1.239   5.710  -2.054  1.00  0.00     0.009 A 
ATOM     30  C   UNL     1       3.498   4.086  -2.118  1.00  0.00     0.001 A 
ATOM     31  C   UNL     1       1.124   4.370  -2.421  1.00  0.00     0.001 A 
ATOM     32  C   UNL     1       2.251   3.554  -2.437  1.00  0.00     0.000 A 
ENDBRANCH  26  27
ENDBRANCH  20  26
ENDBRANCH   9  12
ENDBRANCH   6   8
ENDBRANCH   3   5
ENDBRANCH   2   3
ENDBRANCH   1   2
BRANCH   1  33
ATOM     33  C   UNL     1      -4.369  -1.101  -3.327  1.00  0.00     0.275 C 
BRANCH  33  34
ATOM     34  O   UNL     1      -3.650  -0.085  -4.031  1.00  0.00    -0.458 OA
BRANCH  34  35
ATOM     35  C   UNL     1      -3.468   1.030  -3.295  1.00  0.00     0.338 C 
ATOM     36  O   UNL     1      -3.512   1.123  -2.080  1.00  0.00    -0.246 OA
BRANCH  35  37
ATOM     37  C   UNL     1      -3.453   2.231  -4.114  1.00  0.00     0.060 A 
ATOM     38  C   UNL     1      -3.007   3.400  -3.489  1.00  0.00     0.016 A 
ATOM     39  C   UNL     1      -4.195   2.244  -5.299  1.00  0.00     0.016 A 
ATOM     40  C   UNL     1      -3.442   4.606  -3.976  1.00  0.00     0.010 A 
ATOM     41  C   UNL     1      -4.625   3.455  -5.788  1.00  0.00     0.010 A 
ATOM     42  C   UNL     1      -4.298   4.614  -5.085  1.00  0.00    -0.014 A 
BRANCH  42  43
ATOM     43  C   UNL     1      -4.658   5.912  -5.621  1.00  0.00     0.031 A 
ATOM     44  C   UNL     1      -3.450   6.623  -6.107  1.00  0.00     0.074 A 
ATOM     45  C   UNL     1      -5.938   6.317  -5.742  1.00  0.00     0.049 A 
ATOM     46  N   UNL     1      -2.935   7.712  -5.640  1.00  0.00    -0.248 NA
ATOM     47  C   UNL     1      -2.573   5.915  -7.061  1.00  0.00     0.031 C 
ATOM     48  C   UNL     1      -7.132   5.498  -5.495  1.00  0.00     0.029 A 
ATOM     49  N   UNL     1      -6.460   7.469  -6.259  1.00  0.00    -0.354 N 
ATOM     50  C   UNL     1      -1.867   7.981  -6.494  1.00  0.00     0.074 A 
ATOM     51  C   UNL     1      -1.531   6.744  -7.136  1.00  0.00     0.031 C 
ATOM     52  C   UNL     1      -8.188   6.056  -6.124  1.00  0.00     0.029 A 
ATOM     53  C   UNL     1      -7.776   7.323  -6.699  1.00  0.00     0.049 A 
ATOM     54  H   UNL     1      -5.958   8.315  -6.316  1.00  0.00     0.167 HD
ATOM     55  C   UNL     1      -1.675   9.257  -6.923  1.00  0.00     0.034 A 
ATOM     56  C   UNL     1      -8.444   8.137  -7.554  1.00  0.00     0.034 A 
ATOM     57  C   UNL     1      -2.320  10.192  -6.039  1.00  0.00     0.049 A 
ATOM     58  C   UNL     1      -7.760   9.445  -7.554  1.00  0.00     0.074 A 
ATOM     59  C   UNL     1      -2.141  10.661  -4.757  1.00  0.00     0.029 A 
ATOM     60  N   UNL     1      -3.615  10.449  -6.395  1.00  0.00    -0.354 N 
ATOM     61  N   UNL     1      -7.745  10.244  -6.524  1.00  0.00    -0.248 NA
ATOM     62  C   UNL     1      -6.789   9.748  -8.600  1.00  0.00     0.031 C 
ATOM     63  C   UNL     1      -3.420  11.118  -4.319  1.00  0.00     0.029 A 
ATOM     64  C   UNL     1      -4.335  10.967  -5.358  1.00  0.00     0.049 A 
ATOM     65  H   UNL     1      -3.984  10.281  -7.292  1.00  0.00     0.167 HD
ATOM     66  C   UNL     1      -6.487  10.813  -6.576  1.00  0.00     0.074 A 
ATOM     67  C   UNL     1      -6.039  10.642  -7.952  1.00  0.00     0.031 C 
ATOM     68  C   UNL     1      -5.778  11.035  -5.433  1.00  0.00     0.034 A 
BRANCH  55  69
ATOM     69  C   UNL     1      -1.450   9.625  -8.385  1.00  0.00     0.023 A 
ATOM     70  C   UNL     1      -1.220  10.988  -8.673  1.00  0.00     0.012 A 
ATOM     71  C   UNL     1      -1.754   8.792  -9.490  1.00  0.00     0.148 A 
ATOM     72  C   UNL     1      -1.321  11.494  -9.976  1.00  0.00     0.002 A 
ATOM     73  C   UNL     1      -1.770   9.280 -10.791  1.00  0.00     0.091 A 
ATOM     74  F   UNL     1      -2.182   7.544  -9.299  1.00  0.00    -0.205 F 
ATOM     75  C   UNL     1      -1.585  10.638 -11.038  1.00  0.00     0.022 A 
BRANCH  73  76
ATOM     76  S   UNL     1      -2.074   8.198 -12.196  1.00  0.00     0.127 S 
ATOM     77  O   UNL     1      -3.397   8.640 -12.623  1.00  0.00    -0.237 OA
ATOM     78  O   UNL     1      -0.975   8.563 -13.090  1.00  0.00    -0.237 OA
ATOM     79  O   UNL     1      -1.990   6.839 -11.674  1.00  0.00    -0.744 OA
ENDBRANCH  73  76
ENDBRANCH  55  69
BRANCH  56  80
ATOM     80  C   UNL     1      -9.504   7.829  -8.547  1.00  0.00     0.023 A 
ATOM     81  C   UNL     1     -10.292   8.878  -9.066  1.00  0.00     0.012 A 
ATOM     82  C   UNL     1      -9.550   6.579  -9.201  1.00  0.00     0.148 A 
ATOM     83  C   UNL     1     -11.057   8.704 -10.225  1.00  0.00     0.002 A 
ATOM     84  C   UNL     1     -10.318   6.408 -10.349  1.00  0.00     0.091 A 
ATOM     85  F   UNL     1      -8.770   5.586  -8.754  1.00  0.00    -0.205 F 
ATOM     86  C   UNL     1     -11.060   7.473 -10.874  1.00  0.00     0.022 A 
BRANCH  84  87
ATOM     87  S   UNL     1     -10.357   4.854 -11.253  1.00  0.00     0.127 S 
ATOM     88  O   UNL     1     -11.794   4.641 -11.425  1.00  0.00    -0.237 OA
ATOM     89  O   UNL     1      -9.639   5.197 -12.477  1.00  0.00    -0.237 OA
ATOM     90  O   UNL     1      -9.707   3.875 -10.390  1.00  0.00    -0.744 OA
ENDBRANCH  84  87
ENDBRANCH  56  80
BRANCH  68  91
ATOM     91  C   UNL     1      -6.549  11.223  -4.162  1.00  0.00     0.023 A 
ATOM     92  C   UNL     1      -7.338  10.218  -3.570  1.00  0.00     0.012 A 
ATOM     93  C   UNL     1      -6.418  12.461  -3.514  1.00  0.00     0.148 A 
ATOM     94  C   UNL     1      -8.008  10.462  -2.367  1.00  0.00     0.002 A 
ATOM     95  C   UNL     1      -7.045  12.684  -2.299  1.00  0.00     0.091 A 
ATOM     96  F   UNL     1      -5.674  13.411  -4.104  1.00  0.00    -0.205 F 
ATOM     97  C   UNL     1      -7.852  11.691  -1.725  1.00  0.00     0.022 A 
BRANCH  95  98
ATOM     98  S   UNL     1      -6.786  14.210  -1.397  1.00  0.00     0.127 S 
ATOM     99  O   UNL     1      -8.008  14.954  -1.696  1.00  0.00    -0.237 OA
ATOM    100  O   UNL     1      -6.674  13.745  -0.013  1.00  0.00    -0.237 OA
ATOM    101  O   UNL     1      -5.553  14.780  -1.928  1.00  0.00    -0.744 OA
ENDBRANCH  95  98
ENDBRANCH  68  91
ENDBRANCH  42  43
ENDBRANCH  35  37
ENDBRANCH  34  35
ENDBRANCH  33  34
ENDBRANCH   1  33
TORSDOF 20
