REMARK SMILES O=C(OCCOC(=O)c1ccc(S(=O)(=O)NC[C@H]2CCS(=O)(=O)C2)cc1)c1ccc(-c2c3nc(c(-c4cccc(S(=O)(=O)[O-])c4F)c4ccc([nH]4)c(-c4cccc(S(=O)(=O)[O-])c4F)c4nc(c(-c5cccc(S(=O)(=O)[O-])c5F)c5ccc2[nH]5)C=C4)C=C3)cc1
REMARK SMILES IDX 5 1 4 2 3 3 2 4 1 5 27 6 28 7 89 8 29 9 88 10 30 11 31 12
REMARK SMILES IDX 32 13 82 14 33 15 87 16 81 17 83 18 34 19 86 20 80 21 79 22
REMARK SMILES IDX 35 24 67 25 47 26 66 27 48 28 51 29 65 30 84 31 49 32 50 33
REMARK SMILES IDX 64 35 85 36 52 37 36 38 37 39 45 40 38 41 40 42 46 43 39 44
REMARK SMILES IDX 41 45 42 46 43 47 44 48 68 49 69 50 77 51 70 52 72 53 78 54
REMARK SMILES IDX 71 55 73 56 74 57 75 58 76 59 53 60 54 61 62 62 55 63 57 64
REMARK SMILES IDX 63 65 56 66 58 67 59 68 60 69 61 70 6 71 7 72 8 73 9 74
REMARK SMILES IDX 10 75 26 76 11 77 25 78 12 79 13 80 14 81 15 82 16 83 17 85
REMARK SMILES IDX 18 86 19 87 24 88 20 89 21 90 22 91 23 92
REMARK H PARENT 83 23 51 34 16 84
REMARK Flexibility Score: inf
ROOT
ATOM      1  C   UNL     1      -7.622  -4.336   6.825  1.00  0.00     0.275 C 
ENDROOT
BRANCH   1   2
ATOM      2  C   UNL     1      -8.981  -4.014   7.447  1.00  0.00     0.275 C 
BRANCH   2   3
ATOM      3  O   UNL     1      -9.229  -2.616   7.683  1.00  0.00    -0.458 OA
BRANCH   3   4
ATOM      4  C   UNL     1      -8.932  -1.830   8.745  1.00  0.00     0.338 C 
ATOM      5  O   UNL     1      -9.403  -0.693   8.780  1.00  0.00    -0.246 OA
BRANCH   4   6
ATOM      6  C   UNL     1      -7.978  -2.213   9.835  1.00  0.00     0.060 A 
ATOM      7  C   UNL     1      -7.767  -3.506  10.315  1.00  0.00     0.016 A 
ATOM      8  C   UNL     1      -7.271  -1.160  10.452  1.00  0.00     0.016 A 
ATOM      9  C   UNL     1      -6.843  -3.753  11.334  1.00  0.00     0.010 A 
ATOM     10  C   UNL     1      -6.343  -1.401  11.472  1.00  0.00     0.010 A 
ATOM     11  C   UNL     1      -6.128  -2.705  11.921  1.00  0.00    -0.014 A 
BRANCH  11  12
ATOM     12  C   UNL     1      -5.222  -3.003  13.052  1.00  0.00     0.031 A 
ATOM     13  C   UNL     1      -5.702  -2.789  14.455  1.00  0.00     0.074 A 
ATOM     14  C   UNL     1      -4.006  -3.533  12.821  1.00  0.00     0.049 A 
ATOM     15  N   UNL     1      -5.143  -3.168  15.573  1.00  0.00    -0.248 NA
ATOM     16  C   UNL     1      -6.995  -2.107  14.622  1.00  0.00     0.031 C 
ATOM     17  C   UNL     1      -3.460  -3.828  11.500  1.00  0.00     0.029 A 
ATOM     18  N   UNL     1      -3.009  -3.909  13.680  1.00  0.00    -0.354 N 
ATOM     19  C   UNL     1      -6.037  -2.817  16.575  1.00  0.00     0.074 A 
ATOM     20  C   UNL     1      -7.147  -2.141  15.939  1.00  0.00     0.031 C 
ATOM     21  C   UNL     1      -2.195  -4.262  11.627  1.00  0.00     0.029 A 
ATOM     22  C   UNL     1      -1.862  -4.323  13.045  1.00  0.00     0.049 A 
ATOM     23  H   UNL     1      -3.104  -3.885  14.660  1.00  0.00     0.167 HD
ATOM     24  C   UNL     1      -5.960  -3.082  17.899  1.00  0.00     0.034 A 
ATOM     25  C   UNL     1      -0.683  -4.726  13.554  1.00  0.00     0.034 A 
ATOM     26  C   UNL     1      -4.833  -3.716  18.524  1.00  0.00     0.049 A 
ATOM     27  C   UNL     1      -0.578  -4.915  15.043  1.00  0.00     0.074 A 
ATOM     28  C   UNL     1      -4.643  -4.022  19.859  1.00  0.00     0.029 A 
ATOM     29  N   UNL     1      -3.686  -4.118  17.854  1.00  0.00    -0.354 N 
ATOM     30  N   UNL     1      -1.497  -4.727  15.960  1.00  0.00    -0.248 NA
ATOM     31  C   UNL     1       0.691  -5.443  15.562  1.00  0.00     0.031 C 
ATOM     32  C   UNL     1      -3.372  -4.592  19.998  1.00  0.00     0.029 A 
ATOM     33  C   UNL     1      -2.779  -4.658  18.747  1.00  0.00     0.049 A 
ATOM     34  H   UNL     1      -3.540  -4.032  16.884  1.00  0.00     0.167 HD
ATOM     35  C   UNL     1      -0.938  -5.161  17.155  1.00  0.00     0.074 A 
ATOM     36  C   UNL     1       0.396  -5.634  16.841  1.00  0.00     0.031 C 
ATOM     37  C   UNL     1      -1.475  -5.165  18.400  1.00  0.00     0.034 A 
BRANCH  24  38
ATOM     38  C   UNL     1      -7.159  -2.728  18.735  1.00  0.00     0.023 A 
ATOM     39  C   UNL     1      -8.314  -3.534  18.643  1.00  0.00     0.012 A 
ATOM     40  C   UNL     1      -7.150  -1.627  19.609  1.00  0.00     0.148 A 
ATOM     41  C   UNL     1      -9.454  -3.230  19.386  1.00  0.00     0.002 A 
ATOM     42  C   UNL     1      -8.280  -1.347  20.369  1.00  0.00     0.091 A 
ATOM     43  F   UNL     1      -6.049  -0.864  19.664  1.00  0.00    -0.205 F 
ATOM     44  C   UNL     1      -9.434  -2.141  20.252  1.00  0.00     0.022 A 
BRANCH  42  45
ATOM     45  S   UNL     1      -8.348   0.004  21.550  1.00  0.00     0.127 S 
ATOM     46  O   UNL     1      -9.311   0.902  20.914  1.00  0.00    -0.237 OA
ATOM     47  O   UNL     1      -8.841  -0.666  22.753  1.00  0.00    -0.237 OA
ATOM     48  O   UNL     1      -6.989   0.518  21.651  1.00  0.00    -0.744 OA
ENDBRANCH  42  45
ENDBRANCH  24  38
BRANCH  25  49
ATOM     49  C   UNL     1       0.458  -5.041  12.650  1.00  0.00     0.023 A 
ATOM     50  C   UNL     1       0.908  -6.367  12.511  1.00  0.00     0.012 A 
ATOM     51  C   UNL     1       1.102  -4.021  11.924  1.00  0.00     0.148 A 
ATOM     52  C   UNL     1       2.015  -6.662  11.711  1.00  0.00     0.002 A 
ATOM     53  C   UNL     1       2.182  -4.327  11.101  1.00  0.00     0.091 A 
ATOM     54  F   UNL     1       0.622  -2.771  12.006  1.00  0.00    -0.205 F 
ATOM     55  C   UNL     1       2.657  -5.642  11.011  1.00  0.00     0.022 A 
BRANCH  53  56
ATOM     56  S   UNL     1       2.978  -3.047  10.127  1.00  0.00     0.127 S 
ATOM     57  O   UNL     1       4.338  -3.556   9.967  1.00  0.00    -0.237 OA
ATOM     58  O   UNL     1       2.164  -3.050   8.912  1.00  0.00    -0.237 OA
ATOM     59  O   UNL     1       2.874  -1.843  10.941  1.00  0.00    -0.744 OA
ENDBRANCH  53  56
ENDBRANCH  25  49
BRANCH  37  60
ATOM     60  C   UNL     1      -0.627  -5.721  19.512  1.00  0.00     0.023 A 
ATOM     61  C   UNL     1       0.469  -4.978  19.991  1.00  0.00     0.012 A 
ATOM     62  C   UNL     1      -0.955  -6.947  20.121  1.00  0.00     0.148 A 
ATOM     63  C   UNL     1       1.247  -5.463  21.041  1.00  0.00     0.002 A 
ATOM     64  C   UNL     1      -0.204  -7.401  21.199  1.00  0.00     0.091 A 
ATOM     65  F   UNL     1      -1.986  -7.652  19.632  1.00  0.00    -0.205 F 
ATOM     66  C   UNL     1       0.903  -6.667  21.652  1.00  0.00     0.022 A 
BRANCH  64  67
ATOM     67  S   UNL     1      -0.640  -8.892  22.101  1.00  0.00     0.127 S 
ATOM     68  O   UNL     1       0.318  -9.856  21.564  1.00  0.00    -0.237 OA
ATOM     69  O   UNL     1      -0.399  -8.500  23.490  1.00  0.00    -0.237 OA
ATOM     70  O   UNL     1      -2.039  -9.149  21.784  1.00  0.00    -0.744 OA
ENDBRANCH  64  67
ENDBRANCH  37  60
ENDBRANCH  11  12
ENDBRANCH   4   6
ENDBRANCH   3   4
ENDBRANCH   2   3
ENDBRANCH   1   2
BRANCH   1  71
ATOM     71  O   UNL     1      -6.550  -3.577   7.394  1.00  0.00    -0.458 OA
BRANCH  71  72
ATOM     72  C   UNL     1      -6.233  -2.445   6.711  1.00  0.00     0.338 C 
ATOM     73  O   UNL     1      -6.727  -2.062   5.665  1.00  0.00    -0.246 OA
BRANCH  72  74
ATOM     74  C   UNL     1      -5.269  -1.651   7.499  1.00  0.00     0.060 A 
ATOM     75  C   UNL     1      -5.463  -0.268   7.577  1.00  0.00     0.017 A 
ATOM     76  C   UNL     1      -4.205  -2.253   8.179  1.00  0.00     0.017 A 
ATOM     77  C   UNL     1      -4.608   0.508   8.360  1.00  0.00     0.022 A 
ATOM     78  C   UNL     1      -3.350  -1.474   8.966  1.00  0.00     0.022 A 
ATOM     79  C   UNL     1      -3.555  -0.099   9.056  1.00  0.00     0.082 A 
BRANCH  79  80
ATOM     80  S   UNL     1      -2.530   0.943  10.061  1.00  0.00     0.240 S 
ATOM     81  O   UNL     1      -2.220   2.108   9.257  1.00  0.00    -0.207 OA
ATOM     82  O   UNL     1      -3.220   1.074  11.322  1.00  0.00    -0.207 OA
BRANCH  80  83
ATOM     83  N   UNL     1      -1.120   0.126  10.373  1.00  0.00    -0.211 NA
ATOM     84  H   UNL     1      -1.412  -0.672  10.938  1.00  0.00     0.141 HD
BRANCH  83  85
ATOM     85  C   UNL     1      -0.138  -0.435   9.439  1.00  0.00     0.103 C 
BRANCH  85  86
ATOM     86  C   UNL     1       0.518   0.504   8.435  1.00  0.00     0.020 C 
ATOM     87  C   UNL     1      -0.292   0.712   7.148  1.00  0.00     0.022 C 
ATOM     88  C   UNL     1       0.932   1.876   8.972  1.00  0.00     0.142 C 
ATOM     89  C   UNL     1       0.451   1.761   6.337  1.00  0.00     0.137 C 
ATOM     90  S   UNL     1       1.126   2.910   7.521  1.00  0.00     0.150 S 
ATOM     91  O   UNL     1       2.535   3.080   7.226  1.00  0.00    -0.229 OA
ATOM     92  O   UNL     1       0.239   4.054   7.603  1.00  0.00    -0.229 OA
ENDBRANCH  85  86
ENDBRANCH  83  85
ENDBRANCH  80  83
ENDBRANCH  79  80
ENDBRANCH  72  74
ENDBRANCH  71  72
ENDBRANCH   1  71
TORSDOF 18
