REMARK SMILES C[NH2+][C@]1(C(=O)OCCOC(=O)c2ccc(-c3c4nc(c(-c5cccc(S(=O)(=O)[O-])c5F)c5ccc([nH]5)c(-c5cccc(S(=O)(=O)[O-])c5F)c5nc(c(-c6cccc(S(=O)(=O)[O-])c6F)c6ccc3[nH]6)C=C5)C=C4)cc2)CC[C@H](SC2CCCCC2)C1
REMARK SMILES IDX 8 1 7 2 6 3 4 4 5 5 3 6 75 7 85 8 76 9 77 10 2 11 1 12 78 15
REMARK SMILES IDX 79 16 80 17 84 18 81 19 83 20 82 21 9 22 10 23 11 24 12 25
REMARK SMILES IDX 13 26 74 27 14 28 73 29 15 30 16 31 17 32 67 33 18 34 72 35
REMARK SMILES IDX 66 36 68 37 19 38 71 39 65 40 64 41 20 43 52 44 32 45 51 46
REMARK SMILES IDX 33 47 36 48 50 49 69 50 34 51 35 52 49 54 70 55 37 56 21 57
REMARK SMILES IDX 22 58 30 59 23 60 25 61 31 62 24 63 26 64 27 65 28 66 29 67
REMARK SMILES IDX 53 68 54 69 62 70 55 71 57 72 63 73 56 74 58 75 59 76 60 77
REMARK SMILES IDX 61 78 38 79 39 80 47 81 40 82 42 83 48 84 41 85 43 86 44 87
REMARK SMILES IDX 45 88 46 89
REMARK H PARENT 2 13 2 14 68 42 36 53
REMARK Flexibility Score: inf
ROOT
ATOM      1  C   UNL     1       3.378   2.267  -0.632  1.00  0.00     0.275 C 
ENDROOT
BRANCH   1   2
ATOM      2  C   UNL     1       2.640   1.502  -1.726  1.00  0.00     0.274 C 
BRANCH   2   3
ATOM      3  O   UNL     1       1.225   1.781  -1.687  1.00  0.00    -0.457 OA
BRANCH   3   4
ATOM      4  C   UNL     1       0.459   0.832  -1.080  1.00  0.00     0.368 C 
ATOM      5  O   UNL     1       0.902  -0.193  -0.570  1.00  0.00    -0.245 OA
BRANCH   4   6
ATOM      6  C   UNL     1      -1.042   1.169  -1.098  1.00  0.00     0.195 C 
ATOM      7  C   UNL     1      -1.475   2.258  -2.084  1.00  0.00     0.082 C 
ATOM      8  C   UNL     1      -1.784  -0.038  -1.714  1.00  0.00     0.095 C 
ATOM      9  C   UNL     1      -2.978   2.018  -2.233  1.00  0.00     0.022 C 
ATOM     10  C   UNL     1      -3.168   0.496  -2.130  1.00  0.00     0.054 C 
BRANCH   6  11
ATOM     11  N   UNL     1      -1.565   1.356   0.273  1.00  0.00    -0.335 N 
ATOM     12  C   UNL     1      -1.412   2.671   0.862  1.00  0.00     0.331 C 
ATOM     13  H   UNL     1      -2.562   1.142   0.253  1.00  0.00     0.347 HD
ATOM     14  H   UNL     1      -1.003   0.738   0.857  1.00  0.00     0.347 HD
ENDBRANCH   6  11
BRANCH  10  15
ATOM     15  S   UNL     1      -4.415  -0.065  -0.902  1.00  0.00    -0.155 SA
BRANCH  15  16
ATOM     16  C   UNL     1      -6.011   0.548  -1.551  1.00  0.00     0.047 C 
ATOM     17  C   UNL     1      -6.223   2.046  -1.317  1.00  0.00     0.014 C 
ATOM     18  C   UNL     1      -6.262   0.153  -3.007  1.00  0.00     0.014 C 
ATOM     19  C   UNL     1      -7.615   2.480  -1.769  1.00  0.00     0.001 C 
ATOM     20  C   UNL     1      -7.653   0.602  -3.457  1.00  0.00     0.001 C 
ATOM     21  C   UNL     1      -7.861   2.097  -3.227  1.00  0.00     0.000 C 
ENDBRANCH  15  16
ENDBRANCH  10  15
ENDBRANCH   4   6
ENDBRANCH   3   4
ENDBRANCH   2   3
ENDBRANCH   1   2
BRANCH   1  22
ATOM     22  O   UNL     1       2.883   1.863   0.653  1.00  0.00    -0.458 OA
BRANCH  22  23
ATOM     23  C   UNL     1       2.545   2.866   1.497  1.00  0.00     0.338 C 
ATOM     24  O   UNL     1       2.689   4.061   1.305  1.00  0.00    -0.246 OA
BRANCH  23  25
ATOM     25  C   UNL     1       1.926   2.316   2.721  1.00  0.00     0.060 A 
ATOM     26  C   UNL     1       1.002   1.274   2.649  1.00  0.00     0.016 A 
ATOM     27  C   UNL     1       2.175   2.934   3.945  1.00  0.00     0.016 A 
ATOM     28  C   UNL     1       0.242   0.930   3.767  1.00  0.00     0.010 A 
ATOM     29  C   UNL     1       1.502   2.500   5.092  1.00  0.00     0.010 A 
ATOM     30  C   UNL     1       0.496   1.520   5.013  1.00  0.00    -0.014 A 
BRANCH  30  31
ATOM     31  C   UNL     1      -0.276   1.132   6.230  1.00  0.00     0.031 A 
ATOM     32  C   UNL     1      -0.954   2.186   7.070  1.00  0.00     0.074 A 
ATOM     33  C   UNL     1      -0.333  -0.158   6.623  1.00  0.00     0.049 A 
ATOM     34  N   UNL     1      -1.443   2.092   8.280  1.00  0.00    -0.248 NA
ATOM     35  C   UNL     1      -1.077   3.531   6.481  1.00  0.00     0.031 C 
ATOM     36  C   UNL     1       0.262  -1.291   5.913  1.00  0.00     0.029 A 
ATOM     37  N   UNL     1      -0.906  -0.732   7.734  1.00  0.00    -0.354 N 
ATOM     38  C   UNL     1      -1.842   3.376   8.632  1.00  0.00     0.074 A 
ATOM     39  C   UNL     1      -1.560   4.231   7.499  1.00  0.00     0.031 C 
ATOM     40  C   UNL     1       0.004  -2.421   6.586  1.00  0.00     0.029 A 
ATOM     41  C   UNL     1      -0.692  -2.088   7.822  1.00  0.00     0.049 A 
ATOM     42  H   UNL     1      -1.420  -0.221   8.400  1.00  0.00     0.167 HD
ATOM     43  C   UNL     1      -2.399   3.804   9.791  1.00  0.00     0.034 A 
ATOM     44  C   UNL     1      -0.974  -2.966   8.805  1.00  0.00     0.034 A 
ATOM     45  C   UNL     1      -2.776   2.938  10.876  1.00  0.00     0.049 A 
ATOM     46  C   UNL     1      -1.632  -2.475  10.062  1.00  0.00     0.074 A 
ATOM     47  C   UNL     1      -3.391   3.273  12.071  1.00  0.00     0.029 A 
ATOM     48  N   UNL     1      -2.601   1.563  10.890  1.00  0.00    -0.354 N 
ATOM     49  N   UNL     1      -2.021  -1.261  10.368  1.00  0.00    -0.248 NA
ATOM     50  C   UNL     1      -1.894  -3.473  11.108  1.00  0.00     0.031 C 
ATOM     51  C   UNL     1      -3.592   2.099  12.805  1.00  0.00     0.029 A 
ATOM     52  C   UNL     1      -3.103   1.033  12.067  1.00  0.00     0.049 A 
ATOM     53  H   UNL     1      -2.181   1.040  10.169  1.00  0.00     0.167 HD
ATOM     54  C   UNL     1      -2.581  -1.350  11.636  1.00  0.00     0.074 A 
ATOM     55  C   UNL     1      -2.513  -2.743  12.027  1.00  0.00     0.031 C 
ATOM     56  C   UNL     1      -3.079  -0.362  12.419  1.00  0.00     0.034 A 
BRANCH  43  57
ATOM     57  C   UNL     1      -2.675   5.277   9.940  1.00  0.00     0.023 A 
ATOM     58  C   UNL     1      -3.785   5.849   9.290  1.00  0.00     0.012 A 
ATOM     59  C   UNL     1      -1.878   6.078  10.782  1.00  0.00     0.148 A 
ATOM     60  C   UNL     1      -4.086   7.200   9.457  1.00  0.00     0.002 A 
ATOM     61  C   UNL     1      -2.206   7.416  10.974  1.00  0.00     0.091 A 
ATOM     62  F   UNL     1      -0.809   5.523  11.373  1.00  0.00    -0.205 F 
ATOM     63  C   UNL     1      -3.305   7.980  10.307  1.00  0.00     0.022 A 
BRANCH  61  64
ATOM     64  S   UNL     1      -1.297   8.473  12.109  1.00  0.00     0.127 S 
ATOM     65  O   UNL     1      -0.456   9.239  11.192  1.00  0.00    -0.237 OA
ATOM     66  O   UNL     1      -2.367   9.245  12.743  1.00  0.00    -0.237 OA
ATOM     67  O   UNL     1      -0.593   7.571  13.010  1.00  0.00    -0.744 OA
ENDBRANCH  61  64
ENDBRANCH  43  57
BRANCH  44  68
ATOM     68  C   UNL     1      -0.643  -4.407   8.619  1.00  0.00     0.023 A 
ATOM     69  C   UNL     1      -1.687  -5.334   8.438  1.00  0.00     0.012 A 
ATOM     70  C   UNL     1       0.691  -4.854   8.548  1.00  0.00     0.148 A 
ATOM     71  C   UNL     1      -1.408  -6.681   8.199  1.00  0.00     0.002 A 
ATOM     72  C   UNL     1       0.962  -6.184   8.247  1.00  0.00     0.091 A 
ATOM     73  F   UNL     1       1.673  -3.965   8.753  1.00  0.00    -0.205 F 
ATOM     74  C   UNL     1      -0.086  -7.102   8.086  1.00  0.00     0.022 A 
BRANCH  72  75
ATOM     75  S   UNL     1       2.635  -6.754   7.925  1.00  0.00     0.127 S 
ATOM     76  O   UNL     1       3.003  -7.349   9.206  1.00  0.00    -0.237 OA
ATOM     77  O   UNL     1       2.436  -7.711   6.836  1.00  0.00    -0.237 OA
ATOM     78  O   UNL     1       3.374  -5.559   7.535  1.00  0.00    -0.744 OA
ENDBRANCH  72  75
ENDBRANCH  44  68
BRANCH  56  79
ATOM     79  C   UNL     1      -3.601  -0.751  13.775  1.00  0.00     0.023 A 
ATOM     80  C   UNL     1      -2.687  -1.023  14.812  1.00  0.00     0.012 A 
ATOM     81  C   UNL     1      -4.983  -0.783  14.041  1.00  0.00     0.148 A 
ATOM     82  C   UNL     1      -3.142  -1.345  16.089  1.00  0.00     0.002 A 
ATOM     83  C   UNL     1      -5.428  -1.070  15.326  1.00  0.00     0.091 A 
ATOM     84  F   UNL     1      -5.836  -0.545  13.034  1.00  0.00    -0.205 F 
ATOM     85  C   UNL     1      -4.511  -1.358  16.349  1.00  0.00     0.022 A 
BRANCH  83  86
ATOM     86  S   UNL     1      -7.171  -1.031  15.759  1.00  0.00     0.127 S 
ATOM     87  O   UNL     1      -7.518  -2.450  15.736  1.00  0.00    -0.237 OA
ATOM     88  O   UNL     1      -7.153  -0.430  17.094  1.00  0.00    -0.237 OA
ATOM     89  O   UNL     1      -7.811  -0.207  14.742  1.00  0.00    -0.744 OA
ENDBRANCH  83  86
ENDBRANCH  56  79
ENDBRANCH  30  31
ENDBRANCH  23  25
ENDBRANCH  22  23
ENDBRANCH   1  22
TORSDOF 17
