REMARK SMILES COc1ccccc1/C=C/C(=O)Nc1cccc(C(=O)Nc2ccccc2C(=O)OCCOC(=O)c2ccc(-c3c4nc(c(-c5cccc(S(=O)(=O)[O-])c5F)c5ccc([nH]5)c(-c5cccc(S(=O)(=O)[O-])c5F)c5nc(c(-c6cccc(S(=O)(=O)[O-])c6F)c6ccc3[nH]6)C=C5)C=C4)cc2)c1
REMARK SMILES IDX 30 1 28 2 29 3 27 4 22 5 23 6 24 7 26 8 25 9 21 10 19 11
REMARK SMILES IDX 20 12 18 14 14 15 15 16 99 17 16 18 17 19 13 20 11 21 12 22
REMARK SMILES IDX 10 24 9 25 8 26 3 27 4 28 5 29 7 30 6 31 2 32 1 33 31 34
REMARK SMILES IDX 32 35 33 36 34 37 35 38 36 39 37 40 98 41 38 42 97 43 39 44
REMARK SMILES IDX 40 45 41 46 91 47 42 48 96 49 90 50 92 51 43 52 95 53 89 54
REMARK SMILES IDX 88 55 44 57 76 58 56 59 75 60 57 61 60 62 74 63 93 64 58 65
REMARK SMILES IDX 59 66 73 68 94 69 61 70 45 71 46 72 54 73 47 74 49 75 55 76
REMARK SMILES IDX 48 77 50 78 51 79 52 80 53 81 77 82 78 83 86 84 79 85 81 86
REMARK SMILES IDX 87 87 80 88 82 89 83 90 84 91 85 92 62 93 63 94 71 95 64 96
REMARK SMILES IDX 66 97 72 98 65 99 67 100 68 101 69 102 70 103
REMARK H PARENT 21 13 13 23 92 56 60 67
REMARK Flexibility Score: inf
ROOT
ATOM      1  O   UNL     1       2.947  -2.299   3.962  1.00  0.00    -0.458 OA
ENDROOT
BRANCH   1   2
ATOM      2  C   UNL     1       3.727  -2.031   2.893  1.00  0.00     0.340 C 
ATOM      3  O   UNL     1       4.316  -0.974   2.708  1.00  0.00    -0.246 OA
BRANCH   2   4
ATOM      4  C   UNL     1       3.742  -3.085   1.867  1.00  0.00     0.083 A 
ATOM      5  C   UNL     1       2.582  -3.484   1.187  1.00  0.00     0.056 A 
ATOM      6  C   UNL     1       2.700  -4.456   0.177  1.00  0.00     0.027 A 
ATOM      7  C   UNL     1       3.953  -4.911  -0.249  1.00  0.00     0.002 A 
ATOM      8  C   UNL     1       4.995  -3.571   1.450  1.00  0.00     0.018 A 
ATOM      9  C   UNL     1       5.105  -4.454   0.377  1.00  0.00     0.001 A 
BRANCH   5  10
ATOM     10  N   UNL     1       1.290  -2.946   1.375  1.00  0.00    -0.321 N 
ATOM     11  C   UNL     1       0.842  -1.677   1.707  1.00  0.00     0.255 C 
ATOM     12  O   UNL     1      -0.299  -1.562   2.161  1.00  0.00    -0.269 OA
ATOM     13  H   UNL     1       0.566  -3.600   1.246  1.00  0.00     0.170 HD
BRANCH  11  14
ATOM     14  C   UNL     1       1.624  -0.427   1.420  1.00  0.00     0.042 A 
ATOM     15  C   UNL     1       3.462   0.730   0.274  1.00  0.00     0.042 A 
ATOM     16  C   UNL     1       3.134   1.897   0.961  1.00  0.00     0.026 A 
ATOM     17  C   UNL     1       2.686  -0.406   0.508  1.00  0.00     0.040 A 
ATOM     18  C   UNL     1       2.024   1.927   1.816  1.00  0.00     0.003 A 
ATOM     19  C   UNL     1       1.266   0.772   2.038  1.00  0.00     0.014 A 
BRANCH  15  20
ATOM     20  N   UNL     1       4.605   0.727  -0.558  1.00  0.00    -0.322 N 
ATOM     21  C   UNL     1       5.069  -0.190  -1.468  1.00  0.00     0.248 C 
ATOM     22  O   UNL     1       6.236  -0.162  -1.852  1.00  0.00    -0.270 OA
ATOM     23  H   UNL     1       5.170   1.528  -0.469  1.00  0.00     0.170 HD
BRANCH  21  24
ATOM     24  C   UNL     1       4.169  -1.239  -2.007  1.00  0.00     0.072 C 
ATOM     25  C   UNL     1       2.955  -0.928  -2.492  1.00  0.00     0.017 C 
BRANCH  25  26
ATOM     26  C   UNL     1       1.915  -1.936  -2.748  1.00  0.00     0.017 A 
ATOM     27  C   UNL     1       0.642  -1.871  -2.145  1.00  0.00     0.126 A 
ATOM     28  C   UNL     1      -0.282  -2.906  -2.313  1.00  0.00     0.047 A 
ATOM     29  C   UNL     1       0.029  -4.002  -3.111  1.00  0.00     0.004 A 
ATOM     30  C   UNL     1       2.209  -3.046  -3.553  1.00  0.00     0.012 A 
ATOM     31  C   UNL     1       1.274  -4.071  -3.731  1.00  0.00     0.001 A 
BRANCH  27  32
ATOM     32  O   UNL     1       0.286  -0.951  -1.196  1.00  0.00    -0.496 OA
ATOM     33  C   UNL     1       0.001   0.351  -1.688  1.00  0.00     0.278 C 
ENDBRANCH  27  32
ENDBRANCH  25  26
ENDBRANCH  21  24
ENDBRANCH  15  20
ENDBRANCH  11  14
ENDBRANCH   5  10
ENDBRANCH   2   4
ENDBRANCH   1   2
BRANCH   1  34
ATOM     34  C   UNL     1       2.747  -1.150   4.813  1.00  0.00     0.275 C 
BRANCH  34  35
ATOM     35  C   UNL     1       3.813  -0.981   5.901  1.00  0.00     0.275 C 
BRANCH  35  36
ATOM     36  O   UNL     1       5.100  -0.606   5.373  1.00  0.00    -0.458 OA
BRANCH  36  37
ATOM     37  C   UNL     1       5.911  -1.651   5.086  1.00  0.00     0.338 C 
ATOM     38  O   UNL     1       5.678  -2.832   5.274  1.00  0.00    -0.246 OA
BRANCH  37  39
ATOM     39  C   UNL     1       7.156  -1.210   4.438  1.00  0.00     0.060 A 
ATOM     40  C   UNL     1       7.224  -1.180   3.045  1.00  0.00     0.016 A 
ATOM     41  C   UNL     1       8.319  -1.103   5.193  1.00  0.00     0.016 A 
ATOM     42  C   UNL     1       8.440  -1.191   2.393  1.00  0.00     0.010 A 
ATOM     43  C   UNL     1       9.545  -0.999   4.534  1.00  0.00     0.010 A 
ATOM     44  C   UNL     1       9.614  -1.098   3.131  1.00  0.00    -0.014 A 
BRANCH  44  45
ATOM     45  C   UNL     1      10.914  -1.190   2.438  1.00  0.00     0.031 A 
ATOM     46  C   UNL     1      11.852  -2.301   2.800  1.00  0.00     0.074 A 
ATOM     47  C   UNL     1      11.237  -0.285   1.496  1.00  0.00     0.049 A 
ATOM     48  N   UNL     1      13.117  -2.439   2.518  1.00  0.00    -0.248 NA
ATOM     49  C   UNL     1      11.293  -3.396   3.614  1.00  0.00     0.031 C 
ATOM     50  C   UNL     1      10.358   0.778   0.999  1.00  0.00     0.029 A 
ATOM     51  N   UNL     1      12.401  -0.105   0.798  1.00  0.00    -0.354 N 
ATOM     52  C   UNL     1      13.533  -3.573   3.204  1.00  0.00     0.074 A 
ATOM     53  C   UNL     1      12.378  -4.101   3.897  1.00  0.00     0.031 C 
ATOM     54  C   UNL     1      11.012   1.496   0.075  1.00  0.00     0.029 A 
ATOM     55  C   UNL     1      12.381   1.009  -0.007  1.00  0.00     0.049 A 
ATOM     56  H   UNL     1      13.173  -0.712   0.865  1.00  0.00     0.167 HD
ATOM     57  C   UNL     1      14.774  -4.110   3.254  1.00  0.00     0.034 A 
ATOM     58  C   UNL     1      13.376   1.606  -0.686  1.00  0.00     0.034 A 
ATOM     59  C   UNL     1      15.884  -3.589   2.501  1.00  0.00     0.049 A 
ATOM     60  C   UNL     1      14.750   1.011  -0.592  1.00  0.00     0.074 A 
ATOM     61  C   UNL     1      17.179  -4.066   2.430  1.00  0.00     0.029 A 
ATOM     62  N   UNL     1      15.823  -2.467   1.685  1.00  0.00    -0.354 N 
ATOM     63  N   UNL     1      15.140  -0.066   0.049  1.00  0.00    -0.248 NA
ATOM     64  C   UNL     1      15.819   1.706  -1.316  1.00  0.00     0.031 C 
ATOM     65  C   UNL     1      17.910  -3.210   1.598  1.00  0.00     0.029 A 
ATOM     66  C   UNL     1      17.061  -2.224   1.117  1.00  0.00     0.049 A 
ATOM     67  H   UNL     1      15.017  -1.923   1.532  1.00  0.00     0.167 HD
ATOM     68  C   UNL     1      16.494  -0.201  -0.224  1.00  0.00     0.074 A 
ATOM     69  C   UNL     1      16.850   0.900  -1.100  1.00  0.00     0.031 C 
ATOM     70  C   UNL     1      17.369  -1.141   0.215  1.00  0.00     0.034 A 
BRANCH  57  71
ATOM     71  C   UNL     1      14.990  -5.286   4.171  1.00  0.00     0.023 A 
ATOM     72  C   UNL     1      14.411  -6.538   3.882  1.00  0.00     0.012 A 
ATOM     73  C   UNL     1      15.773  -5.144   5.335  1.00  0.00     0.148 A 
ATOM     74  C   UNL     1      14.561  -7.612   4.761  1.00  0.00     0.002 A 
ATOM     75  C   UNL     1      15.963  -6.232   6.179  1.00  0.00     0.091 A 
ATOM     76  F   UNL     1      16.296  -3.940   5.612  1.00  0.00    -0.205 F 
ATOM     77  C   UNL     1      15.343  -7.461   5.903  1.00  0.00     0.022 A 
BRANCH  75  78
ATOM     78  S   UNL     1      17.020  -6.155   7.628  1.00  0.00     0.127 S 
ATOM     79  O   UNL     1      16.039  -6.156   8.712  1.00  0.00    -0.237 OA
ATOM     80  O   UNL     1      17.796  -7.391   7.509  1.00  0.00    -0.237 OA
ATOM     81  O   UNL     1      17.802  -4.935   7.490  1.00  0.00    -0.744 OA
ENDBRANCH  75  78
ENDBRANCH  57  71
BRANCH  58  82
ATOM     82  C   UNL     1      13.093   2.813  -1.511  1.00  0.00     0.023 A 
ATOM     83  C   UNL     1      13.162   2.712  -2.913  1.00  0.00     0.012 A 
ATOM     84  C   UNL     1      12.695   4.034  -0.929  1.00  0.00     0.148 A 
ATOM     85  C   UNL     1      12.858   3.808  -3.721  1.00  0.00     0.002 A 
ATOM     86  C   UNL     1      12.339   5.106  -1.740  1.00  0.00     0.091 A 
ATOM     87  F   UNL     1      12.641   4.113   0.408  1.00  0.00    -0.205 F 
ATOM     88  C   UNL     1      12.437   4.999  -3.136  1.00  0.00     0.022 A 
BRANCH  86  89
ATOM     89  S   UNL     1      11.660   6.636  -1.087  1.00  0.00     0.127 S 
ATOM     90  O   UNL     1      12.712   7.594  -1.416  1.00  0.00    -0.237 OA
ATOM     91  O   UNL     1      10.431   6.778  -1.869  1.00  0.00    -0.237 OA
ATOM     92  O   UNL     1      11.446   6.401   0.334  1.00  0.00    -0.744 OA
ENDBRANCH  86  89
ENDBRANCH  58  82
BRANCH  70  93
ATOM     93  C   UNL     1      18.783  -1.046  -0.290  1.00  0.00     0.023 A 
ATOM     94  C   UNL     1      19.635  -0.031   0.186  1.00  0.00     0.012 A 
ATOM     95  C   UNL     1      19.281  -2.009  -1.189  1.00  0.00     0.148 A 
ATOM     96  C   UNL     1      20.955   0.045  -0.256  1.00  0.00     0.002 A 
ATOM     97  C   UNL     1      20.611  -1.960  -1.579  1.00  0.00     0.091 A 
ATOM     98  F   UNL     1      18.444  -2.954  -1.643  1.00  0.00    -0.205 F 
ATOM     99  C   UNL     1      21.446  -0.926  -1.126  1.00  0.00     0.022 A 
BRANCH  97 100
ATOM    100  S   UNL     1      21.356  -3.226  -2.612  1.00  0.00     0.127 S 
ATOM    101  O   UNL     1      21.556  -2.506  -3.869  1.00  0.00    -0.237 OA
ATOM    102  O   UNL     1      22.586  -3.535  -1.883  1.00  0.00    -0.237 OA
ATOM    103  O   UNL     1      20.395  -4.320  -2.666  1.00  0.00    -0.744 OA
ENDBRANCH  97 100
ENDBRANCH  70  93
ENDBRANCH  44  45
ENDBRANCH  37  39
ENDBRANCH  36  37
ENDBRANCH  35  36
ENDBRANCH  34  35
ENDBRANCH   1  34
TORSDOF 20
