REMARK SMILES C=CCN(CC(=O)OCCOC(=O)c1ccc(-c2c3nc(c(-c4cccc(S(=O)(=O)[O-])c4F)c4ccc([nH]4)c(-c4cccc(S(=O)(=O)[O-])c4F)c4nc(c(-c5cccc(S(=O)(=O)[O-])c5F)c5ccc2[nH]5)C=C4)C=C3)cc1)c1nccn(C)c1=O
REMARK SMILES IDX 9 1 8 2 6 3 7 4 5 5 4 6 3 7 2 8 1 9 77 10 78 11 83 12 79 13
REMARK SMILES IDX 81 14 84 15 80 16 82 17 10 18 11 19 12 20 13 21 14 22 15 23
REMARK SMILES IDX 76 24 16 25 75 26 17 27 18 28 19 29 69 30 20 31 74 32 68 33
REMARK SMILES IDX 70 34 21 35 73 36 67 37 66 38 22 40 54 41 34 42 53 43 35 44
REMARK SMILES IDX 38 45 52 46 71 47 36 48 37 49 51 51 72 52 39 53 23 54 24 55
REMARK SMILES IDX 32 56 25 57 27 58 33 59 26 60 28 61 29 62 30 63 31 64 55 65
REMARK SMILES IDX 56 66 64 67 57 68 59 69 65 70 58 71 60 72 61 73 62 74 63 75
REMARK SMILES IDX 40 76 41 77 49 78 42 79 44 80 50 81 43 82 45 83 46 84 47 85
REMARK SMILES IDX 48 86
REMARK H PARENT 70 39 38 50
REMARK Flexibility Score: inf
ROOT
ATOM      1  C   UNL     1      -5.792  -1.476  -1.948  1.00  0.00     0.274 C 
ENDROOT
BRANCH   1   2
ATOM      2  O   UNL     1      -4.401  -1.277  -1.620  1.00  0.00    -0.461 OA
BRANCH   2   3
ATOM      3  C   UNL     1      -3.707  -2.376  -1.230  1.00  0.00     0.325 C 
ATOM      4  O   UNL     1      -4.210  -3.486  -1.070  1.00  0.00    -0.250 OA
BRANCH   3   5
ATOM      5  C   UNL     1      -2.218  -2.144  -0.998  1.00  0.00     0.241 C 
BRANCH   5   6
ATOM      6  N   UNL     1      -1.748  -0.766  -1.192  1.00  0.00    -0.337 N 
BRANCH   6   7
ATOM      7  C   UNL     1      -1.329  -0.039  -0.009  1.00  0.00     0.146 C 
BRANCH   7   8
ATOM      8  C   UNL     1       0.070  -0.457   0.358  1.00  0.00    -0.014 C 
ATOM      9  C   UNL     1       1.120   0.370   0.455  1.00  0.00     0.006 C 
ENDBRANCH   7   8
ENDBRANCH   6   7
BRANCH   6  10
ATOM     10  C   UNL     1      -1.222  -0.419  -2.435  1.00  0.00     0.196 A 
ATOM     11  N   UNL     1      -0.123  -0.998  -2.856  1.00  0.00    -0.233 NA
ATOM     12  C   UNL     1      -1.987   0.617  -3.317  1.00  0.00     0.293 A 
ATOM     13  C   UNL     1       0.291  -0.717  -4.129  1.00  0.00     0.131 A 
ATOM     14  N   UNL     1      -1.554   0.659  -4.643  1.00  0.00    -0.314 N 
ATOM     15  O   UNL     1      -2.888   1.292  -2.831  1.00  0.00    -0.265 OA
ATOM     16  C   UNL     1      -0.394   0.018  -5.011  1.00  0.00     0.109 A 
ATOM     17  C   UNL     1      -2.392   1.259  -5.660  1.00  0.00     0.153 C 
ENDBRANCH   6  10
ENDBRANCH   5   6
ENDBRANCH   3   5
ENDBRANCH   2   3
ENDBRANCH   1   2
BRANCH   1  18
ATOM     18  C   UNL     1      -6.017  -1.511  -3.461  1.00  0.00     0.275 C 
BRANCH  18  19
ATOM     19  O   UNL     1      -5.399  -2.663  -4.062  1.00  0.00    -0.458 OA
BRANCH  19  20
ATOM     20  C   UNL     1      -4.152  -2.427  -4.526  1.00  0.00     0.338 C 
ATOM     21  O   UNL     1      -3.547  -1.373  -4.487  1.00  0.00    -0.246 OA
BRANCH  20  22
ATOM     22  C   UNL     1      -3.535  -3.619  -5.098  1.00  0.00     0.060 A 
ATOM     23  C   UNL     1      -2.671  -4.379  -4.309  1.00  0.00     0.016 A 
ATOM     24  C   UNL     1      -3.670  -3.858  -6.465  1.00  0.00     0.016 A 
ATOM     25  C   UNL     1      -1.932  -5.402  -4.892  1.00  0.00     0.010 A 
ATOM     26  C   UNL     1      -2.953  -4.903  -7.043  1.00  0.00     0.010 A 
ATOM     27  C   UNL     1      -2.085  -5.680  -6.258  1.00  0.00    -0.014 A 
BRANCH  27  28
ATOM     28  C   UNL     1      -1.463  -6.886  -6.841  1.00  0.00     0.031 A 
ATOM     29  C   UNL     1      -0.290  -6.791  -7.766  1.00  0.00     0.074 A 
ATOM     30  C   UNL     1      -2.052  -8.066  -6.578  1.00  0.00     0.049 A 
ATOM     31  N   UNL     1       0.295  -7.745  -8.441  1.00  0.00    -0.248 NA
ATOM     32  C   UNL     1       0.302  -5.459  -7.963  1.00  0.00     0.031 C 
ATOM     33  C   UNL     1      -3.221  -8.240  -5.712  1.00  0.00     0.029 A 
ATOM     34  N   UNL     1      -1.784  -9.327  -7.038  1.00  0.00    -0.354 N 
ATOM     35  C   UNL     1       1.309  -7.132  -9.164  1.00  0.00     0.074 A 
ATOM     36  C   UNL     1       1.262  -5.720  -8.844  1.00  0.00     0.031 C 
ATOM     37  C   UNL     1      -3.594  -9.527  -5.733  1.00  0.00     0.029 A 
ATOM     38  C   UNL     1      -2.715 -10.256  -6.639  1.00  0.00     0.049 A 
ATOM     39  H   UNL     1      -1.005  -9.546  -7.599  1.00  0.00     0.167 HD
ATOM     40  C   UNL     1       2.202  -7.708 -10.003  1.00  0.00     0.034 A 
ATOM     41  C   UNL     1      -2.869 -11.544  -6.994  1.00  0.00     0.034 A 
ATOM     42  C   UNL     1       2.247  -9.120 -10.281  1.00  0.00     0.049 A 
ATOM     43  C   UNL     1      -1.878 -12.150  -7.941  1.00  0.00     0.074 A 
ATOM     44  C   UNL     1       3.171  -9.822 -11.036  1.00  0.00     0.029 A 
ATOM     45  N   UNL     1       1.317 -10.044  -9.828  1.00  0.00    -0.354 N 
ATOM     46  N   UNL     1      -0.834 -11.589  -8.502  1.00  0.00    -0.248 NA
ATOM     47  C   UNL     1      -2.069 -13.562  -8.290  1.00  0.00     0.031 C 
ATOM     48  C   UNL     1       2.790 -11.169 -11.050  1.00  0.00     0.029 A 
ATOM     49  C   UNL     1       1.628 -11.306 -10.306  1.00  0.00     0.049 A 
ATOM     50  H   UNL     1       0.548  -9.834  -9.250  1.00  0.00     0.167 HD
ATOM     51  C   UNL     1      -0.239 -12.578  -9.270  1.00  0.00     0.074 A 
ATOM     52  C   UNL     1      -1.022 -13.784  -9.076  1.00  0.00     0.031 C 
ATOM     53  C   UNL     1       0.844 -12.493 -10.081  1.00  0.00     0.034 A 
BRANCH  40  54
ATOM     54  C   UNL     1       3.240  -6.827 -10.643  1.00  0.00     0.023 A 
ATOM     55  C   UNL     1       4.371  -6.446  -9.895  1.00  0.00     0.012 A 
ATOM     56  C   UNL     1       3.142  -6.445 -11.995  1.00  0.00     0.148 A 
ATOM     57  C   UNL     1       5.386  -5.689 -10.480  1.00  0.00     0.002 A 
ATOM     58  C   UNL     1       4.169  -5.710 -12.578  1.00  0.00     0.091 A 
ATOM     59  F   UNL     1       2.044  -6.793 -12.681  1.00  0.00    -0.205 F 
ATOM     60  C   UNL     1       5.290  -5.330 -11.822  1.00  0.00     0.022 A 
BRANCH  58  61
ATOM     61  S   UNL     1       4.154  -5.244 -14.314  1.00  0.00     0.127 S 
ATOM     62  O   UNL     1       3.783  -3.832 -14.236  1.00  0.00    -0.237 OA
ATOM     63  O   UNL     1       5.540  -5.488 -14.716  1.00  0.00    -0.237 OA
ATOM     64  O   UNL     1       3.179  -6.118 -14.950  1.00  0.00    -0.744 OA
ENDBRANCH  58  61
ENDBRANCH  40  54
BRANCH  41  65
ATOM     65  C   UNL     1      -3.994 -12.323  -6.412  1.00  0.00     0.023 A 
ATOM     66  C   UNL     1      -3.729 -13.281  -5.418  1.00  0.00     0.012 A 
ATOM     67  C   UNL     1      -5.331 -12.036  -6.753  1.00  0.00     0.148 A 
ATOM     68  C   UNL     1      -4.776 -13.941  -4.773  1.00  0.00     0.002 A 
ATOM     69  C   UNL     1      -6.370 -12.656  -6.067  1.00  0.00     0.091 A 
ATOM     70  F   UNL     1      -5.567 -11.135  -7.718  1.00  0.00    -0.205 F 
ATOM     71  C   UNL     1      -6.095 -13.617  -5.084  1.00  0.00     0.022 A 
BRANCH  69  72
ATOM     72  S   UNL     1      -8.076 -12.151  -6.318  1.00  0.00     0.127 S 
ATOM     73  O   UNL     1      -8.515 -13.071  -7.363  1.00  0.00    -0.237 OA
ATOM     74  O   UNL     1      -8.675 -12.385  -5.003  1.00  0.00    -0.237 OA
ATOM     75  O   UNL     1      -7.995 -10.743  -6.686  1.00  0.00    -0.744 OA
ENDBRANCH  69  72
ENDBRANCH  41  65
BRANCH  53  76
ATOM     76  C   UNL     1       1.221 -13.732 -10.842  1.00  0.00     0.023 A 
ATOM     77  C   UNL     1       0.483 -14.075 -11.992  1.00  0.00     0.012 A 
ATOM     78  C   UNL     1       2.322 -14.520 -10.460  1.00  0.00     0.148 A 
ATOM     79  C   UNL     1       0.825 -15.198 -12.742  1.00  0.00     0.002 A 
ATOM     80  C   UNL     1       2.678 -15.620 -11.232  1.00  0.00     0.091 A 
ATOM     81  F   UNL     1       2.993 -14.190  -9.347  1.00  0.00    -0.205 F 
ATOM     82  C   UNL     1       1.927 -15.964 -12.369  1.00  0.00     0.022 A 
BRANCH  80  83
ATOM     83  S   UNL     1       4.126 -16.614 -10.859  1.00  0.00     0.127 S 
ATOM     84  O   UNL     1       3.532 -17.766 -10.182  1.00  0.00    -0.237 OA
ATOM     85  O   UNL     1       4.666 -16.900 -12.189  1.00  0.00    -0.237 OA
ATOM     86  O   UNL     1       4.981 -15.769 -10.036  1.00  0.00    -0.744 OA
ENDBRANCH  80  83
ENDBRANCH  53  76
ENDBRANCH  27  28
ENDBRANCH  20  22
ENDBRANCH  19  20
ENDBRANCH  18  19
ENDBRANCH   1  18
TORSDOF 18
