REMARK SMILES Cc1cc([C@H]([NH3+])C(=O)OCCOC(=O)c2ccc(-c3c4nc(c(-c5cccc(S(=O)(=O)[O-])c5F)c5ccc([nH]5)c(-c5cccc(S(=O)(=O)[O-])c5F)c5nc(c(-c6cccc(S(=O)(=O)[O-])c6F)c6ccc3[nH]6)C=C5)C=C4)cc2)ccc1Cl
REMARK SMILES IDX 11 1 10 2 9 3 7 4 8 5 5 6 4 7 1 8 2 9 3 10 80 11 79 12 81 13
REMARK SMILES IDX 78 14 6 15 12 19 13 20 14 21 15 22 16 23 77 24 17 25 76 26
REMARK SMILES IDX 18 27 19 28 20 29 70 30 21 31 75 32 69 33 71 34 22 35 74 36
REMARK SMILES IDX 68 37 67 38 23 40 55 41 35 42 54 43 36 44 39 45 53 46 72 47
REMARK SMILES IDX 37 48 38 49 52 51 73 52 40 53 24 54 25 55 33 56 26 57 28 58
REMARK SMILES IDX 34 59 27 60 29 61 30 62 31 63 32 64 56 65 57 66 65 67 58 68
REMARK SMILES IDX 60 69 66 70 59 71 61 72 62 73 63 74 64 75 41 76 42 77 50 78
REMARK SMILES IDX 43 79 45 80 51 81 44 82 46 83 47 84 48 85 49 86
REMARK H PARENT 6 16 6 17 6 18 71 39 39 50
REMARK Flexibility Score: inf
ROOT
ATOM      1  C   UNL     1      -4.296  -1.651   3.948  1.00  0.00     0.275 C 
ENDROOT
BRANCH   1   2
ATOM      2  C   UNL     1      -4.896  -2.332   2.714  1.00  0.00     0.274 C 
BRANCH   2   3
ATOM      3  O   UNL     1      -4.203  -1.933   1.520  1.00  0.00    -0.457 OA
BRANCH   3   4
ATOM      4  C   UNL     1      -4.806  -0.980   0.751  1.00  0.00     0.369 C 
ATOM      5  O   UNL     1      -5.931  -0.535   0.956  1.00  0.00    -0.245 OA
BRANCH   4   6
ATOM      6  C   UNL     1      -3.910  -0.501  -0.413  1.00  0.00     0.323 C 
BRANCH   6   7
ATOM      7  C   UNL     1      -4.359  -1.107  -1.724  1.00  0.00     0.021 A 
ATOM      8  C   UNL     1      -4.541  -4.568  -3.298  1.00  0.00     0.046 C 
ATOM      9  C   UNL     1      -4.693  -3.085  -3.124  1.00  0.00    -0.032 A 
ATOM     10  C   UNL     1      -4.214  -2.485  -1.951  1.00  0.00     0.015 A 
ATOM     11  C   UNL     1      -5.305  -2.274  -4.091  1.00  0.00     0.043 A 
ATOM     12  C   UNL     1      -5.444  -0.900  -3.881  1.00  0.00     0.021 A 
ATOM     13  Cl  UNL     1      -5.913  -2.934  -5.567  1.00  0.00    -0.084 Cl
ATOM     14  C   UNL     1      -4.979  -0.319  -2.701  1.00  0.00     0.012 A 
ENDBRANCH   6   7
BRANCH   6  15
ATOM     15  N   UNL     1      -2.470  -0.740  -0.167  1.00  0.00    -0.342 N 
ATOM     16  H   UNL     1      -2.299  -1.744  -0.097  1.00  0.00     0.345 HD
ATOM     17  H   UNL     1      -2.193  -0.287   0.704  1.00  0.00     0.345 HD
ATOM     18  H   UNL     1      -1.924  -0.356  -0.939  1.00  0.00     0.345 HD
ENDBRANCH   6  15
ENDBRANCH   4   6
ENDBRANCH   3   4
ENDBRANCH   2   3
ENDBRANCH   1   2
BRANCH   1  19
ATOM     19  O   UNL     1      -4.625  -0.251   4.010  1.00  0.00    -0.458 OA
BRANCH  19  20
ATOM     20  C   UNL     1      -3.790   0.574   3.336  1.00  0.00     0.338 C 
ATOM     21  O   UNL     1      -2.785   0.265   2.715  1.00  0.00    -0.246 OA
BRANCH  20  22
ATOM     22  C   UNL     1      -4.352   1.933   3.301  1.00  0.00     0.060 A 
ATOM     23  C   UNL     1      -4.526   2.527   2.048  1.00  0.00     0.016 A 
ATOM     24  C   UNL     1      -4.638   2.643   4.468  1.00  0.00     0.016 A 
ATOM     25  C   UNL     1      -4.968   3.839   1.949  1.00  0.00     0.010 A 
ATOM     26  C   UNL     1      -5.087   3.963   4.368  1.00  0.00     0.010 A 
ATOM     27  C   UNL     1      -5.238   4.572   3.109  1.00  0.00    -0.014 A 
BRANCH  27  28
ATOM     28  C   UNL     1      -5.630   5.994   2.993  1.00  0.00     0.031 A 
ATOM     29  C   UNL     1      -4.644   7.067   3.349  1.00  0.00     0.074 A 
ATOM     30  C   UNL     1      -6.863   6.311   2.560  1.00  0.00     0.049 A 
ATOM     31  N   UNL     1      -4.809   8.363   3.372  1.00  0.00    -0.248 NA
ATOM     32  C   UNL     1      -3.292   6.624   3.731  1.00  0.00     0.031 C 
ATOM     33  C   UNL     1      -7.894   5.347   2.172  1.00  0.00     0.029 A 
ATOM     34  N   UNL     1      -7.465   7.532   2.392  1.00  0.00    -0.354 N 
ATOM     35  C   UNL     1      -3.601   8.890   3.812  1.00  0.00     0.074 A 
ATOM     36  C   UNL     1      -2.709   7.774   4.041  1.00  0.00     0.031 C 
ATOM     37  C   UNL     1      -9.008   6.013   1.830  1.00  0.00     0.029 A 
ATOM     38  C   UNL     1      -8.782   7.444   2.009  1.00  0.00     0.049 A 
ATOM     39  H   UNL     1      -6.998   8.387   2.533  1.00  0.00     0.167 HD
ATOM     40  C   UNL     1      -3.265  10.188   3.996  1.00  0.00     0.034 A 
ATOM     41  C   UNL     1      -9.708   8.410   1.847  1.00  0.00     0.034 A 
ATOM     42  C   UNL     1      -4.147  11.292   3.729  1.00  0.00     0.049 A 
ATOM     43  C   UNL     1      -9.308   9.844   2.063  1.00  0.00     0.074 A 
ATOM     44  C   UNL     1      -3.889  12.646   3.845  1.00  0.00     0.029 A 
ATOM     45  N   UNL     1      -5.458  11.169   3.294  1.00  0.00    -0.354 N 
ATOM     46  N   UNL     1      -8.135  10.332   2.389  1.00  0.00    -0.248 NA
ATOM     47  C   UNL     1     -10.349  10.862   1.865  1.00  0.00     0.031 C 
ATOM     48  C   UNL     1      -5.051  13.342   3.491  1.00  0.00     0.029 A 
ATOM     49  C   UNL     1      -6.026  12.422   3.141  1.00  0.00     0.049 A 
ATOM     50  H   UNL     1      -5.917  10.316   3.119  1.00  0.00     0.167 HD
ATOM     51  C   UNL     1      -8.288  11.714   2.406  1.00  0.00     0.074 A 
ATOM     52  C   UNL     1      -9.663  11.985   2.037  1.00  0.00     0.031 C 
ATOM     53  C   UNL     1      -7.380  12.671   2.716  1.00  0.00     0.034 A 
BRANCH  40  54
ATOM     54  C   UNL     1      -1.875  10.486   4.487  1.00  0.00     0.023 A 
ATOM     55  C   UNL     1      -0.784  10.372   3.602  1.00  0.00     0.012 A 
ATOM     56  C   UNL     1      -1.652  10.926   5.806  1.00  0.00     0.148 A 
ATOM     57  C   UNL     1       0.510  10.666   4.029  1.00  0.00     0.002 A 
ATOM     58  C   UNL     1      -0.364  11.252   6.215  1.00  0.00     0.091 A 
ATOM     59  F   UNL     1      -2.699  11.001   6.641  1.00  0.00    -0.205 F 
ATOM     60  C   UNL     1       0.719  11.115   5.331  1.00  0.00     0.022 A 
BRANCH  58  61
ATOM     61  S   UNL     1      -0.008  11.903   7.851  1.00  0.00     0.127 S 
ATOM     62  O   UNL     1       0.605  10.746   8.502  1.00  0.00    -0.237 OA
ATOM     63  O   UNL     1       0.918  12.997   7.556  1.00  0.00    -0.237 OA
ATOM     64  O   UNL     1      -1.289  12.327   8.398  1.00  0.00    -0.744 OA
ENDBRANCH  58  61
ENDBRANCH  40  54
BRANCH  41  65
ATOM     65  C   UNL     1     -11.090   8.046   1.428  1.00  0.00     0.023 A 
ATOM     66  C   UNL     1     -11.534   8.386   0.136  1.00  0.00     0.012 A 
ATOM     67  C   UNL     1     -11.950   7.329   2.283  1.00  0.00     0.148 A 
ATOM     68  C   UNL     1     -12.816   8.036  -0.290  1.00  0.00     0.002 A 
ATOM     69  C   UNL     1     -13.205   6.937   1.834  1.00  0.00     0.091 A 
ATOM     70  F   UNL     1     -11.518   7.034   3.518  1.00  0.00    -0.205 F 
ATOM     71  C   UNL     1     -13.646   7.301   0.553  1.00  0.00     0.022 A 
BRANCH  69  72
ATOM     72  S   UNL     1     -14.280   5.876   2.807  1.00  0.00     0.127 S 
ATOM     73  O   UNL     1     -15.288   6.822   3.278  1.00  0.00    -0.237 OA
ATOM     74  O   UNL     1     -14.753   4.919   1.806  1.00  0.00    -0.237 OA
ATOM     75  O   UNL     1     -13.425   5.292   3.833  1.00  0.00    -0.744 OA
ENDBRANCH  69  72
ENDBRANCH  41  65
BRANCH  53  76
ATOM     76  C   UNL     1      -7.828  14.106   2.643  1.00  0.00     0.023 A 
ATOM     77  C   UNL     1      -8.657  14.628   3.655  1.00  0.00     0.012 A 
ATOM     78  C   UNL     1      -7.359  14.956   1.623  1.00  0.00     0.148 A 
ATOM     79  C   UNL     1      -9.034  15.970   3.638  1.00  0.00     0.002 A 
ATOM     80  C   UNL     1      -7.704  16.302   1.637  1.00  0.00     0.091 A 
ATOM     81  F   UNL     1      -6.588  14.434   0.658  1.00  0.00    -0.205 F 
ATOM     82  C   UNL     1      -8.548  16.809   2.638  1.00  0.00     0.022 A 
BRANCH  80  83
ATOM     83  S   UNL     1      -7.047  17.470   0.440  1.00  0.00     0.127 S 
ATOM     84  O   UNL     1      -8.194  17.668  -0.444  1.00  0.00    -0.237 OA
ATOM     85  O   UNL     1      -6.716  18.624   1.277  1.00  0.00    -0.237 OA
ATOM     86  O   UNL     1      -5.894  16.816  -0.163  1.00  0.00    -0.744 OA
ENDBRANCH  80  83
ENDBRANCH  53  76
ENDBRANCH  27  28
ENDBRANCH  20  22
ENDBRANCH  19  20
ENDBRANCH   1  19
TORSDOF 16
