REMARK SMILES C[C@@H](Sc1nc2ccccc2c(=O)n1N)C(=O)OCCOC(=O)c1ccc(-c2c3nc(c(-c4cccc(S(=O)(=O)[O-])c4F)c4ccc([nH]4)c(-c4cccc(S(=O)(=O)[O-])c4F)c4nc(c(-c5cccc(S(=O)(=O)[O-])c5F)c5ccc2[nH]5)C=C4)C=C3)cc1
REMARK SMILES IDX 19 1 18 2 16 3 17 4 2 5 1 6 3 7 4 8 5 9 14 10 6 11 12 12
REMARK SMILES IDX 7 13 11 14 13 15 8 16 10 17 9 18 15 19 20 22 21 23 22 24
REMARK SMILES IDX 23 25 24 26 25 27 86 28 26 29 85 30 27 31 28 32 29 33 79 34
REMARK SMILES IDX 30 35 84 36 78 37 80 38 31 39 83 40 77 41 76 42 32 44 64 45
REMARK SMILES IDX 44 46 63 47 45 48 48 49 62 50 81 51 46 52 47 53 61 55 82 56
REMARK SMILES IDX 49 57 33 58 34 59 42 60 35 61 37 62 43 63 36 64 38 65 39 66
REMARK SMILES IDX 40 67 41 68 65 69 66 70 74 71 67 72 69 73 75 74 68 75 70 76
REMARK SMILES IDX 71 77 72 78 73 79 50 80 51 81 59 82 52 83 54 84 60 85 53 86
REMARK SMILES IDX 55 87 56 88 57 89 58 90
REMARK H PARENT 15 20 15 21 80 43 48 54
REMARK Flexibility Score: inf
ROOT
ATOM      1  C   UNL     1      -3.006   1.201  -0.280  1.00  0.00     0.274 C 
ENDROOT
BRANCH   1   2
ATOM      2  O   UNL     1      -1.585   1.141  -0.512  1.00  0.00    -0.461 OA
BRANCH   2   3
ATOM      3  C   UNL     1      -0.800   1.753   0.418  1.00  0.00     0.319 C 
ATOM      4  O   UNL     1      -1.238   2.367   1.386  1.00  0.00    -0.251 OA
BRANCH   3   5
ATOM      5  C   UNL     1       0.693   1.608   0.134  1.00  0.00     0.161 C 
ATOM      6  C   UNL     1       1.049   0.553  -0.905  1.00  0.00     0.032 C 
BRANCH   5   7
ATOM      7  S   UNL     1       1.329   3.260  -0.320  1.00  0.00    -0.071 SA
BRANCH   7   8
ATOM      8  C   UNL     1       3.051   2.999  -0.154  1.00  0.00     0.191 A 
ATOM      9  N   UNL     1       3.745   3.038  -1.246  1.00  0.00    -0.222 NA
ATOM     10  N   UNL     1       3.607   2.831   1.112  1.00  0.00    -0.202 N 
ATOM     11  C   UNL     1       5.137   2.918  -1.151  1.00  0.00     0.079 A 
ATOM     12  C   UNL     1       4.986   2.701   1.291  1.00  0.00     0.280 A 
ATOM     13  C   UNL     1       5.893   2.993  -2.323  1.00  0.00     0.029 A 
ATOM     14  C   UNL     1       5.801   2.759   0.065  1.00  0.00     0.068 A 
ATOM     15  O   UNL     1       5.520   2.561   2.390  1.00  0.00    -0.267 OA
ATOM     16  C   UNL     1       7.288   2.916  -2.277  1.00  0.00     0.002 A 
ATOM     17  C   UNL     1       7.197   2.677   0.123  1.00  0.00     0.016 A 
ATOM     18  C   UNL     1       7.940   2.759  -1.054  1.00  0.00     0.001 A 
BRANCH  10  19
ATOM     19  N   UNL     1       2.803   2.779   2.298  1.00  0.00    -0.334 N 
ATOM     20  H   UNL     1       1.825   2.865   2.234  1.00  0.00     0.178 HD
ATOM     21  H   UNL     1       3.230   2.657   3.177  1.00  0.00     0.178 HD
ENDBRANCH  10  19
ENDBRANCH   7   8
ENDBRANCH   5   7
ENDBRANCH   3   5
ENDBRANCH   2   3
ENDBRANCH   1   2
BRANCH   1  22
ATOM     22  C   UNL     1      -3.535  -0.083   0.370  1.00  0.00     0.275 C 
BRANCH  22  23
ATOM     23  O   UNL     1      -3.088  -0.235   1.729  1.00  0.00    -0.458 OA
BRANCH  23  24
ATOM     24  C   UNL     1      -1.915  -0.895   1.875  1.00  0.00     0.338 C 
ATOM     25  O   UNL     1      -1.230  -1.379   0.988  1.00  0.00    -0.246 OA
BRANCH  24  26
ATOM     26  C   UNL     1      -1.472  -0.844   3.276  1.00  0.00     0.060 A 
ATOM     27  C   UNL     1      -0.236  -0.250   3.545  1.00  0.00     0.016 A 
ATOM     28  C   UNL     1      -2.206  -1.449   4.298  1.00  0.00     0.016 A 
ATOM     29  C   UNL     1       0.285  -0.270   4.834  1.00  0.00     0.010 A 
ATOM     30  C   UNL     1      -1.682  -1.466   5.595  1.00  0.00     0.010 A 
ATOM     31  C   UNL     1      -0.428  -0.892   5.866  1.00  0.00    -0.014 A 
BRANCH  31  32
ATOM     32  C   UNL     1       0.172  -0.971   7.218  1.00  0.00     0.031 A 
ATOM     33  C   UNL     1       0.724  -2.275   7.717  1.00  0.00     0.074 A 
ATOM     34  C   UNL     1       0.228   0.132   7.987  1.00  0.00     0.049 A 
ATOM     35  N   UNL     1       1.249  -2.556   8.881  1.00  0.00    -0.248 NA
ATOM     36  C   UNL     1       0.681  -3.413   6.785  1.00  0.00     0.031 C 
ATOM     37  C   UNL     1      -0.267   1.454   7.601  1.00  0.00     0.029 A 
ATOM     38  N   UNL     1       0.713   0.312   9.257  1.00  0.00    -0.354 N 
ATOM     39  C   UNL     1       1.567  -3.908   8.837  1.00  0.00     0.074 A 
ATOM     40  C   UNL     1       1.173  -4.393   7.532  1.00  0.00     0.031 C 
ATOM     41  C   UNL     1      -0.075   2.307   8.621  1.00  0.00     0.029 A 
ATOM     42  C   UNL     1       0.526   1.586   9.739  1.00  0.00     0.049 A 
ATOM     43  H   UNL     1       1.152  -0.402   9.774  1.00  0.00     0.167 HD
ATOM     44  C   UNL     1       2.150  -4.671   9.792  1.00  0.00     0.034 A 
ATOM     45  C   UNL     1       0.791   2.107  10.954  1.00  0.00     0.034 A 
ATOM     46  C   UNL     1       2.573  -4.175  11.075  1.00  0.00     0.049 A 
ATOM     47  C   UNL     1       1.431   1.233  11.999  1.00  0.00     0.074 A 
ATOM     48  C   UNL     1       3.202  -4.862  12.098  1.00  0.00     0.029 A 
ATOM     49  N   UNL     1       2.410  -2.869  11.511  1.00  0.00    -0.354 N 
ATOM     50  N   UNL     1       1.813  -0.018  11.907  1.00  0.00    -0.248 NA
ATOM     51  C   UNL     1       1.701   1.850  13.305  1.00  0.00     0.031 C 
ATOM     52  C   UNL     1       3.412  -3.972  13.157  1.00  0.00     0.029 A 
ATOM     53  C   UNL     1       2.923  -2.729  12.790  1.00  0.00     0.049 A 
ATOM     54  H   UNL     1       1.991  -2.148  10.989  1.00  0.00     0.167 HD
ATOM     55  C   UNL     1       2.392  -0.331  13.131  1.00  0.00     0.074 A 
ATOM     56  C   UNL     1       2.333   0.871  13.939  1.00  0.00     0.031 C 
ATOM     57  C   UNL     1       2.908  -1.510  13.557  1.00  0.00     0.034 A 
BRANCH  44  58
ATOM     58  C   UNL     1       2.401  -6.119   9.470  1.00  0.00     0.023 A 
ATOM     59  C   UNL     1       3.464  -6.463   8.611  1.00  0.00     0.012 A 
ATOM     60  C   UNL     1       1.625  -7.139  10.055  1.00  0.00     0.148 A 
ATOM     61  C   UNL     1       3.736  -7.799   8.319  1.00  0.00     0.002 A 
ATOM     62  C   UNL     1       1.925  -8.470   9.786  1.00  0.00     0.091 A 
ATOM     63  F   UNL     1       0.602  -6.791  10.847  1.00  0.00    -0.205 F 
ATOM     64  C   UNL     1       2.974  -8.801   8.913  1.00  0.00     0.022 A 
BRANCH  62  65
ATOM     65  S   UNL     1       1.040  -9.831  10.557  1.00  0.00     0.127 S 
ATOM     66  O   UNL     1       0.196 -10.295   9.457  1.00  0.00    -0.237 OA
ATOM     67  O   UNL     1       2.126 -10.743  10.919  1.00  0.00    -0.237 OA
ATOM     68  O   UNL     1       0.334  -9.254  11.692  1.00  0.00    -0.744 OA
ENDBRANCH  62  65
ENDBRANCH  44  58
BRANCH  45  69
ATOM     69  C   UNL     1       0.488   3.539  11.228  1.00  0.00     0.023 A 
ATOM     70  C   UNL     1       1.547   4.452  11.389  1.00  0.00     0.012 A 
ATOM     71  C   UNL     1      -0.839   4.007  11.297  1.00  0.00     0.148 A 
ATOM     72  C   UNL     1       1.292   5.801  11.636  1.00  0.00     0.002 A 
ATOM     73  C   UNL     1      -1.086   5.362  11.489  1.00  0.00     0.091 A 
ATOM     74  F   UNL     1      -1.835   3.120  11.167  1.00  0.00    -0.205 F 
ATOM     75  C   UNL     1      -0.023   6.258  11.673  1.00  0.00     0.022 A 
BRANCH  73  76
ATOM     76  S   UNL     1      -2.746   6.046  11.416  1.00  0.00     0.127 S 
ATOM     77  O   UNL     1      -3.052   6.242  12.831  1.00  0.00    -0.237 OA
ATOM     78  O   UNL     1      -2.539   7.278  10.654  1.00  0.00    -0.237 OA
ATOM     79  O   UNL     1      -3.546   5.044  10.723  1.00  0.00    -0.744 OA
ENDBRANCH  73  76
ENDBRANCH  45  69
BRANCH  57  80
ATOM     80  C   UNL     1       3.470  -1.560  14.953  1.00  0.00     0.023 A 
ATOM     81  C   UNL     1       2.591  -1.588  16.054  1.00  0.00     0.012 A 
ATOM     82  C   UNL     1       4.858  -1.652  15.172  1.00  0.00     0.148 A 
ATOM     83  C   UNL     1       3.086  -1.679  17.354  1.00  0.00     0.002 A 
ATOM     84  C   UNL     1       5.343  -1.785  16.468  1.00  0.00     0.091 A 
ATOM     85  F   UNL     1       5.679  -1.601  14.113  1.00  0.00    -0.205 F 
ATOM     86  C   UNL     1       4.460  -1.790  17.560  1.00  0.00     0.022 A 
BRANCH  84  87
ATOM     87  S   UNL     1       7.090  -2.022  16.815  1.00  0.00     0.127 S 
ATOM     88  O   UNL     1       7.489  -0.688  17.260  1.00  0.00    -0.237 OA
ATOM     89  O   UNL     1       7.067  -3.035  17.871  1.00  0.00    -0.237 OA
ATOM     90  O   UNL     1       7.684  -2.473  15.564  1.00  0.00    -0.744 OA
ENDBRANCH  84  87
ENDBRANCH  57  80
ENDBRANCH  31  32
ENDBRANCH  24  26
ENDBRANCH  23  24
ENDBRANCH  22  23
ENDBRANCH   1  22
TORSDOF 17
