REMARK SMILES COc1cccc(-c2nn(-c3cc4c(cc3C(N)=O)OCO4)cc2C(=O)OCCOC(=O)c2ccc(-c3c4nc(c(-c5cccc(S(=O)(=O)[O-])c5F)c5ccc([nH]5)c(-c5cccc(S(=O)(=O)[O-])c5F)c5nc(c(-c6cccc(S(=O)(=O)[O-])c6F)c6ccc3[nH]6)C=C5)C=C4)cc2)c1
REMARK SMILES IDX 29 1 28 2 27 3 25 4 26 5 24 6 8 7 9 8 10 9 23 10 7 11 3 12
REMARK SMILES IDX 4 13 96 14 5 15 6 16 2 17 1 18 11 19 12 20 16 21 13 22 15 23
REMARK SMILES IDX 14 24 22 25 20 26 21 27 17 28 18 29 19 30 30 33 31 34 32 35
REMARK SMILES IDX 33 36 34 37 95 38 35 39 94 40 36 41 37 42 38 43 88 44 39 45
REMARK SMILES IDX 93 46 87 47 89 48 40 49 92 50 86 51 85 52 41 54 73 55 53 56
REMARK SMILES IDX 72 57 54 58 57 59 71 60 90 61 55 62 56 63 70 65 91 66 58 67
REMARK SMILES IDX 42 68 43 69 51 70 44 71 46 72 52 73 45 74 47 75 48 76 49 77
REMARK SMILES IDX 50 78 74 79 75 80 83 81 76 82 78 83 84 84 77 85 79 86 80 87
REMARK SMILES IDX 81 88 82 89 59 90 60 91 68 92 61 93 63 94 69 95 62 96 64 97
REMARK SMILES IDX 65 98 66 99 67 100
REMARK H PARENT 18 31 18 32 89 53 57 64
REMARK Flexibility Score: inf
ROOT
ATOM      1  C   UNL     1       2.852  -8.568   1.556  1.00  0.00     0.275 C 
ENDROOT
BRANCH   1   2
ATOM      2  C   UNL     1       3.529  -7.667   0.526  1.00  0.00     0.275 C 
BRANCH   2   3
ATOM      3  O   UNL     1       4.258  -6.586   1.132  1.00  0.00    -0.458 OA
BRANCH   3   4
ATOM      4  C   UNL     1       3.594  -5.394   1.288  1.00  0.00     0.342 C 
ATOM      5  O   UNL     1       2.465  -5.179   0.879  1.00  0.00    -0.246 OA
BRANCH   4   6
ATOM      6  C   UNL     1       4.409  -4.404   1.971  1.00  0.00     0.106 A 
ATOM      7  C   UNL     1       4.076  -3.112   2.478  1.00  0.00     0.107 A 
ATOM      8  N   UNL     1       5.165  -2.483   2.966  1.00  0.00    -0.167 NA
ATOM      9  N   UNL     1       6.189  -3.290   2.607  1.00  0.00    -0.239 N 
ATOM     10  C   UNL     1       5.749  -4.538   2.269  1.00  0.00     0.131 A 
BRANCH   7  11
ATOM     11  C   UNL     1       2.756  -2.499   2.557  1.00  0.00     0.007 A 
ATOM     12  C   UNL     1       0.961  -1.189   1.586  1.00  0.00     0.119 A 
ATOM     13  C   UNL     1       0.161  -1.490   2.694  1.00  0.00     0.046 A 
ATOM     14  C   UNL     1       2.254  -1.716   1.506  1.00  0.00     0.056 A 
ATOM     15  C   UNL     1       0.663  -2.249   3.749  1.00  0.00     0.005 A 
ATOM     16  C   UNL     1       1.969  -2.727   3.691  1.00  0.00     0.011 A 
BRANCH  12  17
ATOM     17  O   UNL     1       0.353  -0.374   0.671  1.00  0.00    -0.497 OA
ATOM     18  C   UNL     1       1.136   0.102  -0.412  1.00  0.00     0.278 C 
ENDBRANCH  12  17
ENDBRANCH   7  11
BRANCH   9  19
ATOM     19  C   UNL     1       7.537  -2.859   2.655  1.00  0.00     0.081 A 
ATOM     20  C   UNL     1       7.929  -2.062   3.750  1.00  0.00     0.079 A 
ATOM     21  C   UNL     1       8.474  -3.215   1.637  1.00  0.00     0.069 A 
ATOM     22  C   UNL     1       9.254  -1.694   3.829  1.00  0.00     0.167 A 
ATOM     23  C   UNL     1       9.833  -2.914   1.834  1.00  0.00     0.066 A 
ATOM     24  C   UNL     1      10.179  -2.132   2.913  1.00  0.00     0.166 A 
ATOM     25  O   UNL     1       9.815  -0.876   4.761  1.00  0.00    -0.454 OA
ATOM     26  O   UNL     1      11.426  -1.642   3.152  1.00  0.00    -0.454 OA
ATOM     27  C   UNL     1      11.122  -0.681   4.184  1.00  0.00     0.468 C 
BRANCH  21  28
ATOM     28  C   UNL     1       8.042  -3.666   0.262  1.00  0.00     0.251 C 
ATOM     29  N   UNL     1       8.956  -3.632  -0.756  1.00  0.00    -0.366 N 
ATOM     30  O   UNL     1       6.900  -3.978  -0.043  1.00  0.00    -0.269 OA
ATOM     31  H   UNL     1       9.891  -3.387  -0.569  1.00  0.00     0.159 HD
ATOM     32  H   UNL     1       8.678  -3.851  -1.674  1.00  0.00     0.159 HD
ENDBRANCH  21  28
ENDBRANCH   9  19
ENDBRANCH   4   6
ENDBRANCH   3   4
ENDBRANCH   2   3
ENDBRANCH   1   2
BRANCH   1  33
ATOM     33  O   UNL     1       1.744  -7.928   2.183  1.00  0.00    -0.458 OA
BRANCH  33  34
ATOM     34  C   UNL     1       2.079  -7.219   3.282  1.00  0.00     0.338 C 
ATOM     35  O   UNL     1       3.208  -6.931   3.653  1.00  0.00    -0.246 OA
BRANCH  34  36
ATOM     36  C   UNL     1       0.899  -6.934   4.094  1.00  0.00     0.060 A 
ATOM     37  C   UNL     1       1.067  -5.995   5.115  1.00  0.00     0.016 A 
ATOM     38  C   UNL     1      -0.252  -7.725   3.994  1.00  0.00     0.016 A 
ATOM     39  C   UNL     1       0.124  -5.913   6.109  1.00  0.00     0.010 A 
ATOM     40  C   UNL     1      -1.190  -7.659   5.001  1.00  0.00     0.010 A 
ATOM     41  C   UNL     1      -0.960  -6.790   6.070  1.00  0.00    -0.014 A 
BRANCH  41  42
ATOM     42  C   UNL     1      -1.918  -6.692   7.151  1.00  0.00     0.031 A 
ATOM     43  C   UNL     1      -2.739  -5.456   7.070  1.00  0.00     0.074 A 
ATOM     44  C   UNL     1      -2.032  -7.687   8.053  1.00  0.00     0.049 A 
ATOM     45  N   UNL     1      -2.820  -4.504   7.940  1.00  0.00    -0.248 NA
ATOM     46  C   UNL     1      -3.397  -5.144   5.787  1.00  0.00     0.031 C 
ATOM     47  C   UNL     1      -1.381  -9.001   8.009  1.00  0.00     0.029 A 
ATOM     48  N   UNL     1      -2.873  -7.803   9.117  1.00  0.00    -0.354 N 
ATOM     49  C   UNL     1      -3.754  -3.609   7.419  1.00  0.00     0.074 A 
ATOM     50  C   UNL     1      -3.896  -3.932   6.028  1.00  0.00     0.031 C 
ATOM     51  C   UNL     1      -2.058  -9.856   8.806  1.00  0.00     0.029 A 
ATOM     52  C   UNL     1      -3.111  -9.127   9.489  1.00  0.00     0.049 A 
ATOM     53  H   UNL     1      -3.272  -7.031   9.579  1.00  0.00     0.167 HD
ATOM     54  C   UNL     1      -4.562  -2.899   8.251  1.00  0.00     0.034 A 
ATOM     55  C   UNL     1      -4.174  -9.593  10.196  1.00  0.00     0.034 A 
ATOM     56  C   UNL     1      -3.986  -2.806   9.570  1.00  0.00     0.049 A 
ATOM     57  C   UNL     1      -4.780  -8.436  10.894  1.00  0.00     0.074 A 
ATOM     58  C   UNL     1      -2.802  -2.319  10.086  1.00  0.00     0.029 A 
ATOM     59  N   UNL     1      -4.512  -3.631  10.532  1.00  0.00    -0.354 N 
ATOM     60  N   UNL     1      -4.179  -7.780  11.846  1.00  0.00    -0.248 NA
ATOM     61  C   UNL     1      -5.847  -7.721  10.212  1.00  0.00     0.031 C 
ATOM     62  C   UNL     1      -2.452  -3.231  11.124  1.00  0.00     0.029 A 
ATOM     63  C   UNL     1      -3.475  -4.173  11.238  1.00  0.00     0.049 A 
ATOM     64  H   UNL     1      -5.469  -3.803  10.687  1.00  0.00     0.167 HD
ATOM     65  C   UNL     1      -4.442  -6.449  11.554  1.00  0.00     0.074 A 
ATOM     66  C   UNL     1      -5.556  -6.477  10.605  1.00  0.00     0.031 C 
ATOM     67  C   UNL     1      -3.537  -5.474  11.862  1.00  0.00     0.034 A 
BRANCH  54  68
ATOM     68  C   UNL     1      -6.054  -2.714   8.027  1.00  0.00     0.023 A 
ATOM     69  C   UNL     1      -6.750  -1.967   9.005  1.00  0.00     0.012 A 
ATOM     70  C   UNL     1      -6.842  -3.474   7.129  1.00  0.00     0.148 A 
ATOM     71  C   UNL     1      -8.137  -2.060   9.153  1.00  0.00     0.002 A 
ATOM     72  C   UNL     1      -8.227  -3.512   7.239  1.00  0.00     0.091 A 
ATOM     73  F   UNL     1      -6.267  -4.265   6.224  1.00  0.00    -0.205 F 
ATOM     74  C   UNL     1      -8.876  -2.838   8.273  1.00  0.00     0.022 A 
BRANCH  72  75
ATOM     75  S   UNL     1      -9.241  -4.478   6.109  1.00  0.00     0.127 S 
ATOM     76  O   UNL     1      -9.728  -5.536   6.990  1.00  0.00    -0.237 OA
ATOM     77  O   UNL     1     -10.246  -3.495   5.704  1.00  0.00    -0.237 OA
ATOM     78  O   UNL     1      -8.352  -4.904   5.036  1.00  0.00    -0.744 OA
ENDBRANCH  72  75
ENDBRANCH  54  68
BRANCH  55  79
ATOM     79  C   UNL     1      -4.906 -10.878  10.044  1.00  0.00     0.023 A 
ATOM     80  C   UNL     1      -5.785 -11.307  11.061  1.00  0.00     0.012 A 
ATOM     81  C   UNL     1      -4.967 -11.541   8.798  1.00  0.00     0.148 A 
ATOM     82  C   UNL     1      -6.709 -12.338  10.833  1.00  0.00     0.002 A 
ATOM     83  C   UNL     1      -5.877 -12.572   8.580  1.00  0.00     0.091 A 
ATOM     84  F   UNL     1      -4.204 -11.100   7.791  1.00  0.00    -0.205 F 
ATOM     85  C   UNL     1      -6.759 -12.965   9.592  1.00  0.00     0.022 A 
BRANCH  83  86
ATOM     86  S   UNL     1      -6.008 -13.406   6.991  1.00  0.00     0.127 S 
ATOM     87  O   UNL     1      -5.996 -14.815   7.388  1.00  0.00    -0.237 OA
ATOM     88  O   UNL     1      -7.293 -12.919   6.498  1.00  0.00    -0.237 OA
ATOM     89  O   UNL     1      -4.838 -12.992   6.226  1.00  0.00    -0.744 OA
ENDBRANCH  83  86
ENDBRANCH  55  79
BRANCH  67  90
ATOM     90  C   UNL     1      -2.377  -5.838  12.750  1.00  0.00     0.023 A 
ATOM     91  C   UNL     1      -1.374  -6.752  12.366  1.00  0.00     0.012 A 
ATOM     92  C   UNL     1      -2.210  -5.098  13.930  1.00  0.00     0.148 A 
ATOM     93  C   UNL     1      -0.235  -6.935  13.157  1.00  0.00     0.002 A 
ATOM     94  C   UNL     1      -1.058  -5.247  14.688  1.00  0.00     0.091 A 
ATOM     95  F   UNL     1      -3.175  -4.231  14.274  1.00  0.00    -0.205 F 
ATOM     96  C   UNL     1      -0.071  -6.172  14.311  1.00  0.00     0.022 A 
BRANCH  94  97
ATOM     97  S   UNL     1      -0.739  -4.201  16.108  1.00  0.00     0.127 S 
ATOM     98  O   UNL     1      -0.983  -5.115  17.221  1.00  0.00    -0.237 OA
ATOM     99  O   UNL     1       0.664  -3.829  15.916  1.00  0.00    -0.237 OA
ATOM    100  O   UNL     1      -1.669  -3.083  16.000  1.00  0.00    -0.744 OA
ENDBRANCH  94  97
ENDBRANCH  67  90
ENDBRANCH  41  42
ENDBRANCH  34  36
ENDBRANCH  33  34
ENDBRANCH   1  33
TORSDOF 18
