REMARK SMILES O=C(OCCOC(=O)c1ccc(F)cc1NC(=O)[C@H]1CCS(=O)(=O)C1)c1ccc(-c2c3nc(c(-c4cccc(S(=O)(=O)[O-])c4F)c4ccc([nH]4)c(-c4cccc(S(=O)(=O)[O-])c4F)c4nc(c(-c5cccc(S(=O)(=O)[O-])c5F)c5ccc2[nH]5)C=C4)C=C3)cc1
REMARK SMILES IDX 4 1 3 2 2 3 1 4 26 5 27 6 88 7 28 8 87 9 29 10 30 11 31 12
REMARK SMILES IDX 81 13 32 14 86 15 80 16 82 17 33 18 85 19 79 20 78 21 34 23
REMARK SMILES IDX 66 24 46 25 65 26 47 27 50 28 64 29 83 30 48 31 49 32 63 34
REMARK SMILES IDX 84 35 51 36 35 37 36 38 44 39 37 40 39 41 45 42 38 43 40 44
REMARK SMILES IDX 41 45 42 46 43 47 67 48 68 49 76 50 69 51 71 52 77 53 70 54
REMARK SMILES IDX 72 55 73 56 74 57 75 58 52 59 53 60 61 61 54 62 56 63 62 64
REMARK SMILES IDX 55 65 57 66 58 67 59 68 60 69 5 70 6 71 7 72 8 73 9 74 10 75
REMARK SMILES IDX 15 76 11 77 14 78 12 79 13 80 16 81 17 82 18 84 19 85 20 86
REMARK SMILES IDX 25 87 21 88 22 89 23 90 24 91
REMARK H PARENT 82 22 50 33 16 83
REMARK Flexibility Score: inf
ROOT
ATOM      1  C   UNL     1      -3.270  -3.072  -0.770  1.00  0.00     0.275 C 
ENDROOT
BRANCH   1   2
ATOM      2  O   UNL     1      -3.523  -2.141   0.294  1.00  0.00    -0.458 OA
BRANCH   2   3
ATOM      3  C   UNL     1      -2.684  -1.583   1.196  1.00  0.00     0.338 C 
ATOM      4  O   UNL     1      -3.164  -0.878   2.082  1.00  0.00    -0.246 OA
BRANCH   3   5
ATOM      5  C   UNL     1      -1.192  -1.671   1.115  1.00  0.00     0.060 A 
ATOM      6  C   UNL     1      -0.462  -2.691   0.505  1.00  0.00     0.016 A 
ATOM      7  C   UNL     1      -0.471  -0.619   1.712  1.00  0.00     0.016 A 
ATOM      8  C   UNL     1       0.928  -2.631   0.415  1.00  0.00     0.010 A 
ATOM      9  C   UNL     1       0.919  -0.538   1.605  1.00  0.00     0.010 A 
ATOM     10  C   UNL     1       1.627  -1.557   0.960  1.00  0.00    -0.014 A 
BRANCH  10  11
ATOM     11  C   UNL     1       3.102  -1.619   1.020  1.00  0.00     0.031 A 
ATOM     12  C   UNL     1       3.735  -1.930   2.342  1.00  0.00     0.074 A 
ATOM     13  C   UNL     1       3.852  -1.480  -0.089  1.00  0.00     0.049 A 
ATOM     14  N   UNL     1       4.995  -2.103   2.622  1.00  0.00    -0.248 NA
ATOM     15  C   UNL     1       2.829  -2.115   3.492  1.00  0.00     0.031 C 
ATOM     16  C   UNL     1       3.328  -1.282  -1.438  1.00  0.00     0.029 A 
ATOM     17  N   UNL     1       5.212  -1.470  -0.263  1.00  0.00    -0.354 N 
ATOM     18  C   UNL     1       5.033  -2.430   3.969  1.00  0.00     0.074 A 
ATOM     19  C   UNL     1       3.680  -2.381   4.469  1.00  0.00     0.031 C 
ATOM     20  C   UNL     1       4.348  -1.078  -2.288  1.00  0.00     0.029 A 
ATOM     21  C   UNL     1       5.600  -1.158  -1.547  1.00  0.00     0.049 A 
ATOM     22  H   UNL     1       5.849  -1.667   0.460  1.00  0.00     0.167 HD
ATOM     23  C   UNL     1       6.102  -2.789   4.710  1.00  0.00     0.034 A 
ATOM     24  C   UNL     1       6.829  -0.960  -2.063  1.00  0.00     0.034 A 
ATOM     25  C   UNL     1       7.438  -2.842   4.196  1.00  0.00     0.049 A 
ATOM     26  C   UNL     1       8.015  -1.247  -1.182  1.00  0.00     0.074 A 
ATOM     27  C   UNL     1       8.595  -3.209   4.855  1.00  0.00     0.029 A 
ATOM     28  N   UNL     1       7.798  -2.498   2.902  1.00  0.00    -0.354 N 
ATOM     29  N   UNL     1       8.026  -1.662   0.062  1.00  0.00    -0.248 NA
ATOM     30  C   UNL     1       9.349  -1.113  -1.783  1.00  0.00     0.031 C 
ATOM     31  C   UNL     1       9.662  -3.045   3.970  1.00  0.00     0.029 A 
ATOM     32  C   UNL     1       9.164  -2.622   2.746  1.00  0.00     0.049 A 
ATOM     33  H   UNL     1       7.172  -2.209   2.199  1.00  0.00     0.167 HD
ATOM     34  C   UNL     1       9.358  -1.896   0.375  1.00  0.00     0.074 A 
ATOM     35  C   UNL     1      10.126  -1.574  -0.811  1.00  0.00     0.031 C 
ATOM     36  C   UNL     1       9.896  -2.342   1.537  1.00  0.00     0.034 A 
BRANCH  23  37
ATOM     37  C   UNL     1       5.859  -3.171   6.141  1.00  0.00     0.023 A 
ATOM     38  C   UNL     1       5.247  -4.405   6.443  1.00  0.00     0.012 A 
ATOM     39  C   UNL     1       6.285  -2.331   7.185  1.00  0.00     0.148 A 
ATOM     40  C   UNL     1       5.045  -4.788   7.767  1.00  0.00     0.002 A 
ATOM     41  C   UNL     1       6.125  -2.741   8.501  1.00  0.00     0.091 A 
ATOM     42  F   UNL     1       6.838  -1.151   6.868  1.00  0.00    -0.205 F 
ATOM     43  C   UNL     1       5.495  -3.963   8.794  1.00  0.00     0.022 A 
BRANCH  41  44
ATOM     44  S   UNL     1       6.739  -1.789   9.892  1.00  0.00     0.127 S 
ATOM     45  O   UNL     1       5.502  -1.488  10.613  1.00  0.00    -0.237 OA
ATOM     46  O   UNL     1       7.612  -2.757  10.556  1.00  0.00    -0.237 OA
ATOM     47  O   UNL     1       7.419  -0.634   9.325  1.00  0.00    -0.744 OA
ENDBRANCH  41  44
ENDBRANCH  23  37
BRANCH  24  48
ATOM     48  C   UNL     1       6.992  -0.537  -3.484  1.00  0.00     0.023 A 
ATOM     49  C   UNL     1       7.528  -1.431  -4.429  1.00  0.00     0.012 A 
ATOM     50  C   UNL     1       6.591   0.747  -3.908  1.00  0.00     0.148 A 
ATOM     51  C   UNL     1       7.696  -1.045  -5.761  1.00  0.00     0.002 A 
ATOM     52  C   UNL     1       6.719   1.110  -5.245  1.00  0.00     0.091 A 
ATOM     53  F   UNL     1       6.083   1.587  -2.995  1.00  0.00    -0.205 F 
ATOM     54  C   UNL     1       7.286   0.221  -6.170  1.00  0.00     0.022 A 
BRANCH  52  55
ATOM     55  S   UNL     1       6.111   2.674  -5.890  1.00  0.00     0.127 S 
ATOM     56  O   UNL     1       7.353   3.351  -6.255  1.00  0.00    -0.237 OA
ATOM     57  O   UNL     1       5.293   2.232  -7.020  1.00  0.00    -0.237 OA
ATOM     58  O   UNL     1       5.354   3.281  -4.805  1.00  0.00    -0.744 OA
ENDBRANCH  52  55
ENDBRANCH  24  48
BRANCH  36  59
ATOM     59  C   UNL     1      11.383  -2.551   1.591  1.00  0.00     0.023 A 
ATOM     60  C   UNL     1      12.245  -1.441   1.655  1.00  0.00     0.012 A 
ATOM     61  C   UNL     1      11.908  -3.852   1.729  1.00  0.00     0.148 A 
ATOM     62  C   UNL     1      13.613  -1.623   1.843  1.00  0.00     0.002 A 
ATOM     63  C   UNL     1      13.262  -4.022   1.976  1.00  0.00     0.091 A 
ATOM     64  F   UNL     1      11.066  -4.893   1.647  1.00  0.00    -0.205 F 
ATOM     65  C   UNL     1      14.118  -2.910   2.022  1.00  0.00     0.022 A 
BRANCH  63  66
ATOM     66  S   UNL     1      13.979  -5.627   2.342  1.00  0.00     0.127 S 
ATOM     67  O   UNL     1      14.803  -5.861   1.158  1.00  0.00    -0.237 OA
ATOM     68  O   UNL     1      14.732  -5.356   3.567  1.00  0.00    -0.237 OA
ATOM     69  O   UNL     1      12.858  -6.542   2.509  1.00  0.00    -0.744 OA
ENDBRANCH  63  66
ENDBRANCH  36  59
ENDBRANCH  10  11
ENDBRANCH   3   5
ENDBRANCH   2   3
ENDBRANCH   1   2
BRANCH   1  70
ATOM     70  C   UNL     1      -2.790  -2.447  -2.083  1.00  0.00     0.275 C 
BRANCH  70  71
ATOM     71  O   UNL     1      -1.718  -1.501  -1.951  1.00  0.00    -0.458 OA
BRANCH  71  72
ATOM     72  C   UNL     1      -2.079  -0.199  -1.800  1.00  0.00     0.340 C 
ATOM     73  O   UNL     1      -3.215   0.231  -1.674  1.00  0.00    -0.246 OA
BRANCH  72  74
ATOM     74  C   UNL     1      -0.866   0.646  -1.702  1.00  0.00     0.083 A 
ATOM     75  C   UNL     1       0.159   0.417  -2.644  1.00  0.00     0.021 A 
ATOM     76  C   UNL     1      -0.729   1.633  -0.692  1.00  0.00     0.058 A 
ATOM     77  C   UNL     1       1.350   1.132  -2.573  1.00  0.00     0.040 A 
ATOM     78  C   UNL     1       0.513   2.270  -0.613  1.00  0.00     0.066 A 
ATOM     79  C   UNL     1       1.528   2.022  -1.535  1.00  0.00     0.125 A 
ATOM     80  F   UNL     1       2.691   2.665  -1.393  1.00  0.00    -0.207 F 
BRANCH  76  81
ATOM     81  N   UNL     1      -1.819   1.900   0.190  1.00  0.00    -0.325 N 
ATOM     82  C   UNL     1      -2.023   2.732   1.262  1.00  0.00     0.228 C 
ATOM     83  H   UNL     1      -2.613   1.358  -0.021  1.00  0.00     0.169 HD
ATOM     84  O   UNL     1      -3.120   2.711   1.824  1.00  0.00    -0.274 OA
BRANCH  82  85
ATOM     85  C   UNL     1      -0.960   3.690   1.735  1.00  0.00     0.095 C 
ATOM     86  C   UNL     1      -0.897   4.911   0.805  1.00  0.00     0.030 C 
ATOM     87  C   UNL     1      -1.198   4.298   3.119  1.00  0.00     0.150 C 
ATOM     88  C   UNL     1       0.159   5.830   1.398  1.00  0.00     0.138 C 
ATOM     89  S   UNL     1      -0.039   5.666   3.168  1.00  0.00     0.151 S 
ATOM     90  O   UNL     1       1.211   5.191   3.721  1.00  0.00    -0.229 OA
ATOM     91  O   UNL     1      -0.715   6.843   3.674  1.00  0.00    -0.229 OA
ENDBRANCH  82  85
ENDBRANCH  76  81
ENDBRANCH  72  74
ENDBRANCH  71  72
ENDBRANCH  70  71
ENDBRANCH   1  70
TORSDOF 16
