REMARK SMILES O=CN[C@@H](CCS[C@@H]1CCO[C@]2(CCOC2)C1)C(=O)OCCOC(=O)c1ccc(-c2c3nc(c(-c4cccc(S(=O)(=O)[O-])c4F)c4ccc([nH]4)c(-c4cccc(S(=O)(=O)[O-])c4F)c4nc(c(-c5cccc(S(=O)(=O)[O-])c5F)c5ccc2[nH]5)C=C4)C=C3)cc1
REMARK SMILES IDX 21 1 20 2 18 3 19 4 4 5 3 6 1 7 2 8 5 10 6 11 7 12 8 13 9 14
REMARK SMILES IDX 17 15 10 16 12 17 11 18 13 19 16 20 14 21 15 22 22 23 23 24
REMARK SMILES IDX 24 25 25 26 26 27 27 28 88 29 28 30 87 31 29 32 30 33 31 34
REMARK SMILES IDX 81 35 32 36 86 37 80 38 82 39 33 40 85 41 79 42 78 43 34 45
REMARK SMILES IDX 66 46 46 47 65 48 47 49 50 50 64 51 83 52 48 53 49 54 63 56
REMARK SMILES IDX 84 57 51 58 35 59 36 60 44 61 37 62 39 63 45 64 38 65 40 66
REMARK SMILES IDX 41 67 42 68 43 69 67 70 68 71 76 72 69 73 71 74 77 75 70 76
REMARK SMILES IDX 72 77 73 78 74 79 75 80 52 81 53 82 61 83 54 84 56 85 62 86
REMARK SMILES IDX 55 87 57 88 58 89 59 90 60 91
REMARK H PARENT 3 9 82 44 50 55
REMARK Flexibility Score: inf
ROOT
ATOM      1  C   UNL     1       5.848   2.454  -3.404  1.00  0.00     0.274 C 
ENDROOT
BRANCH   1   2
ATOM      2  O   UNL     1       5.469   0.889  -3.337  1.00  0.00    -0.461 OA
BRANCH   2   3
ATOM      3  C   UNL     1       5.874  -0.299  -2.798  1.00  0.00     0.328 C 
ATOM      4  O   UNL     1       7.003  -0.628  -2.521  1.00  0.00    -0.250 OA
BRANCH   3   5
ATOM      5  C   UNL     1       4.609  -1.168  -2.471  1.00  0.00     0.192 C 
BRANCH   5   6
ATOM      6  N   UNL     1       3.598  -0.618  -1.547  1.00  0.00    -0.345 N 
ATOM      7  O   UNL     1       2.506  -0.243   0.378  1.00  0.00    -0.279 OA
ATOM      8  C   UNL     1       3.412  -0.810  -0.221  1.00  0.00     0.337 C 
ATOM      9  H   UNL     1       2.949  -0.008  -1.968  1.00  0.00     0.164 HD
ENDBRANCH   5   6
BRANCH   5  10
ATOM     10  C   UNL     1       3.908  -1.446  -3.797  1.00  0.00     0.048 C 
BRANCH  10  11
ATOM     11  C   UNL     1       3.470  -0.185  -4.583  1.00  0.00     0.072 C 
BRANCH  11  12
ATOM     12  S   UNL     1       2.538   1.114  -3.635  1.00  0.00    -0.158 SA
BRANCH  12  13
ATOM     13  C   UNL     1       3.797   2.321  -2.786  1.00  0.00     0.052 C 
ATOM     14  C   UNL     1       4.142   3.709  -4.091  1.00  0.00     0.043 C 
ATOM     15  C   UNL     1       5.229   1.978  -1.452  1.00  0.00     0.052 C 
ATOM     16  C   UNL     1       5.902   4.478  -4.182  1.00  0.00     0.162 C 
ATOM     17  C   UNL     1       6.988   2.848  -1.654  1.00  0.00     0.095 C 
ATOM     18  O   UNL     1       7.084   4.171  -2.872  1.00  0.00    -0.372 OA
ATOM     19  C   UNL     1       8.233   1.971  -2.069  1.00  0.00     0.066 C 
ATOM     20  C   UNL     1       7.693   3.332  -0.340  1.00  0.00     0.195 C 
ATOM     21  C   UNL     1       8.827   1.400  -0.808  1.00  0.00     0.163 C 
ATOM     22  O   UNL     1       8.300   2.180   0.255  1.00  0.00    -0.378 OA
ENDBRANCH  12  13
ENDBRANCH  11  12
ENDBRANCH  10  11
ENDBRANCH   5  10
ENDBRANCH   3   5
ENDBRANCH   2   3
ENDBRANCH   1   2
BRANCH   1  23
ATOM     23  C   UNL     1       5.121   3.988  -2.143  1.00  0.00     0.275 C 
BRANCH  23  24
ATOM     24  O   UNL     1       5.340   4.175  -0.619  1.00  0.00    -0.458 OA
BRANCH  24  25
ATOM     25  C   UNL     1       4.335   4.370   0.296  1.00  0.00     0.338 C 
ATOM     26  O   UNL     1       3.194   4.715   0.042  1.00  0.00    -0.246 OA
BRANCH  25  27
ATOM     27  C   UNL     1       4.786   3.791   1.608  1.00  0.00     0.060 A 
ATOM     28  C   UNL     1       4.580   2.421   1.855  1.00  0.00     0.016 A 
ATOM     29  C   UNL     1       5.509   4.539   2.538  1.00  0.00     0.016 A 
ATOM     30  C   UNL     1       5.184   1.776   2.937  1.00  0.00     0.010 A 
ATOM     31  C   UNL     1       6.061   3.903   3.667  1.00  0.00     0.010 A 
ATOM     32  C   UNL     1       5.923   2.514   3.862  1.00  0.00    -0.014 A 
BRANCH  32  33
ATOM     33  C   UNL     1       6.389   1.861   5.114  1.00  0.00     0.031 A 
ATOM     34  C   UNL     1       5.485   1.899   6.315  1.00  0.00     0.074 A 
ATOM     35  C   UNL     1       7.579   1.234   5.192  1.00  0.00     0.049 A 
ATOM     36  N   UNL     1       5.705   1.491   7.537  1.00  0.00    -0.248 NA
ATOM     37  C   UNL     1       4.149   2.479   6.102  1.00  0.00     0.031 C 
ATOM     38  C   UNL     1       8.527   1.069   4.091  1.00  0.00     0.029 A 
ATOM     39  N   UNL     1       8.204   0.637   6.264  1.00  0.00    -0.354 N 
ATOM     40  C   UNL     1       4.553   1.803   8.250  1.00  0.00     0.074 A 
ATOM     41  C   UNL     1       3.633   2.422   7.321  1.00  0.00     0.031 C 
ATOM     42  C   UNL     1       9.631   0.453   4.554  1.00  0.00     0.029 A 
ATOM     43  C   UNL     1       9.482   0.205   5.988  1.00  0.00     0.049 A 
ATOM     44  H   UNL     1       7.778   0.530   7.145  1.00  0.00     0.167 HD
ATOM     45  C   UNL     1       4.281   1.593   9.560  1.00  0.00     0.034 A 
ATOM     46  C   UNL     1      10.428  -0.304   6.804  1.00  0.00     0.034 A 
ATOM     47  C   UNL     1       5.187   0.967  10.483  1.00  0.00     0.049 A 
ATOM     48  C   UNL     1      10.114  -0.499   8.270  1.00  0.00     0.074 A 
ATOM     49  C   UNL     1       5.002   0.708  11.830  1.00  0.00     0.029 A 
ATOM     50  N   UNL     1       6.452   0.504  10.156  1.00  0.00    -0.354 N 
ATOM     51  N   UNL     1       8.997  -0.264   8.916  1.00  0.00    -0.248 NA
ATOM     52  C   UNL     1      11.184  -1.054   9.114  1.00  0.00     0.031 C 
ATOM     53  C   UNL     1       6.163   0.100  12.321  1.00  0.00     0.029 A 
ATOM     54  C   UNL     1       7.062  -0.038  11.275  1.00  0.00     0.049 A 
ATOM     55  H   UNL     1       6.857   0.554   9.261  1.00  0.00     0.167 HD
ATOM     56  C   UNL     1       9.217  -0.673  10.228  1.00  0.00     0.074 A 
ATOM     57  C   UNL     1      10.569  -1.191  10.281  1.00  0.00     0.031 C 
ATOM     58  C   UNL     1       8.385  -0.608  11.297  1.00  0.00     0.034 A 
BRANCH  45  59
ATOM     59  C   UNL     1       2.938   2.048  10.063  1.00  0.00     0.023 A 
ATOM     60  C   UNL     1       1.781   1.319   9.723  1.00  0.00     0.012 A 
ATOM     61  C   UNL     1       2.822   3.187  10.883  1.00  0.00     0.148 A 
ATOM     62  C   UNL     1       0.525   1.736  10.161  1.00  0.00     0.002 A 
ATOM     63  C   UNL     1       1.572   3.574  11.350  1.00  0.00     0.091 A 
ATOM     64  F   UNL     1       3.931   3.883  11.173  1.00  0.00    -0.205 F 
ATOM     65  C   UNL     1       0.422   2.857  10.981  1.00  0.00     0.022 A 
BRANCH  63  66
ATOM     66  S   UNL     1       1.344   4.963  12.465  1.00  0.00     0.127 S 
ATOM     67  O   UNL     1       0.737   5.957  11.581  1.00  0.00    -0.237 OA
ATOM     68  O   UNL     1       0.437   4.408  13.470  1.00  0.00    -0.237 OA
ATOM     69  O   UNL     1       2.670   5.297  12.966  1.00  0.00    -0.744 OA
ENDBRANCH  63  66
ENDBRANCH  45  59
BRANCH  46  70
ATOM     70  C   UNL     1      11.765  -0.692   6.263  1.00  0.00     0.023 A 
ATOM     71  C   UNL     1      12.129  -2.053   6.224  1.00  0.00     0.012 A 
ATOM     72  C   UNL     1      12.680   0.272   5.793  1.00  0.00     0.148 A 
ATOM     73  C   UNL     1      13.385  -2.444   5.756  1.00  0.00     0.002 A 
ATOM     74  C   UNL     1      13.909  -0.128   5.277  1.00  0.00     0.091 A 
ATOM     75  F   UNL     1      12.332   1.565   5.864  1.00  0.00    -0.205 F 
ATOM     76  C   UNL     1      14.270  -1.484   5.273  1.00  0.00     0.022 A 
BRANCH  74  77
ATOM     77  S   UNL     1      15.066   1.025   4.529  1.00  0.00     0.127 S 
ATOM     78  O   UNL     1      16.137   1.062   5.521  1.00  0.00    -0.237 OA
ATOM     79  O   UNL     1      15.407   0.344   3.280  1.00  0.00    -0.237 OA
ATOM     80  O   UNL     1      14.324   2.266   4.351  1.00  0.00    -0.744 OA
ENDBRANCH  74  77
ENDBRANCH  46  70
BRANCH  58  81
ATOM     81  C   UNL     1       8.888  -1.145  12.614  1.00  0.00     0.023 A 
ATOM     82  C   UNL     1       9.848  -0.418  13.345  1.00  0.00     0.012 A 
ATOM     83  C   UNL     1       8.355  -2.329  13.161  1.00  0.00     0.148 A 
ATOM     84  C   UNL     1      10.293  -0.878  14.585  1.00  0.00     0.002 A 
ATOM     85  C   UNL     1       8.771  -2.757  14.417  1.00  0.00     0.091 A 
ATOM     86  F   UNL     1       7.458  -3.021  12.443  1.00  0.00    -0.205 F 
ATOM     87  C   UNL     1       9.747  -2.039  15.126  1.00  0.00     0.022 A 
BRANCH  85  88
ATOM     88  S   UNL     1       8.046  -4.191  15.223  1.00  0.00     0.127 S 
ATOM     89  O   UNL     1       9.059  -5.216  14.978  1.00  0.00    -0.237 OA
ATOM     90  O   UNL     1       7.946  -3.755  16.616  1.00  0.00    -0.237 OA
ATOM     91  O   UNL     1       6.761  -4.404  14.569  1.00  0.00    -0.744 OA
ENDBRANCH  85  88
ENDBRANCH  58  81
ENDBRANCH  32  33
ENDBRANCH  25  27
ENDBRANCH  24  25
ENDBRANCH  23  24
ENDBRANCH   1  23
TORSDOF 19
