REMARK SMILES CCCCCCNC(=O)Oc1cccc(-c2ccc([C@@H](C)C(=O)OCCOC(=O)c3ccc(-c4c5nc(c(-c6cccc(S(=O)(=O)[O-])c6F)c6ccc([nH]6)c(-c6cccc(S(=O)(=O)[O-])c6F)c6nc(c(-c7cccc(S(=O)(=O)[O-])c7F)c7ccc4[nH]7)C=C6)C=C5)cc3)cc2C)c1
REMARK SMILES IDX 20 1 21 2 19 3 16 4 17 5 94 6 18 7 93 8 95 9 15 10 11 11
REMARK SMILES IDX 12 12 96 13 13 14 14 15 10 16 8 17 7 18 9 20 6 21 5 22 4 23
REMARK SMILES IDX 3 24 2 25 1 26 22 27 23 28 24 29 25 30 26 31 27 32 28 33
REMARK SMILES IDX 29 34 30 35 31 36 92 37 32 38 91 39 33 40 34 41 35 42 85 43
REMARK SMILES IDX 36 44 90 45 84 46 86 47 37 48 89 49 83 50 82 51 38 53 70 54
REMARK SMILES IDX 50 55 69 56 51 57 54 58 68 59 87 60 52 61 53 62 67 64 88 65
REMARK SMILES IDX 55 66 39 67 40 68 48 69 41 70 43 71 49 72 42 73 44 74 45 75
REMARK SMILES IDX 46 76 47 77 71 78 72 79 80 80 73 81 75 82 81 83 74 84 76 85
REMARK SMILES IDX 77 86 78 87 79 88 56 89 57 90 65 91 58 92 60 93 66 94 59 95
REMARK SMILES IDX 61 96 62 97 63 98 64 99
REMARK H PARENT 7 19 86 52 54 63
REMARK Flexibility Score: inf
ROOT
ATOM      1  C   UNL     1      -5.504 -13.644   2.519  1.00  0.00     0.126 C 
ATOM      2  C   UNL     1      -6.855 -14.338   2.356  1.00  0.00     0.025 C 
ENDROOT
BRANCH   1   3
ATOM      3  C   UNL     1      -5.366 -12.434   1.608  1.00  0.00    -0.034 A 
ATOM      4  C   UNL     1      -5.204 -10.104  -0.033  1.00  0.00    -0.015 A 
ATOM      5  C   UNL     1      -5.378 -11.390  -0.582  1.00  0.00     0.009 A 
ATOM      6  C   UNL     1      -5.093  -9.996   1.369  1.00  0.00    -0.043 A 
ATOM      7  C   UNL     1      -5.467 -12.532   0.219  1.00  0.00     0.005 A 
ATOM      8  C   UNL     1      -5.164 -11.160   2.163  1.00  0.00     0.008 A 
ATOM      9  C   UNL     1      -4.870  -8.690   2.088  1.00  0.00     0.045 C 
BRANCH   4  10
ATOM     10  C   UNL     1      -5.227  -8.938  -0.940  1.00  0.00    -0.014 A 
ATOM     11  C   UNL     1      -4.281  -6.888  -1.823  1.00  0.00     0.133 A 
ATOM     12  C   UNL     1      -5.412  -6.668  -2.607  1.00  0.00     0.047 A 
ATOM     13  C   UNL     1      -4.173  -8.013  -1.001  1.00  0.00     0.056 A 
ATOM     14  C   UNL     1      -6.449  -7.593  -2.582  1.00  0.00     0.004 A 
ATOM     15  C   UNL     1      -6.359  -8.710  -1.750  1.00  0.00     0.009 A 
BRANCH  11  16
ATOM     16  O   UNL     1      -3.346  -5.839  -1.777  1.00  0.00    -0.410 OA
BRANCH  16  17
ATOM     17  C   UNL     1      -1.996  -6.114  -1.931  1.00  0.00     0.412 C 
ATOM     18  N   UNL     1      -1.206  -5.010  -1.755  1.00  0.00    -0.321 N 
ATOM     19  H   UNL     1      -0.235  -5.145  -1.841  1.00  0.00     0.167 HD
ATOM     20  O   UNL     1      -1.512  -7.200  -2.220  1.00  0.00    -0.224 OA
BRANCH  18  21
ATOM     21  C   UNL     1      -1.649  -3.661  -1.456  1.00  0.00     0.119 C 
BRANCH  21  22
ATOM     22  C   UNL     1      -1.046  -3.123  -0.158  1.00  0.00     0.021 C 
BRANCH  22  23
ATOM     23  C   UNL     1       0.481  -2.982  -0.162  1.00  0.00     0.002 C 
BRANCH  23  24
ATOM     24  C   UNL     1       1.062  -2.083  -1.260  1.00  0.00    -0.000 C 
BRANCH  24  25
ATOM     25  C   UNL     1       0.569  -0.634  -1.255  1.00  0.00    -0.003 C 
ATOM     26  C   UNL     1       0.946   0.126   0.008  1.00  0.00     0.004 C 
ENDBRANCH  24  25
ENDBRANCH  23  24
ENDBRANCH  22  23
ENDBRANCH  21  22
ENDBRANCH  18  21
ENDBRANCH  16  17
ENDBRANCH  11  16
ENDBRANCH   4  10
ENDBRANCH   1   3
BRANCH   1  27
ATOM     27  C   UNL     1      -4.385 -14.675   2.460  1.00  0.00     0.313 C 
ATOM     28  O   UNL     1      -4.128 -15.408   3.411  1.00  0.00    -0.252 OA
BRANCH  27  29
ATOM     29  O   UNL     1      -3.758 -14.744   1.257  1.00  0.00    -0.462 OA
BRANCH  29  30
ATOM     30  C   UNL     1      -2.659 -15.668   1.153  1.00  0.00     0.274 C 
BRANCH  30  31
ATOM     31  C   UNL     1      -1.314 -14.943   1.231  1.00  0.00     0.275 C 
BRANCH  31  32
ATOM     32  O   UNL     1      -1.098 -14.387   2.540  1.00  0.00    -0.458 OA
BRANCH  32  33
ATOM     33  C   UNL     1      -1.393 -13.072   2.655  1.00  0.00     0.338 C 
ATOM     34  O   UNL     1      -1.761 -12.317   1.772  1.00  0.00    -0.246 OA
BRANCH  33  35
ATOM     35  C   UNL     1      -1.322 -12.664   4.065  1.00  0.00     0.060 A 
ATOM     36  C   UNL     1      -2.518 -12.357   4.715  1.00  0.00     0.016 A 
ATOM     37  C   UNL     1      -0.097 -12.468   4.703  1.00  0.00     0.016 A 
ATOM     38  C   UNL     1      -2.501 -11.810   5.993  1.00  0.00     0.010 A 
ATOM     39  C   UNL     1      -0.081 -11.936   5.998  1.00  0.00     0.010 A 
ATOM     40  C   UNL     1      -1.280 -11.575   6.638  1.00  0.00    -0.014 A 
BRANCH  40  41
ATOM     41  C   UNL     1      -1.277 -10.894   7.957  1.00  0.00     0.031 A 
ATOM     42  C   UNL     1      -0.798  -9.473   8.067  1.00  0.00     0.074 A 
ATOM     43  C   UNL     1      -1.716 -11.547   9.050  1.00  0.00     0.049 A 
ATOM     44  N   UNL     1      -0.715  -8.711   9.127  1.00  0.00    -0.248 NA
ATOM     45  C   UNL     1      -0.350  -8.822   6.824  1.00  0.00     0.031 C 
ATOM     46  C   UNL     1      -2.191 -12.931   9.072  1.00  0.00     0.029 A 
ATOM     47  N   UNL     1      -1.817 -11.137  10.356  1.00  0.00    -0.354 N 
ATOM     48  C   UNL     1      -0.160  -7.514   8.693  1.00  0.00     0.074 A 
ATOM     49  C   UNL     1       0.070  -7.645   7.270  1.00  0.00     0.031 C 
ATOM     50  C   UNL     1      -2.516 -13.262  10.332  1.00  0.00     0.029 A 
ATOM     51  C   UNL     1      -2.250 -12.125  11.209  1.00  0.00     0.049 A 
ATOM     52  H   UNL     1      -1.601 -10.224  10.653  1.00  0.00     0.167 HD
ATOM     53  C   UNL     1       0.120  -6.401   9.412  1.00  0.00     0.034 A 
ATOM     54  C   UNL     1      -2.398 -12.120  12.549  1.00  0.00     0.034 A 
ATOM     55  C   UNL     1      -0.167  -6.250  10.813  1.00  0.00     0.049 A 
ATOM     56  C   UNL     1      -2.111 -10.855  13.314  1.00  0.00     0.074 A 
ATOM     57  C   UNL     1      -0.003  -5.127  11.606  1.00  0.00     0.029 A 
ATOM     58  N   UNL     1      -0.668  -7.248  11.632  1.00  0.00    -0.354 N 
ATOM     59  N   UNL     1      -1.730  -9.685  12.861  1.00  0.00    -0.248 NA
ATOM     60  C   UNL     1      -2.306 -10.900  14.771  1.00  0.00     0.031 C 
ATOM     61  C   UNL     1      -0.390  -5.453  12.910  1.00  0.00     0.029 A 
ATOM     62  C   UNL     1      -0.806  -6.775  12.925  1.00  0.00     0.049 A 
ATOM     63  H   UNL     1      -0.893  -8.161  11.337  1.00  0.00     0.167 HD
ATOM     64  C   UNL     1      -1.661  -8.851  13.971  1.00  0.00     0.074 A 
ATOM     65  C   UNL     1      -2.072  -9.640  15.114  1.00  0.00     0.031 C 
ATOM     66  C   UNL     1      -1.270  -7.554  14.043  1.00  0.00     0.034 A 
BRANCH  53  67
ATOM     67  C   UNL     1       0.741  -5.234   8.694  1.00  0.00     0.023 A 
ATOM     68  C   UNL     1      -0.059  -4.415   7.873  1.00  0.00     0.012 A 
ATOM     69  C   UNL     1       2.094  -4.901   8.899  1.00  0.00     0.148 A 
ATOM     70  C   UNL     1       0.483  -3.290   7.253  1.00  0.00     0.002 A 
ATOM     71  C   UNL     1       2.618  -3.758   8.306  1.00  0.00     0.091 A 
ATOM     72  F   UNL     1       2.842  -5.707   9.666  1.00  0.00    -0.205 F 
ATOM     73  C   UNL     1       1.816  -2.956   7.478  1.00  0.00     0.022 A 
BRANCH  71  74
ATOM     74  S   UNL     1       4.303  -3.204   8.591  1.00  0.00     0.127 S 
ATOM     75  O   UNL     1       4.922  -3.464   7.291  1.00  0.00    -0.237 OA
ATOM     76  O   UNL     1       4.113  -1.787   8.902  1.00  0.00    -0.237 OA
ATOM     77  O   UNL     1       4.810  -4.006   9.695  1.00  0.00    -0.744 OA
ENDBRANCH  71  74
ENDBRANCH  53  67
BRANCH  54  78
ATOM     78  C   UNL     1      -2.871 -13.346  13.250  1.00  0.00     0.023 A 
ATOM     79  C   UNL     1      -4.150 -13.363  13.839  1.00  0.00     0.012 A 
ATOM     80  C   UNL     1      -2.068 -14.501  13.322  1.00  0.00     0.148 A 
ATOM     81  C   UNL     1      -4.608 -14.496  14.512  1.00  0.00     0.002 A 
ATOM     82  C   UNL     1      -2.553 -15.645  13.945  1.00  0.00     0.091 A 
ATOM     83  F   UNL     1      -0.843 -14.462  12.780  1.00  0.00    -0.205 F 
ATOM     84  C   UNL     1      -3.816 -15.640  14.555  1.00  0.00     0.022 A 
BRANCH  82  85
ATOM     85  S   UNL     1      -1.642 -17.193  13.918  1.00  0.00     0.127 S 
ATOM     86  O   UNL     1      -1.004 -17.190  15.231  1.00  0.00    -0.237 OA
ATOM     87  O   UNL     1      -2.710 -18.181  13.755  1.00  0.00    -0.237 OA
ATOM     88  O   UNL     1      -0.751 -17.089  12.770  1.00  0.00    -0.744 OA
ENDBRANCH  82  85
ENDBRANCH  54  78
BRANCH  66  89
ATOM     89  C   UNL     1      -1.279  -6.897  15.397  1.00  0.00     0.023 A 
ATOM     90  C   UNL     1      -0.282  -7.230  16.335  1.00  0.00     0.012 A 
ATOM     91  C   UNL     1      -2.222  -5.900  15.714  1.00  0.00     0.148 A 
ATOM     92  C   UNL     1      -0.241  -6.602  17.580  1.00  0.00     0.002 A 
ATOM     93  C   UNL     1      -2.149  -5.247  16.940  1.00  0.00     0.091 A 
ATOM     94  F   UNL     1      -3.177  -5.611  14.818  1.00  0.00    -0.205 F 
ATOM     95  C   UNL     1      -1.166  -5.604  17.877  1.00  0.00     0.022 A 
BRANCH  93  96
ATOM     96  S   UNL     1      -3.243  -3.886  17.363  1.00  0.00     0.127 S 
ATOM     97  O   UNL     1      -4.208  -4.541  18.243  1.00  0.00    -0.237 OA
ATOM     98  O   UNL     1      -2.340  -2.952  18.036  1.00  0.00    -0.237 OA
ATOM     99  O   UNL     1      -3.773  -3.398  16.097  1.00  0.00    -0.744 OA
ENDBRANCH  93  96
ENDBRANCH  66  89
ENDBRANCH  40  41
ENDBRANCH  33  35
ENDBRANCH  32  33
ENDBRANCH  31  32
ENDBRANCH  30  31
ENDBRANCH  29  30
ENDBRANCH  27  29
ENDBRANCH   1  27
TORSDOF 23
