REMARK SMILES COc1ccc(-c2ccc([C@H](C)[NH+]3CCOCC3)cc2)c(C(=O)OCCOC(=O)c2ccc(-c3c4nc(c(-c5cccc(S(=O)(=O)[O-])c5F)c5ccc([nH]5)c(-c5cccc(S(=O)(=O)[O-])c5F)c5nc(c(-c6cccc(S(=O)(=O)[O-])c6F)c6ccc3[nH]6)C=C5)C=C4)cc2)c1
REMARK SMILES IDX 25 1 24 2 22 3 23 4 21 5 3 6 4 7 93 8 5 9 6 10 2 11 1 12
REMARK SMILES IDX 7 13 8 14 20 15 9 16 19 17 10 18 11 19 12 20 13 21 14 22
REMARK SMILES IDX 18 23 15 25 17 26 16 27 26 28 27 29 28 30 29 31 30 32 31 33
REMARK SMILES IDX 92 34 32 35 91 36 33 37 34 38 35 39 85 40 36 41 90 42 84 43
REMARK SMILES IDX 86 44 37 45 89 46 83 47 82 48 38 50 70 51 50 52 69 53 51 54
REMARK SMILES IDX 54 55 68 56 87 57 52 58 53 59 67 61 88 62 55 63 39 64 40 65
REMARK SMILES IDX 48 66 41 67 43 68 49 69 42 70 44 71 45 72 46 73 47 74 71 75
REMARK SMILES IDX 72 76 80 77 73 78 75 79 81 80 74 81 76 82 77 83 78 84 79 85
REMARK SMILES IDX 56 86 57 87 65 88 58 89 60 90 66 91 59 92 61 93 62 94 63 95
REMARK SMILES IDX 64 96
REMARK H PARENT 13 24 86 49 54 60
REMARK Flexibility Score: inf
ROOT
ATOM      1  C   UNL     1      -5.370  -9.885  -5.351  1.00  0.00     0.275 C 
ENDROOT
BRANCH   1   2
ATOM      2  O   UNL     1      -5.319 -11.010  -4.449  1.00  0.00    -0.458 OA
BRANCH   2   3
ATOM      3  C   UNL     1      -4.322 -11.902  -4.681  1.00  0.00     0.339 C 
ATOM      4  O   UNL     1      -3.539 -11.887  -5.615  1.00  0.00    -0.246 OA
BRANCH   3   5
ATOM      5  C   UNL     1      -4.421 -13.025  -3.724  1.00  0.00     0.071 A 
ATOM      6  C   UNL     1      -5.649 -15.048  -3.236  1.00  0.00     0.119 A 
ATOM      7  C   UNL     1      -4.645 -15.416  -2.338  1.00  0.00     0.047 A 
ATOM      8  C   UNL     1      -5.557 -13.831  -3.895  1.00  0.00     0.062 A 
ATOM      9  C   UNL     1      -3.521 -14.598  -2.140  1.00  0.00     0.013 A 
ATOM     10  C   UNL     1      -3.376 -13.396  -2.846  1.00  0.00    -0.004 A 
BRANCH   6  11
ATOM     11  O   UNL     1      -6.672 -15.941  -3.414  1.00  0.00    -0.497 OA
ATOM     12  C   UNL     1      -7.257 -15.927  -4.717  1.00  0.00     0.278 C 
ENDBRANCH   6  11
BRANCH  10  13
ATOM     13  C   UNL     1      -2.112 -12.651  -2.783  1.00  0.00    -0.018 A 
ATOM     14  C   UNL     1      -1.043 -12.776  -4.191  1.00  0.00     0.009 A 
ATOM     15  C   UNL     1      -1.764 -11.350  -1.571  1.00  0.00     0.009 A 
ATOM     16  C   UNL     1       0.326 -11.687  -4.487  1.00  0.00     0.010 A 
ATOM     17  C   UNL     1      -0.240 -10.078  -1.970  1.00  0.00     0.010 A 
ATOM     18  C   UNL     1       0.766 -10.354  -3.427  1.00  0.00     0.009 A 
BRANCH  18  19
ATOM     19  C   UNL     1       2.156  -9.731  -3.535  1.00  0.00     0.212 C 
ATOM     20  C   UNL     1       2.505  -8.845  -2.327  1.00  0.00     0.081 C 
BRANCH  19  21
ATOM     21  N   UNL     1       2.478  -9.258  -4.886  1.00  0.00    -0.325 N 
ATOM     22  C   UNL     1       3.769  -8.537  -4.978  1.00  0.00     0.291 C 
ATOM     23  C   UNL     1       1.454  -8.493  -5.596  1.00  0.00     0.291 C 
ATOM     24  H   UNL     1       2.541 -10.152  -5.373  1.00  0.00     0.348 HD
ATOM     25  C   UNL     1       3.689  -7.024  -4.671  1.00  0.00     0.221 C 
ATOM     26  C   UNL     1       1.368  -7.040  -5.142  1.00  0.00     0.221 C 
ATOM     27  O   UNL     1       2.610  -6.363  -5.359  1.00  0.00    -0.370 OA
ENDBRANCH  19  21
ENDBRANCH  18  19
ENDBRANCH  10  13
ENDBRANCH   3   5
ENDBRANCH   2   3
ENDBRANCH   1   2
BRANCH   1  28
ATOM     28  C   UNL     1      -5.004  -8.602  -4.613  1.00  0.00     0.275 C 
BRANCH  28  29
ATOM     29  O   UNL     1      -3.658  -8.717  -4.121  1.00  0.00    -0.458 OA
BRANCH  29  30
ATOM     30  C   UNL     1      -3.588  -9.000  -2.805  1.00  0.00     0.338 C 
ATOM     31  O   UNL     1      -4.512  -9.004  -2.003  1.00  0.00    -0.246 OA
BRANCH  30  32
ATOM     32  C   UNL     1      -2.249  -9.435  -2.405  1.00  0.00     0.060 A 
ATOM     33  C   UNL     1      -1.388 -10.718  -3.321  1.00  0.00     0.016 A 
ATOM     34  C   UNL     1      -1.901  -9.271  -0.691  1.00  0.00     0.016 A 
ATOM     35  C   UNL     1      -0.133 -11.934  -2.300  1.00  0.00     0.010 A 
ATOM     36  C   UNL     1      -0.731 -10.295   0.172  1.00  0.00     0.010 A 
ATOM     37  C   UNL     1       0.199 -11.628  -0.560  1.00  0.00    -0.014 A 
BRANCH  37  38
ATOM     38  C   UNL     1       1.533 -12.074   0.090  1.00  0.00     0.031 A 
ATOM     39  C   UNL     1       1.764 -11.850   1.578  1.00  0.00     0.074 A 
ATOM     40  C   UNL     1       2.640 -12.433  -0.622  1.00  0.00     0.049 A 
ATOM     41  N   UNL     1       2.889 -11.742   2.245  1.00  0.00    -0.248 NA
ATOM     42  C   UNL     1       0.572 -11.729   2.430  1.00  0.00     0.031 C 
ATOM     43  C   UNL     1       2.727 -12.883  -2.005  1.00  0.00     0.029 A 
ATOM     44  N   UNL     1       3.986 -12.354  -0.277  1.00  0.00    -0.354 N 
ATOM     45  C   UNL     1       2.532 -11.497   3.568  1.00  0.00     0.074 A 
ATOM     46  C   UNL     1       1.096 -11.322   3.578  1.00  0.00     0.031 C 
ATOM     47  C   UNL     1       3.979 -12.791  -2.465  1.00  0.00     0.029 A 
ATOM     48  C   UNL     1       4.838 -12.404  -1.370  1.00  0.00     0.049 A 
ATOM     49  H   UNL     1       4.302 -12.271   0.651  1.00  0.00     0.167 HD
ATOM     50  C   UNL     1       3.291 -11.538   4.693  1.00  0.00     0.034 A 
ATOM     51  C   UNL     1       6.165 -12.228  -1.525  1.00  0.00     0.034 A 
ATOM     52  C   UNL     1       4.689 -11.881   4.713  1.00  0.00     0.049 A 
ATOM     53  C   UNL     1       7.012 -12.229  -0.298  1.00  0.00     0.074 A 
ATOM     54  C   UNL     1       5.498 -12.144   5.806  1.00  0.00     0.029 A 
ATOM     55  N   UNL     1       5.484 -12.026   3.588  1.00  0.00    -0.354 N 
ATOM     56  N   UNL     1       6.632 -12.164   0.950  1.00  0.00    -0.248 NA
ATOM     57  C   UNL     1       8.451 -12.453  -0.490  1.00  0.00     0.031 C 
ATOM     58  C   UNL     1       6.788 -12.426   5.341  1.00  0.00     0.029 A 
ATOM     59  C   UNL     1       6.777 -12.360   3.959  1.00  0.00     0.049 A 
ATOM     60  H   UNL     1       5.176 -11.909   2.660  1.00  0.00     0.167 HD
ATOM     61  C   UNL     1       7.762 -12.452   1.697  1.00  0.00     0.074 A 
ATOM     62  C   UNL     1       8.850 -12.648   0.759  1.00  0.00     0.031 C 
ATOM     63  C   UNL     1       7.863 -12.582   3.040  1.00  0.00     0.034 A 
BRANCH  50  64
ATOM     64  C   UNL     1       2.587 -11.339   6.017  1.00  0.00     0.023 A 
ATOM     65  C   UNL     1       1.641 -12.294   6.452  1.00  0.00     0.012 A 
ATOM     66  C   UNL     1       2.873 -10.236   6.845  1.00  0.00     0.148 A 
ATOM     67  C   UNL     1       0.934 -12.115   7.640  1.00  0.00     0.002 A 
ATOM     68  C   UNL     1       2.205 -10.093   8.058  1.00  0.00     0.091 A 
ATOM     69  F   UNL     1       3.778  -9.339   6.428  1.00  0.00    -0.205 F 
ATOM     70  C   UNL     1       1.220 -11.018   8.444  1.00  0.00     0.022 A 
BRANCH  68  71
ATOM     71  S   UNL     1       2.559  -8.767   9.217  1.00  0.00     0.127 S 
ATOM     72  O   UNL     1       1.336  -7.969   9.134  1.00  0.00    -0.237 OA
ATOM     73  O   UNL     1       2.725  -9.496  10.475  1.00  0.00    -0.237 OA
ATOM     74  O   UNL     1       3.765  -8.115   8.727  1.00  0.00    -0.744 OA
ENDBRANCH  68  71
ENDBRANCH  50  64
BRANCH  51  75
ATOM     75  C   UNL     1       6.784 -12.281  -2.884  1.00  0.00     0.023 A 
ATOM     76  C   UNL     1       7.253 -13.512  -3.384  1.00  0.00     0.012 A 
ATOM     77  C   UNL     1       6.877 -11.130  -3.692  1.00  0.00     0.148 A 
ATOM     78  C   UNL     1       7.816 -13.595  -4.658  1.00  0.00     0.002 A 
ATOM     79  C   UNL     1       7.419 -11.224  -4.972  1.00  0.00     0.091 A 
ATOM     80  F   UNL     1       6.440  -9.967  -3.190  1.00  0.00    -0.205 F 
ATOM     81  C   UNL     1       7.895 -12.455  -5.453  1.00  0.00     0.022 A 
BRANCH  79  82
ATOM     82  S   UNL     1       7.534  -9.828  -6.101  1.00  0.00     0.127 S 
ATOM     83  O   UNL     1       8.977  -9.719  -6.298  1.00  0.00    -0.237 OA
ATOM     84  O   UNL     1       6.791 -10.320  -7.261  1.00  0.00    -0.237 OA
ATOM     85  O   UNL     1       6.916  -8.705  -5.409  1.00  0.00    -0.744 OA
ENDBRANCH  79  82
ENDBRANCH  51  75
BRANCH  63  86
ATOM     86  C   UNL     1       9.194 -12.999   3.595  1.00  0.00     0.023 A 
ATOM     87  C   UNL     1      10.278 -12.101   3.574  1.00  0.00     0.012 A 
ATOM     88  C   UNL     1       9.354 -14.268   4.185  1.00  0.00     0.148 A 
ATOM     89  C   UNL     1      11.512 -12.471   4.104  1.00  0.00     0.002 A 
ATOM     90  C   UNL     1      10.570 -14.608   4.763  1.00  0.00     0.091 A 
ATOM     91  F   UNL     1       8.318 -15.119   4.167  1.00  0.00    -0.205 F 
ATOM     92  C   UNL     1      11.654 -13.717   4.710  1.00  0.00     0.022 A 
BRANCH  90  93
ATOM     93  S   UNL     1      10.816 -16.146   5.656  1.00  0.00     0.127 S 
ATOM     94  O   UNL     1      11.722 -16.868   4.764  1.00  0.00    -0.237 OA
ATOM     95  O   UNL     1      11.426 -15.683   6.902  1.00  0.00    -0.237 OA
ATOM     96  O   UNL     1       9.494 -16.738   5.813  1.00  0.00    -0.744 OA
ENDBRANCH  90  93
ENDBRANCH  63  86
ENDBRANCH  37  38
ENDBRANCH  30  32
ENDBRANCH  29  30
ENDBRANCH  28  29
ENDBRANCH   1  28
TORSDOF 18
