REMARK SMILES CN1CC[N@H+](CC(=O)OCCOC(=O)c2ccc(-c3c4nc(c(-c5cccc(S(=O)(=O)[O-])c5F)c5ccc([nH]5)c(-c5cccc(S(=O)(=O)[O-])c5F)c5nc(c(-c6cccc(S(=O)(=O)[O-])c6F)c6ccc3[nH]6)C=C5)C=C4)cc2)C(C)(C)C1=O
REMARK SMILES IDX 11 1 10 2 9 3 7 4 8 5 6 6 5 7 1 8 2 9 3 10 81 11 4 12 78 13
REMARK SMILES IDX 82 14 79 15 80 16 12 18 13 19 14 20 15 21 16 22 77 23 17 24
REMARK SMILES IDX 76 25 18 26 19 27 20 28 70 29 21 30 75 31 69 32 71 33 22 34
REMARK SMILES IDX 74 35 68 36 67 37 23 39 55 40 35 41 54 42 36 43 39 44 53 45
REMARK SMILES IDX 72 46 37 47 38 48 52 50 73 51 40 52 24 53 25 54 33 55 26 56
REMARK SMILES IDX 28 57 34 58 27 59 29 60 30 61 31 62 32 63 56 64 57 65 65 66
REMARK SMILES IDX 58 67 60 68 66 69 59 70 61 71 62 72 63 73 64 74 41 75 42 76
REMARK SMILES IDX 50 77 43 78 45 79 51 80 44 81 46 82 47 83 48 84 49 85
REMARK H PARENT 5 17 71 38 39 49
REMARK Flexibility Score: inf
ROOT
ATOM      1  C   UNL     1      -2.541   0.098  -1.835  1.00  0.00     0.275 C 
ENDROOT
BRANCH   1   2
ATOM      2  C   UNL     1      -1.872   0.530  -3.135  1.00  0.00     0.274 C 
BRANCH   2   3
ATOM      3  O   UNL     1      -0.908   1.572  -2.888  1.00  0.00    -0.458 OA
BRANCH   3   4
ATOM      4  C   UNL     1      -1.269   2.831  -3.235  1.00  0.00     0.361 C 
ATOM      5  O   UNL     1      -2.354   3.127  -3.728  1.00  0.00    -0.245 OA
BRANCH   4   6
ATOM      6  C   UNL     1      -0.186   3.886  -3.008  1.00  0.00     0.387 C 
BRANCH   6   7
ATOM      7  N   UNL     1       0.967   3.538  -2.155  1.00  0.00    -0.312 N 
ATOM      8  C   UNL     1       1.303  -0.162   0.000  1.00  0.00     0.147 C 
ATOM      9  N   UNL     1       1.405   1.105  -0.695  1.00  0.00    -0.335 N 
ATOM     10  C   UNL     1       1.274   2.327   0.080  1.00  0.00     0.180 C 
ATOM     11  C   UNL     1       1.788   1.151  -2.031  1.00  0.00     0.283 C 
ATOM     12  C   UNL     1       0.639   3.469  -0.726  1.00  0.00     0.285 C 
ATOM     13  C   UNL     1       1.982   2.575  -2.648  1.00  0.00     0.172 C 
ATOM     14  O   UNL     1       2.024   0.126  -2.676  1.00  0.00    -0.268 OA
ATOM     15  C   UNL     1       3.374   3.105  -2.237  1.00  0.00     0.090 C 
ATOM     16  C   UNL     1       2.017   2.452  -4.189  1.00  0.00     0.090 C 
ATOM     17  H   UNL     1       1.546   4.370  -2.270  1.00  0.00     0.349 HD
ENDBRANCH   6   7
ENDBRANCH   4   6
ENDBRANCH   3   4
ENDBRANCH   2   3
ENDBRANCH   1   2
BRANCH   1  18
ATOM     18  O   UNL     1      -3.208   1.224  -1.240  1.00  0.00    -0.458 OA
BRANCH  18  19
ATOM     19  C   UNL     1      -2.749   1.600  -0.027  1.00  0.00     0.338 C 
ATOM     20  O   UNL     1      -1.892   1.063   0.651  1.00  0.00    -0.246 OA
BRANCH  19  21
ATOM     21  C   UNL     1      -3.441   2.821   0.402  1.00  0.00     0.060 A 
ATOM     22  C   UNL     1      -3.192   4.031  -0.250  1.00  0.00     0.016 A 
ATOM     23  C   UNL     1      -4.257   2.774   1.532  1.00  0.00     0.016 A 
ATOM     24  C   UNL     1      -3.728   5.210   0.257  1.00  0.00     0.010 A 
ATOM     25  C   UNL     1      -4.849   3.948   1.998  1.00  0.00     0.010 A 
ATOM     26  C   UNL     1      -4.575   5.176   1.374  1.00  0.00    -0.014 A 
BRANCH  26  27
ATOM     27  C   UNL     1      -5.235   6.416   1.844  1.00  0.00     0.031 A 
ATOM     28  C   UNL     1      -4.901   7.013   3.180  1.00  0.00     0.074 A 
ATOM     29  C   UNL     1      -6.179   6.974   1.062  1.00  0.00     0.049 A 
ATOM     30  N   UNL     1      -5.427   8.056   3.767  1.00  0.00    -0.248 NA
ATOM     31  C   UNL     1      -3.846   6.350   3.964  1.00  0.00     0.031 C 
ATOM     32  C   UNL     1      -6.605   6.453  -0.240  1.00  0.00     0.029 A 
ATOM     33  N   UNL     1      -6.962   8.083   1.250  1.00  0.00    -0.354 N 
ATOM     34  C   UNL     1      -4.800   8.155   5.003  1.00  0.00     0.074 A 
ATOM     35  C   UNL     1      -3.851   7.065   5.082  1.00  0.00     0.031 C 
ATOM     36  C   UNL     1      -7.569   7.243  -0.734  1.00  0.00     0.029 A 
ATOM     37  C   UNL     1      -7.859   8.297   0.230  1.00  0.00     0.049 A 
ATOM     38  H   UNL     1      -6.889   8.668   2.038  1.00  0.00     0.167 HD
ATOM     39  C   UNL     1      -4.992   9.079   5.974  1.00  0.00     0.034 A 
ATOM     40  C   UNL     1      -8.822   9.229   0.094  1.00  0.00     0.034 A 
ATOM     41  C   UNL     1      -5.914  10.180   5.870  1.00  0.00     0.049 A 
ATOM     42  C   UNL     1      -8.991  10.256   1.175  1.00  0.00     0.074 A 
ATOM     43  C   UNL     1      -6.142  11.202   6.775  1.00  0.00     0.029 A 
ATOM     44  N   UNL     1      -6.763  10.403   4.796  1.00  0.00    -0.354 N 
ATOM     45  N   UNL     1      -8.309  10.401   2.286  1.00  0.00    -0.248 NA
ATOM     46  C   UNL     1     -10.042  11.262   0.975  1.00  0.00     0.031 C 
ATOM     47  C   UNL     1      -7.135  12.038   6.252  1.00  0.00     0.029 A 
ATOM     48  C   UNL     1      -7.522  11.540   5.017  1.00  0.00     0.049 A 
ATOM     49  H   UNL     1      -6.819   9.835   3.994  1.00  0.00     0.167 HD
ATOM     50  C   UNL     1      -8.842  11.519   2.915  1.00  0.00     0.074 A 
ATOM     51  C   UNL     1      -9.878  12.034   2.041  1.00  0.00     0.031 C 
ATOM     52  C   UNL     1      -8.522  12.055   4.118  1.00  0.00     0.034 A 
BRANCH  39  53
ATOM     53  C   UNL     1      -4.157   8.969   7.223  1.00  0.00     0.023 A 
ATOM     54  C   UNL     1      -2.809   9.378   7.190  1.00  0.00     0.012 A 
ATOM     55  C   UNL     1      -4.717   8.528   8.438  1.00  0.00     0.148 A 
ATOM     56  C   UNL     1      -2.025   9.333   8.343  1.00  0.00     0.002 A 
ATOM     57  C   UNL     1      -3.937   8.516   9.590  1.00  0.00     0.091 A 
ATOM     58  F   UNL     1      -5.993   8.117   8.444  1.00  0.00    -0.205 F 
ATOM     59  C   UNL     1      -2.591   8.912   9.543  1.00  0.00     0.022 A 
BRANCH  57  60
ATOM     60  S   UNL     1      -4.598   8.048  11.195  1.00  0.00     0.127 S 
ATOM     61  O   UNL     1      -4.059   6.699  11.354  1.00  0.00    -0.237 OA
ATOM     62  O   UNL     1      -4.005   9.050  12.082  1.00  0.00    -0.237 OA
ATOM     63  O   UNL     1      -6.046   8.138  11.068  1.00  0.00    -0.744 OA
ENDBRANCH  57  60
ENDBRANCH  39  53
BRANCH  40  64
ATOM     64  C   UNL     1      -9.650   9.248  -1.142  1.00  0.00     0.023 A 
ATOM     65  C   UNL     1      -9.452  10.272  -2.087  1.00  0.00     0.012 A 
ATOM     66  C   UNL     1     -10.566   8.217  -1.427  1.00  0.00     0.148 A 
ATOM     67  C   UNL     1     -10.161  10.275  -3.289  1.00  0.00     0.002 A 
ATOM     68  C   UNL     1     -11.225   8.195  -2.651  1.00  0.00     0.091 A 
ATOM     69  F   UNL     1     -10.760   7.262  -0.506  1.00  0.00    -0.205 F 
ATOM     70  C   UNL     1     -11.034   9.230  -3.578  1.00  0.00     0.022 A 
BRANCH  68  71
ATOM     71  S   UNL     1     -12.240   6.798  -3.150  1.00  0.00     0.127 S 
ATOM     72  O   UNL     1     -13.585   7.280  -2.850  1.00  0.00    -0.237 OA
ATOM     73  O   UNL     1     -11.931   6.681  -4.576  1.00  0.00    -0.237 OA
ATOM     74  O   UNL     1     -11.765   5.678  -2.347  1.00  0.00    -0.744 OA
ENDBRANCH  68  71
ENDBRANCH  40  64
BRANCH  52  75
ATOM     75  C   UNL     1      -9.313  13.256   4.561  1.00  0.00     0.023 A 
ATOM     76  C   UNL     1     -10.633  13.078   5.021  1.00  0.00     0.012 A 
ATOM     77  C   UNL     1      -8.746  14.543   4.564  1.00  0.00     0.148 A 
ATOM     78  C   UNL     1     -11.387  14.168   5.449  1.00  0.00     0.002 A 
ATOM     79  C   UNL     1      -9.492  15.621   5.029  1.00  0.00     0.091 A 
ATOM     80  F   UNL     1      -7.498  14.698   4.097  1.00  0.00    -0.205 F 
ATOM     81  C   UNL     1     -10.814  15.438   5.463  1.00  0.00     0.022 A 
BRANCH  79  82
ATOM     82  S   UNL     1      -8.793  17.272   5.149  1.00  0.00     0.127 S 
ATOM     83  O   UNL     1      -9.272  17.892   3.915  1.00  0.00    -0.237 OA
ATOM     84  O   UNL     1      -9.409  17.791   6.371  1.00  0.00    -0.237 OA
ATOM     85  O   UNL     1      -7.351  17.078   5.244  1.00  0.00    -0.744 OA
ENDBRANCH  79  82
ENDBRANCH  52  75
ENDBRANCH  26  27
ENDBRANCH  19  21
ENDBRANCH  18  19
ENDBRANCH   1  18
TORSDOF 15
