REMARK SMILES CCOc1cccc(OCC)c1-c1ccc([C@@H](C)C(=O)OCCOC(=O)c2ccc(-c3c4nc(c(-c5cccc(S(=O)(=O)[O-])c5F)c5ccc([nH]5)c(-c5cccc(S(=O)(=O)[O-])c5F)c5nc(c(-c6cccc(S(=O)(=O)[O-])c6F)c6ccc3[nH]6)C=C5)C=C4)cc2)cc1F
REMARK SMILES IDX 22 1 21 2 19 3 20 4 17 5 18 6 16 7 13 8 14 9 91 10 15 11
REMARK SMILES IDX 90 12 92 13 12 14 4 15 5 16 6 17 8 18 7 19 3 20 2 21 1 22
REMARK SMILES IDX 9 23 10 24 11 25 23 26 24 27 25 28 26 29 27 30 28 31 89 32
REMARK SMILES IDX 29 33 88 34 30 35 31 36 32 37 82 38 33 39 87 40 81 41 83 42
REMARK SMILES IDX 34 43 86 44 80 45 79 46 35 48 67 49 47 50 66 51 48 52 51 53
REMARK SMILES IDX 65 54 84 55 49 56 50 57 64 59 85 60 52 61 36 62 37 63 45 64
REMARK SMILES IDX 38 65 40 66 46 67 39 68 41 69 42 70 43 71 44 72 68 73 69 74
REMARK SMILES IDX 77 75 70 76 72 77 78 78 71 79 73 80 74 81 75 82 76 83 53 84
REMARK SMILES IDX 54 85 62 86 55 87 57 88 63 89 56 90 58 91 59 92 60 93 61 94
REMARK H PARENT 83 47 51 58
REMARK Flexibility Score: inf
ROOT
ATOM      1  C   UNL     1       1.126  -3.243   4.742  1.00  0.00     0.274 C 
ENDROOT
BRANCH   1   2
ATOM      2  O   UNL     1       1.722  -3.353   3.434  1.00  0.00    -0.462 OA
BRANCH   2   3
ATOM      3  C   UNL     1       1.274  -4.345   2.624  1.00  0.00     0.313 C 
ATOM      4  O   UNL     1       0.496  -5.222   2.986  1.00  0.00    -0.252 OA
BRANCH   3   5
ATOM      5  C   UNL     1       1.880  -4.333   1.222  1.00  0.00     0.126 C 
ATOM      6  C   UNL     1       3.132  -5.205   1.189  1.00  0.00     0.025 C 
BRANCH   5   7
ATOM      7  C   UNL     1       2.138  -2.988   0.551  1.00  0.00    -0.031 A 
ATOM      8  C   UNL     1       2.802  -0.596  -0.847  1.00  0.00     0.025 A 
ATOM      9  C   UNL     1       3.072  -0.740   0.520  1.00  0.00     0.012 A 
ATOM     10  C   UNL     1       2.111  -1.634  -1.480  1.00  0.00     0.131 A 
ATOM     11  C   UNL     1       2.800  -1.934   1.191  1.00  0.00     0.005 A 
ATOM     12  C   UNL     1       1.774  -2.806  -0.795  1.00  0.00     0.044 A 
ATOM     13  F   UNL     1       1.798  -1.544  -2.781  1.00  0.00    -0.206 F 
BRANCH   8  14
ATOM     14  C   UNL     1       3.247   0.614  -1.555  1.00  0.00     0.069 A 
ATOM     15  C   UNL     1       2.281   1.619  -1.826  1.00  0.00     0.130 A 
ATOM     16  C   UNL     1       2.612   2.836  -2.428  1.00  0.00     0.047 A 
ATOM     17  C   UNL     1       3.931   3.090  -2.770  1.00  0.00     0.008 A 
ATOM     18  C   UNL     1       4.581   0.873  -1.944  1.00  0.00     0.130 A 
ATOM     19  C   UNL     1       4.895   2.111  -2.542  1.00  0.00     0.047 A 
BRANCH  15  20
ATOM     20  O   UNL     1       0.954   1.344  -1.599  1.00  0.00    -0.493 OA
BRANCH  20  21
ATOM     21  C   UNL     1       0.381   2.121  -0.546  1.00  0.00     0.226 C 
ATOM     22  C   UNL     1      -0.199   1.162   0.476  1.00  0.00     0.049 C 
ENDBRANCH  20  21
ENDBRANCH  15  20
BRANCH  18  23
ATOM     23  O   UNL     1       5.705   0.092  -1.892  1.00  0.00    -0.493 OA
BRANCH  23  24
ATOM     24  C   UNL     1       5.814  -1.105  -1.139  1.00  0.00     0.226 C 
ATOM     25  C   UNL     1       6.301  -0.798   0.267  1.00  0.00     0.049 C 
ENDBRANCH  23  24
ENDBRANCH  18  23
ENDBRANCH   8  14
ENDBRANCH   5   7
ENDBRANCH   3   5
ENDBRANCH   2   3
ENDBRANCH   1   2
BRANCH   1  26
ATOM     26  C   UNL     1       0.074  -2.130   4.782  1.00  0.00     0.275 C 
BRANCH  26  27
ATOM     27  O   UNL     1      -1.106  -2.498   4.047  1.00  0.00    -0.458 OA
BRANCH  27  28
ATOM     28  C   UNL     1      -1.116  -2.103   2.755  1.00  0.00     0.338 C 
ATOM     29  O   UNL     1      -0.266  -1.427   2.192  1.00  0.00    -0.246 OA
BRANCH  28  30
ATOM     30  C   UNL     1      -2.236  -2.723   2.043  1.00  0.00     0.060 A 
ATOM     31  C   UNL     1      -1.943  -3.622   1.013  1.00  0.00     0.016 A 
ATOM     32  C   UNL     1      -3.556  -2.380   2.334  1.00  0.00     0.016 A 
ATOM     33  C   UNL     1      -2.970  -4.195   0.273  1.00  0.00     0.010 A 
ATOM     34  C   UNL     1      -4.588  -2.956   1.589  1.00  0.00     0.010 A 
ATOM     35  C   UNL     1      -4.299  -3.862   0.553  1.00  0.00    -0.014 A 
BRANCH  35  36
ATOM     36  C   UNL     1      -5.391  -4.448  -0.258  1.00  0.00     0.031 A 
ATOM     37  C   UNL     1      -6.109  -3.599  -1.264  1.00  0.00     0.074 A 
ATOM     38  C   UNL     1      -5.738  -5.734  -0.070  1.00  0.00     0.049 A 
ATOM     39  N   UNL     1      -7.158  -3.888  -1.987  1.00  0.00    -0.248 NA
ATOM     40  C   UNL     1      -5.579  -2.243  -1.483  1.00  0.00     0.031 C 
ATOM     41  C   UNL     1      -5.096  -6.651   0.874  1.00  0.00     0.029 A 
ATOM     42  N   UNL     1      -6.735  -6.483  -0.641  1.00  0.00    -0.354 N 
ATOM     43  C   UNL     1      -7.437  -2.743  -2.723  1.00  0.00     0.074 A 
ATOM     44  C   UNL     1      -6.448  -1.752  -2.356  1.00  0.00     0.031 C 
ATOM     45  C   UNL     1      -5.737  -7.831   0.841  1.00  0.00     0.029 A 
ATOM     46  C   UNL     1      -6.853  -7.740  -0.096  1.00  0.00     0.049 A 
ATOM     47  H   UNL     1      -7.309  -6.154  -1.370  1.00  0.00     0.167 HD
ATOM     48  C   UNL     1      -8.420  -2.545  -3.632  1.00  0.00     0.034 A 
ATOM     49  C   UNL     1      -7.778  -8.697  -0.304  1.00  0.00     0.034 A 
ATOM     50  C   UNL     1      -9.381  -3.547  -4.008  1.00  0.00     0.049 A 
ATOM     51  C   UNL     1      -8.867  -8.446  -1.313  1.00  0.00     0.074 A 
ATOM     52  C   UNL     1     -10.412  -3.451  -4.926  1.00  0.00     0.029 A 
ATOM     53  N   UNL     1      -9.427  -4.832  -3.488  1.00  0.00    -0.354 N 
ATOM     54  N   UNL     1      -9.073  -7.386  -2.057  1.00  0.00    -0.248 NA
ATOM     55  C   UNL     1      -9.833  -9.532  -1.534  1.00  0.00     0.031 C 
ATOM     56  C   UNL     1     -11.085  -4.677  -4.956  1.00  0.00     0.029 A 
ATOM     57  C   UNL     1     -10.465  -5.541  -4.067  1.00  0.00     0.049 A 
ATOM     58  H   UNL     1      -8.812  -5.188  -2.806  1.00  0.00     0.167 HD
ATOM     59  C   UNL     1     -10.173  -7.685  -2.852  1.00  0.00     0.074 A 
ATOM     60  C   UNL     1     -10.574  -9.037  -2.516  1.00  0.00     0.031 C 
ATOM     61  C   UNL     1     -10.808  -6.906  -3.762  1.00  0.00     0.034 A 
BRANCH  48  62
ATOM     62  C   UNL     1      -8.483  -1.203  -4.311  1.00  0.00     0.023 A 
ATOM     63  C   UNL     1      -7.539  -0.888  -5.309  1.00  0.00     0.012 A 
ATOM     64  C   UNL     1      -9.501  -0.279  -4.005  1.00  0.00     0.148 A 
ATOM     65  C   UNL     1      -7.591   0.336  -5.975  1.00  0.00     0.002 A 
ATOM     66  C   UNL     1      -9.568   0.924  -4.699  1.00  0.00     0.091 A 
ATOM     67  F   UNL     1     -10.375  -0.587  -3.037  1.00  0.00    -0.205 F 
ATOM     68  C   UNL     1      -8.610   1.236  -5.677  1.00  0.00     0.022 A 
BRANCH  66  69
ATOM     69  S   UNL     1     -10.880   2.123  -4.434  1.00  0.00     0.127 S 
ATOM     70  O   UNL     1     -10.169   3.191  -3.734  1.00  0.00    -0.237 OA
ATOM     71  O   UNL     1     -11.279   2.453  -5.803  1.00  0.00    -0.237 OA
ATOM     72  O   UNL     1     -11.901   1.435  -3.656  1.00  0.00    -0.744 OA
ENDBRANCH  66  69
ENDBRANCH  48  62
BRANCH  49  73
ATOM     73  C   UNL     1      -7.698  -9.983   0.444  1.00  0.00     0.023 A 
ATOM     74  C   UNL     1      -7.365 -11.167  -0.240  1.00  0.00     0.012 A 
ATOM     75  C   UNL     1      -7.915 -10.032   1.835  1.00  0.00     0.148 A 
ATOM     76  C   UNL     1      -7.277 -12.381   0.442  1.00  0.00     0.002 A 
ATOM     77  C   UNL     1      -7.770 -11.234   2.518  1.00  0.00     0.091 A 
ATOM     78  F   UNL     1      -8.255  -8.900   2.469  1.00  0.00    -0.205 F 
ATOM     79  C   UNL     1      -7.466 -12.413   1.822  1.00  0.00     0.022 A 
BRANCH  77  80
ATOM     80  S   UNL     1      -7.863 -11.327   4.310  1.00  0.00     0.127 S 
ATOM     81  O   UNL     1      -9.206 -11.860   4.514  1.00  0.00    -0.237 OA
ATOM     82  O   UNL     1      -6.777 -12.255   4.629  1.00  0.00    -0.237 OA
ATOM     83  O   UNL     1      -7.636  -9.965   4.778  1.00  0.00    -0.744 OA
ENDBRANCH  77  80
ENDBRANCH  49  73
BRANCH  61  84
ATOM     84  C   UNL     1     -11.986  -7.502  -4.485  1.00  0.00     0.023 A 
ATOM     85  C   UNL     1     -13.215  -7.645  -3.812  1.00  0.00     0.012 A 
ATOM     86  C   UNL     1     -11.897  -7.843  -5.849  1.00  0.00     0.148 A 
ATOM     87  C   UNL     1     -14.333  -8.143  -4.479  1.00  0.00     0.002 A 
ATOM     88  C   UNL     1     -13.027  -8.297  -6.518  1.00  0.00     0.091 A 
ATOM     89  F   UNL     1     -10.712  -7.718  -6.464  1.00  0.00    -0.205 F 
ATOM     90  C   UNL     1     -14.243  -8.457  -5.833  1.00  0.00     0.022 A 
BRANCH  88  91
ATOM     91  S   UNL     1     -13.024  -8.641  -8.282  1.00  0.00     0.127 S 
ATOM     92  O   UNL     1     -13.036 -10.103  -8.300  1.00  0.00    -0.237 OA
ATOM     93  O   UNL     1     -14.272  -8.016  -8.724  1.00  0.00    -0.237 OA
ATOM     94  O   UNL     1     -11.818  -8.017  -8.809  1.00  0.00    -0.744 OA
ENDBRANCH  88  91
ENDBRANCH  61  84
ENDBRANCH  35  36
ENDBRANCH  28  30
ENDBRANCH  27  28
ENDBRANCH  26  27
ENDBRANCH   1  26
TORSDOF 20
