REMARK SMILES O=C(OCCOC(=O)C1(NC(=O)c2ccncc2Cl)CCCCC1)c1ccc(-c2c3nc(c(-c4cccc(S(=O)(=O)[O-])c4F)c4ccc([nH]4)c(-c4cccc(S(=O)(=O)[O-])c4F)c4nc(c(-c5cccc(S(=O)(=O)[O-])c5F)c5ccc2[nH]5)C=C4)C=C3)cc1
REMARK SMILES IDX 4 1 3 2 2 3 1 4 25 5 26 6 87 7 27 8 86 9 28 10 29 11 30 12
REMARK SMILES IDX 80 13 31 14 85 15 79 16 81 17 32 18 84 19 78 20 77 21 33 23
REMARK SMILES IDX 65 24 45 25 64 26 46 27 49 28 63 29 82 30 47 31 48 32 62 34
REMARK SMILES IDX 83 35 50 36 34 37 35 38 43 39 36 40 38 41 44 42 37 43 39 44
REMARK SMILES IDX 40 45 41 46 42 47 66 48 67 49 75 50 68 51 70 52 76 53 69 54
REMARK SMILES IDX 71 55 72 56 73 57 74 58 51 59 52 60 60 61 53 62 55 63 61 64
REMARK SMILES IDX 54 65 56 66 57 67 58 68 59 69 5 70 6 71 7 72 8 73 9 74 20 75
REMARK SMILES IDX 24 76 21 77 23 78 22 79 10 80 11 81 12 83 13 84 14 85 18 86
REMARK SMILES IDX 15 87 17 88 19 89 16 90
REMARK H PARENT 81 22 49 33 10 82
REMARK Flexibility Score: inf
ROOT
ATOM      1  C   UNL     1       4.676  -1.214  -0.750  1.00  0.00     0.275 C 
ENDROOT
BRANCH   1   2
ATOM      2  O   UNL     1       3.819  -1.252   0.402  1.00  0.00    -0.458 OA
BRANCH   2   3
ATOM      3  C   UNL     1       3.830  -0.440   1.486  1.00  0.00     0.338 C 
ATOM      4  O   UNL     1       3.213  -0.774   2.494  1.00  0.00    -0.246 OA
BRANCH   3   5
ATOM      5  C   UNL     1       4.432   0.922   1.445  1.00  0.00     0.060 A 
ATOM      6  C   UNL     1       5.643   1.251   0.825  1.00  0.00     0.016 A 
ATOM      7  C   UNL     1       3.718   1.935   2.103  1.00  0.00     0.016 A 
ATOM      8  C   UNL     1       6.085   2.576   0.771  1.00  0.00     0.010 A 
ATOM      9  C   UNL     1       4.154   3.261   2.051  1.00  0.00     0.010 A 
ATOM     10  C   UNL     1       5.344   3.588   1.383  1.00  0.00    -0.014 A 
BRANCH  10  11
ATOM     11  C   UNL     1       5.919   4.943   1.530  1.00  0.00     0.031 A 
ATOM     12  C   UNL     1       6.403   5.329   2.898  1.00  0.00     0.074 A 
ATOM     13  C   UNL     1       5.984   5.803   0.495  1.00  0.00     0.049 A 
ATOM     14  N   UNL     1       6.926   6.450   3.308  1.00  0.00    -0.248 NA
ATOM     15  C   UNL     1       6.255   4.310   3.955  1.00  0.00     0.031 C 
ATOM     16  C   UNL     1       5.526   5.532  -0.868  1.00  0.00     0.029 A 
ATOM     17  N   UNL     1       6.433   7.097   0.439  1.00  0.00    -0.354 N 
ATOM     18  C   UNL     1       7.152   6.273   4.667  1.00  0.00     0.074 A 
ATOM     19  C   UNL     1       6.620   4.982   5.031  1.00  0.00     0.031 C 
ATOM     20  C   UNL     1       5.660   6.647  -1.610  1.00  0.00     0.029 A 
ATOM     21  C   UNL     1       6.242   7.700  -0.784  1.00  0.00     0.049 A 
ATOM     22  H   UNL     1       6.853   7.554   1.203  1.00  0.00     0.167 HD
ATOM     23  C   UNL     1       7.817   7.079   5.526  1.00  0.00     0.034 A 
ATOM     24  C   UNL     1       6.524   8.956  -1.183  1.00  0.00     0.034 A 
ATOM     25  C   UNL     1       8.385   8.332   5.130  1.00  0.00     0.049 A 
ATOM     26  C   UNL     1       7.255   9.854  -0.214  1.00  0.00     0.074 A 
ATOM     27  C   UNL     1       9.150   9.211   5.868  1.00  0.00     0.029 A 
ATOM     28  N   UNL     1       8.242   8.880   3.862  1.00  0.00    -0.354 N 
ATOM     29  N   UNL     1       7.607   9.610   1.028  1.00  0.00    -0.248 NA
ATOM     30  C   UNL     1       7.695  11.162  -0.716  1.00  0.00     0.031 C 
ATOM     31  C   UNL     1       9.466  10.298   5.044  1.00  0.00     0.029 A 
ATOM     32  C   UNL     1       8.910  10.085   3.789  1.00  0.00     0.049 A 
ATOM     33  H   UNL     1       7.737   8.469   3.123  1.00  0.00     0.167 HD
ATOM     34  C   UNL     1       8.371  10.699   1.432  1.00  0.00     0.074 A 
ATOM     35  C   UNL     1       8.416  11.611   0.304  1.00  0.00     0.031 C 
ATOM     36  C   UNL     1       8.986  10.925   2.619  1.00  0.00     0.034 A 
BRANCH  23  37
ATOM     37  C   UNL     1       7.996   6.558   6.927  1.00  0.00     0.023 A 
ATOM     38  C   UNL     1       8.826   5.434   7.143  1.00  0.00     0.012 A 
ATOM     39  C   UNL     1       7.277   7.100   8.006  1.00  0.00     0.148 A 
ATOM     40  C   UNL     1       8.870   4.808   8.388  1.00  0.00     0.002 A 
ATOM     41  C   UNL     1       7.365   6.499   9.258  1.00  0.00     0.091 A 
ATOM     42  F   UNL     1       6.479   8.153   7.781  1.00  0.00    -0.205 F 
ATOM     43  C   UNL     1       8.140   5.342   9.445  1.00  0.00     0.022 A 
BRANCH  41  44
ATOM     44  S   UNL     1       6.510   7.139  10.701  1.00  0.00     0.127 S 
ATOM     45  O   UNL     1       5.463   6.137  10.894  1.00  0.00    -0.237 OA
ATOM     46  O   UNL     1       7.566   7.120  11.715  1.00  0.00    -0.237 OA
ATOM     47  O   UNL     1       6.047   8.470  10.334  1.00  0.00    -0.744 OA
ENDBRANCH  41  44
ENDBRANCH  23  37
BRANCH  24  48
ATOM     48  C   UNL     1       6.238   9.392  -2.582  1.00  0.00     0.023 A 
ATOM     49  C   UNL     1       7.303   9.536  -3.492  1.00  0.00     0.012 A 
ATOM     50  C   UNL     1       4.923   9.642  -3.025  1.00  0.00     0.148 A 
ATOM     51  C   UNL     1       7.072   9.950  -4.806  1.00  0.00     0.002 A 
ATOM     52  C   UNL     1       4.695  10.021  -4.346  1.00  0.00     0.091 A 
ATOM     53  F   UNL     1       3.921   9.498  -2.147  1.00  0.00    -0.205 F 
ATOM     54  C   UNL     1       5.769  10.188  -5.234  1.00  0.00     0.022 A 
BRANCH  52  55
ATOM     55  S   UNL     1       3.045  10.263  -5.019  1.00  0.00     0.127 S 
ATOM     56  O   UNL     1       3.046  11.701  -5.297  1.00  0.00    -0.237 OA
ATOM     57  O   UNL     1       3.081   9.410  -6.210  1.00  0.00    -0.237 OA
ATOM     58  O   UNL     1       2.127   9.822  -3.986  1.00  0.00    -0.744 OA
ENDBRANCH  52  55
ENDBRANCH  24  48
BRANCH  36  59
ATOM     59  C   UNL     1       9.823  12.167   2.745  1.00  0.00     0.023 A 
ATOM     60  C   UNL     1       9.203  13.419   2.912  1.00  0.00     0.012 A 
ATOM     61  C   UNL     1      11.225  12.064   2.827  1.00  0.00     0.148 A 
ATOM     62  C   UNL     1       9.972  14.558   3.145  1.00  0.00     0.002 A 
ATOM     63  C   UNL     1      11.980  13.193   3.112  1.00  0.00     0.091 A 
ATOM     64  F   UNL     1      11.791  10.863   2.639  1.00  0.00    -0.205 F 
ATOM     65  C   UNL     1      11.357  14.442   3.262  1.00  0.00     0.022 A 
BRANCH  63  66
ATOM     66  S   UNL     1      13.751  13.107   3.399  1.00  0.00     0.127 S 
ATOM     67  O   UNL     1      14.281  13.673   2.161  1.00  0.00    -0.237 OA
ATOM     68  O   UNL     1      13.916  13.956   4.580  1.00  0.00    -0.237 OA
ATOM     69  O   UNL     1      14.050  11.699   3.626  1.00  0.00    -0.744 OA
ENDBRANCH  63  66
ENDBRANCH  36  59
ENDBRANCH  10  11
ENDBRANCH   3   5
ENDBRANCH   2   3
ENDBRANCH   1   2
BRANCH   1  70
ATOM     70  C   UNL     1       4.282  -0.228  -1.853  1.00  0.00     0.274 C 
BRANCH  70  71
ATOM     71  O   UNL     1       3.388   0.805  -1.415  1.00  0.00    -0.460 OA
BRANCH  71  72
ATOM     72  C   UNL     1       2.842   1.548  -2.428  1.00  0.00     0.331 C 
ATOM     73  O   UNL     1       3.077   1.337  -3.615  1.00  0.00    -0.249 OA
BRANCH  72  74
ATOM     74  C   UNL     1       1.813   2.607  -1.916  1.00  0.00     0.138 C 
ATOM     75  C   UNL     1       1.932   2.844  -0.407  1.00  0.00     0.040 C 
ATOM     76  C   UNL     1       2.217   3.915  -2.659  1.00  0.00     0.040 C 
ATOM     77  C   UNL     1       1.223   4.096   0.105  1.00  0.00     0.003 C 
ATOM     78  C   UNL     1       1.603   5.204  -2.109  1.00  0.00     0.003 C 
ATOM     79  C   UNL     1       1.752   5.334  -0.600  1.00  0.00     0.000 C 
BRANCH  74  80
ATOM     80  N   UNL     1       0.406   2.267  -2.252  1.00  0.00    -0.336 N 
ATOM     81  C   UNL     1      -0.297   1.133  -1.914  1.00  0.00     0.253 C 
ATOM     82  H   UNL     1      -0.085   2.936  -2.782  1.00  0.00     0.165 HD
ATOM     83  O   UNL     1      -1.501   1.183  -1.679  1.00  0.00    -0.269 OA
BRANCH  81  84
ATOM     84  C   UNL     1       0.352  -0.182  -2.009  1.00  0.00     0.061 A 
ATOM     85  C   UNL     1       0.756  -0.597  -3.283  1.00  0.00     0.035 A 
ATOM     86  C   UNL     1       0.493  -1.036  -0.920  1.00  0.00     0.072 A 
ATOM     87  C   UNL     1       1.356  -1.835  -3.410  1.00  0.00     0.112 A 
ATOM     88  C   UNL     1       1.108  -2.258  -1.155  1.00  0.00     0.132 A 
ATOM     89  Cl  UNL     1      -0.020  -0.641   0.671  1.00  0.00    -0.082 Cl
ATOM     90  N   UNL     1       1.556  -2.673  -2.371  1.00  0.00    -0.263 NA
ENDBRANCH  81  84
ENDBRANCH  74  80
ENDBRANCH  72  74
ENDBRANCH  71  72
ENDBRANCH  70  71
ENDBRANCH   1  70
TORSDOF 16
