REMARK SMILES Cc1cc(Br)c(C)c([C@@H]2[NH2+][C@H](C(=O)OCCOC(=O)c3ccc(-c4c5nc(c(-c6cccc(S(=O)(=O)[O-])c6F)c6ccc([nH]6)c(-c6cccc(S(=O)(=O)[O-])c6F)c6nc(c(-c7cccc(S(=O)(=O)[O-])c7F)c7ccc4[nH]7)C=C6)C=C5)cc3)CS2)c1O
REMARK SMILES IDX 16 1 15 2 14 3 12 4 13 5 11 6 9 7 10 8 84 9 83 12 8 13 1 14
REMARK SMILES IDX 2 15 3 16 85 17 4 18 5 19 6 20 7 21 86 22 17 24 18 25 19 26
REMARK SMILES IDX 20 27 21 28 82 29 22 30 81 31 23 32 24 33 25 34 75 35 26 36
REMARK SMILES IDX 80 37 74 38 76 39 27 40 79 41 73 42 72 43 28 45 60 46 40 47
REMARK SMILES IDX 59 48 41 49 44 50 58 51 77 52 42 53 43 54 57 56 78 57 45 58
REMARK SMILES IDX 29 59 30 60 38 61 31 62 33 63 39 64 32 65 34 66 35 67 36 68
REMARK SMILES IDX 37 69 61 70 62 71 70 72 63 73 65 74 71 75 64 76 66 77 67 78
REMARK SMILES IDX 68 79 69 80 46 81 47 82 55 83 48 84 50 85 56 86 49 87 51 88
REMARK SMILES IDX 52 89 53 90 54 91
REMARK H PARENT 10 10 10 11 86 23 76 44 44 55
REMARK Flexibility Score: inf
ROOT
ATOM      1  C   UNL     1       3.838   2.168  -2.510  1.00  0.00     0.275 C 
ENDROOT
BRANCH   1   2
ATOM      2  C   UNL     1       2.492   2.280  -1.797  1.00  0.00     0.274 C 
BRANCH   2   3
ATOM      3  O   UNL     1       1.424   2.073  -2.740  1.00  0.00    -0.458 OA
BRANCH   3   4
ATOM      4  C   UNL     1       0.489   3.049  -2.879  1.00  0.00     0.365 C 
ATOM      5  O   UNL     1       0.473   4.073  -2.202  1.00  0.00    -0.245 OA
BRANCH   4   6
ATOM      6  C   UNL     1      -0.553   2.767  -3.974  1.00  0.00     0.304 C 
ATOM      7  C   UNL     1      -1.343   0.497  -4.194  1.00  0.00     0.278 C 
ATOM      8  N   UNL     1      -0.372   1.476  -4.685  1.00  0.00    -0.319 N 
ATOM      9  S   UNL     1      -2.821   1.358  -3.645  1.00  0.00    -0.087 SA
ATOM     10  H   UNL     1      -0.511   1.618  -5.685  1.00  0.00     0.348 HD
ATOM     11  H   UNL     1       0.572   1.128  -4.514  1.00  0.00     0.348 HD
ATOM     12  C   UNL     1      -1.974   2.941  -3.438  1.00  0.00     0.153 C 
BRANCH   7  13
ATOM     13  C   UNL     1      -0.706  -0.532  -3.259  1.00  0.00     0.066 A 
ATOM     14  C   UNL     1       0.572  -0.814   0.385  1.00  0.00     0.048 C 
ATOM     15  C   UNL     1       0.252  -1.114  -1.052  1.00  0.00    -0.008 A 
ATOM     16  C   UNL     1       0.653  -2.348  -1.565  1.00  0.00     0.023 A 
ATOM     17  C   UNL     1      -0.451  -0.241  -1.895  1.00  0.00     0.128 A 
ATOM     18  C   UNL     1       0.397  -2.688  -2.894  1.00  0.00     0.021 A 
ATOM     19  Br  UNL     1       0.945  -4.437  -3.424  1.00  0.00    -0.051 Br
ATOM     20  C   UNL     1      -0.236  -1.783  -3.773  1.00  0.00    -0.023 A 
ATOM     21  C   UNL     1      -0.438  -2.187  -5.218  1.00  0.00     0.046 C 
BRANCH  17  22
ATOM     22  O   UNL     1      -0.897   0.942  -1.371  1.00  0.00    -0.507 OA
ATOM     23  H   UNL     1      -0.736   1.146  -0.471  1.00  0.00     0.293 HD
ENDBRANCH  17  22
ENDBRANCH   7  13
ENDBRANCH   4   6
ENDBRANCH   3   4
ENDBRANCH   2   3
ENDBRANCH   1   2
BRANCH   1  24
ATOM     24  O   UNL     1       4.071   3.348  -3.295  1.00  0.00    -0.458 OA
BRANCH  24  25
ATOM     25  C   UNL     1       3.565   3.311  -4.554  1.00  0.00     0.338 C 
ATOM     26  O   UNL     1       3.093   2.359  -5.137  1.00  0.00    -0.246 OA
BRANCH  25  27
ATOM     27  C   UNL     1       3.502   4.697  -5.050  1.00  0.00     0.060 A 
ATOM     28  C   UNL     1       4.622   5.529  -5.017  1.00  0.00     0.016 A 
ATOM     29  C   UNL     1       2.280   5.159  -5.545  1.00  0.00     0.016 A 
ATOM     30  C   UNL     1       4.507   6.842  -5.472  1.00  0.00     0.010 A 
ATOM     31  C   UNL     1       2.163   6.472  -5.989  1.00  0.00     0.010 A 
ATOM     32  C   UNL     1       3.276   7.321  -5.954  1.00  0.00    -0.014 A 
BRANCH  32  33
ATOM     33  C   UNL     1       3.174   8.685  -6.513  1.00  0.00     0.031 A 
ATOM     34  C   UNL     1       2.528   9.791  -5.735  1.00  0.00     0.074 A 
ATOM     35  C   UNL     1       3.630   8.895  -7.762  1.00  0.00     0.049 A 
ATOM     36  N   UNL     1       2.429  11.057  -6.045  1.00  0.00    -0.248 NA
ATOM     37  C   UNL     1       1.902   9.433  -4.452  1.00  0.00     0.031 C 
ATOM     38  C   UNL     1       4.190   7.859  -8.633  1.00  0.00     0.029 A 
ATOM     39  N   UNL     1       3.681  10.034  -8.520  1.00  0.00    -0.354 N 
ATOM     40  C   UNL     1       1.731  11.650  -5.001  1.00  0.00     0.074 A 
ATOM     41  C   UNL     1       1.402  10.600  -4.061  1.00  0.00     0.031 C 
ATOM     42  C   UNL     1       4.534   8.413  -9.806  1.00  0.00     0.029 A 
ATOM     43  C   UNL     1       4.218   9.838  -9.770  1.00  0.00     0.049 A 
ATOM     44  H   UNL     1       3.364  10.910  -8.200  1.00  0.00     0.167 HD
ATOM     45  C   UNL     1       1.426  12.959  -4.833  1.00  0.00     0.034 A 
ATOM     46  C   UNL     1       4.447  10.714 -10.766  1.00  0.00     0.034 A 
ATOM     47  C   UNL     1       1.782  13.990  -5.772  1.00  0.00     0.049 A 
ATOM     48  C   UNL     1       4.141  12.167 -10.532  1.00  0.00     0.074 A 
ATOM     49  C   UNL     1       1.595  15.357  -5.659  1.00  0.00     0.029 A 
ATOM     50  N   UNL     1       2.390  13.770  -6.999  1.00  0.00    -0.354 N 
ATOM     51  N   UNL     1       3.653  12.742  -9.459  1.00  0.00    -0.248 NA
ATOM     52  C   UNL     1       4.453  13.099 -11.624  1.00  0.00     0.031 C 
ATOM     53  C   UNL     1       2.076  15.960  -6.825  1.00  0.00     0.029 A 
ATOM     54  C   UNL     1       2.577  14.972  -7.658  1.00  0.00     0.049 A 
ATOM     55  H   UNL     1       2.650  12.887  -7.349  1.00  0.00     0.167 HD
ATOM     56  C   UNL     1       3.622  14.103  -9.735  1.00  0.00     0.074 A 
ATOM     57  C   UNL     1       4.167  14.270 -11.068  1.00  0.00     0.031 C 
ATOM     58  C   UNL     1       3.164  15.121  -8.966  1.00  0.00     0.034 A 
BRANCH  45  59
ATOM     59  C   UNL     1       0.747  13.376  -3.555  1.00  0.00     0.023 A 
ATOM     60  C   UNL     1       1.502  13.415  -2.365  1.00  0.00     0.012 A 
ATOM     61  C   UNL     1      -0.583  13.841  -3.545  1.00  0.00     0.148 A 
ATOM     62  C   UNL     1       0.943  13.897  -1.182  1.00  0.00     0.002 A 
ATOM     63  C   UNL     1      -1.122  14.355  -2.370  1.00  0.00     0.091 A 
ATOM     64  F   UNL     1      -1.288  13.784  -4.684  1.00  0.00    -0.205 F 
ATOM     65  C   UNL     1      -0.363  14.377  -1.188  1.00  0.00     0.022 A 
BRANCH  63  66
ATOM     66  S   UNL     1      -2.769  15.069  -2.282  1.00  0.00     0.127 S 
ATOM     67  O   UNL     1      -3.455  14.121  -1.405  1.00  0.00    -0.237 OA
ATOM     68  O   UNL     1      -2.504  16.375  -1.677  1.00  0.00    -0.237 OA
ATOM     69  O   UNL     1      -3.263  15.118  -3.651  1.00  0.00    -0.744 OA
ENDBRANCH  63  66
ENDBRANCH  45  59
BRANCH  46  70
ATOM     70  C   UNL     1       5.100  10.245 -12.020  1.00  0.00     0.023 A 
ATOM     71  C   UNL     1       6.435  10.609 -12.277  1.00  0.00     0.012 A 
ATOM     72  C   UNL     1       4.438   9.384 -12.918  1.00  0.00     0.148 A 
ATOM     73  C   UNL     1       7.095  10.141 -13.414  1.00  0.00     0.002 A 
ATOM     74  C   UNL     1       5.118   8.878 -14.020  1.00  0.00     0.091 A 
ATOM     75  F   UNL     1       3.162   9.060 -12.665  1.00  0.00    -0.205 F 
ATOM     76  C   UNL     1       6.442   9.266 -14.277  1.00  0.00     0.022 A 
BRANCH  74  77
ATOM     77  S   UNL     1       4.397   7.633 -15.097  1.00  0.00     0.127 S 
ATOM     78  O   UNL     1       4.030   8.425 -16.267  1.00  0.00    -0.237 OA
ATOM     79  O   UNL     1       5.519   6.715 -15.301  1.00  0.00    -0.237 OA
ATOM     80  O   UNL     1       3.292   7.061 -14.340  1.00  0.00    -0.744 OA
ENDBRANCH  74  77
ENDBRANCH  46  70
BRANCH  58  81
ATOM     81  C   UNL     1       3.221  16.512  -9.539  1.00  0.00     0.023 A 
ATOM     82  C   UNL     1       2.299  16.883 -10.537  1.00  0.00     0.012 A 
ATOM     83  C   UNL     1       4.106  17.476  -9.018  1.00  0.00     0.148 A 
ATOM     84  C   UNL     1       2.270  18.189 -11.024  1.00  0.00     0.002 A 
ATOM     85  C   UNL     1       4.040  18.787  -9.475  1.00  0.00     0.091 A 
ATOM     86  F   UNL     1       4.988  17.097  -8.082  1.00  0.00    -0.205 F 
ATOM     87  C   UNL     1       3.129  19.143 -10.483  1.00  0.00     0.022 A 
BRANCH  85  88
ATOM     88  S   UNL     1       5.038  20.103  -8.767  1.00  0.00     0.127 S 
ATOM     89  O   UNL     1       6.032  20.320  -9.817  1.00  0.00    -0.237 OA
ATOM     90  O   UNL     1       4.065  21.186  -8.615  1.00  0.00    -0.237 OA
ATOM     91  O   UNL     1       5.558  19.578  -7.511  1.00  0.00    -0.744 OA
ENDBRANCH  85  88
ENDBRANCH  58  81
ENDBRANCH  32  33
ENDBRANCH  25  27
ENDBRANCH  24  25
ENDBRANCH   1  24
TORSDOF 16
