REMARK SMILES C[C@H]1CCCC[C@H]1[N@H+]1[C@@H](C(=O)OCCOC(=O)c2ccc(-c3c4nc(c(-c5cccc(S(=O)(=O)[O-])c5F)c5ccc([nH]5)c(-c5cccc(S(=O)(=O)[O-])c5F)c5nc(c(-c6cccc(S(=O)(=O)[O-])c6F)c6ccc3[nH]6)C=C5)C=C4)cc2)CC[C@H]2CCCC[C@H]21
REMARK SMILES IDX 14 1 13 2 12 3 10 4 11 5 9 6 8 7 88 8 81 10 83 11 87 12
REMARK SMILES IDX 82 13 84 14 86 15 85 16 7 17 1 18 2 19 3 20 4 21 6 22 5 23
REMARK SMILES IDX 15 24 16 25 17 26 18 27 19 28 80 29 20 30 79 31 21 32 22 33
REMARK SMILES IDX 23 34 73 35 24 36 78 37 72 38 74 39 25 40 77 41 71 42 70 43
REMARK SMILES IDX 26 45 58 46 38 47 57 48 39 49 42 50 56 51 75 52 40 53 41 54
REMARK SMILES IDX 55 56 76 57 43 58 27 59 28 60 36 61 29 62 31 63 37 64 30 65
REMARK SMILES IDX 32 66 33 67 34 68 35 69 59 70 60 71 68 72 61 73 63 74 69 75
REMARK SMILES IDX 62 76 64 77 65 78 66 79 67 80 44 81 45 82 53 83 46 84 48 85
REMARK SMILES IDX 54 86 47 87 49 88 50 89 51 90 52 91
REMARK H PARENT 8 9 74 44 42 55
REMARK Flexibility Score: inf
ROOT
ATOM      1  C   UNL     1      -4.303  -0.053  -0.799  1.00  0.00     0.275 C 
ENDROOT
BRANCH   1   2
ATOM      2  C   UNL     1      -3.642  -0.421  -2.157  1.00  0.00     0.274 C 
BRANCH   2   3
ATOM      3  O   UNL     1      -2.210  -0.743  -2.149  1.00  0.00    -0.458 OA
BRANCH   3   4
ATOM      4  C   UNL     1      -1.333   0.279  -2.369  1.00  0.00     0.365 C 
ATOM      5  O   UNL     1      -1.723   1.439  -2.509  1.00  0.00    -0.245 OA
BRANCH   4   6
ATOM      6  C   UNL     1       0.157  -0.093  -2.643  1.00  0.00     0.295 C 
ATOM      7  N   UNL     1       0.820  -1.360  -2.177  1.00  0.00    -0.318 N 
ATOM      8  C   UNL     1       2.250  -1.277  -2.995  1.00  0.00     0.188 C 
ATOM      9  H   UNL     1       0.374  -2.255  -2.378  1.00  0.00     0.349 HD
ATOM     10  C   UNL     1       1.140   1.055  -2.335  1.00  0.00     0.078 C 
ATOM     11  C   UNL     1       3.193  -0.841  -1.932  1.00  0.00     0.048 C 
ATOM     12  C   UNL     1       3.166  -2.190  -3.916  1.00  0.00     0.065 C 
ATOM     13  C   UNL     1       2.593   0.651  -1.808  1.00  0.00     0.016 C 
ATOM     14  C   UNL     1       3.268  -2.309  -1.230  1.00  0.00     0.010 C 
ATOM     15  C   UNL     1       4.309  -3.063  -3.329  1.00  0.00     0.006 C 
ATOM     16  C   UNL     1       4.265  -3.272  -1.837  1.00  0.00     0.001 C 
BRANCH   7  17
ATOM     17  C   UNL     1       0.821  -1.421  -0.548  1.00  0.00     0.187 C 
ATOM     18  C   UNL     1       2.950  -0.309   1.080  1.00  0.00     0.014 C 
ATOM     19  C   UNL     1       1.463  -0.530   0.691  1.00  0.00     0.044 C 
ATOM     20  C   UNL     1       0.713   0.752   0.971  1.00  0.00     0.009 C 
ATOM     21  C   UNL     1      -0.768   0.527   1.000  1.00  0.00     0.001 C 
ATOM     22  C   UNL     1      -0.552  -1.876   0.007  1.00  0.00     0.065 C 
ATOM     23  C   UNL     1      -1.347  -0.849   0.777  1.00  0.00     0.006 C 
ENDBRANCH   7  17
ENDBRANCH   4   6
ENDBRANCH   3   4
ENDBRANCH   2   3
ENDBRANCH   1   2
BRANCH   1  24
ATOM     24  O   UNL     1      -3.802   1.203  -0.293  1.00  0.00    -0.458 OA
BRANCH  24  25
ATOM     25  C   UNL     1      -4.004   1.503   1.019  1.00  0.00     0.338 C 
ATOM     26  O   UNL     1      -4.713   0.848   1.794  1.00  0.00    -0.246 OA
BRANCH  25  27
ATOM     27  C   UNL     1      -3.089   2.610   1.456  1.00  0.00     0.060 A 
ATOM     28  C   UNL     1      -2.293   3.261   0.512  1.00  0.00     0.016 A 
ATOM     29  C   UNL     1      -2.801   2.817   2.817  1.00  0.00     0.016 A 
ATOM     30  C   UNL     1      -1.126   3.921   0.915  1.00  0.00     0.010 A 
ATOM     31  C   UNL     1      -1.703   3.618   3.213  1.00  0.00     0.010 A 
ATOM     32  C   UNL     1      -0.820   4.166   2.266  1.00  0.00    -0.014 A 
BRANCH  32  33
ATOM     33  C   UNL     1       0.361   5.026   2.654  1.00  0.00     0.031 A 
ATOM     34  C   UNL     1       1.328   4.652   3.767  1.00  0.00     0.074 A 
ATOM     35  C   UNL     1       0.572   6.204   2.021  1.00  0.00     0.049 A 
ATOM     36  N   UNL     1       2.208   5.402   4.392  1.00  0.00    -0.248 NA
ATOM     37  C   UNL     1       1.314   3.258   4.233  1.00  0.00     0.031 C 
ATOM     38  C   UNL     1      -0.207   6.719   0.893  1.00  0.00     0.029 A 
ATOM     39  N   UNL     1       1.497   7.201   2.250  1.00  0.00    -0.354 N 
ATOM     40  C   UNL     1       2.787   4.601   5.376  1.00  0.00     0.074 A 
ATOM     41  C   UNL     1       2.190   3.288   5.231  1.00  0.00     0.031 C 
ATOM     42  C   UNL     1       0.289   7.896   0.501  1.00  0.00     0.029 A 
ATOM     43  C   UNL     1       1.307   8.308   1.451  1.00  0.00     0.049 A 
ATOM     44  H   UNL     1       2.218   7.130   2.915  1.00  0.00     0.167 HD
ATOM     45  C   UNL     1       3.711   4.927   6.320  1.00  0.00     0.034 A 
ATOM     46  C   UNL     1       1.800   9.560   1.509  1.00  0.00     0.034 A 
ATOM     47  C   UNL     1       4.347   6.221   6.431  1.00  0.00     0.049 A 
ATOM     48  C   UNL     1       2.755   9.927   2.599  1.00  0.00     0.074 A 
ATOM     49  C   UNL     1       5.302   6.638   7.346  1.00  0.00     0.029 A 
ATOM     50  N   UNL     1       4.100   7.306   5.603  1.00  0.00    -0.354 N 
ATOM     51  N   UNL     1       3.256   9.171   3.542  1.00  0.00    -0.248 NA
ATOM     52  C   UNL     1       3.214  11.322   2.628  1.00  0.00     0.031 C 
ATOM     53  C   UNL     1       5.607   7.981   7.090  1.00  0.00     0.029 A 
ATOM     54  C   UNL     1       4.875   8.390   5.989  1.00  0.00     0.049 A 
ATOM     55  H   UNL     1       3.466   7.306   4.850  1.00  0.00     0.167 HD
ATOM     56  C   UNL     1       4.120   9.988   4.259  1.00  0.00     0.074 A 
ATOM     57  C   UNL     1       4.080  11.294   3.632  1.00  0.00     0.031 C 
ATOM     58  C   UNL     1       4.872   9.678   5.343  1.00  0.00     0.034 A 
BRANCH  45  59
ATOM     59  C   UNL     1       4.089   3.877   7.345  1.00  0.00     0.023 A 
ATOM     60  C   UNL     1       4.888   2.775   6.980  1.00  0.00     0.012 A 
ATOM     61  C   UNL     1       3.707   4.023   8.697  1.00  0.00     0.148 A 
ATOM     62  C   UNL     1       5.258   1.816   7.927  1.00  0.00     0.002 A 
ATOM     63  C   UNL     1       4.117   3.087   9.644  1.00  0.00     0.091 A 
ATOM     64  F   UNL     1       2.941   5.070   9.037  1.00  0.00    -0.205 F 
ATOM     65  C   UNL     1       4.880   1.976   9.258  1.00  0.00     0.022 A 
BRANCH  63  66
ATOM     66  S   UNL     1       3.749   3.264  11.396  1.00  0.00     0.127 S 
ATOM     67  O   UNL     1       2.646   2.319  11.563  1.00  0.00    -0.237 OA
ATOM     68  O   UNL     1       5.005   2.849  12.024  1.00  0.00    -0.237 OA
ATOM     69  O   UNL     1       3.415   4.668  11.591  1.00  0.00    -0.744 OA
ENDBRANCH  63  66
ENDBRANCH  45  59
BRANCH  46  70
ATOM     70  C   UNL     1       1.358  10.560   0.495  1.00  0.00     0.023 A 
ATOM     71  C   UNL     1       2.266  10.984  -0.492  1.00  0.00     0.012 A 
ATOM     72  C   UNL     1       0.021  11.007   0.442  1.00  0.00     0.148 A 
ATOM     73  C   UNL     1       1.850  11.835  -1.516  1.00  0.00     0.002 A 
ATOM     74  C   UNL     1      -0.402  11.795  -0.620  1.00  0.00     0.091 A 
ATOM     75  F   UNL     1      -0.822  10.602   1.403  1.00  0.00    -0.205 F 
ATOM     76  C   UNL     1       0.515  12.223  -1.591  1.00  0.00     0.022 A 
BRANCH  74  77
ATOM     77  S   UNL     1      -2.132  12.197  -0.893  1.00  0.00     0.127 S 
ATOM     78  O   UNL     1      -2.142  13.640  -0.667  1.00  0.00    -0.237 OA
ATOM     79  O   UNL     1      -2.318  11.790  -2.287  1.00  0.00    -0.237 OA
ATOM     80  O   UNL     1      -2.881  11.402   0.070  1.00  0.00    -0.744 OA
ENDBRANCH  74  77
ENDBRANCH  46  70
BRANCH  58  81
ATOM     81  C   UNL     1       5.773  10.757   5.884  1.00  0.00     0.023 A 
ATOM     82  C   UNL     1       5.228  11.859   6.573  1.00  0.00     0.012 A 
ATOM     83  C   UNL     1       7.170  10.667   5.722  1.00  0.00     0.148 A 
ATOM     84  C   UNL     1       6.055  12.875   7.054  1.00  0.00     0.002 A 
ATOM     85  C   UNL     1       7.991  11.658   6.247  1.00  0.00     0.091 A 
ATOM     86  F   UNL     1       7.669   9.626   5.040  1.00  0.00    -0.205 F 
ATOM     87  C   UNL     1       7.435  12.769   6.900  1.00  0.00     0.022 A 
BRANCH  85  88
ATOM     88  S   UNL     1       9.783  11.558   6.170  1.00  0.00     0.127 S 
ATOM     89  O   UNL     1      10.094  12.552   5.144  1.00  0.00    -0.237 OA
ATOM     90  O   UNL     1      10.174  11.940   7.527  1.00  0.00    -0.237 OA
ATOM     91  O   UNL     1      10.092  10.179   5.820  1.00  0.00    -0.744 OA
ENDBRANCH  85  88
ENDBRANCH  58  81
ENDBRANCH  32  33
ENDBRANCH  25  27
ENDBRANCH  24  25
ENDBRANCH   1  24
TORSDOF 15
