REMARK SMILES N#C[C@@H]1CN(C(=O)NCCCC(=O)OCCOC(=O)c2ccc(-c3c4nc(c(-c5cccc(S(=O)(=O)[O-])c5F)c5ccc([nH]5)c(-c5cccc(S(=O)(=O)[O-])c5F)c5nc(c(-c6cccc(S(=O)(=O)[O-])c6F)c6ccc3[nH]6)C=C5)C=C4)cc2)CCO1
REMARK SMILES IDX 15 1 14 2 12 3 13 4 11 5 10 6 9 7 8 8 6 9 7 10 5 12 3 13
REMARK SMILES IDX 4 14 85 15 84 16 83 17 2 18 1 19 16 20 17 21 18 22 19 23
REMARK SMILES IDX 20 24 21 25 82 26 22 27 81 28 23 29 24 30 25 31 75 32 26 33
REMARK SMILES IDX 80 34 74 35 76 36 27 37 79 38 73 39 72 40 28 42 60 43 40 44
REMARK SMILES IDX 59 45 41 46 44 47 58 48 77 49 42 50 43 51 57 53 78 54 45 55
REMARK SMILES IDX 29 56 30 57 38 58 31 59 33 60 39 61 32 62 34 63 35 64 36 65
REMARK SMILES IDX 37 66 61 67 62 68 70 69 63 70 65 71 71 72 64 73 66 74 67 75
REMARK SMILES IDX 68 76 69 77 46 78 47 79 55 80 48 81 50 82 56 83 49 84 51 85
REMARK SMILES IDX 52 86 53 87 54 88
REMARK H PARENT 8 11 76 41 44 52
REMARK Flexibility Score: inf
ROOT
ATOM      1  C   UNL     1      -0.675   5.920  -0.810  1.00  0.00     0.274 C 
ENDROOT
BRANCH   1   2
ATOM      2  O   UNL     1       0.381   5.344  -1.599  1.00  0.00    -0.462 OA
BRANCH   2   3
ATOM      3  C   UNL     1       1.073   6.155  -2.435  1.00  0.00     0.305 C 
ATOM      4  O   UNL     1       0.817   7.332  -2.642  1.00  0.00    -0.252 OA
BRANCH   3   5
ATOM      5  C   UNL     1       2.192   5.408  -3.132  1.00  0.00     0.124 C 
BRANCH   5   6
ATOM      6  C   UNL     1       3.058   4.559  -2.197  1.00  0.00     0.033 C 
BRANCH   6   7
ATOM      7  C   UNL     1       2.394   3.248  -1.780  1.00  0.00     0.118 C 
BRANCH   7   8
ATOM      8  N   UNL     1       2.467   2.275  -2.854  1.00  0.00    -0.338 N 
ATOM      9  C   UNL     1       3.130   1.150  -3.152  1.00  0.00     0.317 C 
ATOM     10  O   UNL     1       2.845   0.650  -4.244  1.00  0.00    -0.249 OA
ATOM     11  H   UNL     1       1.845   2.511  -3.579  1.00  0.00     0.165 HD
BRANCH   9  12
ATOM     12  N   UNL     1       4.021   0.558  -2.314  1.00  0.00    -0.319 N 
ATOM     13  C   UNL     1       3.692   0.015   0.043  1.00  0.00     0.240 C 
ATOM     14  C   UNL     1       4.398   0.932  -0.957  1.00  0.00     0.169 C 
ATOM     15  O   UNL     1       4.168  -1.349  -0.216  1.00  0.00    -0.360 OA
ATOM     16  C   UNL     1       3.887  -1.777  -1.572  1.00  0.00     0.183 C 
ATOM     17  C   UNL     1       4.459  -0.808  -2.623  1.00  0.00     0.150 C 
BRANCH  13  18
ATOM     18  C   UNL     1       2.172   0.015   0.043  1.00  0.00     0.096 C 
ATOM     19  N   UNL     1       0.911   0.015   0.043  1.00  0.00    -0.195 NA
ENDBRANCH  13  18
ENDBRANCH   9  12
ENDBRANCH   7   8
ENDBRANCH   6   7
ENDBRANCH   5   6
ENDBRANCH   3   5
ENDBRANCH   2   3
ENDBRANCH   1   2
BRANCH   1  20
ATOM     20  C   UNL     1      -0.190   6.186   0.615  1.00  0.00     0.275 C 
BRANCH  20  21
ATOM     21  O   UNL     1       0.703   7.312   0.637  1.00  0.00    -0.458 OA
BRANCH  21  22
ATOM     22  C   UNL     1       2.022   7.025   0.683  1.00  0.00     0.338 C 
ATOM     23  O   UNL     1       2.535   5.920   0.809  1.00  0.00    -0.246 OA
BRANCH  22  24
ATOM     24  C   UNL     1       2.785   8.251   0.411  1.00  0.00     0.060 A 
ATOM     25  C   UNL     1       3.573   8.311  -0.743  1.00  0.00     0.016 A 
ATOM     26  C   UNL     1       2.744   9.327   1.300  1.00  0.00     0.016 A 
ATOM     27  C   UNL     1       4.326   9.451  -1.015  1.00  0.00     0.010 A 
ATOM     28  C   UNL     1       3.498  10.471   1.023  1.00  0.00     0.010 A 
ATOM     29  C   UNL     1       4.300  10.536  -0.130  1.00  0.00    -0.014 A 
BRANCH  29  30
ATOM     30  C   UNL     1       5.137  11.730  -0.393  1.00  0.00     0.031 A 
ATOM     31  C   UNL     1       6.371  11.970   0.428  1.00  0.00     0.074 A 
ATOM     32  C   UNL     1       4.777  12.604  -1.350  1.00  0.00     0.049 A 
ATOM     33  N   UNL     1       7.200  12.980   0.396  1.00  0.00    -0.248 NA
ATOM     34  C   UNL     1       6.716  10.938   1.419  1.00  0.00     0.031 C 
ATOM     35  C   UNL     1       3.600  12.475  -2.210  1.00  0.00     0.029 A 
ATOM     36  N   UNL     1       5.353  13.785  -1.744  1.00  0.00    -0.354 N 
ATOM     37  C   UNL     1       8.145  12.726   1.382  1.00  0.00     0.074 A 
ATOM     38  C   UNL     1       7.783  11.468   2.000  1.00  0.00     0.031 C 
ATOM     39  C   UNL     1       3.532  13.544  -3.020  1.00  0.00     0.029 A 
ATOM     40  C   UNL     1       4.639  14.447  -2.715  1.00  0.00     0.049 A 
ATOM     41  H   UNL     1       6.197  14.126  -1.368  1.00  0.00     0.167 HD
ATOM     42  C   UNL     1       9.224  13.466   1.730  1.00  0.00     0.034 A 
ATOM     43  C   UNL     1       4.844  15.653  -3.279  1.00  0.00     0.034 A 
ATOM     44  C   UNL     1       9.595  14.702   1.095  1.00  0.00     0.049 A 
ATOM     45  C   UNL     1       6.043  16.462  -2.863  1.00  0.00     0.074 A 
ATOM     46  C   UNL     1      10.695  15.503   1.347  1.00  0.00     0.029 A 
ATOM     47  N   UNL     1       8.874  15.320   0.085  1.00  0.00    -0.354 N 
ATOM     48  N   UNL     1       6.987  16.158  -2.006  1.00  0.00    -0.248 NA
ATOM     49  C   UNL     1       6.221  17.770  -3.512  1.00  0.00     0.031 C 
ATOM     50  C   UNL     1      10.630  16.614   0.499  1.00  0.00     0.029 A 
ATOM     51  C   UNL     1       9.498  16.497  -0.292  1.00  0.00     0.049 A 
ATOM     52  H   UNL     1       8.040  14.973  -0.307  1.00  0.00     0.167 HD
ATOM     53  C   UNL     1       7.885  17.219  -2.032  1.00  0.00     0.074 A 
ATOM     54  C   UNL     1       7.382  18.166  -3.007  1.00  0.00     0.031 C 
ATOM     55  C   UNL     1       9.013  17.403  -1.303  1.00  0.00     0.034 A 
BRANCH  42  56
ATOM     56  C   UNL     1      10.101  12.937   2.833  1.00  0.00     0.023 A 
ATOM     57  C   UNL     1      10.957  11.847   2.575  1.00  0.00     0.012 A 
ATOM     58  C   UNL     1      10.109  13.536   4.107  1.00  0.00     0.148 A 
ATOM     59  C   UNL     1      11.785  11.342   3.577  1.00  0.00     0.002 A 
ATOM     60  C   UNL     1      10.964  13.050   5.090  1.00  0.00     0.091 A 
ATOM     61  F   UNL     1       9.267  14.553   4.342  1.00  0.00    -0.205 F 
ATOM     62  C   UNL     1      11.796  11.949   4.830  1.00  0.00     0.022 A 
BRANCH  60  63
ATOM     63  S   UNL     1      11.093  13.811   6.713  1.00  0.00     0.127 S 
ATOM     64  O   UNL     1      10.339  12.870   7.540  1.00  0.00    -0.237 OA
ATOM     65  O   UNL     1      12.538  13.805   6.946  1.00  0.00    -0.237 OA
ATOM     66  O   UNL     1      10.510  15.138   6.576  1.00  0.00    -0.744 OA
ENDBRANCH  60  63
ENDBRANCH  42  56
BRANCH  43  67
ATOM     67  C   UNL     1       3.913  16.145  -4.333  1.00  0.00     0.023 A 
ATOM     68  C   UNL     1       4.359  16.220  -5.667  1.00  0.00     0.012 A 
ATOM     69  C   UNL     1       2.584  16.501  -4.032  1.00  0.00     0.148 A 
ATOM     70  C   UNL     1       3.505  16.660  -6.678  1.00  0.00     0.002 A 
ATOM     71  C   UNL     1       1.723  16.888  -5.052  1.00  0.00     0.091 A 
ATOM     72  F   UNL     1       2.185  16.443  -2.753  1.00  0.00    -0.205 F 
ATOM     73  C   UNL     1       2.185  16.982  -6.374  1.00  0.00     0.022 A 
BRANCH  71  74
ATOM     74  S   UNL     1      -0.024  17.200  -4.770  1.00  0.00     0.127 S 
ATOM     75  O   UNL     1      -0.095  18.652  -4.908  1.00  0.00    -0.237 OA
ATOM     76  O   UNL     1      -0.647  16.446  -5.859  1.00  0.00    -0.237 OA
ATOM     77  O   UNL     1      -0.306  16.675  -3.441  1.00  0.00    -0.744 OA
ENDBRANCH  71  74
ENDBRANCH  43  67
BRANCH  55  78
ATOM     78  C   UNL     1       9.802  18.664  -1.543  1.00  0.00     0.023 A 
ATOM     79  C   UNL     1       9.319  19.891  -1.047  1.00  0.00     0.012 A 
ATOM     80  C   UNL     1      11.053  18.622  -2.188  1.00  0.00     0.148 A 
ATOM     81  C   UNL     1      10.057  21.062  -1.213  1.00  0.00     0.002 A 
ATOM     82  C   UNL     1      11.804  19.786  -2.311  1.00  0.00     0.091 A 
ATOM     83  F   UNL     1      11.486  17.448  -2.671  1.00  0.00    -0.205 F 
ATOM     84  C   UNL     1      11.303  21.008  -1.834  1.00  0.00     0.022 A 
BRANCH  82  85
ATOM     85  S   UNL     1      13.457  19.789  -3.014  1.00  0.00     0.127 S 
ATOM     86  O   UNL     1      13.219  20.362  -4.338  1.00  0.00    -0.237 OA
ATOM     87  O   UNL     1      14.187  20.664  -2.094  1.00  0.00    -0.237 OA
ATOM     88  O   UNL     1      13.899  18.401  -2.999  1.00  0.00    -0.744 OA
ENDBRANCH  82  85
ENDBRANCH  55  78
ENDBRANCH  29  30
ENDBRANCH  22  24
ENDBRANCH  21  22
ENDBRANCH  20  21
ENDBRANCH   1  20
TORSDOF 19
