REMARK SMILES O=C(C[NH2+]C[C@@H]1CCCO1)OCCOC(=O)c1ccc(-c2c3nc(c(-c4cccc(S(=O)(=O)[O-])c4F)c4ccc([nH]4)c(-c4cccc(S(=O)(=O)[O-])c4F)c4nc(c(-c5cccc(S(=O)(=O)[O-])c5F)c5ccc2[nH]5)C=C4)C=C3)cc1
REMARK SMILES IDX 12 1 11 2 2 3 1 4 3 5 4 6 5 9 6 10 7 11 10 12 8 13 9 14
REMARK SMILES IDX 13 15 14 16 15 17 16 18 17 19 18 20 79 21 19 22 78 23 20 24
REMARK SMILES IDX 21 25 22 26 72 27 23 28 77 29 71 30 73 31 24 32 76 33 70 34
REMARK SMILES IDX 69 35 25 37 57 38 37 39 56 40 38 41 41 42 55 43 74 44 39 45
REMARK SMILES IDX 40 46 54 48 75 49 42 50 26 51 27 52 35 53 28 54 30 55 36 56
REMARK SMILES IDX 29 57 31 58 32 59 33 60 34 61 58 62 59 63 67 64 60 65 62 66
REMARK SMILES IDX 68 67 61 68 63 69 64 70 65 71 66 72 43 73 44 74 52 75 45 76
REMARK SMILES IDX 47 77 53 78 46 79 48 80 49 81 50 82 51 83
REMARK H PARENT 4 7 4 8 73 36 41 47
REMARK Flexibility Score: inf
ROOT
ATOM      1  C   UNL     1       4.424   0.194   0.772  1.00  0.00     0.274 C 
ENDROOT
BRANCH   1   2
ATOM      2  O   UNL     1       3.130   0.830   0.700  1.00  0.00    -0.458 OA
BRANCH   2   3
ATOM      3  C   UNL     1       2.520   1.210  -0.454  1.00  0.00     0.361 C 
ATOM      4  O   UNL     1       1.581   2.004  -0.421  1.00  0.00    -0.245 OA
BRANCH   3   5
ATOM      5  C   UNL     1       2.970   0.561  -1.756  1.00  0.00     0.384 C 
BRANCH   5   6
ATOM      6  N   UNL     1       4.099   1.257  -2.391  1.00  0.00    -0.335 N 
ATOM      7  H   UNL     1       4.601   1.792  -1.683  1.00  0.00     0.346 HD
ATOM      8  H   UNL     1       3.731   1.874  -3.115  1.00  0.00     0.346 HD
BRANCH   6   9
ATOM      9  C   UNL     1       5.032   0.298  -3.024  1.00  0.00     0.293 C 
BRANCH   9  10
ATOM     10  C   UNL     1       4.446  -0.644  -4.093  1.00  0.00     0.173 C 
ATOM     11  C   UNL     1       5.381  -1.809  -4.388  1.00  0.00     0.040 C 
ATOM     12  O   UNL     1       4.248   0.051  -5.335  1.00  0.00    -0.372 OA
ATOM     13  C   UNL     1       5.029  -2.136  -5.813  1.00  0.00     0.031 C 
ATOM     14  C   UNL     1       4.819  -0.753  -6.393  1.00  0.00     0.161 C 
ENDBRANCH   9  10
ENDBRANCH   6   9
ENDBRANCH   5   6
ENDBRANCH   3   5
ENDBRANCH   2   3
ENDBRANCH   1   2
BRANCH   1  15
ATOM     15  C   UNL     1       4.322  -1.274   1.198  1.00  0.00     0.275 C 
BRANCH  15  16
ATOM     16  O   UNL     1       3.858  -2.096   0.112  1.00  0.00    -0.458 OA
BRANCH  16  17
ATOM     17  C   UNL     1       2.533  -2.392   0.104  1.00  0.00     0.338 C 
ATOM     18  O   UNL     1       1.716  -2.105   0.961  1.00  0.00    -0.246 OA
BRANCH  17  19
ATOM     19  C   UNL     1       2.180  -2.949  -1.225  1.00  0.00     0.060 A 
ATOM     20  C   UNL     1       0.982  -2.535  -1.827  1.00  0.00     0.016 A 
ATOM     21  C   UNL     1       3.039  -3.816  -1.902  1.00  0.00     0.016 A 
ATOM     22  C   UNL     1       0.636  -2.994  -3.103  1.00  0.00     0.010 A 
ATOM     23  C   UNL     1       2.693  -4.269  -3.177  1.00  0.00     0.010 A 
ATOM     24  C   UNL     1       1.482  -3.879  -3.781  1.00  0.00    -0.014 A 
BRANCH  24  25
ATOM     25  C   UNL     1       1.097  -4.519  -5.065  1.00  0.00     0.031 A 
ATOM     26  C   UNL     1       0.769  -5.986  -5.064  1.00  0.00     0.074 A 
ATOM     27  C   UNL     1       1.168  -3.857  -6.235  1.00  0.00     0.049 A 
ATOM     28  N   UNL     1       0.617  -6.802  -6.073  1.00  0.00    -0.248 NA
ATOM     29  C   UNL     1       0.594  -6.615  -3.744  1.00  0.00     0.031 C 
ATOM     30  C   UNL     1       1.461  -2.436  -6.396  1.00  0.00     0.029 A 
ATOM     31  N   UNL     1       1.099  -4.336  -7.524  1.00  0.00    -0.354 N 
ATOM     32  C   UNL     1       0.330  -8.040  -5.514  1.00  0.00     0.074 A 
ATOM     33  C   UNL     1       0.385  -7.880  -4.077  1.00  0.00     0.031 C 
ATOM     34  C   UNL     1       1.683  -2.186  -7.699  1.00  0.00     0.029 A 
ATOM     35  C   UNL     1       1.560  -3.431  -8.452  1.00  0.00     0.049 A 
ATOM     36  H   UNL     1       0.756  -5.229  -7.757  1.00  0.00     0.167 HD
ATOM     37  C   UNL     1       0.001  -9.196  -6.137  1.00  0.00     0.034 A 
ATOM     38  C   UNL     1       1.909  -3.598  -9.743  1.00  0.00     0.034 A 
ATOM     39  C   UNL     1      -0.080  -9.351  -7.562  1.00  0.00     0.049 A 
ATOM     40  C   UNL     1       1.660  -4.918 -10.420  1.00  0.00     0.074 A 
ATOM     41  C   UNL     1      -0.531 -10.440  -8.287  1.00  0.00     0.029 A 
ATOM     42  N   UNL     1       0.325  -8.398  -8.480  1.00  0.00    -0.354 N 
ATOM     43  N   UNL     1       1.198  -6.030  -9.904  1.00  0.00    -0.248 NA
ATOM     44  C   UNL     1       1.911  -4.988 -11.868  1.00  0.00     0.031 C 
ATOM     45  C   UNL     1      -0.372 -10.153  -9.647  1.00  0.00     0.029 A 
ATOM     46  C   UNL     1       0.158  -8.879  -9.767  1.00  0.00     0.049 A 
ATOM     47  H   UNL     1       0.679  -7.508  -8.252  1.00  0.00     0.167 HD
ATOM     48  C   UNL     1       1.021  -6.902 -10.974  1.00  0.00     0.074 A 
ATOM     49  C   UNL     1       1.459  -6.201 -12.163  1.00  0.00     0.031 C 
ATOM     50  C   UNL     1       0.518  -8.160 -10.963  1.00  0.00     0.034 A 
BRANCH  37  51
ATOM     51  C   UNL     1      -0.365 -10.364  -5.264  1.00  0.00     0.023 A 
ATOM     52  C   UNL     1      -1.589 -10.342  -4.564  1.00  0.00     0.012 A 
ATOM     53  C   UNL     1       0.479 -11.483  -5.149  1.00  0.00     0.148 A 
ATOM     54  C   UNL     1      -1.948 -11.397  -3.728  1.00  0.00     0.002 A 
ATOM     55  C   UNL     1       0.095 -12.550  -4.346  1.00  0.00     0.091 A 
ATOM     56  F   UNL     1       1.651 -11.473  -5.800  1.00  0.00    -0.205 F 
ATOM     57  C   UNL     1      -1.110 -12.504  -3.626  1.00  0.00     0.022 A 
BRANCH  55  58
ATOM     58  S   UNL     1       1.081 -14.044  -4.210  1.00  0.00     0.127 S 
ATOM     59  O   UNL     1       1.756 -13.837  -2.930  1.00  0.00    -0.237 OA
ATOM     60  O   UNL     1       0.060 -15.093  -4.197  1.00  0.00    -0.237 OA
ATOM     61  O   UNL     1       1.941 -14.056  -5.385  1.00  0.00    -0.744 OA
ENDBRANCH  55  58
ENDBRANCH  37  51
BRANCH  38  62
ATOM     62  C   UNL     1       2.544  -2.475 -10.483  1.00  0.00     0.023 A 
ATOM     63  C   UNL     1       1.800  -1.741 -11.424  1.00  0.00     0.012 A 
ATOM     64  C   UNL     1       3.887  -2.127 -10.237  1.00  0.00     0.148 A 
ATOM     65  C   UNL     1       2.393  -0.693 -12.130  1.00  0.00     0.002 A 
ATOM     66  C   UNL     1       4.461  -1.061 -10.919  1.00  0.00     0.091 A 
ATOM     67  F   UNL     1       4.573  -2.842  -9.335  1.00  0.00    -0.205 F 
ATOM     68  C   UNL     1       3.719  -0.349 -11.875  1.00  0.00     0.022 A 
BRANCH  66  69
ATOM     69  S   UNL     1       6.134  -0.494 -10.592  1.00  0.00     0.127 S 
ATOM     70  O   UNL     1       6.810  -0.818 -11.845  1.00  0.00    -0.237 OA
ATOM     71  O   UNL     1       5.926   0.934 -10.353  1.00  0.00    -0.237 OA
ATOM     72  O   UNL     1       6.580  -1.240  -9.422  1.00  0.00    -0.744 OA
ENDBRANCH  66  69
ENDBRANCH  38  62
BRANCH  50  73
ATOM     73  C   UNL     1       0.307  -8.858 -12.279  1.00  0.00     0.023 A 
ATOM     74  C   UNL     1       1.401  -9.396 -12.983  1.00  0.00     0.012 A 
ATOM     75  C   UNL     1      -1.001  -9.077 -12.759  1.00  0.00     0.148 A 
ATOM     76  C   UNL     1       1.196 -10.130 -14.151  1.00  0.00     0.002 A 
ATOM     77  C   UNL     1      -1.200  -9.849 -13.897  1.00  0.00     0.091 A 
ATOM     78  F   UNL     1      -2.027  -8.537 -12.085  1.00  0.00    -0.205 F 
ATOM     79  C   UNL     1      -0.102 -10.370 -14.599  1.00  0.00     0.022 A 
BRANCH  77  80
ATOM     80  S   UNL     1      -2.838 -10.293 -14.487  1.00  0.00     0.127 S 
ATOM     81  O   UNL     1      -2.938  -9.502 -15.713  1.00  0.00    -0.237 OA
ATOM     82  O   UNL     1      -2.711 -11.735 -14.700  1.00  0.00    -0.237 OA
ATOM     83  O   UNL     1      -3.764  -9.918 -13.426  1.00  0.00    -0.744 OA
ENDBRANCH  77  80
ENDBRANCH  50  73
ENDBRANCH  24  25
ENDBRANCH  17  19
ENDBRANCH  16  17
ENDBRANCH  15  16
ENDBRANCH   1  15
TORSDOF 17
