REMARK SMILES CCC[C@H]1CCc2c(sc(NC(=O)[C@H]3[C@@H](C(=O)OCCOC(=O)c4ccc(-c5c6nc(c(-c7cccc(S(=O)(=O)[O-])c7F)c7ccc([nH]7)c(-c7cccc(S(=O)(=O)[O-])c7F)c7nc(c(-c8cccc(S(=O)(=O)[O-])c8F)c8ccc5[nH]8)C=C7)C=C6)cc4)[C@H]4CC[C@@H]3O4)c2C(N)=O)C1
REMARK SMILES IDX 19 1 18 2 16 3 17 4 15 5 14 6 90 7 87 8 89 9 91 10 88 11
REMARK SMILES IDX 12 12 11 13 13 15 10 16 4 17 5 18 96 19 6 20 8 21 7 22 9 23
REMARK SMILES IDX 92 24 3 25 2 26 1 27 93 28 94 29 95 30 20 33 21 34 22 35
REMARK SMILES IDX 23 36 24 37 25 38 86 39 26 40 85 41 27 42 28 43 29 44 79 45
REMARK SMILES IDX 30 46 84 47 78 48 80 49 31 50 83 51 77 52 76 53 32 55 64 56
REMARK SMILES IDX 44 57 63 58 45 59 48 60 62 61 81 62 46 63 47 64 61 66 82 67
REMARK SMILES IDX 49 68 33 69 34 70 42 71 35 72 37 73 43 74 36 75 38 76 39 77
REMARK SMILES IDX 40 78 41 79 65 80 66 81 74 82 67 83 69 84 75 85 68 86 70 87
REMARK SMILES IDX 71 88 72 89 73 90 50 91 51 92 59 93 52 94 54 95 60 96 53 97
REMARK SMILES IDX 55 98 56 99 57 100 58 101
REMARK H PARENT 11 14 94 31 94 32 80 54 48 65
REMARK Flexibility Score: inf
ROOT
ATOM      1  C   UNL     1       0.240   6.328  -4.667  1.00  0.00     0.274 C 
ENDROOT
BRANCH   1   2
ATOM      2  O   UNL     1       1.588   6.693  -4.173  1.00  0.00    -0.462 OA
BRANCH   2   3
ATOM      3  C   UNL     1       2.050   6.502  -2.861  1.00  0.00     0.312 C 
ATOM      4  O   UNL     1       1.360   6.714  -1.878  1.00  0.00    -0.252 OA
BRANCH   3   5
ATOM      5  C   UNL     1       3.566   6.119  -2.853  1.00  0.00     0.143 C 
ATOM      6  C   UNL     1       3.809   5.635  -4.232  1.00  0.00     0.124 C 
ATOM      7  C   UNL     1       5.264   5.154  -4.255  1.00  0.00     0.132 C 
ATOM      8  C   UNL     1       4.523   5.062  -2.199  1.00  0.00     0.133 C 
ATOM      9  C   UNL     1       5.329   3.660  -4.096  1.00  0.00     0.035 C 
ATOM     10  O   UNL     1       5.724   5.547  -2.926  1.00  0.00    -0.373 OA
ATOM     11  C   UNL     1       4.659   3.563  -2.704  1.00  0.00     0.036 C 
BRANCH   6  12
ATOM     12  C   UNL     1       2.798   4.550  -4.569  1.00  0.00     0.231 C 
ATOM     13  N   UNL     1       1.703   4.030  -3.905  1.00  0.00    -0.317 N 
ATOM     14  H   UNL     1       1.199   3.691  -4.680  1.00  0.00     0.170 HD
ATOM     15  O   UNL     1       2.954   4.198  -5.754  1.00  0.00    -0.274 OA
BRANCH  13  16
ATOM     16  C   UNL     1       0.809   3.652  -2.874  1.00  0.00     0.108 A 
ATOM     17  C   UNL     1      -3.161   1.350  -1.073  1.00  0.00    -0.006 C 
ATOM     18  C   UNL     1      -1.983   0.563  -0.461  1.00  0.00     0.009 C 
ATOM     19  C   UNL     1      -2.752   1.795  -2.492  1.00  0.00     0.050 C 
ATOM     20  C   UNL     1      -0.812   1.549  -0.177  1.00  0.00     0.038 C 
ATOM     21  C   UNL     1      -1.395   2.431  -2.430  1.00  0.00     0.011 A 
ATOM     22  C   UNL     1      -0.515   2.412  -1.379  1.00  0.00    -0.019 A 
ATOM     23  S   UNL     1      -0.749   3.260  -3.704  1.00  0.00    -0.122 S 
ATOM     24  C   UNL     1       0.493   3.490  -1.525  1.00  0.00     0.077 A 
BRANCH  17  25
ATOM     25  C   UNL     1      -4.506   0.604  -1.081  1.00  0.00     0.004 C 
BRANCH  25  26
ATOM     26  C   UNL     1      -5.614   1.323  -0.287  1.00  0.00    -0.003 C 
ATOM     27  C   UNL     1      -5.759   2.815  -0.571  1.00  0.00     0.004 C 
ENDBRANCH  25  26
ENDBRANCH  17  25
BRANCH  24  28
ATOM     28  C   UNL     1       0.948   4.155  -0.317  1.00  0.00     0.251 C 
ATOM     29  N   UNL     1       0.290   5.341  -0.105  1.00  0.00    -0.365 N 
ATOM     30  O   UNL     1       1.627   3.639   0.544  1.00  0.00    -0.269 OA
ATOM     31  H   UNL     1      -0.255   5.738  -0.823  1.00  0.00     0.159 HD
ATOM     32  H   UNL     1       0.363   5.795   0.766  1.00  0.00     0.159 HD
ENDBRANCH  24  28
ENDBRANCH  13  16
ENDBRANCH   6  12
ENDBRANCH   3   5
ENDBRANCH   2   3
ENDBRANCH   1   2
BRANCH   1  33
ATOM     33  C   UNL     1       0.209   5.437  -6.082  1.00  0.00     0.275 C 
BRANCH  33  34
ATOM     34  O   UNL     1       0.491   3.932  -6.014  1.00  0.00    -0.458 OA
BRANCH  34  35
ATOM     35  C   UNL     1       0.982   3.084  -7.003  1.00  0.00     0.338 C 
ATOM     36  O   UNL     1       0.963   3.394  -8.186  1.00  0.00    -0.246 OA
BRANCH  35  37
ATOM     37  C   UNL     1       1.711   1.758  -6.476  1.00  0.00     0.060 A 
ATOM     38  C   UNL     1       1.857   1.364  -5.135  1.00  0.00     0.016 A 
ATOM     39  C   UNL     1       2.418   0.931  -7.356  1.00  0.00     0.016 A 
ATOM     40  C   UNL     1       2.794   0.412  -4.655  1.00  0.00     0.010 A 
ATOM     41  C   UNL     1       3.256  -0.143  -6.891  1.00  0.00     0.010 A 
ATOM     42  C   UNL     1       3.518  -0.386  -5.523  1.00  0.00    -0.014 A 
BRANCH  42  43
ATOM     43  C   UNL     1       4.550  -1.394  -5.039  1.00  0.00     0.031 A 
ATOM     44  C   UNL     1       5.919  -1.413  -5.694  1.00  0.00     0.074 A 
ATOM     45  C   UNL     1       4.351  -2.297  -4.043  1.00  0.00     0.049 A 
ATOM     46  N   UNL     1       6.821  -2.362  -5.732  1.00  0.00    -0.248 NA
ATOM     47  C   UNL     1       6.316  -0.189  -6.408  1.00  0.00     0.031 C 
ATOM     48  C   UNL     1       3.184  -2.385  -3.164  1.00  0.00     0.029 A 
ATOM     49  N   UNL     1       5.137  -3.364  -3.624  1.00  0.00    -0.354 N 
ATOM     50  C   UNL     1       7.825  -1.903  -6.581  1.00  0.00     0.074 A 
ATOM     51  C   UNL     1       7.447  -0.567  -6.990  1.00  0.00     0.031 C 
ATOM     52  C   UNL     1       3.312  -3.444  -2.346  1.00  0.00     0.029 A 
ATOM     53  C   UNL     1       4.517  -4.186  -2.702  1.00  0.00     0.049 A 
ATOM     54  H   UNL     1       6.052  -3.520  -3.954  1.00  0.00     0.167 HD
ATOM     55  C   UNL     1       8.946  -2.539  -7.001  1.00  0.00     0.034 A 
ATOM     56  C   UNL     1       4.817  -5.425  -2.247  1.00  0.00     0.034 A 
ATOM     57  C   UNL     1       9.393  -3.819  -6.517  1.00  0.00     0.049 A 
ATOM     58  C   UNL     1       6.039  -6.145  -2.768  1.00  0.00     0.074 A 
ATOM     59  C   UNL     1      10.545  -4.510  -6.857  1.00  0.00     0.029 A 
ATOM     60  N   UNL     1       8.725  -4.597  -5.588  1.00  0.00    -0.354 N 
ATOM     61  N   UNL     1       6.962  -5.716  -3.592  1.00  0.00    -0.248 NA
ATOM     62  C   UNL     1       6.263  -7.522  -2.291  1.00  0.00     0.031 C 
ATOM     63  C   UNL     1      10.551  -5.725  -6.166  1.00  0.00     0.029 A 
ATOM     64  C   UNL     1       9.429  -5.767  -5.358  1.00  0.00     0.049 A 
ATOM     65  H   UNL     1       7.875  -4.354  -5.154  1.00  0.00     0.167 HD
ATOM     66  C   UNL     1       7.890  -6.749  -3.700  1.00  0.00     0.074 A 
ATOM     67  C   UNL     1       7.431  -7.819  -2.843  1.00  0.00     0.031 C 
ATOM     68  C   UNL     1       9.014  -6.807  -4.454  1.00  0.00     0.034 A 
BRANCH  55  69
ATOM     69  C   UNL     1       9.779  -1.887  -8.076  1.00  0.00     0.023 A 
ATOM     70  C   UNL     1      10.605  -0.787  -7.783  1.00  0.00     0.012 A 
ATOM     71  C   UNL     1       9.814  -2.456  -9.368  1.00  0.00     0.148 A 
ATOM     72  C   UNL     1      11.437  -0.247  -8.765  1.00  0.00     0.002 A 
ATOM     73  C   UNL     1      10.682  -1.946 -10.325  1.00  0.00     0.091 A 
ATOM     74  F   UNL     1       9.008  -3.495  -9.630  1.00  0.00    -0.205 F 
ATOM     75  C   UNL     1      11.486  -0.834 -10.029  1.00  0.00     0.022 A 
BRANCH  73  76
ATOM     76  S   UNL     1      10.887  -2.694 -11.946  1.00  0.00     0.127 S 
ATOM     77  O   UNL     1      10.336  -1.659 -12.820  1.00  0.00    -0.237 OA
ATOM     78  O   UNL     1      12.339  -2.852 -12.028  1.00  0.00    -0.237 OA
ATOM     79  O   UNL     1      10.138  -3.942 -11.914  1.00  0.00    -0.744 OA
ENDBRANCH  73  76
ENDBRANCH  55  69
BRANCH  56  80
ATOM     80  C   UNL     1       3.915  -6.127  -1.274  1.00  0.00     0.023 A 
ATOM     81  C   UNL     1       4.392  -6.462   0.010  1.00  0.00     0.012 A 
ATOM     82  C   UNL     1       2.602  -6.501  -1.626  1.00  0.00     0.148 A 
ATOM     83  C   UNL     1       3.595  -7.180   0.906  1.00  0.00     0.002 A 
ATOM     84  C   UNL     1       1.789  -7.153  -0.704  1.00  0.00     0.091 A 
ATOM     85  F   UNL     1       2.171  -6.219  -2.864  1.00  0.00    -0.205 F 
ATOM     86  C   UNL     1       2.290  -7.513   0.555  1.00  0.00     0.022 A 
BRANCH  84  87
ATOM     87  S   UNL     1       0.053  -7.491  -1.023  1.00  0.00     0.127 S 
ATOM     88  O   UNL     1       0.055  -8.941  -1.196  1.00  0.00    -0.237 OA
ATOM     89  O   UNL     1      -0.578  -7.017   0.209  1.00  0.00    -0.237 OA
ATOM     90  O   UNL     1      -0.286  -6.710  -2.205  1.00  0.00    -0.744 OA
ENDBRANCH  84  87
ENDBRANCH  56  80
BRANCH  68  91
ATOM     91  C   UNL     1       9.887  -8.032  -4.343  1.00  0.00     0.023 A 
ATOM     92  C   UNL     1       9.469  -9.257  -4.898  1.00  0.00     0.012 A 
ATOM     93  C   UNL     1      11.163  -7.945  -3.748  1.00  0.00     0.148 A 
ATOM     94  C   UNL     1      10.291 -10.383  -4.833  1.00  0.00     0.002 A 
ATOM     95  C   UNL     1      11.997  -9.057  -3.732  1.00  0.00     0.091 A 
ATOM     96  F   UNL     1      11.539  -6.775  -3.212  1.00  0.00    -0.205 F 
ATOM     97  C   UNL     1      11.557 -10.280  -4.261  1.00  0.00     0.022 A 
BRANCH  95  98
ATOM     98  S   UNL     1      13.680  -8.994  -3.104  1.00  0.00     0.127 S 
ATOM     99  O   UNL     1      13.574  -9.801  -1.889  1.00  0.00    -0.237 OA
ATOM    100  O   UNL     1      14.438  -9.620  -4.188  1.00  0.00    -0.237 OA
ATOM    101  O   UNL     1      13.979  -7.585  -2.891  1.00  0.00    -0.744 OA
ENDBRANCH  95  98
ENDBRANCH  68  91
ENDBRANCH  42  43
ENDBRANCH  35  37
ENDBRANCH  34  35
ENDBRANCH  33  34
ENDBRANCH   1  33
TORSDOF 19
