REMARK SMILES O=C(Nc1ccc(O)cc1C(=O)OCCOC(=O)c1ccc(-c2c3nc(c(-c4cccc(S(=O)(=O)[O-])c4F)c4ccc([nH]4)c(-c4cccc(S(=O)(=O)[O-])c4F)c4nc(c(-c5cccc(S(=O)(=O)[O-])c5F)c5ccc2[nH]5)C=C4)C=C3)cc1)c1ccc(Br)nc1
REMARK SMILES IDX 15 1 14 2 13 3 11 4 12 5 10 6 4 7 5 8 6 9 9 10 7 11 3 12
REMARK SMILES IDX 1 13 2 14 82 16 83 17 88 18 84 19 87 20 85 21 86 22 8 23
REMARK SMILES IDX 16 25 17 26 18 27 19 28 20 29 81 30 21 31 80 32 22 33 23 34
REMARK SMILES IDX 24 35 74 36 25 37 79 38 73 39 75 40 26 41 78 42 72 43 71 44
REMARK SMILES IDX 27 46 59 47 39 48 58 49 40 50 43 51 57 52 76 53 41 54 42 55
REMARK SMILES IDX 56 57 77 58 44 59 28 60 29 61 37 62 30 63 32 64 38 65 31 66
REMARK SMILES IDX 33 67 34 68 35 69 36 70 60 71 61 72 69 73 62 74 64 75 70 76
REMARK SMILES IDX 63 77 65 78 66 79 67 80 68 81 45 82 46 83 54 84 47 85 49 86
REMARK SMILES IDX 55 87 48 88 50 89 51 90 52 91 53 92
REMARK H PARENT 3 15 8 24 75 45 43 56
REMARK Flexibility Score: inf
ROOT
ATOM      1  C   UNL     1       2.883   5.214  -0.504  1.00  0.00     0.275 C 
ENDROOT
BRANCH   1   2
ATOM      2  C   UNL     1       2.596   4.220  -1.630  1.00  0.00     0.275 C 
BRANCH   2   3
ATOM      3  O   UNL     1       3.255   2.956  -1.395  1.00  0.00    -0.458 OA
BRANCH   3   4
ATOM      4  C   UNL     1       4.297   2.659  -2.216  1.00  0.00     0.340 C 
ATOM      5  O   UNL     1       4.705   3.354  -3.126  1.00  0.00    -0.246 OA
BRANCH   4   6
ATOM      6  C   UNL     1       4.958   1.380  -1.826  1.00  0.00     0.087 A 
ATOM      7  C   UNL     1       4.316   0.301  -1.189  1.00  0.00     0.056 A 
ATOM      8  C   UNL     1       5.067  -0.861  -0.933  1.00  0.00     0.031 A 
ATOM      9  C   UNL     1       6.447  -0.901  -1.138  1.00  0.00     0.048 A 
ATOM     10  C   UNL     1       6.336   1.299  -2.099  1.00  0.00     0.064 A 
ATOM     11  C   UNL     1       7.075   0.197  -1.692  1.00  0.00     0.116 A 
BRANCH   7  12
ATOM     12  N   UNL     1       2.943   0.367  -0.853  1.00  0.00    -0.321 N 
ATOM     13  O   UNL     1       0.990  -0.329   0.077  1.00  0.00    -0.269 OA
ATOM     14  C   UNL     1       2.219  -0.326   0.093  1.00  0.00     0.257 C 
ATOM     15  H   UNL     1       2.420   1.013  -1.380  1.00  0.00     0.170 HD
BRANCH  14  16
ATOM     16  C   UNL     1       2.910  -1.026   1.189  1.00  0.00     0.058 A 
ATOM     17  C   UNL     1       2.641  -2.370   1.441  1.00  0.00     0.018 A 
ATOM     18  C   UNL     1       3.880  -0.386   1.952  1.00  0.00     0.126 A 
ATOM     19  C   UNL     1       3.409  -3.043   2.389  1.00  0.00     0.037 A 
ATOM     20  N   UNL     1       4.637  -1.022   2.877  1.00  0.00    -0.249 NA
ATOM     21  C   UNL     1       4.398  -2.338   3.066  1.00  0.00     0.106 A 
ATOM     22  Br  UNL     1       5.507  -3.264   4.292  1.00  0.00    -0.029 Br
ENDBRANCH  14  16
ENDBRANCH   7  12
BRANCH  11  23
ATOM     23  O   UNL     1       8.424   0.236  -1.858  1.00  0.00    -0.508 OA
ATOM     24  H   UNL     1       8.949  -0.493  -1.593  1.00  0.00     0.293 HD
ENDBRANCH  11  23
ENDBRANCH   4   6
ENDBRANCH   3   4
ENDBRANCH   2   3
ENDBRANCH   1   2
BRANCH   1  25
ATOM     25  O   UNL     1       4.263   5.615  -0.526  1.00  0.00    -0.458 OA
BRANCH  25  26
ATOM     26  C   UNL     1       5.040   5.078   0.443  1.00  0.00     0.338 C 
ATOM     27  O   UNL     1       4.692   4.337   1.347  1.00  0.00    -0.246 OA
BRANCH  26  28
ATOM     28  C   UNL     1       6.446   5.415   0.179  1.00  0.00     0.060 A 
ATOM     29  C   UNL     1       7.156   4.573  -0.671  1.00  0.00     0.016 A 
ATOM     30  C   UNL     1       7.095   6.448   0.849  1.00  0.00     0.016 A 
ATOM     31  C   UNL     1       8.534   4.705  -0.806  1.00  0.00     0.010 A 
ATOM     32  C   UNL     1       8.472   6.627   0.656  1.00  0.00     0.010 A 
ATOM     33  C   UNL     1       9.214   5.737  -0.146  1.00  0.00    -0.014 A 
BRANCH  33  34
ATOM     34  C   UNL     1      10.697   5.845  -0.259  1.00  0.00     0.031 A 
ATOM     35  C   UNL     1      11.561   5.751   0.972  1.00  0.00     0.074 A 
ATOM     36  C   UNL     1      11.279   6.018  -1.464  1.00  0.00     0.049 A 
ATOM     37  N   UNL     1      12.848   5.955   1.098  1.00  0.00    -0.248 NA
ATOM     38  C   UNL     1      10.888   5.395   2.232  1.00  0.00     0.031 C 
ATOM     39  C   UNL     1      10.570   6.109  -2.741  1.00  0.00     0.029 A 
ATOM     40  N   UNL     1      12.602   6.155  -1.811  1.00  0.00    -0.354 N 
ATOM     41  C   UNL     1      13.124   5.832   2.455  1.00  0.00     0.074 A 
ATOM     42  C   UNL     1      11.872   5.523   3.112  1.00  0.00     0.031 C 
ATOM     43  C   UNL     1      11.462   6.265  -3.731  1.00  0.00     0.029 A 
ATOM     44  C   UNL     1      12.800   6.359  -3.157  1.00  0.00     0.049 A 
ATOM     45  H   UNL     1      13.338   6.112  -1.158  1.00  0.00     0.167 HD
ATOM     46  C   UNL     1      14.311   5.954   3.096  1.00  0.00     0.034 A 
ATOM     47  C   UNL     1      13.923   6.627  -3.853  1.00  0.00     0.034 A 
ATOM     48  C   UNL     1      15.570   6.175   2.434  1.00  0.00     0.049 A 
ATOM     49  C   UNL     1      15.232   6.732  -3.122  1.00  0.00     0.074 A 
ATOM     50  C   UNL     1      16.833   6.259   2.994  1.00  0.00     0.029 A 
ATOM     51  N   UNL     1      15.729   6.331   1.066  1.00  0.00    -0.354 N 
ATOM     52  N   UNL     1      15.479   6.563  -1.845  1.00  0.00    -0.248 NA
ATOM     53  C   UNL     1      16.420   7.053  -3.926  1.00  0.00     0.031 C 
ATOM     54  C   UNL     1      17.755   6.475   1.964  1.00  0.00     0.029 A 
ATOM     55  C   UNL     1      17.068   6.511   0.762  1.00  0.00     0.049 A 
ATOM     56  H   UNL     1      14.998   6.316   0.407  1.00  0.00     0.167 HD
ATOM     57  C   UNL     1      16.850   6.740  -1.696  1.00  0.00     0.074 A 
ATOM     58  C   UNL     1      17.384   6.998  -3.017  1.00  0.00     0.031 C 
ATOM     59  C   UNL     1      17.594   6.715  -0.563  1.00  0.00     0.034 A 
BRANCH  46  60
ATOM     60  C   UNL     1      14.314   5.827   4.598  1.00  0.00     0.023 A 
ATOM     61  C   UNL     1      14.160   4.561   5.196  1.00  0.00     0.012 A 
ATOM     62  C   UNL     1      14.525   6.957   5.415  1.00  0.00     0.148 A 
ATOM     63  C   UNL     1      14.182   4.425   6.584  1.00  0.00     0.002 A 
ATOM     64  C   UNL     1      14.588   6.807   6.795  1.00  0.00     0.091 A 
ATOM     65  F   UNL     1      14.647   8.157   4.829  1.00  0.00    -0.205 F 
ATOM     66  C   UNL     1      14.406   5.545   7.382  1.00  0.00     0.022 A 
BRANCH  64  67
ATOM     67  S   UNL     1      14.951   8.180   7.897  1.00  0.00     0.127 S 
ATOM     68  O   UNL     1      13.632   8.466   8.457  1.00  0.00    -0.237 OA
ATOM     69  O   UNL     1      15.896   7.581   8.841  1.00  0.00    -0.237 OA
ATOM     70  O   UNL     1      15.520   9.224   7.057  1.00  0.00    -0.744 OA
ENDBRANCH  64  67
ENDBRANCH  46  60
BRANCH  47  71
ATOM     71  C   UNL     1      13.853   6.795  -5.333  1.00  0.00     0.023 A 
ATOM     72  C   UNL     1      14.431   5.820  -6.169  1.00  0.00     0.012 A 
ATOM     73  C   UNL     1      13.177   7.885  -5.917  1.00  0.00     0.148 A 
ATOM     74  C   UNL     1      14.348   5.934  -7.557  1.00  0.00     0.002 A 
ATOM     75  C   UNL     1      13.044   7.960  -7.298  1.00  0.00     0.091 A 
ATOM     76  F   UNL     1      12.658   8.819  -5.107  1.00  0.00    -0.205 F 
ATOM     77  C   UNL     1      13.642   6.994  -8.121  1.00  0.00     0.022 A 
BRANCH  75  78
ATOM     78  S   UNL     1      12.025   9.208  -8.094  1.00  0.00     0.127 S 
ATOM     79  O   UNL     1      13.033  10.104  -8.654  1.00  0.00    -0.237 OA
ATOM     80  O   UNL     1      11.288   8.417  -9.080  1.00  0.00    -0.237 OA
ATOM     81  O   UNL     1      11.195   9.765  -7.035  1.00  0.00    -0.744 OA
ENDBRANCH  75  78
ENDBRANCH  47  71
BRANCH  59  82
ATOM     82  C   UNL     1      19.075   6.951  -0.699  1.00  0.00     0.023 A 
ATOM     83  C   UNL     1      19.551   8.255  -0.944  1.00  0.00     0.012 A 
ATOM     84  C   UNL     1      19.995   5.901  -0.517  1.00  0.00     0.148 A 
ATOM     85  C   UNL     1      20.920   8.504  -1.033  1.00  0.00     0.002 A 
ATOM     86  C   UNL     1      21.359   6.165  -0.564  1.00  0.00     0.091 A 
ATOM     87  F   UNL     1      19.522   4.664  -0.306  1.00  0.00    -0.205 F 
ATOM     88  C   UNL     1      21.823   7.463  -0.832  1.00  0.00     0.022 A 
BRANCH  86  89
ATOM     89  S   UNL     1      22.592   4.901  -0.231  1.00  0.00     0.127 S 
ATOM     90  O   UNL     1      23.084   4.602  -1.575  1.00  0.00    -0.237 OA
ATOM     91  O   UNL     1      23.546   5.611   0.623  1.00  0.00    -0.237 OA
ATOM     92  O   UNL     1      21.881   3.817   0.434  1.00  0.00    -0.744 OA
ENDBRANCH  86  89
ENDBRANCH  59  82
ENDBRANCH  33  34
ENDBRANCH  26  28
ENDBRANCH  25  26
ENDBRANCH   1  25
TORSDOF 17
