REMARK SMILES Cc1c(-c2nn(-c3ccccc3)cc2/C=N/O)nnn1-c1ccc(C(=O)OCCOC(=O)c2ccc(-c3c4nc(c(-c5cccc(S(=O)(=O)[O-])c5F)c5ccc([nH]5)c(-c5cccc(S(=O)(=O)[O-])c5F)c5nc(c(-c6cccc(S(=O)(=O)[O-])c6F)c6ccc3[nH]6)C=C5)C=C4)cc2)cc1
REMARK SMILES IDX 28 1 27 2 25 3 26 4 24 5 21 6 22 7 97 8 23 9 96 10 20 11
REMARK SMILES IDX 1 12 2 13 3 14 18 15 19 16 4 17 5 18 14 19 6 20 13 21 15 22
REMARK SMILES IDX 16 23 17 24 7 26 8 27 12 28 9 29 11 30 10 31 29 32 30 33
REMARK SMILES IDX 31 34 32 35 33 36 34 37 95 38 35 39 94 40 36 41 37 42 38 43
REMARK SMILES IDX 88 44 39 45 93 46 87 47 89 48 40 49 92 50 86 51 85 52 41 54
REMARK SMILES IDX 73 55 53 56 72 57 54 58 57 59 71 60 90 61 55 62 56 63 70 65
REMARK SMILES IDX 91 66 58 67 42 68 43 69 51 70 44 71 46 72 52 73 45 74 47 75
REMARK SMILES IDX 48 76 49 77 50 78 74 79 75 80 83 81 76 82 78 83 84 84 77 85
REMARK SMILES IDX 79 86 80 87 81 88 82 89 59 90 60 91 68 92 61 93 63 94 69 95
REMARK SMILES IDX 62 96 64 97 65 98 66 99 67 100
REMARK H PARENT 17 25 89 53 57 64
REMARK Flexibility Score: inf
ROOT
ATOM      1  C   UNL     1      -1.421   7.556   0.210  1.00  0.00     0.275 C 
ENDROOT
BRANCH   1   2
ATOM      2  O   UNL     1      -1.249   6.139   0.400  1.00  0.00    -0.458 OA
BRANCH   2   3
ATOM      3  C   UNL     1      -0.178   5.775   1.153  1.00  0.00     0.338 C 
ATOM      4  O   UNL     1       0.728   6.509   1.525  1.00  0.00    -0.246 OA
BRANCH   3   5
ATOM      5  C   UNL     1      -0.261   4.347   1.546  1.00  0.00     0.060 A 
ATOM      6  C   UNL     1      -0.104   1.637   2.184  1.00  0.00     0.067 A 
ATOM      7  C   UNL     1       0.456   2.577   3.053  1.00  0.00     0.029 A 
ATOM      8  C   UNL     1      -0.855   2.055   1.076  1.00  0.00     0.029 A 
ATOM      9  C   UNL     1       0.402   3.931   2.713  1.00  0.00     0.018 A 
ATOM     10  C   UNL     1      -0.944   3.412   0.764  1.00  0.00     0.018 A 
BRANCH   6  11
ATOM     11  N   UNL     1       0.157   0.263   2.389  1.00  0.00    -0.217 N 
ATOM     12  C   UNL     1       0.884  -0.451   0.039  1.00  0.00     0.069 C 
ATOM     13  C   UNL     1       0.499  -0.696   1.449  1.00  0.00     0.071 A 
ATOM     14  C   UNL     1       0.533  -1.862   2.188  1.00  0.00     0.137 A 
ATOM     15  N   UNL     1       0.348  -1.591   3.509  1.00  0.00    -0.128 NA
ATOM     16  N   UNL     1       0.203  -0.276   3.633  1.00  0.00    -0.061 NA
BRANCH  14  17
ATOM     17  C   UNL     1       0.785  -3.214   1.700  1.00  0.00     0.124 A 
ATOM     18  N   UNL     1       2.005  -3.640   1.344  1.00  0.00    -0.165 NA
ATOM     19  C   UNL     1      -0.220  -4.179   1.447  1.00  0.00     0.044 A 
ATOM     20  N   UNL     1       1.783  -4.837   0.762  1.00  0.00    -0.240 N 
ATOM     21  C   UNL     1       0.454  -5.188   0.787  1.00  0.00     0.125 A 
BRANCH  19  22
ATOM     22  C   UNL     1      -1.629  -4.190   1.753  1.00  0.00     0.166 C 
ATOM     23  N   UNL     1      -2.186  -3.145   2.264  1.00  0.00    -0.097 NA
BRANCH  23  24
ATOM     24  O   UNL     1      -3.536  -3.412   2.521  1.00  0.00    -0.411 OA
ATOM     25  H   UNL     1      -4.082  -2.749   2.895  1.00  0.00     0.330 HD
ENDBRANCH  23  24
ENDBRANCH  19  22
BRANCH  20  26
ATOM     26  C   UNL     1       2.840  -5.578   0.188  1.00  0.00     0.065 A 
ATOM     27  C   UNL     1       4.080  -5.620   0.836  1.00  0.00     0.028 A 
ATOM     28  C   UNL     1       2.645  -6.265  -1.017  1.00  0.00     0.028 A 
ATOM     29  C   UNL     1       5.113  -6.386   0.295  1.00  0.00     0.002 A 
ATOM     30  C   UNL     1       3.704  -6.980  -1.580  1.00  0.00     0.002 A 
ATOM     31  C   UNL     1       4.930  -7.054  -0.917  1.00  0.00     0.000 A 
ENDBRANCH  20  26
ENDBRANCH  14  17
ENDBRANCH   6  11
ENDBRANCH   3   5
ENDBRANCH   2   3
ENDBRANCH   1   2
BRANCH   1  32
ATOM     32  C   UNL     1      -2.258   8.176   1.320  1.00  0.00     0.275 C 
BRANCH  32  33
ATOM     33  O   UNL     1      -1.565   8.154   2.564  1.00  0.00    -0.458 OA
BRANCH  33  34
ATOM     34  C   UNL     1      -1.833   7.076   3.332  1.00  0.00     0.338 C 
ATOM     35  O   UNL     1      -2.350   6.026   2.982  1.00  0.00    -0.246 OA
BRANCH  34  36
ATOM     36  C   UNL     1      -1.630   7.420   4.736  1.00  0.00     0.060 A 
ATOM     37  C   UNL     1      -1.704   6.374   5.662  1.00  0.00     0.016 A 
ATOM     38  C   UNL     1      -1.720   8.766   5.112  1.00  0.00     0.016 A 
ATOM     39  C   UNL     1      -2.054   6.675   6.958  1.00  0.00     0.010 A 
ATOM     40  C   UNL     1      -2.093   9.062   6.396  1.00  0.00     0.010 A 
ATOM     41  C   UNL     1      -2.326   8.007   7.278  1.00  0.00    -0.014 A 
BRANCH  41  42
ATOM     42  C   UNL     1      -2.767   8.313   8.620  1.00  0.00     0.031 A 
ATOM     43  C   UNL     1      -1.664   8.253   9.608  1.00  0.00     0.074 A 
ATOM     44  C   UNL     1      -4.010   8.777   8.844  1.00  0.00     0.049 A 
ATOM     45  N   UNL     1      -1.564   7.498  10.652  1.00  0.00    -0.248 NA
ATOM     46  C   UNL     1      -0.432   8.992   9.282  1.00  0.00     0.031 C 
ATOM     47  C   UNL     1      -5.013   9.147   7.838  1.00  0.00     0.029 A 
ATOM     48  N   UNL     1      -4.569   9.201  10.008  1.00  0.00    -0.354 N 
ATOM     49  C   UNL     1      -0.353   7.862  11.241  1.00  0.00     0.074 A 
ATOM     50  C   UNL     1       0.390   8.565  10.237  1.00  0.00     0.031 C 
ATOM     51  C   UNL     1      -5.910   9.985   8.403  1.00  0.00     0.029 A 
ATOM     52  C   UNL     1      -5.603  10.114   9.816  1.00  0.00     0.049 A 
ATOM     53  H   UNL     1      -4.274   8.895  10.896  1.00  0.00     0.167 HD
ATOM     54  C   UNL     1      -0.203   7.845  12.593  1.00  0.00     0.034 A 
ATOM     55  C   UNL     1      -6.068  11.003  10.729  1.00  0.00     0.034 A 
ATOM     56  C   UNL     1      -1.187   6.986  13.208  1.00  0.00     0.049 A 
ATOM     57  C   UNL     1      -5.600  10.556  12.063  1.00  0.00     0.074 A 
ATOM     58  C   UNL     1      -1.546   5.659  13.070  1.00  0.00     0.029 A 
ATOM     59  N   UNL     1      -2.238   7.597  13.849  1.00  0.00    -0.354 N 
ATOM     60  N   UNL     1      -5.998   9.457  12.641  1.00  0.00    -0.248 NA
ATOM     61  C   UNL     1      -4.351  11.108  12.564  1.00  0.00     0.031 C 
ATOM     62  C   UNL     1      -2.964   5.643  13.215  1.00  0.00     0.029 A 
ATOM     63  C   UNL     1      -3.385   6.945  13.491  1.00  0.00     0.049 A 
ATOM     64  H   UNL     1      -2.176   8.368  14.457  1.00  0.00     0.167 HD
ATOM     65  C   UNL     1      -4.851   8.943  13.234  1.00  0.00     0.074 A 
ATOM     66  C   UNL     1      -3.902  10.055  13.252  1.00  0.00     0.031 C 
ATOM     67  C   UNL     1      -4.672   7.595  13.374  1.00  0.00     0.034 A 
BRANCH  54  68
ATOM     68  C   UNL     1       0.511   8.933  13.383  1.00  0.00     0.023 A 
ATOM     69  C   UNL     1       0.533   8.773  14.788  1.00  0.00     0.012 A 
ATOM     70  C   UNL     1       0.873  10.211  12.890  1.00  0.00     0.148 A 
ATOM     71  C   UNL     1       0.767   9.849  15.650  1.00  0.00     0.002 A 
ATOM     72  C   UNL     1       1.163  11.264  13.749  1.00  0.00     0.091 A 
ATOM     73  F   UNL     1       0.843  10.476  11.585  1.00  0.00    -0.205 F 
ATOM     74  C   UNL     1       1.071  11.100  15.130  1.00  0.00     0.022 A 
BRANCH  72  75
ATOM     75  S   UNL     1       1.594  12.897  13.125  1.00  0.00     0.127 S 
ATOM     76  O   UNL     1       0.378  13.649  13.424  1.00  0.00    -0.237 OA
ATOM     77  O   UNL     1       2.753  13.234  13.952  1.00  0.00    -0.237 OA
ATOM     78  O   UNL     1       1.902  12.717  11.712  1.00  0.00    -0.744 OA
ENDBRANCH  72  75
ENDBRANCH  54  68
BRANCH  55  79
ATOM     79  C   UNL     1      -6.611  12.365  10.502  1.00  0.00     0.023 A 
ATOM     80  C   UNL     1      -7.388  12.979  11.504  1.00  0.00     0.012 A 
ATOM     81  C   UNL     1      -6.169  13.164   9.422  1.00  0.00     0.148 A 
ATOM     82  C   UNL     1      -7.697  14.344  11.442  1.00  0.00     0.002 A 
ATOM     83  C   UNL     1      -6.498  14.514   9.353  1.00  0.00     0.091 A 
ATOM     84  F   UNL     1      -5.348  12.627   8.510  1.00  0.00    -0.205 F 
ATOM     85  C   UNL     1      -7.251  15.112  10.370  1.00  0.00     0.022 A 
BRANCH  83  86
ATOM     86  S   UNL     1      -5.957  15.560   7.993  1.00  0.00     0.127 S 
ATOM     87  O   UNL     1      -7.189  16.270   7.647  1.00  0.00    -0.237 OA
ATOM     88  O   UNL     1      -4.934  16.384   8.630  1.00  0.00    -0.237 OA
ATOM     89  O   UNL     1      -5.484  14.650   6.957  1.00  0.00    -0.744 OA
ENDBRANCH  83  86
ENDBRANCH  55  79
BRANCH  67  90
ATOM     90  C   UNL     1      -5.849   6.688  13.123  1.00  0.00     0.023 A 
ATOM     91  C   UNL     1      -6.464   6.582  11.858  1.00  0.00     0.012 A 
ATOM     92  C   UNL     1      -6.215   5.783  14.133  1.00  0.00     0.148 A 
ATOM     93  C   UNL     1      -7.436   5.608  11.613  1.00  0.00     0.002 A 
ATOM     94  C   UNL     1      -7.146   4.786  13.873  1.00  0.00     0.091 A 
ATOM     95  F   UNL     1      -5.618   5.894  15.330  1.00  0.00    -0.205 F 
ATOM     96  C   UNL     1      -7.766   4.700  12.617  1.00  0.00     0.022 A 
BRANCH  94  97
ATOM     97  S   UNL     1      -7.512   3.511  15.081  1.00  0.00     0.127 S 
ATOM     98  O   UNL     1      -8.815   3.935  15.588  1.00  0.00    -0.237 OA
ATOM     99  O   UNL     1      -7.540   2.298  14.261  1.00  0.00    -0.237 OA
ATOM    100  O   UNL     1      -6.420   3.549  16.045  1.00  0.00    -0.744 OA
ENDBRANCH  94  97
ENDBRANCH  67  90
ENDBRANCH  41  42
ENDBRANCH  34  36
ENDBRANCH  33  34
ENDBRANCH  32  33
ENDBRANCH   1  32
TORSDOF 19
