REMARK SMILES C[C@@H](Nc1cccc(Cl)c1)[C@@H](C)C(=O)OCCOC(=O)c1ccc(-c2c3nc(c(-c4cccc(S(=O)(=O)[O-])c4F)c4ccc([nH]4)c(-c4cccc(S(=O)(=O)[O-])c4F)c4nc(c(-c5cccc(S(=O)(=O)[O-])c5F)c5ccc2[nH]5)C=C4)C=C3)cc1
REMARK SMILES IDX 16 1 15 2 13 3 14 4 11 5 12 6 2 7 1 8 3 9 4 11 5 12 10 13
REMARK SMILES IDX 6 14 8 15 7 16 9 17 17 18 18 19 19 20 20 21 21 22 22 23
REMARK SMILES IDX 83 24 23 25 82 26 24 27 25 28 26 29 76 30 27 31 81 32 75 33
REMARK SMILES IDX 77 34 28 35 80 36 74 37 73 38 29 40 61 41 41 42 60 43 42 44
REMARK SMILES IDX 45 45 59 46 78 47 43 48 44 49 58 51 79 52 46 53 30 54 31 55
REMARK SMILES IDX 39 56 32 57 34 58 40 59 33 60 35 61 36 62 37 63 38 64 62 65
REMARK SMILES IDX 63 66 71 67 64 68 66 69 72 70 65 71 67 72 68 73 69 74 70 75
REMARK SMILES IDX 47 76 48 77 56 78 49 79 51 80 57 81 50 82 52 83 53 84 54 85
REMARK SMILES IDX 55 86
REMARK H PARENT 3 10 77 39 45 50
REMARK Flexibility Score: inf
ROOT
ATOM      1  C   UNL     1      -1.252  -1.873   4.826  1.00  0.00     0.274 C 
ENDROOT
BRANCH   1   2
ATOM      2  O   UNL     1      -0.709  -1.688   3.497  1.00  0.00    -0.462 OA
BRANCH   2   3
ATOM      3  C   UNL     1      -1.585  -1.752   2.460  1.00  0.00     0.310 C 
ATOM      4  O   UNL     1      -2.693  -2.271   2.539  1.00  0.00    -0.252 OA
BRANCH   3   5
ATOM      5  C   UNL     1      -1.110  -0.990   1.213  1.00  0.00     0.118 C 
ATOM      6  C   UNL     1      -1.430  -1.873   0.002  1.00  0.00     0.022 C 
BRANCH   5   7
ATOM      7  C   UNL     1       0.354  -0.515   1.314  1.00  0.00     0.090 C 
ATOM      8  C   UNL     1       1.037  -0.323  -0.057  1.00  0.00     0.031 C 
BRANCH   7   9
ATOM      9  N   UNL     1       0.543   0.773   1.997  1.00  0.00    -0.382 N 
ATOM     10  H   UNL     1       1.283   1.308   1.629  1.00  0.00     0.160 HD
BRANCH   9  11
ATOM     11  C   UNL     1      -0.110   1.386   3.052  1.00  0.00     0.036 A 
ATOM     12  C   UNL     1      -1.830   1.036   3.608  1.00  0.00     0.026 A 
ATOM     13  C   UNL     1       0.814   2.743   3.842  1.00  0.00     0.046 A 
ATOM     14  C   UNL     1      -2.529   1.914   5.059  1.00  0.00     0.004 A 
ATOM     15  C   UNL     1       0.170   3.509   5.356  1.00  0.00     0.043 A 
ATOM     16  C   UNL     1      -1.462   3.027   6.014  1.00  0.00     0.020 A 
ATOM     17  Cl  UNL     1       1.091   4.729   6.147  1.00  0.00    -0.084 Cl
ENDBRANCH   9  11
ENDBRANCH   7   9
ENDBRANCH   5   7
ENDBRANCH   3   5
ENDBRANCH   2   3
ENDBRANCH   1   2
BRANCH   1  18
ATOM     18  C   UNL     1      -0.542  -0.905   5.785  1.00  0.00     0.275 C 
BRANCH  18  19
ATOM     19  O   UNL     1      -1.180   0.386   5.633  1.00  0.00    -0.458 OA
BRANCH  19  20
ATOM     20  C   UNL     1      -0.448   1.546   5.042  1.00  0.00     0.338 C 
ATOM     21  O   UNL     1       0.716   1.337   5.486  1.00  0.00    -0.246 OA
BRANCH  20  22
ATOM     22  C   UNL     1      -1.304   3.081   3.801  1.00  0.00     0.060 A 
ATOM     23  C   UNL     1      -1.648   3.053   2.287  1.00  0.00     0.016 A 
ATOM     24  C   UNL     1      -1.802   4.465   4.151  1.00  0.00     0.016 A 
ATOM     25  C   UNL     1      -2.276   3.996   1.457  1.00  0.00     0.010 A 
ATOM     26  C   UNL     1      -2.487   5.397   3.356  1.00  0.00     0.010 A 
ATOM     27  C   UNL     1      -2.709   5.162   2.017  1.00  0.00    -0.014 A 
BRANCH  27  28
ATOM     28  C   UNL     1      -3.357   6.213   1.246  1.00  0.00     0.031 A 
ATOM     29  C   UNL     1      -2.588   7.476   1.061  1.00  0.00     0.074 A 
ATOM     30  C   UNL     1      -4.663   6.063   0.981  1.00  0.00     0.049 A 
ATOM     31  N   UNL     1      -3.017   8.650   0.711  1.00  0.00    -0.248 NA
ATOM     32  C   UNL     1      -1.150   7.425   1.398  1.00  0.00     0.031 C 
ATOM     33  C   UNL     1      -5.443   4.848   1.247  1.00  0.00     0.029 A 
ATOM     34  N   UNL     1      -5.580   6.960   0.523  1.00  0.00    -0.354 N 
ATOM     35  C   UNL     1      -1.923   9.493   0.844  1.00  0.00     0.074 A 
ATOM     36  C   UNL     1      -0.819   8.705   1.338  1.00  0.00     0.031 C 
ATOM     37  C   UNL     1      -6.737   5.095   0.994  1.00  0.00     0.029 A 
ATOM     38  C   UNL     1      -6.869   6.486   0.584  1.00  0.00     0.049 A 
ATOM     39  H   UNL     1      -5.345   7.854   0.183  1.00  0.00     0.167 HD
ATOM     40  C   UNL     1      -1.869  10.813   0.566  1.00  0.00     0.034 A 
ATOM     41  C   UNL     1      -8.023   7.138   0.368  1.00  0.00     0.034 A 
ATOM     42  C   UNL     1      -3.015  11.532   0.085  1.00  0.00     0.049 A 
ATOM     43  C   UNL     1      -7.923   8.589  -0.004  1.00  0.00     0.074 A 
ATOM     44  C   UNL     1      -3.099  12.838  -0.349  1.00  0.00     0.029 A 
ATOM     45  N   UNL     1      -4.294  10.991  -0.000  1.00  0.00    -0.354 N 
ATOM     46  N   UNL     1      -6.855   9.354  -0.047  1.00  0.00    -0.248 NA
ATOM     47  C   UNL     1      -9.165   9.256  -0.399  1.00  0.00     0.031 C 
ATOM     48  C   UNL     1      -4.439  13.099  -0.655  1.00  0.00     0.029 A 
ATOM     49  C   UNL     1      -5.180  11.939  -0.467  1.00  0.00     0.049 A 
ATOM     50  H   UNL     1      -4.531  10.065   0.238  1.00  0.00     0.167 HD
ATOM     51  C   UNL     1      -7.287  10.587  -0.507  1.00  0.00     0.074 A 
ATOM     52  C   UNL     1      -8.714  10.452  -0.752  1.00  0.00     0.031 C 
ATOM     53  C   UNL     1      -6.587  11.732  -0.705  1.00  0.00     0.034 A 
BRANCH  40  54
ATOM     54  C   UNL     1      -0.553  11.522   0.751  1.00  0.00     0.023 A 
ATOM     55  C   UNL     1       0.561  11.159  -0.036  1.00  0.00     0.012 A 
ATOM     56  C   UNL     1      -0.421  12.566   1.687  1.00  0.00     0.148 A 
ATOM     57  C   UNL     1       1.793  11.791   0.134  1.00  0.00     0.002 A 
ATOM     58  C   UNL     1       0.794  13.230   1.810  1.00  0.00     0.091 A 
ATOM     59  F   UNL     1      -1.478  12.881   2.447  1.00  0.00    -0.205 F 
ATOM     60  C   UNL     1       1.905  12.834   1.047  1.00  0.00     0.022 A 
BRANCH  58  61
ATOM     61  S   UNL     1       1.025  14.640   2.898  1.00  0.00     0.127 S 
ATOM     62  O   UNL     1       2.026  14.130   3.834  1.00  0.00    -0.237 OA
ATOM     63  O   UNL     1       1.520  15.657   1.971  1.00  0.00    -0.237 OA
ATOM     64  O   UNL     1      -0.279  14.922   3.480  1.00  0.00    -0.744 OA
ENDBRANCH  58  61
ENDBRANCH  40  54
BRANCH  41  65
ATOM     65  C   UNL     1      -9.316   6.407   0.424  1.00  0.00     0.023 A 
ATOM     66  C   UNL     1     -10.002   6.144  -0.777  1.00  0.00     0.012 A 
ATOM     67  C   UNL     1      -9.834   5.909   1.635  1.00  0.00     0.148 A 
ATOM     68  C   UNL     1     -11.200   5.430  -0.771  1.00  0.00     0.002 A 
ATOM     69  C   UNL     1     -11.004   5.157   1.629  1.00  0.00     0.091 A 
ATOM     70  F   UNL     1      -9.157   6.157   2.765  1.00  0.00    -0.205 F 
ATOM     71  C   UNL     1     -11.697   4.931   0.430  1.00  0.00     0.022 A 
BRANCH  69  72
ATOM     72  S   UNL     1     -11.658   4.370   3.106  1.00  0.00     0.127 S 
ATOM     73  O   UNL     1     -12.899   5.112   3.313  1.00  0.00    -0.237 OA
ATOM     74  O   UNL     1     -11.833   2.988   2.657  1.00  0.00    -0.237 OA
ATOM     75  O   UNL     1     -10.640   4.546   4.133  1.00  0.00    -0.744 OA
ENDBRANCH  69  72
ENDBRANCH  41  65
BRANCH  53  76
ATOM     76  C   UNL     1      -7.360  12.904  -1.237  1.00  0.00     0.023 A 
ATOM     77  C   UNL     1      -8.291  13.566  -0.414  1.00  0.00     0.012 A 
ATOM     78  C   UNL     1      -7.107  13.382  -2.536  1.00  0.00     0.148 A 
ATOM     79  C   UNL     1      -8.995  14.665  -0.896  1.00  0.00     0.002 A 
ATOM     80  C   UNL     1      -7.764  14.515  -2.985  1.00  0.00     0.091 A 
ATOM     81  F   UNL     1      -6.223  12.723  -3.299  1.00  0.00    -0.205 F 
ATOM     82  C   UNL     1      -8.722  15.147  -2.175  1.00  0.00     0.022 A 
BRANCH  80  83
ATOM     83  S   UNL     1      -7.400  15.270  -4.571  1.00  0.00     0.127 S 
ATOM     84  O   UNL     1      -8.653  15.059  -5.294  1.00  0.00    -0.237 OA
ATOM     85  O   UNL     1      -7.137  16.659  -4.193  1.00  0.00    -0.237 OA
ATOM     86  O   UNL     1      -6.248  14.557  -5.106  1.00  0.00    -0.744 OA
ENDBRANCH  80  83
ENDBRANCH  53  76
ENDBRANCH  27  28
ENDBRANCH  20  22
ENDBRANCH  19  20
ENDBRANCH  18  19
ENDBRANCH   1  18
TORSDOF 17
