REMARK SMILES CC(C)c1ccc(CCCC(=O)OCCOC(=O)c2ccc(-c3c4nc(c(-c5cccc(S(=O)(=O)[O-])c5F)c5ccc([nH]5)c(-c5cccc(S(=O)(=O)[O-])c5F)c5nc(c(-c6cccc(S(=O)(=O)[O-])c6F)c6ccc3[nH]6)C=C5)C=C4)cc2)cc1
REMARK SMILES IDX 14 1 13 2 11 3 12 4 10 5 9 6 8 7 7 8 4 9 5 10 83 11 6 12
REMARK SMILES IDX 82 13 2 14 1 15 3 16 15 17 16 18 17 19 18 20 19 21 20 22
REMARK SMILES IDX 81 23 21 24 80 25 22 26 23 27 24 28 74 29 25 30 79 31 73 32
REMARK SMILES IDX 75 33 26 34 78 35 72 36 71 37 27 39 59 40 39 41 58 42 40 43
REMARK SMILES IDX 43 44 57 45 76 46 41 47 42 48 56 50 77 51 44 52 28 53 29 54
REMARK SMILES IDX 37 55 30 56 32 57 38 58 31 59 33 60 34 61 35 62 36 63 60 64
REMARK SMILES IDX 61 65 69 66 62 67 64 68 70 69 63 70 65 71 66 72 67 73 68 74
REMARK SMILES IDX 45 75 46 76 54 77 47 78 49 79 55 80 48 81 50 82 51 83 52 84
REMARK SMILES IDX 53 85
REMARK H PARENT 75 38 43 49
REMARK Flexibility Score: inf
ROOT
ATOM      1  C   UNL     1      -6.190   3.870  -3.128  1.00  0.00     0.274 C 
ENDROOT
BRANCH   1   2
ATOM      2  O   UNL     1      -5.833   2.923  -2.103  1.00  0.00    -0.462 OA
BRANCH   2   3
ATOM      3  C   UNL     1      -5.270   3.406  -0.970  1.00  0.00     0.305 C 
ATOM      4  O   UNL     1      -5.027   4.589  -0.764  1.00  0.00    -0.252 OA
BRANCH   3   5
ATOM      5  C   UNL     1      -4.911   2.322   0.028  1.00  0.00     0.123 C 
BRANCH   5   6
ATOM      6  C   UNL     1      -5.494   0.923  -0.202  1.00  0.00     0.016 C 
BRANCH   6   7
ATOM      7  C   UNL     1      -5.013   0.160  -1.448  1.00  0.00     0.036 C 
BRANCH   7   8
ATOM      8  C   UNL     1      -3.512   0.082  -1.564  1.00  0.00    -0.048 A 
ATOM      9  C   UNL     1      -0.692   0.074  -1.529  1.00  0.00    -0.045 A 
ATOM     10  C   UNL     1      -1.394   1.165  -2.053  1.00  0.00     0.004 A 
ATOM     11  C   UNL     1      -1.419  -1.040  -1.083  1.00  0.00     0.004 A 
ATOM     12  C   UNL     1      -2.787   1.157  -2.092  1.00  0.00     0.004 A 
ATOM     13  C   UNL     1      -2.816  -1.030  -1.086  1.00  0.00     0.004 A 
BRANCH   9  14
ATOM     14  C   UNL     1       0.820   0.133  -1.448  1.00  0.00     0.013 C 
ATOM     15  C   UNL     1       1.324  -0.126  -0.025  1.00  0.00     0.012 C 
ATOM     16  C   UNL     1       1.460  -0.827  -2.449  1.00  0.00     0.012 C 
ENDBRANCH   9  14
ENDBRANCH   7   8
ENDBRANCH   6   7
ENDBRANCH   5   6
ENDBRANCH   3   5
ENDBRANCH   2   3
ENDBRANCH   1   2
BRANCH   1  17
ATOM     17  C   UNL     1      -7.707   3.910  -3.318  1.00  0.00     0.275 C 
BRANCH  17  18
ATOM     18  O   UNL     1      -8.348   4.450  -2.150  1.00  0.00    -0.458 OA
BRANCH  18  19
ATOM     19  C   UNL     1      -8.735   3.527  -1.238  1.00  0.00     0.338 C 
ATOM     20  O   UNL     1      -8.698   2.314  -1.351  1.00  0.00    -0.246 OA
BRANCH  19  21
ATOM     21  C   UNL     1      -9.050   4.205   0.026  1.00  0.00     0.060 A 
ATOM     22  C   UNL     1      -8.208   3.960   1.112  1.00  0.00     0.016 A 
ATOM     23  C   UNL     1     -10.184   5.004   0.171  1.00  0.00     0.016 A 
ATOM     24  C   UNL     1      -8.497   4.501   2.358  1.00  0.00     0.010 A 
ATOM     25  C   UNL     1     -10.476   5.549   1.426  1.00  0.00     0.010 A 
ATOM     26  C   UNL     1      -9.645   5.283   2.530  1.00  0.00    -0.014 A 
BRANCH  26  27
ATOM     27  C   UNL     1      -9.998   5.746   3.892  1.00  0.00     0.031 A 
ATOM     28  C   UNL     1     -11.130   5.090   4.628  1.00  0.00     0.074 A 
ATOM     29  C   UNL     1      -9.274   6.717   4.479  1.00  0.00     0.049 A 
ATOM     30  N   UNL     1     -11.602   5.352   5.819  1.00  0.00    -0.248 NA
ATOM     31  C   UNL     1     -11.825   3.993   3.934  1.00  0.00     0.031 C 
ATOM     32  C   UNL     1      -8.141   7.411   3.865  1.00  0.00     0.029 A 
ATOM     33  N   UNL     1      -9.384   7.287   5.721  1.00  0.00    -0.354 N 
ATOM     34  C   UNL     1     -12.673   4.487   6.001  1.00  0.00     0.074 A 
ATOM     35  C   UNL     1     -12.783   3.690   4.798  1.00  0.00     0.031 C 
ATOM     36  C   UNL     1      -7.661   8.316   4.733  1.00  0.00     0.029 A 
ATOM     37  C   UNL     1      -8.469   8.287   5.949  1.00  0.00     0.049 A 
ATOM     38  H   UNL     1     -10.054   7.007   6.386  1.00  0.00     0.167 HD
ATOM     39  C   UNL     1     -13.482   4.357   7.079  1.00  0.00     0.034 A 
ATOM     40  C   UNL     1      -8.309   9.096   7.015  1.00  0.00     0.034 A 
ATOM     41  C   UNL     1     -13.339   5.119   8.290  1.00  0.00     0.049 A 
ATOM     42  C   UNL     1      -9.213   8.919   8.206  1.00  0.00     0.074 A 
ATOM     43  C   UNL     1     -14.091   5.044   9.449  1.00  0.00     0.029 A 
ATOM     44  N   UNL     1     -12.374   6.092   8.502  1.00  0.00    -0.354 N 
ATOM     45  N   UNL     1     -10.170   8.041   8.393  1.00  0.00    -0.248 NA
ATOM     46  C   UNL     1      -8.998   9.824   9.344  1.00  0.00     0.031 C 
ATOM     47  C   UNL     1     -13.583   5.977  10.360  1.00  0.00     0.029 A 
ATOM     48  C   UNL     1     -12.508   6.625   9.772  1.00  0.00     0.049 A 
ATOM     49  H   UNL     1     -11.693   6.364   7.845  1.00  0.00     0.167 HD
ATOM     50  C   UNL     1     -10.656   8.273   9.674  1.00  0.00     0.074 A 
ATOM     51  C   UNL     1      -9.866   9.353  10.229  1.00  0.00     0.031 C 
ATOM     52  C   UNL     1     -11.678   7.664  10.325  1.00  0.00     0.034 A 
BRANCH  39  53
ATOM     53  C   UNL     1     -14.577   3.328   7.006  1.00  0.00     0.023 A 
ATOM     54  C   UNL     1     -14.258   1.961   7.136  1.00  0.00     0.012 A 
ATOM     55  C   UNL     1     -15.923   3.712   6.849  1.00  0.00     0.148 A 
ATOM     56  C   UNL     1     -15.258   0.991   7.084  1.00  0.00     0.002 A 
ATOM     57  C   UNL     1     -16.918   2.741   6.836  1.00  0.00     0.091 A 
ATOM     58  F   UNL     1     -16.204   5.014   6.698  1.00  0.00    -0.205 F 
ATOM     59  C   UNL     1     -16.587   1.381   6.944  1.00  0.00     0.022 A 
BRANCH  57  60
ATOM     60  S   UNL     1     -18.664   3.153   6.726  1.00  0.00     0.127 S 
ATOM     61  O   UNL     1     -18.965   2.797   5.340  1.00  0.00    -0.237 OA
ATOM     62  O   UNL     1     -19.257   2.263   7.725  1.00  0.00    -0.237 OA
ATOM     63  O   UNL     1     -18.759   4.570   7.047  1.00  0.00    -0.744 OA
ENDBRANCH  57  60
ENDBRANCH  39  53
BRANCH  40  64
ATOM     64  C   UNL     1      -7.219  10.112   7.019  1.00  0.00     0.023 A 
ATOM     65  C   UNL     1      -6.118   9.944   7.881  1.00  0.00     0.012 A 
ATOM     66  C   UNL     1      -7.248  11.221   6.152  1.00  0.00     0.148 A 
ATOM     67  C   UNL     1      -5.076  10.872   7.893  1.00  0.00     0.002 A 
ATOM     68  C   UNL     1      -6.180  12.111   6.129  1.00  0.00     0.091 A 
ATOM     69  F   UNL     1      -8.316  11.381   5.357  1.00  0.00    -0.205 F 
ATOM     70  C   UNL     1      -5.100  11.947   7.008  1.00  0.00     0.022 A 
BRANCH  68  71
ATOM     71  S   UNL     1      -6.076  13.441   4.925  1.00  0.00     0.127 S 
ATOM     72  O   UNL     1      -6.449  14.602   5.727  1.00  0.00    -0.237 OA
ATOM     73  O   UNL     1      -4.666  13.391   4.532  1.00  0.00    -0.237 OA
ATOM     74  O   UNL     1      -7.002  13.072   3.862  1.00  0.00    -0.744 OA
ENDBRANCH  68  71
ENDBRANCH  40  64
BRANCH  52  75
ATOM     75  C   UNL     1     -11.993   8.143  11.717  1.00  0.00     0.023 A 
ATOM     76  C   UNL     1     -12.646   9.378  11.894  1.00  0.00     0.012 A 
ATOM     77  C   UNL     1     -11.700   7.347  12.842  1.00  0.00     0.148 A 
ATOM     78  C   UNL     1     -12.974   9.830  13.172  1.00  0.00     0.002 A 
ATOM     79  C   UNL     1     -12.068   7.785  14.109  1.00  0.00     0.091 A 
ATOM     80  F   UNL     1     -11.057   6.184  12.657  1.00  0.00    -0.205 F 
ATOM     81  C   UNL     1     -12.696   9.029  14.277  1.00  0.00     0.022 A 
BRANCH  79  82
ATOM     82  S   UNL     1     -11.822   6.768  15.570  1.00  0.00     0.127 S 
ATOM     83  O   UNL     1     -10.584   7.321  16.115  1.00  0.00    -0.237 OA
ATOM     84  O   UNL     1     -13.019   7.057  16.363  1.00  0.00    -0.237 OA
ATOM     85  O   UNL     1     -11.745   5.397  15.084  1.00  0.00    -0.744 OA
ENDBRANCH  79  82
ENDBRANCH  52  75
ENDBRANCH  26  27
ENDBRANCH  19  21
ENDBRANCH  18  19
ENDBRANCH  17  18
ENDBRANCH   1  17
TORSDOF 18
