REMARK SMILES C[C@@H](C(=O)OCCOC(=O)c1ccc(-c2c3nc(c(-c4cccc(S(=O)(=O)[O-])c4F)c4ccc([nH]4)c(-c4cccc(S(=O)(=O)[O-])c4F)c4nc(c(-c5cccc(S(=O)(=O)[O-])c5F)c5ccc2[nH]5)C=C4)C=C3)cc1)S(=O)(=O)N[C@@]12C[C@@H]3C[C@@](C)(C[C@@](C)(C3)C1)C2
REMARK SMILES IDX 6 1 5 2 3 3 4 4 2 5 1 6 74 7 75 8 76 9 77 10 78 12 79 13
REMARK SMILES IDX 88 14 89 15 80 16 85 17 82 18 87 19 81 20 84 21 86 22 83 23
REMARK SMILES IDX 7 24 8 25 9 26 10 27 11 28 12 29 73 30 13 31 72 32 14 33
REMARK SMILES IDX 15 34 16 35 66 36 17 37 71 38 65 39 67 40 18 41 70 42 64 43
REMARK SMILES IDX 63 44 19 46 51 47 31 48 50 49 32 50 35 51 49 52 68 53 33 54
REMARK SMILES IDX 34 55 48 57 69 58 36 59 20 60 21 61 29 62 22 63 24 64 30 65
REMARK SMILES IDX 23 66 25 67 26 68 27 69 28 70 52 71 53 72 61 73 54 74 56 75
REMARK SMILES IDX 62 76 55 77 57 78 58 79 59 80 60 81 37 82 38 83 46 84 39 85
REMARK SMILES IDX 41 86 47 87 40 88 42 89 43 90 44 91 45 92
REMARK H PARENT 77 11 67 45 35 56
REMARK Flexibility Score: inf
ROOT
ATOM      1  C   UNL     1       2.570   0.437  -3.879  1.00  0.00     0.274 C 
ENDROOT
BRANCH   1   2
ATOM      2  O   UNL     1       2.082   0.527  -2.522  1.00  0.00    -0.461 OA
BRANCH   2   3
ATOM      3  C   UNL     1       1.073   1.421  -2.293  1.00  0.00     0.325 C 
ATOM      4  O   UNL     1       0.491   2.023  -3.186  1.00  0.00    -0.251 OA
BRANCH   3   5
ATOM      5  C   UNL     1       0.891   1.720  -0.835  1.00  0.00     0.230 C 
ATOM      6  C   UNL     1       2.036   1.266   0.057  1.00  0.00     0.039 C 
BRANCH   5   7
ATOM      7  S   UNL     1      -0.746   1.332  -0.236  1.00  0.00     0.225 S 
ATOM      8  O   UNL     1      -0.732   1.500   1.205  1.00  0.00    -0.212 OA
ATOM      9  O   UNL     1      -1.692   2.089  -1.022  1.00  0.00    -0.212 OA
BRANCH   7  10
ATOM     10  N   UNL     1      -1.114  -0.259  -0.588  1.00  0.00    -0.208 NA
ATOM     11  H   UNL     1      -0.523  -0.501  -1.383  1.00  0.00     0.141 HD
BRANCH  10  12
ATOM     12  C   UNL     1      -0.996  -1.407   0.352  1.00  0.00     0.034 C 
ATOM     13  C   UNL     1       0.456  -1.578   0.801  1.00  0.00     0.027 C 
ATOM     14  C   UNL     1      -1.942  -1.292   1.567  1.00  0.00     0.030 C 
ATOM     15  C   UNL     1      -1.426  -2.692  -0.414  1.00  0.00     0.030 C 
ATOM     16  C   UNL     1       0.612  -2.804   1.700  1.00  0.00    -0.008 C 
ATOM     17  C   UNL     1      -1.775  -2.517   2.503  1.00  0.00    -0.030 C 
ATOM     18  C   UNL     1      -1.270  -3.953   0.471  1.00  0.00    -0.030 C 
ATOM     19  C   UNL     1      -0.292  -2.626   2.929  1.00  0.00     0.010 C 
ATOM     20  C   UNL     1       0.204  -4.058   0.917  1.00  0.00     0.010 C 
ATOM     21  C   UNL     1      -2.155  -3.797   1.727  1.00  0.00     0.013 C 
ATOM     22  C   UNL     1      -2.665  -2.365   3.741  1.00  0.00     0.011 C 
ATOM     23  C   UNL     1      -1.674  -5.212  -0.304  1.00  0.00     0.011 C 
ENDBRANCH  10  12
ENDBRANCH   7  10
ENDBRANCH   5   7
ENDBRANCH   3   5
ENDBRANCH   2   3
ENDBRANCH   1   2
BRANCH   1  24
ATOM     24  C   UNL     1       2.087  -0.834  -4.564  1.00  0.00     0.275 C 
BRANCH  24  25
ATOM     25  O   UNL     1       0.656  -0.803  -4.649  1.00  0.00    -0.458 OA
BRANCH  25  26
ATOM     26  C   UNL     1       0.014  -1.829  -4.049  1.00  0.00     0.338 C 
ATOM     27  O   UNL     1       0.522  -2.817  -3.542  1.00  0.00    -0.246 OA
BRANCH  26  28
ATOM     28  C   UNL     1      -1.440  -1.584  -4.051  1.00  0.00     0.060 A 
ATOM     29  C   UNL     1      -1.948  -0.362  -3.618  1.00  0.00     0.016 A 
ATOM     30  C   UNL     1      -2.311  -2.634  -4.338  1.00  0.00     0.016 A 
ATOM     31  C   UNL     1      -3.309  -0.229  -3.348  1.00  0.00     0.010 A 
ATOM     32  C   UNL     1      -3.690  -2.451  -4.191  1.00  0.00     0.010 A 
ATOM     33  C   UNL     1      -4.209  -1.262  -3.648  1.00  0.00    -0.014 A 
BRANCH  33  34
ATOM     34  C   UNL     1      -5.674  -1.105  -3.393  1.00  0.00     0.031 A 
ATOM     35  C   UNL     1      -6.439  -2.146  -2.608  1.00  0.00     0.074 A 
ATOM     36  C   UNL     1      -6.340  -0.036  -3.879  1.00  0.00     0.049 A 
ATOM     37  N   UNL     1      -7.732  -2.287  -2.465  1.00  0.00    -0.248 NA
ATOM     38  C   UNL     1      -5.650  -3.172  -1.905  1.00  0.00     0.031 C 
ATOM     39  C   UNL     1      -5.743   1.060  -4.644  1.00  0.00     0.029 A 
ATOM     40  N   UNL     1      -7.672   0.300  -3.813  1.00  0.00    -0.354 N 
ATOM     41  C   UNL     1      -7.914  -3.454  -1.730  1.00  0.00     0.074 A 
ATOM     42  C   UNL     1      -6.596  -3.977  -1.441  1.00  0.00     0.031 C 
ATOM     43  C   UNL     1      -6.689   1.960  -4.943  1.00  0.00     0.029 A 
ATOM     44  C   UNL     1      -7.979   1.457  -4.492  1.00  0.00     0.049 A 
ATOM     45  H   UNL     1      -8.341  -0.235  -3.326  1.00  0.00     0.167 HD
ATOM     46  C   UNL     1      -9.070  -4.037  -1.330  1.00  0.00     0.034 A 
ATOM     47  C   UNL     1      -9.164   2.030  -4.782  1.00  0.00     0.034 A 
ATOM     48  C   UNL     1     -10.380  -3.479  -1.549  1.00  0.00     0.049 A 
ATOM     49  C   UNL     1     -10.430   1.372  -4.319  1.00  0.00     0.074 A 
ATOM     50  C   UNL     1     -11.606  -3.983  -1.150  1.00  0.00     0.029 A 
ATOM     51  N   UNL     1     -10.635  -2.287  -2.208  1.00  0.00    -0.354 N 
ATOM     52  N   UNL     1     -10.578   0.278  -3.614  1.00  0.00    -0.248 NA
ATOM     53  C   UNL     1     -11.692   2.028  -4.688  1.00  0.00     0.031 C 
ATOM     54  C   UNL     1     -12.604  -3.100  -1.577  1.00  0.00     0.029 A 
ATOM     55  C   UNL     1     -11.998  -2.038  -2.228  1.00  0.00     0.049 A 
ATOM     56  H   UNL     1      -9.949  -1.702  -2.604  1.00  0.00     0.167 HD
ATOM     57  C   UNL     1     -11.948   0.117  -3.447  1.00  0.00     0.074 A 
ATOM     58  C   UNL     1     -12.584   1.246  -4.096  1.00  0.00     0.031 C 
ATOM     59  C   UNL     1     -12.618  -0.891  -2.837  1.00  0.00     0.034 A 
BRANCH  46  60
ATOM     60  C   UNL     1      -8.982  -5.344  -0.585  1.00  0.00     0.023 A 
ATOM     61  C   UNL     1      -8.581  -5.356   0.765  1.00  0.00     0.012 A 
ATOM     62  C   UNL     1      -9.371  -6.551  -1.201  1.00  0.00     0.148 A 
ATOM     63  C   UNL     1      -8.547  -6.551   1.484  1.00  0.00     0.002 A 
ATOM     64  C   UNL     1      -9.372  -7.732  -0.467  1.00  0.00     0.091 A 
ATOM     65  F   UNL     1      -9.727  -6.524  -2.494  1.00  0.00    -0.205 F 
ATOM     66  C   UNL     1      -8.953  -7.735   0.873  1.00  0.00     0.022 A 
BRANCH  64  67
ATOM     67  S   UNL     1      -9.950  -9.291  -1.149  1.00  0.00     0.127 S 
ATOM     68  O   UNL     1      -8.691  -9.999  -1.375  1.00  0.00    -0.237 OA
ATOM     69  O   UNL     1     -10.762  -9.827  -0.055  1.00  0.00    -0.237 OA
ATOM     70  O   UNL     1     -10.703  -8.947  -2.347  1.00  0.00    -0.744 OA
ENDBRANCH  64  67
ENDBRANCH  46  60
BRANCH  47  71
ATOM     71  C   UNL     1      -9.189   3.298  -5.566  1.00  0.00     0.023 A 
ATOM     72  C   UNL     1      -9.573   4.497  -4.937  1.00  0.00     0.012 A 
ATOM     73  C   UNL     1      -8.755   3.334  -6.906  1.00  0.00     0.148 A 
ATOM     74  C   UNL     1      -9.529   5.707  -5.631  1.00  0.00     0.002 A 
ATOM     75  C   UNL     1      -8.645   4.551  -7.567  1.00  0.00     0.091 A 
ATOM     76  F   UNL     1      -8.425   2.178  -7.500  1.00  0.00    -0.205 F 
ATOM     77  C   UNL     1      -9.046   5.738  -6.937  1.00  0.00     0.022 A 
BRANCH  75  78
ATOM     78  S   UNL     1      -7.865   4.681  -9.181  1.00  0.00     0.127 S 
ATOM     79  O   UNL     1      -9.021   4.796 -10.065  1.00  0.00    -0.237 OA
ATOM     80  O   UNL     1      -7.071   5.903  -9.043  1.00  0.00    -0.237 OA
ATOM     81  O   UNL     1      -7.068   3.470  -9.322  1.00  0.00    -0.744 OA
ENDBRANCH  75  78
ENDBRANCH  47  71
BRANCH  59  82
ATOM     82  C   UNL     1     -14.121  -0.814  -2.829  1.00  0.00     0.023 A 
ATOM     83  C   UNL     1     -14.836  -1.096  -4.010  1.00  0.00     0.012 A 
ATOM     84  C   UNL     1     -14.825  -0.518  -1.647  1.00  0.00     0.148 A 
ATOM     85  C   UNL     1     -16.229  -1.054  -4.022  1.00  0.00     0.002 A 
ATOM     86  C   UNL     1     -16.215  -0.517  -1.656  1.00  0.00     0.091 A 
ATOM     87  F   UNL     1     -14.126  -0.231  -0.539  1.00  0.00    -0.205 F 
ATOM     88  C   UNL     1     -16.918  -0.775  -2.844  1.00  0.00     0.022 A 
BRANCH  86  89
ATOM     89  S   UNL     1     -17.183  -0.247  -0.167  1.00  0.00     0.127 S 
ATOM     90  O   UNL     1     -17.643   1.127  -0.355  1.00  0.00    -0.237 OA
ATOM     91  O   UNL     1     -18.230  -1.263  -0.285  1.00  0.00    -0.237 OA
ATOM     92  O   UNL     1     -16.267  -0.457   0.946  1.00  0.00    -0.744 OA
ENDBRANCH  86  89
ENDBRANCH  59  82
ENDBRANCH  33  34
ENDBRANCH  26  28
ENDBRANCH  25  26
ENDBRANCH  24  25
ENDBRANCH   1  24
TORSDOF 17
