REMARK SMILES C[C@@H](C(=O)OCCOC(=O)c1ccc(-c2c3nc(c(-c4cccc(S(=O)(=O)[O-])c4F)c4ccc([nH]4)c(-c4cccc(S(=O)(=O)[O-])c4F)c4nc(c(-c5cccc(S(=O)(=O)[O-])c5F)c5ccc2[nH]5)C=C4)C=C3)cc1)c1ccc2c3cc(Cl)ccc3n(C(=O)c3ccc(Cl)cc3)c2c1
REMARK SMILES IDX 6 1 5 2 3 3 4 4 2 5 1 6 74 7 75 8 96 9 76 10 95 11 77 12
REMARK SMILES IDX 85 13 78 14 84 15 79 16 83 17 80 18 82 19 81 20 86 21 87 22
REMARK SMILES IDX 88 23 89 24 94 25 90 26 93 27 91 28 92 29 7 30 8 31 9 32
REMARK SMILES IDX 10 33 11 34 12 35 73 36 13 37 72 38 14 39 15 40 16 41 66 42
REMARK SMILES IDX 17 43 71 44 65 45 67 46 18 47 70 48 64 49 63 50 19 52 51 53
REMARK SMILES IDX 31 54 50 55 32 56 35 57 49 58 68 59 33 60 34 61 48 63 69 64
REMARK SMILES IDX 36 65 20 66 21 67 29 68 22 69 24 70 30 71 23 72 25 73 26 74
REMARK SMILES IDX 27 75 28 76 52 77 53 78 61 79 54 80 56 81 62 82 55 83 57 84
REMARK SMILES IDX 58 85 59 86 60 87 37 88 38 89 46 90 39 91 41 92 47 93 40 94
REMARK SMILES IDX 42 95 43 96 44 97 45 98
REMARK H PARENT 67 51 35 62
REMARK Flexibility Score: inf
ROOT
ATOM      1  C   UNL     1       2.646   2.795   2.479  1.00  0.00     0.274 C 
ENDROOT
BRANCH   1   2
ATOM      2  O   UNL     1       2.144   1.666   1.732  1.00  0.00    -0.462 OA
BRANCH   2   3
ATOM      3  C   UNL     1       1.407   0.741   2.410  1.00  0.00     0.313 C 
ATOM      4  O   UNL     1       1.177   0.789   3.612  1.00  0.00    -0.252 OA
BRANCH   3   5
ATOM      5  C   UNL     1       0.919  -0.389   1.496  1.00  0.00     0.126 C 
ATOM      6  C   UNL     1       1.539  -0.363   0.094  1.00  0.00     0.025 C 
BRANCH   5   7
ATOM      7  C   UNL     1      -0.599  -0.440   1.403  1.00  0.00    -0.032 A 
ATOM      8  C   UNL     1      -1.307   0.598   0.797  1.00  0.00     0.005 A 
ATOM      9  C   UNL     1      -1.304  -1.554   1.898  1.00  0.00     0.032 A 
ATOM     10  C   UNL     1      -2.698   0.554   0.692  1.00  0.00     0.011 A 
ATOM     11  C   UNL     1      -2.716  -1.585   1.810  1.00  0.00     0.057 A 
ATOM     12  C   UNL     1      -3.416  -0.533   1.224  1.00  0.00     0.008 A 
ATOM     13  N   UNL     1      -3.653  -2.576   2.150  1.00  0.00    -0.276 N 
ATOM     14  C   UNL     1      -4.804  -0.811   1.337  1.00  0.00     0.009 A 
ATOM     15  C   UNL     1      -4.939  -2.041   1.987  1.00  0.00     0.057 A 
ATOM     16  C   UNL     1      -5.956  -0.084   0.967  1.00  0.00     0.031 A 
ATOM     17  C   UNL     1      -6.214  -2.510   2.370  1.00  0.00     0.029 A 
ATOM     18  C   UNL     1      -7.215  -0.586   1.284  1.00  0.00     0.041 A 
ATOM     19  C   UNL     1      -7.344  -1.773   1.992  1.00  0.00     0.023 A 
ATOM     20  Cl  UNL     1      -8.618   0.276   0.794  1.00  0.00    -0.084 Cl
BRANCH  13  21
ATOM     21  C   UNL     1      -3.307  -3.891   2.562  1.00  0.00     0.262 C 
ATOM     22  O   UNL     1      -2.209  -4.035   3.105  1.00  0.00    -0.268 OA
BRANCH  21  23
ATOM     23  C   UNL     1      -4.088  -5.145   2.339  1.00  0.00     0.040 A 
ATOM     24  C   UNL     1      -3.742  -6.274   3.105  1.00  0.00     0.015 A 
ATOM     25  C   UNL     1      -5.035  -5.290   1.318  1.00  0.00     0.015 A 
ATOM     26  C   UNL     1      -4.346  -7.513   2.874  1.00  0.00     0.021 A 
ATOM     27  C   UNL     1      -5.664  -6.526   1.108  1.00  0.00     0.021 A 
ATOM     28  C   UNL     1      -5.312  -7.631   1.880  1.00  0.00     0.041 A 
ATOM     29  Cl  UNL     1      -6.047  -9.158   1.585  1.00  0.00    -0.084 Cl
ENDBRANCH  21  23
ENDBRANCH  13  21
ENDBRANCH   5   7
ENDBRANCH   3   5
ENDBRANCH   2   3
ENDBRANCH   1   2
BRANCH   1  30
ATOM     30  C   UNL     1       2.280   4.073   1.730  1.00  0.00     0.275 C 
BRANCH  30  31
ATOM     31  O   UNL     1       0.865   4.268   1.885  1.00  0.00    -0.458 OA
BRANCH  31  32
ATOM     32  C   UNL     1       0.204   4.840   0.852  1.00  0.00     0.338 C 
ATOM     33  O   UNL     1       0.704   5.316  -0.151  1.00  0.00    -0.246 OA
BRANCH  32  34
ATOM     34  C   UNL     1      -1.260   4.746   1.099  1.00  0.00     0.060 A 
ATOM     35  C   UNL     1      -1.774   3.780   1.962  1.00  0.00     0.016 A 
ATOM     36  C   UNL     1      -2.145   5.561   0.387  1.00  0.00     0.016 A 
ATOM     37  C   UNL     1      -3.151   3.556   2.020  1.00  0.00     0.010 A 
ATOM     38  C   UNL     1      -3.534   5.392   0.530  1.00  0.00     0.010 A 
ATOM     39  C   UNL     1      -4.067   4.347   1.306  1.00  0.00    -0.014 A 
BRANCH  39  40
ATOM     40  C   UNL     1      -5.536   4.016   1.306  1.00  0.00     0.031 A 
ATOM     41  C   UNL     1      -6.315   3.922   0.009  1.00  0.00     0.074 A 
ATOM     42  C   UNL     1      -6.196   3.708   2.446  1.00  0.00     0.049 A 
ATOM     43  N   UNL     1      -7.610   3.848  -0.174  1.00  0.00    -0.248 NA
ATOM     44  C   UNL     1      -5.544   3.911  -1.246  1.00  0.00     0.031 C 
ATOM     45  C   UNL     1      -5.614   3.683   3.786  1.00  0.00     0.029 A 
ATOM     46  N   UNL     1      -7.502   3.318   2.655  1.00  0.00    -0.354 N 
ATOM     47  C   UNL     1      -7.813   3.889  -1.549  1.00  0.00     0.074 A 
ATOM     48  C   UNL     1      -6.503   3.959  -2.160  1.00  0.00     0.031 C 
ATOM     49  C   UNL     1      -6.512   3.196   4.653  1.00  0.00     0.029 A 
ATOM     50  C   UNL     1      -7.788   3.018   3.969  1.00  0.00     0.049 A 
ATOM     51  H   UNL     1      -8.168   3.259   1.933  1.00  0.00     0.167 HD
ATOM     52  C   UNL     1      -8.976   3.865  -2.245  1.00  0.00     0.034 A 
ATOM     53  C   UNL     1      -8.946   2.695   4.582  1.00  0.00     0.034 A 
ATOM     54  C   UNL     1     -10.279   3.673  -1.664  1.00  0.00     0.049 A 
ATOM     55  C   UNL     1     -10.225   2.680   3.795  1.00  0.00     0.074 A 
ATOM     56  C   UNL     1     -11.512   3.676  -2.297  1.00  0.00     0.029 A 
ATOM     57  N   UNL     1     -10.519   3.390  -0.330  1.00  0.00    -0.354 N 
ATOM     58  N   UNL     1     -10.405   2.834   2.507  1.00  0.00    -0.248 NA
ATOM     59  C   UNL     1     -11.469   2.476   4.554  1.00  0.00     0.031 C 
ATOM     60  C   UNL     1     -12.497   3.390  -1.345  1.00  0.00     0.029 A 
ATOM     61  C   UNL     1     -11.877   3.208  -0.122  1.00  0.00     0.049 A 
ATOM     62  H   UNL     1      -9.827   3.327   0.367  1.00  0.00     0.167 HD
ATOM     63  C   UNL     1     -11.776   2.742   2.301  1.00  0.00     0.074 A 
ATOM     64  C   UNL     1     -12.380   2.481   3.590  1.00  0.00     0.031 C 
ATOM     65  C   UNL     1     -12.474   2.902   1.151  1.00  0.00     0.034 A 
BRANCH  52  66
ATOM     66  C   UNL     1      -8.905   4.041  -3.739  1.00  0.00     0.023 A 
ATOM     67  C   UNL     1      -8.543   2.955  -4.558  1.00  0.00     0.012 A 
ATOM     68  C   UNL     1      -9.278   5.264  -4.333  1.00  0.00     0.148 A 
ATOM     69  C   UNL     1      -8.535   3.090  -5.946  1.00  0.00     0.002 A 
ATOM     70  C   UNL     1      -9.304   5.379  -5.718  1.00  0.00     0.091 A 
ATOM     71  F   UNL     1      -9.598   6.293  -3.534  1.00  0.00    -0.205 F 
ATOM     72  C   UNL     1      -8.926   4.295  -6.526  1.00  0.00     0.022 A 
BRANCH  70  73
ATOM     73  S   UNL     1      -9.869   6.870  -6.546  1.00  0.00     0.127 S 
ATOM     74  O   UNL     1      -8.605   7.481  -6.951  1.00  0.00    -0.237 OA
ATOM     75  O   UNL     1     -10.667   6.333  -7.650  1.00  0.00    -0.237 OA
ATOM     76  O   UNL     1     -10.637   7.608  -5.553  1.00  0.00    -0.744 OA
ENDBRANCH  70  73
ENDBRANCH  52  66
BRANCH  53  77
ATOM     77  C   UNL     1      -8.956   2.392   6.044  1.00  0.00     0.023 A 
ATOM     78  C   UNL     1      -9.298   1.099   6.486  1.00  0.00     0.012 A 
ATOM     79  C   UNL     1      -8.597   3.364   6.997  1.00  0.00     0.148 A 
ATOM     80  C   UNL     1      -9.287   0.786   7.847  1.00  0.00     0.002 A 
ATOM     81  C   UNL     1      -8.504   3.022   8.340  1.00  0.00     0.091 A 
ATOM     82  F   UNL     1      -8.329   4.609   6.573  1.00  0.00    -0.205 F 
ATOM     83  C   UNL     1      -8.868   1.740   8.772  1.00  0.00     0.022 A 
BRANCH  81  84
ATOM     84  S   UNL     1      -7.778   4.151   9.534  1.00  0.00     0.127 S 
ATOM     85  O   UNL     1      -8.959   4.789  10.105  1.00  0.00    -0.237 OA
ATOM     86  O   UNL     1      -7.070   3.241  10.436  1.00  0.00    -0.237 OA
ATOM     87  O   UNL     1      -6.896   5.007   8.749  1.00  0.00    -0.744 OA
ENDBRANCH  81  84
ENDBRANCH  53  77
BRANCH  65  88
ATOM     88  C   UNL     1     -13.974   2.811   1.227  1.00  0.00     0.023 A 
ATOM     89  C   UNL     1     -14.700   3.888   1.774  1.00  0.00     0.012 A 
ATOM     90  C   UNL     1     -14.668   1.700   0.710  1.00  0.00     0.148 A 
ATOM     91  C   UNL     1     -16.093   3.850   1.831  1.00  0.00     0.002 A 
ATOM     92  C   UNL     1     -16.059   1.685   0.737  1.00  0.00     0.091 A 
ATOM     93  F   UNL     1     -13.960   0.676   0.213  1.00  0.00    -0.205 F 
ATOM     94  C   UNL     1     -16.772   2.754   1.304  1.00  0.00     0.022 A 
BRANCH  92  95
ATOM     95  S   UNL     1     -17.021   0.349   0.017  1.00  0.00     0.127 S 
ATOM     96  O   UNL     1     -17.474  -0.368   1.208  1.00  0.00    -0.237 OA
ATOM     97  O   UNL     1     -18.074   1.071  -0.698  1.00  0.00    -0.237 OA
ATOM     98  O   UNL     1     -16.103  -0.384  -0.845  1.00  0.00    -0.744 OA
ENDBRANCH  92  95
ENDBRANCH  65  88
ENDBRANCH  39  40
ENDBRANCH  32  34
ENDBRANCH  31  32
ENDBRANCH  30  31
ENDBRANCH   1  30
TORSDOF 17
