REMARK SMILES O=C(CCCN1C(=O)/C(=C\c2ccc(O)c(O)c2)SC1=S)OCCOC(=O)c1ccc(-c2c3nc(c(-c4cccc(S(=O)(=O)[O-])c4F)c4ccc([nH]4)c(-c4cccc(S(=O)(=O)[O-])c4F)c4nc(c(-c5cccc(S(=O)(=O)[O-])c5F)c5ccc2[nH]5)C=C4)C=C3)cc1
REMARK SMILES IDX 23 1 22 2 2 3 1 4 3 5 4 6 5 7 6 8 7 9 20 10 8 11 9 12 19 13
REMARK SMILES IDX 21 14 10 15 11 16 12 17 18 18 13 19 16 20 14 21 17 22 15 24
REMARK SMILES IDX 24 26 25 27 26 28 27 29 28 30 29 31 90 32 30 33 89 34 31 35
REMARK SMILES IDX 32 36 33 37 83 38 34 39 88 40 82 41 84 42 35 43 87 44 81 45
REMARK SMILES IDX 80 46 36 48 68 49 48 50 67 51 49 52 52 53 66 54 85 55 50 56
REMARK SMILES IDX 51 57 65 59 86 60 53 61 37 62 38 63 46 64 39 65 41 66 47 67
REMARK SMILES IDX 40 68 42 69 43 70 44 71 45 72 69 73 70 74 78 75 71 76 73 77
REMARK SMILES IDX 79 78 72 79 74 80 75 81 76 82 77 83 54 84 55 85 63 86 56 87
REMARK SMILES IDX 58 88 64 89 57 90 59 91 60 92 61 93 62 94
REMARK H PARENT 17 23 15 25 84 47 52 58
REMARK Flexibility Score: inf
ROOT
ATOM      1  C   UNL     1       3.708   0.874   1.318  1.00  0.00     0.274 C 
ENDROOT
BRANCH   1   2
ATOM      2  O   UNL     1       2.509   0.907   0.526  1.00  0.00    -0.462 OA
BRANCH   2   3
ATOM      3  C   UNL     1       2.558   0.637  -0.804  1.00  0.00     0.305 C 
ATOM      4  O   UNL     1       1.892   1.290  -1.600  1.00  0.00    -0.252 OA
BRANCH   3   5
ATOM      5  C   UNL     1       3.330  -0.594  -1.231  1.00  0.00     0.124 C 
BRANCH   5   6
ATOM      6  C   UNL     1       4.270  -0.380  -2.413  1.00  0.00     0.034 C 
BRANCH   6   7
ATOM      7  C   UNL     1       5.691   0.109  -2.083  1.00  0.00     0.128 C 
BRANCH   7   8
ATOM      8  N   UNL     1       6.375  -0.473  -0.914  1.00  0.00    -0.293 N 
ATOM      9  C   UNL     1       6.955   0.405  -0.006  1.00  0.00     0.266 C 
ATOM     10  C   UNL     1       6.619  -1.812  -0.688  1.00  0.00     0.148 C 
ATOM     11  O   UNL     1       6.927   1.625  -0.096  1.00  0.00    -0.268 OA
ATOM     12  C   UNL     1       7.568  -0.333   1.136  1.00  0.00     0.081 C 
ATOM     13  S   UNL     1       7.400  -2.024   0.879  1.00  0.00    -0.054 SA
ATOM     14  S   UNL     1       6.266  -3.117  -1.657  1.00  0.00    -0.052 S 
ATOM     15  C   UNL     1       8.164   0.188   2.220  1.00  0.00     0.029 C 
BRANCH  15  16
ATOM     16  C   UNL     1       8.367   1.622   2.441  1.00  0.00    -0.020 A 
ATOM     17  C   UNL     1       7.300   2.456   2.813  1.00  0.00     0.012 A 
ATOM     18  C   UNL     1       9.630   2.176   2.203  1.00  0.00     0.058 A 
ATOM     19  C   UNL     1       7.471   3.842   2.881  1.00  0.00     0.051 A 
ATOM     20  C   UNL     1       9.793   3.552   2.283  1.00  0.00     0.157 A 
ATOM     21  C   UNL     1       8.720   4.382   2.597  1.00  0.00     0.157 A 
BRANCH  20  22
ATOM     22  O   UNL     1      11.017   4.096   2.014  1.00  0.00    -0.504 OA
ATOM     23  H   UNL     1      11.139   5.023   2.065  1.00  0.00     0.293 HD
ENDBRANCH  20  22
BRANCH  21  24
ATOM     24  O   UNL     1       8.937   5.733   2.597  1.00  0.00    -0.504 OA
ATOM     25  H   UNL     1       8.237   6.320   2.804  1.00  0.00     0.293 HD
ENDBRANCH  21  24
ENDBRANCH  15  16
ENDBRANCH   7   8
ENDBRANCH   6   7
ENDBRANCH   5   6
ENDBRANCH   3   5
ENDBRANCH   2   3
ENDBRANCH   1   2
BRANCH   1  26
ATOM     26  C   UNL     1       3.655  -0.165   2.438  1.00  0.00     0.275 C 
BRANCH  26  27
ATOM     27  O   UNL     1       3.494  -1.487   1.902  1.00  0.00    -0.458 OA
BRANCH  27  28
ATOM     28  C   UNL     1       2.204  -1.910   1.825  1.00  0.00     0.338 C 
ATOM     29  O   UNL     1       1.232  -1.338   2.278  1.00  0.00    -0.246 OA
BRANCH  28  30
ATOM     30  C   UNL     1       2.113  -3.110   0.959  1.00  0.00     0.060 A 
ATOM     31  C   UNL     1       0.957  -3.256   0.180  1.00  0.00     0.016 A 
ATOM     32  C   UNL     1       3.120  -4.077   0.910  1.00  0.00     0.016 A 
ATOM     33  C   UNL     1       0.782  -4.394  -0.609  1.00  0.00     0.010 A 
ATOM     34  C   UNL     1       2.943  -5.216   0.118  1.00  0.00     0.010 A 
ATOM     35  C   UNL     1       1.756  -5.399  -0.613  1.00  0.00    -0.014 A 
BRANCH  35  36
ATOM     36  C   UNL     1       1.460  -6.715  -1.227  1.00  0.00     0.031 A 
ATOM     37  C   UNL     1       0.998  -7.835  -0.336  1.00  0.00     0.074 A 
ATOM     38  C   UNL     1       1.615  -6.924  -2.546  1.00  0.00     0.049 A 
ATOM     39  N   UNL     1       0.707  -9.072  -0.641  1.00  0.00    -0.248 NA
ATOM     40  C   UNL     1       0.851  -7.516   1.095  1.00  0.00     0.031 C 
ATOM     41  C   UNL     1       2.066  -5.927  -3.514  1.00  0.00     0.029 A 
ATOM     42  N   UNL     1       1.433  -8.063  -3.292  1.00  0.00    -0.354 N 
ATOM     43  C   UNL     1       0.371  -9.686   0.558  1.00  0.00     0.074 A 
ATOM     44  C   UNL     1       0.507  -8.691   1.599  1.00  0.00     0.031 C 
ATOM     45  C   UNL     1       2.156  -6.507  -4.724  1.00  0.00     0.029 A 
ATOM     46  C   UNL     1       1.786  -7.918  -4.613  1.00  0.00     0.049 A 
ATOM     47  H   UNL     1       1.085  -8.903  -2.917  1.00  0.00     0.167 HD
ATOM     48  C   UNL     1      -0.033 -10.960   0.776  1.00  0.00     0.034 A 
ATOM     49  C   UNL     1       1.820  -8.823  -5.611  1.00  0.00     0.034 A 
ATOM     50  C   UNL     1      -0.190 -11.945  -0.256  1.00  0.00     0.049 A 
ATOM     51  C   UNL     1       1.372 -10.239  -5.345  1.00  0.00     0.074 A 
ATOM     52  C   UNL     1      -0.643 -13.247  -0.140  1.00  0.00     0.029 A 
ATOM     53  N   UNL     1       0.112 -11.742  -1.593  1.00  0.00    -0.354 N 
ATOM     54  N   UNL     1       0.922 -10.768  -4.232  1.00  0.00    -0.248 NA
ATOM     55  C   UNL     1       1.403 -11.175  -6.480  1.00  0.00     0.031 C 
ATOM     56  C   UNL     1      -0.599 -13.837  -1.408  1.00  0.00     0.029 A 
ATOM     57  C   UNL     1      -0.136 -12.896  -2.314  1.00  0.00     0.049 A 
ATOM     58  H   UNL     1       0.453 -10.900  -1.974  1.00  0.00     0.167 HD
ATOM     59  C   UNL     1       0.579 -12.081  -4.542  1.00  0.00     0.074 A 
ATOM     60  C   UNL     1       0.864 -12.266  -5.949  1.00  0.00     0.031 C 
ATOM     61  C   UNL     1       0.084 -13.048  -3.730  1.00  0.00     0.034 A 
BRANCH  48  62
ATOM     62  C   UNL     1      -0.365 -11.343   2.192  1.00  0.00     0.023 A 
ATOM     63  C   UNL     1      -1.561 -10.876   2.774  1.00  0.00     0.012 A 
ATOM     64  C   UNL     1       0.488 -12.179   2.936  1.00  0.00     0.148 A 
ATOM     65  C   UNL     1      -1.886 -11.207   4.088  1.00  0.00     0.002 A 
ATOM     66  C   UNL     1       0.138 -12.537   4.233  1.00  0.00     0.091 A 
ATOM     67  F   UNL     1       1.636 -12.588   2.377  1.00  0.00    -0.205 F 
ATOM     68  C   UNL     1      -1.042 -12.044   4.814  1.00  0.00     0.022 A 
BRANCH  66  69
ATOM     69  S   UNL     1       1.134 -13.664   5.215  1.00  0.00     0.127 S 
ATOM     70  O   UNL     1       1.853 -12.739   6.088  1.00  0.00    -0.237 OA
ATOM     71  O   UNL     1       0.119 -14.474   5.890  1.00  0.00    -0.237 OA
ATOM     72  O   UNL     1       1.952 -14.399   4.260  1.00  0.00    -0.744 OA
ENDBRANCH  66  69
ENDBRANCH  48  62
BRANCH  49  73
ATOM     73  C   UNL     1       2.248  -8.404  -6.976  1.00  0.00     0.023 A 
ATOM     74  C   UNL     1       1.291  -8.321  -8.005  1.00  0.00     0.012 A 
ATOM     75  C   UNL     1       3.586  -8.060  -7.251  1.00  0.00     0.148 A 
ATOM     76  C   UNL     1       1.662  -7.926  -9.291  1.00  0.00     0.002 A 
ATOM     77  C   UNL     1       3.940  -7.619  -8.521  1.00  0.00     0.091 A 
ATOM     78  F   UNL     1       4.483  -8.160  -6.260  1.00  0.00    -0.205 F 
ATOM     79  C   UNL     1       2.982  -7.566  -9.546  1.00  0.00     0.022 A 
BRANCH  77  80
ATOM     80  S   UNL     1       5.588  -7.024  -8.916  1.00  0.00     0.127 S 
ATOM     81  O   UNL     1       6.064  -8.052  -9.838  1.00  0.00    -0.237 OA
ATOM     82  O   UNL     1       5.299  -5.729  -9.533  1.00  0.00    -0.237 OA
ATOM     83  O   UNL     1       6.295  -6.942  -7.645  1.00  0.00    -0.744 OA
ENDBRANCH  77  80
ENDBRANCH  49  73
BRANCH  61  84
ATOM     84  C   UNL     1      -0.231 -14.392  -4.332  1.00  0.00     0.023 A 
ATOM     85  C   UNL     1       0.816 -15.280  -4.646  1.00  0.00     0.012 A 
ATOM     86  C   UNL     1      -1.567 -14.819  -4.474  1.00  0.00     0.148 A 
ATOM     87  C   UNL     1       0.538 -16.567  -5.107  1.00  0.00     0.002 A 
ATOM     88  C   UNL     1      -1.836 -16.117  -4.892  1.00  0.00     0.091 A 
ATOM     89  F   UNL     1      -2.549 -13.952  -4.187  1.00  0.00    -0.205 F 
ATOM     90  C   UNL     1      -0.785 -16.990  -5.217  1.00  0.00     0.022 A 
BRANCH  88  91
ATOM     91  S   UNL     1      -3.506 -16.777  -4.967  1.00  0.00     0.127 S 
ATOM     92  O   UNL     1      -3.748 -16.813  -6.408  1.00  0.00    -0.237 OA
ATOM     93  O   UNL     1      -3.351 -18.091  -4.342  1.00  0.00    -0.237 OA
ATOM     94  O   UNL     1      -4.338 -15.847  -4.215  1.00  0.00    -0.744 OA
ENDBRANCH  88  91
ENDBRANCH  61  84
ENDBRANCH  35  36
ENDBRANCH  28  30
ENDBRANCH  27  28
ENDBRANCH  26  27
ENDBRANCH   1  26
TORSDOF 20
