REMARK SMILES CSCC[NH2+]CC(C)(C)C(=O)OCCOC(=O)c1ccc(-c2c3nc(c(-c4cccc(S(=O)(=O)[O-])c4F)c4ccc([nH]4)c(-c4cccc(S(=O)(=O)[O-])c4F)c4nc(c(-c5cccc(S(=O)(=O)[O-])c5F)c5ccc2[nH]5)C=C4)C=C3)cc1
REMARK SMILES IDX 13 1 12 2 10 3 11 4 7 5 8 6 9 7 6 8 5 9 4 12 3 13 2 14 1 15
REMARK SMILES IDX 14 16 15 17 16 18 17 19 18 20 19 21 80 22 20 23 79 24 21 25
REMARK SMILES IDX 22 26 23 27 73 28 24 29 78 30 72 31 74 32 25 33 77 34 71 35
REMARK SMILES IDX 70 36 26 38 58 39 38 40 57 41 39 42 42 43 56 44 75 45 40 46
REMARK SMILES IDX 41 47 55 49 76 50 43 51 27 52 28 53 36 54 29 55 31 56 37 57
REMARK SMILES IDX 30 58 32 59 33 60 34 61 35 62 59 63 60 64 68 65 61 66 63 67
REMARK SMILES IDX 69 68 62 69 64 70 65 71 66 72 67 73 44 74 45 75 53 76 46 77
REMARK SMILES IDX 48 78 54 79 47 80 49 81 50 82 51 83 52 84
REMARK H PARENT 5 10 5 11 74 37 42 48
REMARK Flexibility Score: inf
ROOT
ATOM      1  C   UNL     1      -3.409  -4.250  -3.024  1.00  0.00     0.274 C 
ENDROOT
BRANCH   1   2
ATOM      2  O   UNL     1      -3.002  -2.945  -3.502  1.00  0.00    -0.461 OA
BRANCH   2   3
ATOM      3  C   UNL     1      -1.771  -2.560  -3.061  1.00  0.00     0.317 C 
ATOM      4  O   UNL     1      -1.062  -3.334  -2.436  1.00  0.00    -0.251 OA
BRANCH   3   5
ATOM      5  C   UNL     1      -1.418  -1.093  -3.384  1.00  0.00     0.111 C 
ATOM      6  C   UNL     1      -2.273  -0.152  -2.526  1.00  0.00     0.029 C 
ATOM      7  C   UNL     1      -1.756  -0.865  -4.877  1.00  0.00     0.029 C 
BRANCH   5   8
ATOM      8  C   UNL     1       0.096  -0.714  -3.189  1.00  0.00     0.278 C 
BRANCH   8   9
ATOM      9  N   UNL     1       0.779  -0.686  -1.885  1.00  0.00    -0.345 N 
ATOM     10  H   UNL     1       1.769  -0.508  -2.052  1.00  0.00     0.346 HD
ATOM     11  H   UNL     1       0.316   0.044  -1.342  1.00  0.00     0.346 HD
BRANCH   9  12
ATOM     12  C   UNL     1       0.668  -1.912  -1.088  1.00  0.00     0.271 C 
BRANCH  12  13
ATOM     13  C   UNL     1       1.495  -2.013   0.199  1.00  0.00     0.130 C 
BRANCH  13  14
ATOM     14  S   UNL     1       0.810  -1.048   1.594  1.00  0.00    -0.160 SA
ATOM     15  C   UNL     1       1.235   0.615   1.050  1.00  0.00     0.085 C 
ENDBRANCH  13  14
ENDBRANCH  12  13
ENDBRANCH   9  12
ENDBRANCH   8   9
ENDBRANCH   5   8
ENDBRANCH   3   5
ENDBRANCH   2   3
ENDBRANCH   1   2
BRANCH   1  16
ATOM     16  C   UNL     1      -2.888  -5.441  -3.855  1.00  0.00     0.275 C 
BRANCH  16  17
ATOM     17  O   UNL     1      -1.461  -5.653  -3.756  1.00  0.00    -0.458 OA
BRANCH  17  18
ATOM     18  C   UNL     1      -0.732  -5.235  -4.821  1.00  0.00     0.338 C 
ATOM     19  O   UNL     1      -1.178  -4.775  -5.862  1.00  0.00    -0.246 OA
BRANCH  18  20
ATOM     20  C   UNL     1       0.714  -5.175  -4.501  1.00  0.00     0.060 A 
ATOM     21  C   UNL     1       1.260  -3.895  -4.423  1.00  0.00     0.016 A 
ATOM     22  C   UNL     1       1.556  -6.277  -4.393  1.00  0.00     0.016 A 
ATOM     23  C   UNL     1       2.614  -3.681  -4.178  1.00  0.00     0.010 A 
ATOM     24  C   UNL     1       2.939  -6.071  -4.198  1.00  0.00     0.010 A 
ATOM     25  C   UNL     1       3.478  -4.771  -4.087  1.00  0.00    -0.014 A 
BRANCH  25  26
ATOM     26  C   UNL     1       4.945  -4.528  -4.020  1.00  0.00     0.031 A 
ATOM     27  C   UNL     1       5.766  -4.651  -5.274  1.00  0.00     0.074 A 
ATOM     28  C   UNL     1       5.545  -4.144  -2.876  1.00  0.00     0.049 A 
ATOM     29  N   UNL     1       7.064  -4.588  -5.428  1.00  0.00    -0.248 NA
ATOM     30  C   UNL     1       5.020  -4.861  -6.525  1.00  0.00     0.031 C 
ATOM     31  C   UNL     1       4.865  -3.888  -1.608  1.00  0.00     0.029 A 
ATOM     32  N   UNL     1       6.874  -3.923  -2.594  1.00  0.00    -0.354 N 
ATOM     33  C   UNL     1       7.295  -4.797  -6.782  1.00  0.00     0.074 A 
ATOM     34  C   UNL     1       6.002  -4.973  -7.408  1.00  0.00     0.031 C 
ATOM     35  C   UNL     1       5.783  -3.587  -0.673  1.00  0.00     0.029 A 
ATOM     36  C   UNL     1       7.119  -3.675  -1.263  1.00  0.00     0.049 A 
ATOM     37  H   UNL     1       7.581  -3.941  -3.279  1.00  0.00     0.167 HD
ATOM     38  C   UNL     1       8.476  -4.841  -7.446  1.00  0.00     0.034 A 
ATOM     39  C   UNL     1       8.284  -3.579  -0.588  1.00  0.00     0.034 A 
ATOM     40  C   UNL     1       9.762  -4.650  -6.831  1.00  0.00     0.049 A 
ATOM     41  C   UNL     1       9.589  -3.714  -1.335  1.00  0.00     0.074 A 
ATOM     42  C   UNL     1      11.012  -4.682  -7.426  1.00  0.00     0.029 A 
ATOM     43  N   UNL     1       9.969  -4.403  -5.484  1.00  0.00    -0.354 N 
ATOM     44  N   UNL     1       9.796  -3.875  -2.619  1.00  0.00    -0.248 NA
ATOM     45  C   UNL     1      10.825  -3.635  -0.539  1.00  0.00     0.031 C 
ATOM     46  C   UNL     1      11.976  -4.489  -6.431  1.00  0.00     0.029 A 
ATOM     47  C   UNL     1      11.325  -4.293  -5.224  1.00  0.00     0.049 A 
ATOM     48  H   UNL     1       9.256  -4.318  -4.809  1.00  0.00     0.167 HD
ATOM     49  C   UNL     1      11.177  -3.877  -2.789  1.00  0.00     0.074 A 
ATOM     50  C   UNL     1      11.760  -3.682  -1.479  1.00  0.00     0.031 C 
ATOM     51  C   UNL     1      11.898  -4.039  -3.927  1.00  0.00     0.034 A 
BRANCH  38  52
ATOM     52  C   UNL     1       8.431  -5.129  -8.924  1.00  0.00     0.023 A 
ATOM     53  C   UNL     1       7.981  -4.142  -9.823  1.00  0.00     0.012 A 
ATOM     54  C   UNL     1       8.879  -6.368  -9.423  1.00  0.00     0.148 A 
ATOM     55  C   UNL     1       7.943  -4.397 -11.194  1.00  0.00     0.002 A 
ATOM     56  C   UNL     1       8.880  -6.599 -10.793  1.00  0.00     0.091 A 
ATOM     57  F   UNL     1       9.285  -7.300  -8.549  1.00  0.00    -0.205 F 
ATOM     58  C   UNL     1       8.400  -5.620 -11.678  1.00  0.00     0.022 A 
BRANCH  56  59
ATOM     59  S   UNL     1       9.521  -8.111 -11.520  1.00  0.00     0.127 S 
ATOM     60  O   UNL     1       8.299  -8.733 -12.030  1.00  0.00    -0.237 OA
ATOM     61  O   UNL     1      10.420  -7.597 -12.553  1.00  0.00    -0.237 OA
ATOM     62  O   UNL     1      10.181  -8.830 -10.440  1.00  0.00    -0.744 OA
ENDBRANCH  56  59
ENDBRANCH  38  52
BRANCH  39  63
ATOM     63  C   UNL     1       8.284  -3.367   0.890  1.00  0.00     0.023 A 
ATOM     64  C   UNL     1       8.800  -2.171   1.428  1.00  0.00     0.012 A 
ATOM     65  C   UNL     1       7.800  -4.358   1.767  1.00  0.00     0.148 A 
ATOM     66  C   UNL     1       8.867  -1.983   2.810  1.00  0.00     0.002 A 
ATOM     67  C   UNL     1       7.815  -4.140   3.139  1.00  0.00     0.091 A 
ATOM     68  F   UNL     1       7.336  -5.500   1.240  1.00  0.00    -0.205 F 
ATOM     69  C   UNL     1       8.366  -2.961   3.664  1.00  0.00     0.022 A 
BRANCH  67  70
ATOM     70  S   UNL     1       7.089  -5.294   4.308  1.00  0.00     0.127 S 
ATOM     71  O   UNL     1       8.272  -5.802   5.000  1.00  0.00    -0.237 OA
ATOM     72  O   UNL     1       6.238  -4.414   5.109  1.00  0.00    -0.237 OA
ATOM     73  O   UNL     1       6.363  -6.267   3.503  1.00  0.00    -0.744 OA
ENDBRANCH  67  70
ENDBRANCH  39  63
BRANCH  51  74
ATOM     74  C   UNL     1      13.402  -3.959  -3.832  1.00  0.00     0.023 A 
ATOM     75  C   UNL     1      14.130  -5.000  -3.224  1.00  0.00     0.012 A 
ATOM     76  C   UNL     1      14.099  -2.884  -4.421  1.00  0.00     0.148 A 
ATOM     77  C   UNL     1      15.524  -4.958  -3.175  1.00  0.00     0.002 A 
ATOM     78  C   UNL     1      15.489  -2.874  -4.415  1.00  0.00     0.091 A 
ATOM     79  F   UNL     1      13.390  -1.893  -4.981  1.00  0.00    -0.205 F 
ATOM     80  C   UNL     1      16.203  -3.903  -3.781  1.00  0.00     0.022 A 
BRANCH  78  81
ATOM     81  S   UNL     1      16.450  -1.610  -5.256  1.00  0.00     0.127 S 
ATOM     82  O   UNL     1      17.019  -0.870  -4.131  1.00  0.00    -0.237 OA
ATOM     83  O   UNL     1      17.416  -2.407  -6.013  1.00  0.00    -0.237 OA
ATOM     84  O   UNL     1      15.505  -0.865  -6.077  1.00  0.00    -0.744 OA
ENDBRANCH  78  81
ENDBRANCH  51  74
ENDBRANCH  25  26
ENDBRANCH  18  20
ENDBRANCH  17  18
ENDBRANCH  16  17
ENDBRANCH   1  16
TORSDOF 19
