REMARK SMILES O=C(CSc1nc(O)cc(=O)[nH]1)Nc1cccc(C(=O)OCCOC(=O)c2ccc(-c3c4nc(c(-c5cccc(S(=O)(=O)[O-])c5F)c5ccc([nH]5)c(-c5cccc(S(=O)(=O)[O-])c5F)c5nc(c(-c6cccc(S(=O)(=O)[O-])c6F)c6ccc3[nH]6)C=C5)C=C4)cc2)c1
REMARK SMILES IDX 22 1 21 2 19 3 20 4 18 5 14 6 15 7 90 8 16 9 17 10 13 11
REMARK SMILES IDX 1 12 2 13 3 15 4 16 5 17 6 18 12 19 7 20 10 21 9 23 11 24
REMARK SMILES IDX 8 25 23 27 24 28 25 29 26 30 27 31 28 32 89 33 29 34 88 35
REMARK SMILES IDX 30 36 31 37 32 38 82 39 33 40 87 41 81 42 83 43 34 44 86 45
REMARK SMILES IDX 80 46 79 47 35 49 67 50 47 51 66 52 48 53 51 54 65 55 84 56
REMARK SMILES IDX 49 57 50 58 64 60 85 61 52 62 36 63 37 64 45 65 38 66 40 67
REMARK SMILES IDX 46 68 39 69 41 70 42 71 43 72 44 73 68 74 69 75 77 76 70 77
REMARK SMILES IDX 72 78 78 79 71 80 73 81 74 82 75 83 76 84 53 85 54 86 62 87
REMARK SMILES IDX 55 88 57 89 63 90 56 91 58 92 59 93 60 94 61 95
REMARK H PARENT 13 14 12 22 8 26 83 48 51 59
REMARK Flexibility Score: inf
ROOT
ATOM      1  C   UNL     1      -1.937   1.102   4.703  1.00  0.00     0.275 C 
ENDROOT
BRANCH   1   2
ATOM      2  O   UNL     1      -0.799   1.359   3.855  1.00  0.00    -0.458 OA
BRANCH   2   3
ATOM      3  C   UNL     1      -0.814   2.520   3.152  1.00  0.00     0.338 C 
ATOM      4  O   UNL     1      -1.696   3.365   3.161  1.00  0.00    -0.246 OA
BRANCH   3   5
ATOM      5  C   UNL     1       0.469   2.698   2.429  1.00  0.00     0.062 A 
ATOM      6  C   UNL     1       2.302   1.808   1.132  1.00  0.00     0.042 A 
ATOM      7  C   UNL     1       2.945   3.050   1.186  1.00  0.00     0.026 A 
ATOM      8  C   UNL     1       1.094   1.618   1.808  1.00  0.00     0.041 A 
ATOM      9  C   UNL     1       2.306   4.138   1.772  1.00  0.00     0.003 A 
ATOM     10  C   UNL     1       1.045   3.971   2.338  1.00  0.00     0.016 A 
BRANCH   6  11
ATOM     11  N   UNL     1       2.897   0.805   0.347  1.00  0.00    -0.325 N 
ATOM     12  O   UNL     1       1.010  -0.450  -0.191  1.00  0.00    -0.274 OA
ATOM     13  C   UNL     1       2.220  -0.246  -0.242  1.00  0.00     0.234 C 
ATOM     14  H   UNL     1       3.870   0.855   0.207  1.00  0.00     0.169 HD
BRANCH  13  15
ATOM     15  C   UNL     1       3.111  -1.220  -0.981  1.00  0.00     0.178 C 
BRANCH  15  16
ATOM     16  S   UNL     1       4.248  -0.424  -2.140  1.00  0.00    -0.078 SA
BRANCH  16  17
ATOM     17  C   UNL     1       3.158   0.509  -3.120  1.00  0.00     0.172 A 
ATOM     18  N   UNL     1       3.254   1.796  -3.146  1.00  0.00    -0.189 NA
ATOM     19  N   UNL     1       2.297  -0.219  -3.876  1.00  0.00    -0.301 N 
ATOM     20  C   UNL     1       2.417   2.439  -4.012  1.00  0.00     0.218 A 
ATOM     21  C   UNL     1       1.456   0.378  -4.765  1.00  0.00     0.255 A 
ATOM     22  H   UNL     1       2.280  -1.199  -3.779  1.00  0.00     0.172 HD
ATOM     23  C   UNL     1       1.535   1.841  -4.816  1.00  0.00     0.139 A 
ATOM     24  O   UNL     1       0.707  -0.256  -5.497  1.00  0.00    -0.269 OA
BRANCH  20  25
ATOM     25  O   UNL     1       2.540   3.803  -4.052  1.00  0.00    -0.493 OA
ATOM     26  H   UNL     1       3.156   4.234  -3.492  1.00  0.00     0.295 HD
ENDBRANCH  20  25
ENDBRANCH  16  17
ENDBRANCH  15  16
ENDBRANCH  13  15
ENDBRANCH   6  11
ENDBRANCH   3   5
ENDBRANCH   2   3
ENDBRANCH   1   2
BRANCH   1  27
ATOM     27  C   UNL     1      -1.582   1.269   6.182  1.00  0.00     0.275 C 
BRANCH  27  28
ATOM     28  O   UNL     1      -1.343   2.652   6.492  1.00  0.00    -0.458 OA
BRANCH  28  29
ATOM     29  C   UNL     1      -0.041   2.997   6.607  1.00  0.00     0.338 C 
ATOM     30  O   UNL     1       0.931   2.263   6.538  1.00  0.00    -0.246 OA
BRANCH  29  31
ATOM     31  C   UNL     1       0.080   4.456   6.710  1.00  0.00     0.060 A 
ATOM     32  C   UNL     1       0.108   5.175   5.522  1.00  0.00     0.016 A 
ATOM     33  C   UNL     1       0.344   5.093   7.916  1.00  0.00     0.016 A 
ATOM     34  C   UNL     1       0.536   6.496   5.502  1.00  0.00     0.010 A 
ATOM     35  C   UNL     1       0.654   6.460   7.910  1.00  0.00     0.010 A 
ATOM     36  C   UNL     1       0.805   7.167   6.700  1.00  0.00    -0.014 A 
BRANCH  36  37
ATOM     37  C   UNL     1       1.276   8.582   6.676  1.00  0.00     0.031 A 
ATOM     38  C   UNL     1       2.572   8.962   7.348  1.00  0.00     0.074 A 
ATOM     39  C   UNL     1       0.551   9.534   6.051  1.00  0.00     0.049 A 
ATOM     40  N   UNL     1       3.069  10.151   7.578  1.00  0.00    -0.248 NA
ATOM     41  C   UNL     1       3.414   7.860   7.843  1.00  0.00     0.031 C 
ATOM     42  C   UNL     1      -0.708   9.309   5.335  1.00  0.00     0.029 A 
ATOM     43  N   UNL     1       0.759  10.887   5.929  1.00  0.00    -0.354 N 
ATOM     44  C   UNL     1       4.232   9.945   8.312  1.00  0.00     0.074 A 
ATOM     45  C   UNL     1       4.371   8.515   8.486  1.00  0.00     0.031 C 
ATOM     46  C   UNL     1      -1.148  10.473   4.836  1.00  0.00     0.029 A 
ATOM     47  C   UNL     1      -0.259  11.541   5.273  1.00  0.00     0.049 A 
ATOM     48  H   UNL     1       1.559  11.344   6.276  1.00  0.00     0.167 HD
ATOM     49  C   UNL     1       5.108  10.860   8.793  1.00  0.00     0.034 A 
ATOM     50  C   UNL     1      -0.489  12.856   5.088  1.00  0.00     0.034 A 
ATOM     51  C   UNL     1       4.998  12.277   8.564  1.00  0.00     0.049 A 
ATOM     52  C   UNL     1       0.489  13.852   5.644  1.00  0.00     0.074 A 
ATOM     53  C   UNL     1       5.859  13.283   8.969  1.00  0.00     0.029 A 
ATOM     54  N   UNL     1       3.967  12.891   7.870  1.00  0.00    -0.354 N 
ATOM     55  N   UNL     1       1.605  13.636   6.295  1.00  0.00    -0.248 NA
ATOM     56  C   UNL     1       0.183  15.272   5.427  1.00  0.00     0.031 C 
ATOM     57  C   UNL     1       5.331  14.507   8.547  1.00  0.00     0.029 A 
ATOM     58  C   UNL     1       4.163  14.262   7.843  1.00  0.00     0.049 A 
ATOM     59  H   UNL     1       3.206  12.422   7.457  1.00  0.00     0.167 HD
ATOM     60  C   UNL     1       2.152  14.890   6.538  1.00  0.00     0.074 A 
ATOM     61  C   UNL     1       1.254  15.859   5.943  1.00  0.00     0.031 C 
ATOM     62  C   UNL     1       3.288  15.211   7.204  1.00  0.00     0.034 A 
BRANCH  49  63
ATOM     63  C   UNL     1       6.269  10.360   9.616  1.00  0.00     0.023 A 
ATOM     64  C   UNL     1       7.319   9.648   9.003  1.00  0.00     0.012 A 
ATOM     65  C   UNL     1       6.340  10.638  10.997  1.00  0.00     0.148 A 
ATOM     66  C   UNL     1       8.399   9.184   9.756  1.00  0.00     0.002 A 
ATOM     67  C   UNL     1       7.443  10.217  11.731  1.00  0.00     0.091 A 
ATOM     68  F   UNL     1       5.325  11.302  11.568  1.00  0.00    -0.205 F 
ATOM     69  C   UNL     1       8.465   9.477  11.115  1.00  0.00     0.022 A 
BRANCH  67  70
ATOM     70  S   UNL     1       7.662  10.616  13.469  1.00  0.00     0.127 S 
ATOM     71  O   UNL     1       7.479   9.308  14.097  1.00  0.00    -0.237 OA
ATOM     72  O   UNL     1       9.036  11.118  13.497  1.00  0.00    -0.237 OA
ATOM     73  O   UNL     1       6.645  11.609  13.786  1.00  0.00    -0.744 OA
ENDBRANCH  67  70
ENDBRANCH  49  63
BRANCH  50  74
ATOM     74  C   UNL     1      -1.701  13.303   4.343  1.00  0.00     0.023 A 
ATOM     75  C   UNL     1      -1.555  13.920   3.086  1.00  0.00     0.012 A 
ATOM     76  C   UNL     1      -2.995  13.096   4.860  1.00  0.00     0.148 A 
ATOM     77  C   UNL     1      -2.675  14.347   2.370  1.00  0.00     0.002 A 
ATOM     78  C   UNL     1      -4.107  13.467   4.115  1.00  0.00     0.091 A 
ATOM     79  F   UNL     1      -3.113  12.522   6.066  1.00  0.00    -0.205 F 
ATOM     80  C   UNL     1      -3.949  14.109   2.877  1.00  0.00     0.022 A 
BRANCH  78  81
ATOM     81  S   UNL     1      -5.785  13.080   4.627  1.00  0.00     0.127 S 
ATOM     82  O   UNL     1      -6.319  14.407   4.925  1.00  0.00    -0.237 OA
ATOM     83  O   UNL     1      -6.330  12.453   3.423  1.00  0.00    -0.237 OA
ATOM     84  O   UNL     1      -5.653  12.182   5.766  1.00  0.00    -0.744 OA
ENDBRANCH  78  81
ENDBRANCH  50  74
BRANCH  62  85
ATOM     85  C   UNL     1       3.660  16.669   7.283  1.00  0.00     0.023 A 
ATOM     86  C   UNL     1       2.923  17.545   8.104  1.00  0.00     0.012 A 
ATOM     87  C   UNL     1       4.785  17.155   6.587  1.00  0.00     0.148 A 
ATOM     88  C   UNL     1       3.278  18.890   8.203  1.00  0.00     0.002 A 
ATOM     89  C   UNL     1       5.165  18.483   6.734  1.00  0.00     0.091 A 
ATOM     90  F   UNL     1       5.462  16.309   5.796  1.00  0.00    -0.205 F 
ATOM     91  C   UNL     1       4.405  19.355   7.529  1.00  0.00     0.022 A 
BRANCH  89  92
ATOM     92  S   UNL     1       6.657  19.145   5.985  1.00  0.00     0.127 S 
ATOM     93  O   UNL     1       6.108  20.023   4.953  1.00  0.00    -0.237 OA
ATOM     94  O   UNL     1       7.284  19.842   7.109  1.00  0.00    -0.237 OA
ATOM     95  O   UNL     1       7.406  17.997   5.492  1.00  0.00    -0.744 OA
ENDBRANCH  89  92
ENDBRANCH  62  85
ENDBRANCH  36  37
ENDBRANCH  29  31
ENDBRANCH  28  29
ENDBRANCH  27  28
ENDBRANCH   1  27
TORSDOF 19
