REMARK SMILES Cc1cc(C)c2c(OCCCC(=O)OCCOC(=O)c3ccc(-c4c5nc(c(-c6cccc(S(=O)(=O)[O-])c6F)c6ccc([nH]6)c(-c6cccc(S(=O)(=O)[O-])c6F)c6nc(c(-c7cccc(S(=O)(=O)[O-])c7F)c7ccc4[nH]7)C=C6)C=C5)cc3)nsc2n1
REMARK SMILES IDX 15 1 14 2 12 3 13 4 11 5 10 6 9 7 8 8 7 9 1 10 2 11 3 12
REMARK SMILES IDX 86 13 4 14 85 15 5 16 6 17 84 18 83 19 16 20 17 21 18 22
REMARK SMILES IDX 19 23 20 24 21 25 82 26 22 27 81 28 23 29 24 30 25 31 75 32
REMARK SMILES IDX 26 33 80 34 74 35 76 36 27 37 79 38 73 39 72 40 28 42 60 43
REMARK SMILES IDX 40 44 59 45 41 46 44 47 58 48 77 49 42 50 43 51 57 53 78 54
REMARK SMILES IDX 45 55 29 56 30 57 38 58 31 59 33 60 39 61 32 62 34 63 35 64
REMARK SMILES IDX 36 65 37 66 61 67 62 68 70 69 63 70 65 71 71 72 64 73 66 74
REMARK SMILES IDX 67 75 68 76 69 77 46 78 47 79 55 80 48 81 50 82 56 83 49 84
REMARK SMILES IDX 51 85 52 86 53 87 54 88
REMARK H PARENT 76 41 44 52
REMARK Flexibility Score: inf
ROOT
ATOM      1  C   UNL     1      -2.479  -0.158  -2.565  1.00  0.00     0.274 C 
ENDROOT
BRANCH   1   2
ATOM      2  O   UNL     1      -1.570   0.621  -3.394  1.00  0.00    -0.462 OA
BRANCH   2   3
ATOM      3  C   UNL     1      -0.267   0.263  -3.448  1.00  0.00     0.306 C 
ATOM      4  O   UNL     1       0.198  -0.670  -2.801  1.00  0.00    -0.252 OA
BRANCH   3   5
ATOM      5  C   UNL     1       0.619   1.195  -4.273  1.00  0.00     0.126 C 
BRANCH   5   6
ATOM      6  C   UNL     1       0.104   1.957  -5.500  1.00  0.00     0.053 C 
BRANCH   6   7
ATOM      7  C   UNL     1      -0.754   3.233  -5.389  1.00  0.00     0.232 C 
BRANCH   7   8
ATOM      8  O   UNL     1      -0.193   4.472  -4.959  1.00  0.00    -0.477 OA
BRANCH   8   9
ATOM      9  C   UNL     1       0.322   4.566  -3.714  1.00  0.00     0.235 A 
ATOM     10  C   UNL     1       0.860   1.040   0.437  1.00  0.00     0.067 C 
ATOM     11  C   UNL     1       0.458   2.233  -0.384  1.00  0.00     0.039 A 
ATOM     12  C   UNL     1      -0.833   2.321  -0.894  1.00  0.00     0.027 A 
ATOM     13  N   UNL     1       1.411   3.140  -0.651  1.00  0.00    -0.240 NA
ATOM     14  C   UNL     1      -1.138   3.192  -1.962  1.00  0.00    -0.034 A 
ATOM     15  C   UNL     1       1.111   3.942  -1.688  1.00  0.00     0.147 A 
ATOM     16  C   UNL     1      -2.540   3.244  -2.508  1.00  0.00     0.045 C 
ATOM     17  C   UNL     1      -0.037   3.916  -2.481  1.00  0.00     0.078 A 
ATOM     18  S   UNL     1       2.166   5.151  -2.250  1.00  0.00    -0.012 S 
ATOM     19  N   UNL     1       1.363   5.400  -3.678  1.00  0.00    -0.153 NA
ENDBRANCH   8   9
ENDBRANCH   7   8
ENDBRANCH   6   7
ENDBRANCH   5   6
ENDBRANCH   3   5
ENDBRANCH   2   3
ENDBRANCH   1   2
BRANCH   1  20
ATOM     20  C   UNL     1      -3.846  -0.275  -3.255  1.00  0.00     0.275 C 
BRANCH  20  21
ATOM     21  O   UNL     1      -3.827  -1.221  -4.313  1.00  0.00    -0.458 OA
BRANCH  21  22
ATOM     22  C   UNL     1      -2.770  -1.040  -5.146  1.00  0.00     0.338 C 
ATOM     23  O   UNL     1      -2.552  -0.069  -5.815  1.00  0.00    -0.246 OA
BRANCH  22  24
ATOM     24  C   UNL     1      -1.960  -2.275  -5.084  1.00  0.00     0.060 A 
ATOM     25  C   UNL     1      -1.137  -2.503  -6.178  1.00  0.00     0.016 A 
ATOM     26  C   UNL     1      -2.299  -3.281  -4.161  1.00  0.00     0.016 A 
ATOM     27  C   UNL     1      -1.026  -3.805  -6.586  1.00  0.00     0.010 A 
ATOM     28  C   UNL     1      -2.188  -4.576  -4.566  1.00  0.00     0.010 A 
ATOM     29  C   UNL     1      -1.703  -4.780  -5.846  1.00  0.00    -0.014 A 
BRANCH  29  30
ATOM     30  C   UNL     1      -1.971  -6.037  -6.485  1.00  0.00     0.031 A 
ATOM     31  C   UNL     1      -0.818  -6.935  -6.421  1.00  0.00     0.074 A 
ATOM     32  C   UNL     1      -3.174  -6.318  -7.018  1.00  0.00     0.049 A 
ATOM     33  N   UNL     1       0.046  -7.145  -7.355  1.00  0.00    -0.248 NA
ATOM     34  C   UNL     1      -0.441  -7.449  -5.098  1.00  0.00     0.031 C 
ATOM     35  C   UNL     1      -4.446  -5.603  -6.858  1.00  0.00     0.029 A 
ATOM     36  N   UNL     1      -3.526  -7.410  -7.737  1.00  0.00    -0.354 N 
ATOM     37  C   UNL     1       0.937  -8.044  -6.792  1.00  0.00     0.074 A 
ATOM     38  C   UNL     1       0.757  -7.967  -5.366  1.00  0.00     0.031 C 
ATOM     39  C   UNL     1      -5.458  -6.415  -7.248  1.00  0.00     0.029 A 
ATOM     40  C   UNL     1      -4.895  -7.630  -7.813  1.00  0.00     0.049 A 
ATOM     41  H   UNL     1      -2.866  -7.999  -8.170  1.00  0.00     0.167 HD
ATOM     42  C   UNL     1       1.508  -9.019  -7.543  1.00  0.00     0.034 A 
ATOM     43  C   UNL     1      -5.473  -8.782  -8.230  1.00  0.00     0.034 A 
ATOM     44  C   UNL     1       1.354  -8.771  -8.953  1.00  0.00     0.049 A 
ATOM     45  C   UNL     1      -4.447  -9.525  -9.005  1.00  0.00     0.074 A 
ATOM     46  C   UNL     1       1.742  -7.766  -9.816  1.00  0.00     0.029 A 
ATOM     47  N   UNL     1       0.339  -9.451  -9.584  1.00  0.00    -0.354 N 
ATOM     48  N   UNL     1      -3.982  -9.129 -10.155  1.00  0.00    -0.248 NA
ATOM     49  C   UNL     1      -3.629 -10.500  -8.302  1.00  0.00     0.031 C 
ATOM     50  C   UNL     1       0.667  -7.631 -10.743  1.00  0.00     0.029 A 
ATOM     51  C   UNL     1      -0.303  -8.587 -10.431  1.00  0.00     0.049 A 
ATOM     52  H   UNL     1       0.112 -10.400  -9.449  1.00  0.00     0.167 HD
ATOM     53  C   UNL     1      -2.630  -9.442 -10.109  1.00  0.00     0.074 A 
ATOM     54  C   UNL     1      -2.500 -10.395  -9.009  1.00  0.00     0.031 C 
ATOM     55  C   UNL     1      -1.711  -8.676 -10.769  1.00  0.00     0.034 A 
BRANCH  42  56
ATOM     56  C   UNL     1       1.862 -10.372  -6.994  1.00  0.00     0.023 A 
ATOM     57  C   UNL     1       2.718 -11.184  -7.760  1.00  0.00     0.012 A 
ATOM     58  C   UNL     1       1.229 -10.971  -5.879  1.00  0.00     0.148 A 
ATOM     59  C   UNL     1       2.935 -12.524  -7.427  1.00  0.00     0.002 A 
ATOM     60  C   UNL     1       1.533 -12.266  -5.488  1.00  0.00     0.091 A 
ATOM     61  F   UNL     1       0.215 -10.351  -5.267  1.00  0.00    -0.205 F 
ATOM     62  C   UNL     1       2.365 -13.059  -6.277  1.00  0.00     0.022 A 
BRANCH  60  63
ATOM     63  S   UNL     1       0.886 -12.951  -3.960  1.00  0.00     0.127 S 
ATOM     64  O   UNL     1      -0.160 -13.840  -4.455  1.00  0.00    -0.237 OA
ATOM     65  O   UNL     1       2.064 -13.622  -3.409  1.00  0.00    -0.237 OA
ATOM     66  O   UNL     1       0.442 -11.801  -3.181  1.00  0.00    -0.744 OA
ENDBRANCH  60  63
ENDBRANCH  42  56
BRANCH  43  67
ATOM     67  C   UNL     1      -6.703  -9.466  -7.768  1.00  0.00     0.023 A 
ATOM     68  C   UNL     1      -7.251 -10.485  -8.575  1.00  0.00     0.012 A 
ATOM     69  C   UNL     1      -7.118  -9.383  -6.421  1.00  0.00     0.148 A 
ATOM     70  C   UNL     1      -8.126 -11.436  -8.042  1.00  0.00     0.002 A 
ATOM     71  C   UNL     1      -7.987 -10.335  -5.895  1.00  0.00     0.091 A 
ATOM     72  F   UNL     1      -6.581  -8.441  -5.636  1.00  0.00    -0.205 F 
ATOM     73  C   UNL     1      -8.480 -11.373  -6.698  1.00  0.00     0.022 A 
BRANCH  71  74
ATOM     74  S   UNL     1      -8.448 -10.355  -4.157  1.00  0.00     0.127 S 
ATOM     75  O   UNL     1      -9.896 -10.555  -4.228  1.00  0.00    -0.237 OA
ATOM     76  O   UNL     1      -7.695 -11.503  -3.661  1.00  0.00    -0.237 OA
ATOM     77  O   UNL     1      -8.049  -9.057  -3.627  1.00  0.00    -0.744 OA
ENDBRANCH  71  74
ENDBRANCH  43  67
BRANCH  55  78
ATOM     78  C   UNL     1      -2.233  -7.661 -11.761  1.00  0.00     0.023 A 
ATOM     79  C   UNL     1      -3.053  -6.577 -11.378  1.00  0.00     0.012 A 
ATOM     80  C   UNL     1      -1.766  -7.717 -13.084  1.00  0.00     0.148 A 
ATOM     81  C   UNL     1      -3.420  -5.591 -12.299  1.00  0.00     0.002 A 
ATOM     82  C   UNL     1      -2.090  -6.708 -13.984  1.00  0.00     0.091 A 
ATOM     83  F   UNL     1      -0.989  -8.752 -13.439  1.00  0.00    -0.205 F 
ATOM     84  C   UNL     1      -2.927  -5.649 -13.600  1.00  0.00     0.022 A 
BRANCH  82  85
ATOM     85  S   UNL     1      -1.376  -6.662 -15.629  1.00  0.00     0.127 S 
ATOM     86  O   UNL     1      -2.474  -7.157 -16.455  1.00  0.00    -0.237 OA
ATOM     87  O   UNL     1      -1.073  -5.240 -15.804  1.00  0.00    -0.237 OA
ATOM     88  O   UNL     1      -0.194  -7.515 -15.572  1.00  0.00    -0.744 OA
ENDBRANCH  82  85
ENDBRANCH  55  78
ENDBRANCH  29  30
ENDBRANCH  22  24
ENDBRANCH  21  22
ENDBRANCH  20  21
ENDBRANCH   1  20
TORSDOF 18
