REMARK SMILES C[C@@H](Nc1cccc(C(=O)OCCOC(=O)c2ccc(-c3c4nc(c(-c5cccc(S(=O)(=O)[O-])c5F)c5ccc([nH]5)c(-c5cccc(S(=O)(=O)[O-])c5F)c5nc(c(-c6cccc(S(=O)(=O)[O-])c6F)c6ccc3[nH]6)C=C5)C=C4)cc2)c1)C1CC[NH+](C)CC1
REMARK SMILES IDX 12 1 11 2 9 3 10 4 8 5 4 6 5 7 80 8 6 9 7 10 3 11 2 13 1 14
REMARK SMILES IDX 81 15 82 16 87 17 83 18 86 19 84 20 85 21 13 23 14 24 15 25
REMARK SMILES IDX 16 26 17 27 18 28 79 29 19 30 78 31 20 32 21 33 22 34 72 35
REMARK SMILES IDX 23 36 77 37 71 38 73 39 24 40 76 41 70 42 69 43 25 45 57 46
REMARK SMILES IDX 37 47 56 48 38 49 41 50 55 51 74 52 39 53 40 54 54 56 75 57
REMARK SMILES IDX 42 58 26 59 27 60 35 61 28 62 30 63 36 64 29 65 31 66 32 67
REMARK SMILES IDX 33 68 34 69 58 70 59 71 67 72 60 73 62 74 68 75 61 76 63 77
REMARK SMILES IDX 64 78 65 79 66 80 43 81 44 82 52 83 45 84 47 85 53 86 46 87
REMARK SMILES IDX 48 88 49 89 50 90 51 91
REMARK H PARENT 3 12 84 22 73 44 41 55
REMARK Flexibility Score: inf
ROOT
ATOM      1  C   UNL     1      -3.348  -6.086  -0.909  1.00  0.00     0.275 C 
ENDROOT
BRANCH   1   2
ATOM      2  O   UNL     1      -1.966  -6.039  -0.477  1.00  0.00    -0.458 OA
BRANCH   2   3
ATOM      3  C   UNL     1      -1.832  -5.659   0.812  1.00  0.00     0.338 C 
ATOM      4  O   UNL     1      -2.764  -5.374   1.553  1.00  0.00    -0.246 OA
BRANCH   3   5
ATOM      5  C   UNL     1      -0.453  -5.375   1.266  1.00  0.00     0.062 A 
ATOM      6  C   UNL     1       0.930  -3.405   1.327  1.00  0.00     0.035 A 
ATOM      7  C   UNL     1       1.239  -3.721   2.668  1.00  0.00     0.026 A 
ATOM      8  C   UNL     1       0.232  -4.353   0.584  1.00  0.00     0.041 A 
ATOM      9  C   UNL     1       0.716  -4.846   3.305  1.00  0.00     0.003 A 
ATOM     10  C   UNL     1      -0.190  -5.640   2.618  1.00  0.00     0.016 A 
BRANCH   6  11
ATOM     11  N   UNL     1       1.139  -2.100   0.926  1.00  0.00    -0.382 N 
ATOM     12  H   UNL     1       1.583  -1.545   1.608  1.00  0.00     0.160 HD
BRANCH  11  13
ATOM     13  C   UNL     1       0.831  -1.376  -0.309  1.00  0.00     0.079 C 
ATOM     14  C   UNL     1       1.769  -0.144  -0.278  1.00  0.00     0.031 C 
BRANCH  13  15
ATOM     15  C   UNL     1      -0.628  -0.850  -0.567  1.00  0.00     0.022 C 
ATOM     16  C   UNL     1      -1.194   0.199   0.401  1.00  0.00     0.067 C 
ATOM     17  C   UNL     1      -1.743  -1.873  -0.790  1.00  0.00     0.067 C 
ATOM     18  C   UNL     1      -1.583  -0.411   1.737  1.00  0.00     0.262 C 
ATOM     19  C   UNL     1      -2.361  -2.393   0.503  1.00  0.00     0.262 C 
ATOM     20  N   UNL     1      -2.596  -1.462   1.608  1.00  0.00    -0.337 N 
ATOM     21  C   UNL     1      -2.611  -2.245   2.865  1.00  0.00     0.332 C 
ATOM     22  H   UNL     1      -3.480  -0.991   1.417  1.00  0.00     0.347 HD
ENDBRANCH  13  15
ENDBRANCH  11  13
ENDBRANCH   6  11
ENDBRANCH   3   5
ENDBRANCH   2   3
ENDBRANCH   1   2
BRANCH   1  23
ATOM     23  C   UNL     1      -3.982  -7.464  -0.700  1.00  0.00     0.275 C 
BRANCH  23  24
ATOM     24  O   UNL     1      -4.188  -7.738   0.698  1.00  0.00    -0.458 OA
BRANCH  24  25
ATOM     25  C   UNL     1      -3.243  -8.520   1.272  1.00  0.00     0.338 C 
ATOM     26  O   UNL     1      -2.314  -9.070   0.707  1.00  0.00    -0.246 OA
BRANCH  25  27
ATOM     27  C   UNL     1      -3.415  -8.590   2.738  1.00  0.00     0.060 A 
ATOM     28  C   UNL     1      -3.540  -7.428   3.494  1.00  0.00     0.016 A 
ATOM     29  C   UNL     1      -3.236  -9.813   3.379  1.00  0.00     0.016 A 
ATOM     30  C   UNL     1      -3.296  -7.457   4.862  1.00  0.00     0.010 A 
ATOM     31  C   UNL     1      -3.174  -9.858   4.775  1.00  0.00     0.010 A 
ATOM     32  C   UNL     1      -3.146  -8.674   5.534  1.00  0.00    -0.014 A 
BRANCH  32  33
ATOM     33  C   UNL     1      -2.956  -8.720   7.012  1.00  0.00     0.031 A 
ATOM     34  C   UNL     1      -1.837  -9.543   7.600  1.00  0.00     0.074 A 
ATOM     35  C   UNL     1      -3.805  -8.066   7.832  1.00  0.00     0.049 A 
ATOM     36  N   UNL     1      -1.675  -9.961   8.828  1.00  0.00    -0.248 NA
ATOM     37  C   UNL     1      -0.775  -9.980   6.677  1.00  0.00     0.031 C 
ATOM     38  C   UNL     1      -4.910  -7.202   7.407  1.00  0.00     0.029 A 
ATOM     39  N   UNL     1      -3.889  -8.046   9.204  1.00  0.00    -0.354 N 
ATOM     40  C   UNL     1      -0.561 -10.794   8.804  1.00  0.00     0.074 A 
ATOM     41  C   UNL     1      -0.073 -10.804   7.442  1.00  0.00     0.031 C 
ATOM     42  C   UNL     1      -5.541  -6.718   8.484  1.00  0.00     0.029 A 
ATOM     43  C   UNL     1      -4.975  -7.339   9.671  1.00  0.00     0.049 A 
ATOM     44  H   UNL     1      -3.239  -8.492   9.793  1.00  0.00     0.167 HD
ATOM     45  C   UNL     1      -0.005 -11.489   9.825  1.00  0.00     0.034 A 
ATOM     46  C   UNL     1      -5.515  -7.258  10.902  1.00  0.00     0.034 A 
ATOM     47  C   UNL     1      -0.460 -11.404  11.188  1.00  0.00     0.049 A 
ATOM     48  C   UNL     1      -4.884  -8.041  12.015  1.00  0.00     0.074 A 
ATOM     49  C   UNL     1       0.058 -12.027  12.309  1.00  0.00     0.029 A 
ATOM     50  N   UNL     1      -1.536 -10.640  11.616  1.00  0.00    -0.354 N 
ATOM     51  N   UNL     1      -3.829  -8.818  11.981  1.00  0.00    -0.248 NA
ATOM     52  C   UNL     1      -5.513  -7.932  13.337  1.00  0.00     0.031 C 
ATOM     53  C   UNL     1      -0.723 -11.662  13.411  1.00  0.00     0.029 A 
ATOM     54  C   UNL     1      -1.702 -10.779  12.983  1.00  0.00     0.049 A 
ATOM     55  H   UNL     1      -2.099 -10.082  11.033  1.00  0.00     0.167 HD
ATOM     56  C   UNL     1      -3.648  -9.268  13.281  1.00  0.00     0.074 A 
ATOM     57  C   UNL     1      -4.691  -8.657  14.082  1.00  0.00     0.031 C 
ATOM     58  C   UNL     1      -2.715 -10.122  13.768  1.00  0.00     0.034 A 
BRANCH  45  59
ATOM     59  C   UNL     1       1.151 -12.407   9.513  1.00  0.00     0.023 A 
ATOM     60  C   UNL     1       2.411 -11.877   9.171  1.00  0.00     0.012 A 
ATOM     61  C   UNL     1       0.998 -13.806   9.612  1.00  0.00     0.148 A 
ATOM     62  C   UNL     1       3.487 -12.722   8.893  1.00  0.00     0.002 A 
ATOM     63  C   UNL     1       2.086 -14.639   9.384  1.00  0.00     0.091 A 
ATOM     64  F   UNL     1      -0.211 -14.295   9.922  1.00  0.00    -0.205 F 
ATOM     65  C   UNL     1       3.327 -14.100   9.010  1.00  0.00     0.022 A 
BRANCH  63  66
ATOM     66  S   UNL     1       2.005 -16.422   9.592  1.00  0.00     0.127 S 
ATOM     67  O   UNL     1       2.135 -16.887   8.212  1.00  0.00    -0.237 OA
ATOM     68  O   UNL     1       3.171 -16.686  10.436  1.00  0.00    -0.237 OA
ATOM     69  O   UNL     1       0.723 -16.697  10.224  1.00  0.00    -0.744 OA
ENDBRANCH  63  66
ENDBRANCH  45  59
BRANCH  46  70
ATOM     70  C   UNL     1      -6.730  -6.425  11.130  1.00  0.00     0.023 A 
ATOM     71  C   UNL     1      -6.634  -5.262  11.918  1.00  0.00     0.012 A 
ATOM     72  C   UNL     1      -7.967  -6.751  10.537  1.00  0.00     0.148 A 
ATOM     73  C   UNL     1      -7.752  -4.455  12.133  1.00  0.00     0.002 A 
ATOM     74  C   UNL     1      -9.059  -5.907  10.700  1.00  0.00     0.091 A 
ATOM     75  F   UNL     1      -8.044  -7.870   9.803  1.00  0.00    -0.205 F 
ATOM     76  C   UNL     1      -8.959  -4.769  11.513  1.00  0.00     0.022 A 
BRANCH  74  77
ATOM     77  S   UNL     1     -10.606  -6.154   9.822  1.00  0.00     0.127 S 
ATOM     78  O   UNL     1     -11.504  -6.551  10.904  1.00  0.00    -0.237 OA
ATOM     79  O   UNL     1     -10.856  -4.822   9.270  1.00  0.00    -0.237 OA
ATOM     80  O   UNL     1     -10.332  -7.176   8.820  1.00  0.00    -0.744 OA
ENDBRANCH  74  77
ENDBRANCH  46  70
BRANCH  58  81
ATOM     81  C   UNL     1      -2.740 -10.398  15.247  1.00  0.00     0.023 A 
ATOM     82  C   UNL     1      -3.759 -11.197  15.801  1.00  0.00     0.012 A 
ATOM     83  C   UNL     1      -1.712  -9.909  16.076  1.00  0.00     0.148 A 
ATOM     84  C   UNL     1      -3.775 -11.474  17.167  1.00  0.00     0.002 A 
ATOM     85  C   UNL     1      -1.703 -10.235  17.425  1.00  0.00     0.091 A 
ATOM     86  F   UNL     1      -0.763  -9.134  15.530  1.00  0.00    -0.205 F 
ATOM     87  C   UNL     1      -2.741 -11.004  17.976  1.00  0.00     0.022 A 
BRANCH  85  88
ATOM     88  S   UNL     1      -0.362  -9.760  18.520  1.00  0.00     0.127 S 
ATOM     89  O   UNL     1      -1.009  -8.757  19.365  1.00  0.00    -0.237 OA
ATOM     90  O   UNL     1      -0.055 -11.021  19.196  1.00  0.00    -0.237 OA
ATOM     91  O   UNL     1       0.702  -9.258  17.662  1.00  0.00    -0.744 OA
ENDBRANCH  85  88
ENDBRANCH  58  81
ENDBRANCH  32  33
ENDBRANCH  25  27
ENDBRANCH  24  25
ENDBRANCH  23  24
ENDBRANCH   1  23
TORSDOF 17
