REMARK SMILES CC(C)c1nc(N(C)C[C@@H]2CC[N@@H+](C)C2)sc1C(=O)OCCOC(=O)c1ccc(-c2c3nc(c(-c4cccc(S(=O)(=O)[O-])c4F)c4ccc([nH]4)c(-c4cccc(S(=O)(=O)[O-])c4F)c4nc(c(-c5cccc(S(=O)(=O)[O-])c5F)c5ccc2[nH]5)C=C4)C=C3)cc1
REMARK SMILES IDX 21 1 20 2 18 3 19 4 17 5 4 6 5 7 6 8 16 9 2 10 1 11 3 12
REMARK SMILES IDX 7 13 8 14 9 15 10 16 11 17 15 18 12 19 13 20 14 21 22 23
REMARK SMILES IDX 23 24 24 25 25 26 26 27 27 28 88 29 28 30 87 31 29 32 30 33
REMARK SMILES IDX 31 34 81 35 32 36 86 37 80 38 82 39 33 40 85 41 79 42 78 43
REMARK SMILES IDX 34 45 66 46 46 47 65 48 47 49 50 50 64 51 83 52 48 53 49 54
REMARK SMILES IDX 63 56 84 57 51 58 35 59 36 60 44 61 37 62 39 63 45 64 38 65
REMARK SMILES IDX 40 66 41 67 42 68 43 69 67 70 68 71 76 72 69 73 71 74 77 75
REMARK SMILES IDX 70 76 72 77 73 78 74 79 75 80 52 81 53 82 61 83 54 84 56 85
REMARK SMILES IDX 62 86 55 87 57 88 58 89 59 90 60 91
REMARK H PARENT 13 22 82 44 50 55
REMARK Flexibility Score: inf
ROOT
ATOM      1  C   UNL     1       0.296   3.614  -1.180  1.00  0.00     0.275 C 
ENDROOT
BRANCH   1   2
ATOM      2  O   UNL     1      -0.125   2.235  -1.194  1.00  0.00    -0.458 OA
BRANCH   2   3
ATOM      3  C   UNL     1      -1.205   1.917  -0.418  1.00  0.00     0.350 C 
ATOM      4  O   UNL     1      -1.804   2.728   0.274  1.00  0.00    -0.245 OA
BRANCH   3   5
ATOM      5  C   UNL     1      -1.561   0.523  -0.584  1.00  0.00     0.137 A 
ATOM      6  C   UNL     1      -0.842  -0.593  -0.984  1.00  0.00     0.071 A 
ATOM      7  N   UNL     1      -1.619  -1.739  -1.153  1.00  0.00    -0.224 NA
ATOM      8  C   UNL     1      -2.897  -1.499  -0.949  1.00  0.00     0.186 A 
ATOM      9  S   UNL     1      -3.159   0.030  -0.190  1.00  0.00    -0.089 S 
BRANCH   6  10
ATOM     10  C   UNL     1       0.643  -0.688  -1.239  1.00  0.00     0.034 C 
ATOM     11  C   UNL     1       1.434  -0.463   0.055  1.00  0.00     0.014 C 
ATOM     12  C   UNL     1       1.059  -2.028  -1.856  1.00  0.00     0.014 C 
ENDBRANCH   6  10
BRANCH   8  13
ATOM     13  N   UNL     1      -3.904  -2.362  -1.268  1.00  0.00    -0.351 N 
ATOM     14  C   UNL     1      -5.305  -1.964  -1.227  1.00  0.00     0.146 C 
BRANCH  13  15
ATOM     15  C   UNL     1      -3.619  -3.777  -1.503  1.00  0.00     0.128 C 
BRANCH  15  16
ATOM     16  C   UNL     1      -2.868  -4.061  -2.812  1.00  0.00     0.069 C 
ATOM     17  C   UNL     1      -3.563  -3.503  -4.063  1.00  0.00     0.072 C 
ATOM     18  C   UNL     1      -2.783  -5.572  -3.068  1.00  0.00     0.267 C 
ATOM     19  C   UNL     1      -3.729  -4.697  -4.991  1.00  0.00     0.262 C 
ATOM     20  N   UNL     1      -3.840  -5.813  -4.052  1.00  0.00    -0.337 N 
ATOM     21  C   UNL     1      -3.721  -7.106  -4.707  1.00  0.00     0.332 C 
ATOM     22  H   UNL     1      -4.759  -5.854  -3.612  1.00  0.00     0.347 HD
ENDBRANCH  15  16
ENDBRANCH  13  15
ENDBRANCH   8  13
ENDBRANCH   3   5
ENDBRANCH   2   3
ENDBRANCH   1   2
BRANCH   1  23
ATOM     23  C   UNL     1      -0.062   4.331  -2.485  1.00  0.00     0.275 C 
BRANCH  23  24
ATOM     24  O   UNL     1      -1.484   4.505  -2.611  1.00  0.00    -0.458 OA
BRANCH  24  25
ATOM     25  C   UNL     1      -2.106   3.599  -3.401  1.00  0.00     0.338 C 
ATOM     26  O   UNL     1      -1.586   2.698  -4.039  1.00  0.00    -0.246 OA
BRANCH  25  27
ATOM     27  C   UNL     1      -3.562   3.738  -3.249  1.00  0.00     0.060 A 
ATOM     28  C   UNL     1      -4.218   2.738  -2.535  1.00  0.00     0.016 A 
ATOM     29  C   UNL     1      -4.285   4.768  -3.848  1.00  0.00     0.016 A 
ATOM     30  C   UNL     1      -5.602   2.749  -2.409  1.00  0.00     0.010 A 
ATOM     31  C   UNL     1      -5.681   4.783  -3.719  1.00  0.00     0.010 A 
ATOM     32  C   UNL     1      -6.350   3.767  -3.009  1.00  0.00    -0.014 A 
BRANCH  32  33
ATOM     33  C   UNL     1      -7.832   3.719  -2.940  1.00  0.00     0.031 A 
ATOM     34  C   UNL     1      -8.629   3.413  -4.177  1.00  0.00     0.074 A 
ATOM     35  C   UNL     1      -8.460   3.926  -1.766  1.00  0.00     0.049 A 
ATOM     36  N   UNL     1      -9.926   3.398  -4.341  1.00  0.00    -0.248 NA
ATOM     37  C   UNL     1      -7.866   3.080  -5.391  1.00  0.00     0.031 C 
ATOM     38  C   UNL     1      -7.797   4.203  -0.491  1.00  0.00     0.029 A 
ATOM     39  N   UNL     1      -9.798   3.947  -1.458  1.00  0.00    -0.354 N 
ATOM     40  C   UNL     1     -10.136   3.113  -5.685  1.00  0.00     0.074 A 
ATOM     41  C   UNL     1      -8.831   2.952  -6.291  1.00  0.00     0.031 C 
ATOM     42  C   UNL     1      -8.729   4.373   0.460  1.00  0.00     0.029 A 
ATOM     43  C   UNL     1     -10.054   4.264  -0.144  1.00  0.00     0.049 A 
ATOM     44  H   UNL     1     -10.506   3.753  -2.114  1.00  0.00     0.167 HD
ATOM     45  C   UNL     1     -11.308   2.987  -6.351  1.00  0.00     0.034 A 
ATOM     46  C   UNL     1     -11.223   4.471   0.495  1.00  0.00     0.034 A 
ATOM     47  C   UNL     1     -12.603   3.094  -5.734  1.00  0.00     0.049 A 
ATOM     48  C   UNL     1     -12.510   4.328  -0.272  1.00  0.00     0.074 A 
ATOM     49  C   UNL     1     -13.848   2.939  -6.317  1.00  0.00     0.029 A 
ATOM     50  N   UNL     1     -12.821   3.378  -4.395  1.00  0.00    -0.354 N 
ATOM     51  N   UNL     1     -12.692   3.983  -1.524  1.00  0.00    -0.248 NA
ATOM     52  C   UNL     1     -13.756   4.584   0.466  1.00  0.00     0.031 C 
ATOM     53  C   UNL     1     -14.821   3.145  -5.332  1.00  0.00     0.029 A 
ATOM     54  C   UNL     1     -14.180   3.410  -4.133  1.00  0.00     0.049 A 
ATOM     55  H   UNL     1     -12.114   3.535  -3.728  1.00  0.00     0.167 HD
ATOM     56  C   UNL     1     -14.068   3.954  -1.716  1.00  0.00     0.074 A 
ATOM     57  C   UNL     1     -14.675   4.292  -0.445  1.00  0.00     0.031 C 
ATOM     58  C   UNL     1     -14.768   3.691  -2.848  1.00  0.00     0.034 A 
BRANCH  45  59
ATOM     59  C   UNL     1     -11.248   2.701  -7.828  1.00  0.00     0.023 A 
ATOM     60  C   UNL     1     -10.903   1.411  -8.277  1.00  0.00     0.012 A 
ATOM     61  C   UNL     1     -11.589   3.693  -8.768  1.00  0.00     0.148 A 
ATOM     62  C   UNL     1     -10.872   1.120  -9.641  1.00  0.00     0.002 A 
ATOM     63  C   UNL     1     -11.594   3.385 -10.123  1.00  0.00     0.091 A 
ATOM     64  F   UNL     1     -11.890   4.921  -8.321  1.00  0.00    -0.205 F 
ATOM     65  C   UNL     1     -11.227   2.103 -10.562  1.00  0.00     0.022 A 
BRANCH  63  66
ATOM     66  S   UNL     1     -12.106   4.563 -11.380  1.00  0.00     0.127 S 
ATOM     67  O   UNL     1     -10.828   4.903 -12.003  1.00  0.00    -0.237 OA
ATOM     68  O   UNL     1     -12.996   3.756 -12.216  1.00  0.00    -0.237 OA
ATOM     69  O   UNL     1     -12.765   5.648 -10.667  1.00  0.00    -0.744 OA
ENDBRANCH  63  66
ENDBRANCH  45  59
BRANCH  46  70
ATOM     70  C   UNL     1     -11.229   4.813   1.946  1.00  0.00     0.023 A 
ATOM     71  C   UNL     1     -11.733   3.882   2.875  1.00  0.00     0.012 A 
ATOM     72  C   UNL     1     -10.719   6.040   2.413  1.00  0.00     0.148 A 
ATOM     73  C   UNL     1     -11.749   4.176   4.240  1.00  0.00     0.002 A 
ATOM     74  C   UNL     1     -10.685   6.303   3.778  1.00  0.00     0.091 A 
ATOM     75  F   UNL     1     -10.268   6.925   1.513  1.00  0.00    -0.205 F 
ATOM     76  C   UNL     1     -11.214   5.379   4.692  1.00  0.00     0.022 A 
BRANCH  74  77
ATOM     77  S   UNL     1      -9.893   7.768   4.450  1.00  0.00     0.127 S 
ATOM     78  O   UNL     1     -11.043   8.586   4.824  1.00  0.00    -0.237 OA
ATOM     79  O   UNL     1      -9.136   7.218   5.576  1.00  0.00    -0.237 OA
ATOM     80  O   UNL     1      -9.063   8.290   3.372  1.00  0.00    -0.744 OA
ENDBRANCH  74  77
ENDBRANCH  46  70
BRANCH  58  81
ATOM     81  C   UNL     1     -16.271   3.728  -2.763  1.00  0.00     0.023 A 
ATOM     82  C   UNL     1     -16.933   4.968  -2.674  1.00  0.00     0.012 A 
ATOM     83  C   UNL     1     -17.027   2.543  -2.849  1.00  0.00     0.148 A 
ATOM     84  C   UNL     1     -18.326   5.026  -2.644  1.00  0.00     0.002 A 
ATOM     85  C   UNL     1     -18.415   2.612  -2.864  1.00  0.00     0.091 A 
ATOM     86  F   UNL     1     -16.377   1.372  -2.913  1.00  0.00    -0.205 F 
ATOM     87  C   UNL     1     -19.066   3.851  -2.751  1.00  0.00     0.022 A 
BRANCH  85  88
ATOM     88  S   UNL     1     -19.445   1.157  -3.092  1.00  0.00     0.127 S 
ATOM     89  O   UNL     1     -19.954   0.937  -1.740  1.00  0.00    -0.237 OA
ATOM     90  O   UNL     1     -20.445   1.629  -4.051  1.00  0.00    -0.237 OA
ATOM     91  O   UNL     1     -18.561   0.120  -3.607  1.00  0.00    -0.744 OA
ENDBRANCH  85  88
ENDBRANCH  58  81
ENDBRANCH  32  33
ENDBRANCH  25  27
ENDBRANCH  24  25
ENDBRANCH  23  24
ENDBRANCH   1  23
TORSDOF 18
