REMARK SMILES O=C(N/N=C/c1ccccc1O)C(=O)Nc1cccc(C(=O)OCCOC(=O)c2ccc(-c3c4nc(c(-c5cccc(S(=O)(=O)[O-])c5F)c5ccc([nH]5)c(-c5cccc(S(=O)(=O)[O-])c5F)c5nc(c(-c6cccc(S(=O)(=O)[O-])c6F)c6ccc3[nH]6)C=C5)C=C4)cc2)c1
REMARK SMILES IDX 24 1 23 2 21 3 22 4 20 5 16 6 17 7 92 8 18 9 19 10 15 11
REMARK SMILES IDX 13 12 14 13 2 15 1 16 3 17 4 19 5 20 6 21 7 22 11 23 8 24
REMARK SMILES IDX 10 25 9 26 12 27 25 29 26 30 27 31 28 32 29 33 30 34 91 35
REMARK SMILES IDX 31 36 90 37 32 38 33 39 34 40 84 41 35 42 89 43 83 44 85 45
REMARK SMILES IDX 36 46 88 47 82 48 81 49 37 51 69 52 49 53 68 54 50 55 53 56
REMARK SMILES IDX 67 57 86 58 51 59 52 60 66 62 87 63 54 64 38 65 39 66 47 67
REMARK SMILES IDX 40 68 42 69 48 70 41 71 43 72 44 73 45 74 46 75 70 76 71 77
REMARK SMILES IDX 79 78 72 79 74 80 80 81 73 82 75 83 76 84 77 85 78 86 55 87
REMARK SMILES IDX 56 88 64 89 57 90 59 91 65 92 58 93 60 94 61 95 62 96 63 97
REMARK H PARENT 15 14 3 18 12 28 85 50 53 61
REMARK Flexibility Score: inf
ROOT
ATOM      1  C   UNL     1       3.688   4.987  -1.724  1.00  0.00     0.275 C 
ENDROOT
BRANCH   1   2
ATOM      2  O   UNL     1       4.189   3.763  -1.163  1.00  0.00    -0.458 OA
BRANCH   2   3
ATOM      3  C   UNL     1       4.591   2.837  -2.065  1.00  0.00     0.338 C 
ATOM      4  O   UNL     1       4.558   2.933  -3.281  1.00  0.00    -0.246 OA
BRANCH   3   5
ATOM      5  C   UNL     1       5.121   1.632  -1.388  1.00  0.00     0.062 A 
ATOM      6  C   UNL     1       4.801  -0.420   0.994  1.00  0.00     0.042 A 
ATOM      7  C   UNL     1       5.485  -1.747  -0.045  1.00  0.00     0.026 A 
ATOM      8  C   UNL     1       4.658   1.272   0.364  1.00  0.00     0.041 A 
ATOM      9  C   UNL     1       6.065  -1.356  -1.748  1.00  0.00     0.003 A 
ATOM     10  C   UNL     1       5.857   0.319  -2.410  1.00  0.00     0.016 A 
BRANCH   6  11
ATOM     11  N   UNL     1       3.815  -0.884   1.871  1.00  0.00    -0.318 N 
ATOM     12  C   UNL     1       2.462  -1.034   1.575  1.00  0.00     0.315 C 
ATOM     13  O   UNL     1       1.812  -1.782   2.313  1.00  0.00    -0.263 OA
ATOM     14  H   UNL     1       4.103  -1.126   2.781  1.00  0.00     0.170 HD
BRANCH  12  15
ATOM     15  C   UNL     1       1.695  -0.386   0.396  1.00  0.00     0.329 C 
ATOM     16  O   UNL     1       0.546   0.012   0.596  1.00  0.00    -0.262 OA
ATOM     17  N   UNL     1       2.201  -0.410  -0.908  1.00  0.00    -0.239 N 
ATOM     18  H   UNL     1       1.791  -0.958  -1.615  1.00  0.00     0.194 HD
BRANCH  17  19
ATOM     19  N   UNL     1       3.298   0.370  -1.142  1.00  0.00    -0.180 NA
ATOM     20  C   UNL     1       4.516  -0.259  -0.989  1.00  0.00     0.145 C 
BRANCH  20  21
ATOM     21  C   UNL     1       6.469   0.261  -0.312  1.00  0.00     0.036 A 
ATOM     22  C   UNL     1       7.596  -0.676   0.149  1.00  0.00     0.013 A 
ATOM     23  C   UNL     1       7.243   1.597  -0.187  1.00  0.00     0.124 A 
ATOM     24  C   UNL     1       8.989  -0.457   0.357  1.00  0.00     0.001 A 
ATOM     25  C   UNL     1       8.664   1.806  -0.081  1.00  0.00     0.047 A 
ATOM     26  C   UNL     1       9.538   0.774   0.149  1.00  0.00     0.004 A 
BRANCH  23  27
ATOM     27  O   UNL     1       6.622   2.844  -0.039  1.00  0.00    -0.507 OA
ATOM     28  H   UNL     1       5.688   2.910  -0.080  1.00  0.00     0.293 HD
ENDBRANCH  23  27
ENDBRANCH  20  21
ENDBRANCH  17  19
ENDBRANCH  12  15
ENDBRANCH   6  11
ENDBRANCH   3   5
ENDBRANCH   2   3
ENDBRANCH   1   2
BRANCH   1  29
ATOM     29  C   UNL     1       4.769   6.068  -1.782  1.00  0.00     0.275 C 
BRANCH  29  30
ATOM     30  O   UNL     1       5.852   5.684  -2.647  1.00  0.00    -0.458 OA
BRANCH  30  31
ATOM     31  C   UNL     1       7.017   5.369  -2.039  1.00  0.00     0.338 C 
ATOM     32  O   UNL     1       7.285   5.408  -0.847  1.00  0.00    -0.246 OA
BRANCH  31  33
ATOM     33  C   UNL     1       7.960   4.818  -3.018  1.00  0.00     0.060 A 
ATOM     34  C   UNL     1       7.831   3.475  -3.367  1.00  0.00     0.016 A 
ATOM     35  C   UNL     1       9.058   5.557  -3.449  1.00  0.00     0.016 A 
ATOM     36  C   UNL     1       8.811   2.844  -4.120  1.00  0.00     0.010 A 
ATOM     37  C   UNL     1      10.017   4.938  -4.258  1.00  0.00     0.010 A 
ATOM     38  C   UNL     1       9.910   3.572  -4.582  1.00  0.00    -0.014 A 
BRANCH  38  39
ATOM     39  C   UNL     1      10.961   2.896  -5.380  1.00  0.00     0.031 A 
ATOM     40  C   UNL     1      12.359   2.794  -4.842  1.00  0.00     0.074 A 
ATOM     41  C   UNL     1      10.660   2.392  -6.592  1.00  0.00     0.049 A 
ATOM     42  N   UNL     1      13.449   2.410  -5.449  1.00  0.00    -0.248 NA
ATOM     43  C   UNL     1      12.558   3.187  -3.437  1.00  0.00     0.031 C 
ATOM     44  C   UNL     1       9.331   2.403  -7.207  1.00  0.00     0.029 A 
ATOM     45  N   UNL     1      11.459   1.794  -7.534  1.00  0.00    -0.354 N 
ATOM     46  C   UNL     1      14.476   2.585  -4.530  1.00  0.00     0.074 A 
ATOM     47  C   UNL     1      13.875   3.090  -3.314  1.00  0.00     0.031 C 
ATOM     48  C   UNL     1       9.406   1.847  -8.425  1.00  0.00     0.029 A 
ATOM     49  C   UNL     1      10.797   1.505  -8.705  1.00  0.00     0.049 A 
ATOM     50  H   UNL     1      12.411   1.591  -7.387  1.00  0.00     0.167 HD
ATOM     51  C   UNL     1      15.798   2.341  -4.688  1.00  0.00     0.034 A 
ATOM     52  C   UNL     1      11.264   1.063  -9.888  1.00  0.00     0.034 A 
ATOM     53  C   UNL     1      16.375   1.780  -5.880  1.00  0.00     0.049 A 
ATOM     54  C   UNL     1      12.736   0.803 -10.037  1.00  0.00     0.074 A 
ATOM     55  C   UNL     1      17.697   1.451  -6.123  1.00  0.00     0.029 A 
ATOM     56  N   UNL     1      15.666   1.458  -7.027  1.00  0.00    -0.354 N 
ATOM     57  N   UNL     1      13.688   0.920  -9.143  1.00  0.00    -0.248 NA
ATOM     58  C   UNL     1      13.199   0.339 -11.352  1.00  0.00     0.031 C 
ATOM     59  C   UNL     1      17.788   0.940  -7.422  1.00  0.00     0.029 A 
ATOM     60  C   UNL     1      16.521   0.938  -7.983  1.00  0.00     0.049 A 
ATOM     61  H   UNL     1      14.696   1.582  -7.144  1.00  0.00     0.167 HD
ATOM     62  C   UNL     1      14.859   0.529  -9.780  1.00  0.00     0.074 A 
ATOM     63  C   UNL     1      14.492   0.144 -11.128  1.00  0.00     0.031 C 
ATOM     64  C   UNL     1      16.127   0.512  -9.302  1.00  0.00     0.034 A 
BRANCH  51  65
ATOM     65  C   UNL     1      16.712   2.663  -3.537  1.00  0.00     0.023 A 
ATOM     66  C   UNL     1      16.743   1.818  -2.411  1.00  0.00     0.012 A 
ATOM     67  C   UNL     1      17.577   3.773  -3.595  1.00  0.00     0.148 A 
ATOM     68  C   UNL     1      17.605   2.086  -1.347  1.00  0.00     0.002 A 
ATOM     69  C   UNL     1      18.460   4.013  -2.548  1.00  0.00     0.091 A 
ATOM     70  F   UNL     1      17.511   4.582  -4.662  1.00  0.00    -0.205 F 
ATOM     71  C   UNL     1      18.469   3.176  -1.420  1.00  0.00     0.022 A 
BRANCH  69  72
ATOM     72  S   UNL     1      19.659   5.350  -2.587  1.00  0.00     0.127 S 
ATOM     73  O   UNL     1      19.053   6.315  -1.671  1.00  0.00    -0.237 OA
ATOM     74  O   UNL     1      20.867   4.700  -2.076  1.00  0.00    -0.237 OA
ATOM     75  O   UNL     1      19.741   5.769  -3.979  1.00  0.00    -0.744 OA
ENDBRANCH  69  72
ENDBRANCH  51  65
BRANCH  52  76
ATOM     76  C   UNL     1      10.318   0.835 -11.016  1.00  0.00     0.023 A 
ATOM     77  C   UNL     1      10.048  -0.481 -11.436  1.00  0.00     0.012 A 
ATOM     78  C   UNL     1       9.644   1.906 -11.636  1.00  0.00     0.148 A 
ATOM     79  C   UNL     1       9.134  -0.726 -12.462  1.00  0.00     0.002 A 
ATOM     80  C   UNL     1       8.691   1.652 -12.615  1.00  0.00     0.091 A 
ATOM     81  F   UNL     1       9.933   3.154 -11.240  1.00  0.00    -0.205 F 
ATOM     82  C   UNL     1       8.445   0.338 -13.040  1.00  0.00     0.022 A 
BRANCH  80  83
ATOM     83  S   UNL     1       7.659   2.951 -13.304  1.00  0.00     0.127 S 
ATOM     84  O   UNL     1       8.254   3.138 -14.624  1.00  0.00    -0.237 OA
ATOM     85  O   UNL     1       6.337   2.323 -13.306  1.00  0.00    -0.237 OA
ATOM     86  O   UNL     1       7.784   4.074 -12.383  1.00  0.00    -0.744 OA
ENDBRANCH  80  83
ENDBRANCH  52  76
BRANCH  64  87
ATOM     87  C   UNL     1      17.212   0.043 -10.233  1.00  0.00     0.023 A 
ATOM     88  C   UNL     1      17.659   0.894 -11.262  1.00  0.00     0.012 A 
ATOM     89  C   UNL     1      17.836  -1.204 -10.043  1.00  0.00     0.148 A 
ATOM     90  C   UNL     1      18.695   0.499 -12.106  1.00  0.00     0.002 A 
ATOM     91  C   UNL     1      18.897  -1.574 -10.861  1.00  0.00     0.091 A 
ATOM     92  F   UNL     1      17.380  -2.008  -9.071  1.00  0.00    -0.205 F 
ATOM     93  C   UNL     1      19.322  -0.728 -11.899  1.00  0.00     0.022 A 
BRANCH  91  94
ATOM     94  S   UNL     1      19.817  -3.096 -10.608  1.00  0.00     0.127 S 
ATOM     95  O   UNL     1      19.313  -3.933 -11.695  1.00  0.00    -0.237 OA
ATOM     96  O   UNL     1      21.203  -2.654 -10.769  1.00  0.00    -0.237 OA
ATOM     97  O   UNL     1      19.482  -3.544  -9.263  1.00  0.00    -0.744 OA
ENDBRANCH  91  94
ENDBRANCH  64  87
ENDBRANCH  38  39
ENDBRANCH  31  33
ENDBRANCH  30  31
ENDBRANCH  29  30
ENDBRANCH   1  29
TORSDOF 19
