REMARK SMILES COc1ccc(C(=O)Nc2cc(C(=O)OCCOC(=O)c3ccc(-c4c5nc(c(-c6cccc(S(=O)(=O)[O-])c6F)c6ccc([nH]6)c(-c6cccc(S(=O)(=O)[O-])c6F)c6nc(c(-c7cccc(S(=O)(=O)[O-])c7F)c7ccc4[nH]7)C=C6)C=C5)cc3)c(Cl)cc2Cl)cc1Cl
REMARK SMILES IDX 16 1 15 2 13 3 14 4 12 5 10 6 11 7 87 8 86 9 88 10 84 11
REMARK SMILES IDX 85 12 9 13 7 14 8 15 6 17 3 18 4 19 90 20 5 21 89 22 91 23
REMARK SMILES IDX 2 24 1 25 17 26 18 27 19 28 20 29 21 30 22 31 83 32 23 33
REMARK SMILES IDX 82 34 24 35 25 36 26 37 76 38 27 39 81 40 75 41 77 42 28 43
REMARK SMILES IDX 80 44 74 45 73 46 29 48 61 49 41 50 60 51 42 52 45 53 59 54
REMARK SMILES IDX 78 55 43 56 44 57 58 59 79 60 46 61 30 62 31 63 39 64 32 65
REMARK SMILES IDX 34 66 40 67 33 68 35 69 36 70 37 71 38 72 62 73 63 74 71 75
REMARK SMILES IDX 64 76 66 77 72 78 65 79 67 80 68 81 69 82 70 83 47 84 48 85
REMARK SMILES IDX 56 86 49 87 51 88 57 89 50 90 52 91 53 92 54 93 55 94
REMARK H PARENT 9 16 77 47 45 58
REMARK Flexibility Score: inf
ROOT
ATOM      1  C   UNL     1       6.693  -2.905   0.623  1.00  0.00     0.275 C 
ENDROOT
BRANCH   1   2
ATOM      2  O   UNL     1       6.473  -2.458  -0.732  1.00  0.00    -0.458 OA
BRANCH   2   3
ATOM      3  C   UNL     1       6.298  -3.422  -1.664  1.00  0.00     0.339 C 
ATOM      4  O   UNL     1       6.252  -4.627  -1.467  1.00  0.00    -0.246 OA
BRANCH   3   5
ATOM      5  C   UNL     1       6.058  -2.848  -3.005  1.00  0.00     0.080 A 
ATOM      6  C   UNL     1       4.650  -2.870  -4.999  1.00  0.00     0.061 A 
ATOM      7  C   UNL     1       4.934  -3.312  -3.707  1.00  0.00     0.045 A 
ATOM      8  C   UNL     1       5.569  -2.043  -5.649  1.00  0.00     0.066 A 
ATOM      9  C   UNL     1       6.683  -1.561  -4.957  1.00  0.00     0.044 A 
ATOM     10  Cl  UNL     1       5.300  -1.508  -7.268  1.00  0.00    -0.082 Cl
ATOM     11  C   UNL     1       6.925  -1.950  -3.631  1.00  0.00     0.057 A 
ATOM     12  Cl  UNL     1       8.347  -1.332  -2.874  1.00  0.00    -0.083 Cl
BRANCH   6  13
ATOM     13  N   UNL     1       3.454  -3.246  -5.629  1.00  0.00    -0.321 N 
ATOM     14  C   UNL     1       2.162  -3.277  -5.138  1.00  0.00     0.255 C 
ATOM     15  O   UNL     1       1.324  -3.932  -5.757  1.00  0.00    -0.269 OA
ATOM     16  H   UNL     1       3.550  -3.531  -6.566  1.00  0.00     0.170 HD
BRANCH  14  17
ATOM     17  C   UNL     1       1.709  -2.417  -3.994  1.00  0.00     0.041 A 
ATOM     18  C   UNL     1       0.672  -0.738  -1.944  1.00  0.00     0.137 A 
ATOM     19  C   UNL     1      -0.085  -1.781  -2.485  1.00  0.00     0.049 A 
ATOM     20  C   UNL     1       1.927  -0.484  -2.498  1.00  0.00     0.083 A 
ATOM     21  C   UNL     1       0.427  -2.626  -3.479  1.00  0.00     0.018 A 
ATOM     22  C   UNL     1       2.421  -1.307  -3.525  1.00  0.00     0.038 A 
ATOM     23  Cl  UNL     1       2.913   0.879  -2.093  1.00  0.00    -0.080 Cl
BRANCH  18  24
ATOM     24  O   UNL     1       0.006  -0.033  -0.980  1.00  0.00    -0.495 OA
ATOM     25  C   UNL     1       0.771   0.504   0.090  1.00  0.00     0.278 C 
ENDBRANCH  18  24
ENDBRANCH  14  17
ENDBRANCH   6  13
ENDBRANCH   3   5
ENDBRANCH   2   3
ENDBRANCH   1   2
BRANCH   1  26
ATOM     26  C   UNL     1       5.503  -2.584   1.533  1.00  0.00     0.275 C 
BRANCH  26  27
ATOM     27  O   UNL     1       4.393  -3.470   1.294  1.00  0.00    -0.458 OA
BRANCH  27  28
ATOM     28  C   UNL     1       3.521  -3.023   0.365  1.00  0.00     0.338 C 
ATOM     29  O   UNL     1       3.585  -1.972  -0.252  1.00  0.00    -0.246 OA
BRANCH  28  30
ATOM     30  C   UNL     1       2.502  -4.034   0.059  1.00  0.00     0.060 A 
ATOM     31  C   UNL     1       2.675  -4.758  -1.113  1.00  0.00     0.016 A 
ATOM     32  C   UNL     1       1.309  -4.129   0.769  1.00  0.00     0.016 A 
ATOM     33  C   UNL     1       1.610  -5.452  -1.673  1.00  0.00     0.010 A 
ATOM     34  C   UNL     1       0.280  -4.942   0.270  1.00  0.00     0.010 A 
ATOM     35  C   UNL     1       0.391  -5.565  -0.988  1.00  0.00    -0.014 A 
BRANCH  35  36
ATOM     36  C   UNL     1      -0.725  -6.348  -1.599  1.00  0.00     0.031 A 
ATOM     37  C   UNL     1      -2.069  -5.723  -1.890  1.00  0.00     0.074 A 
ATOM     38  C   UNL     1      -0.518  -7.637  -1.939  1.00  0.00     0.049 A 
ATOM     39  N   UNL     1      -3.101  -6.232  -2.518  1.00  0.00    -0.248 NA
ATOM     40  C   UNL     1      -2.282  -4.340  -1.444  1.00  0.00     0.031 C 
ATOM     41  C   UNL     1       0.726  -8.380  -1.721  1.00  0.00     0.029 A 
ATOM     42  N   UNL     1      -1.351  -8.557  -2.527  1.00  0.00    -0.354 N 
ATOM     43  C   UNL     1      -4.061  -5.226  -2.565  1.00  0.00     0.074 A 
ATOM     44  C   UNL     1      -3.500  -4.077  -1.894  1.00  0.00     0.031 C 
ATOM     45  C   UNL     1       0.577  -9.633  -2.170  1.00  0.00     0.029 A 
ATOM     46  C   UNL     1      -0.793  -9.809  -2.635  1.00  0.00     0.049 A 
ATOM     47  H   UNL     1      -2.259  -8.341  -2.841  1.00  0.00     0.167 HD
ATOM     48  C   UNL     1      -5.303  -5.251  -3.105  1.00  0.00     0.034 A 
ATOM     49  C   UNL     1      -1.329 -10.986  -3.013  1.00  0.00     0.034 A 
ATOM     50  C   UNL     1      -5.914  -6.418  -3.677  1.00  0.00     0.049 A 
ATOM     51  C   UNL     1      -2.760 -11.025  -3.464  1.00  0.00     0.074 A 
ATOM     52  C   UNL     1      -7.183  -6.549  -4.214  1.00  0.00     0.029 A 
ATOM     53  N   UNL     1      -5.323  -7.669  -3.734  1.00  0.00    -0.354 N 
ATOM     54  N   UNL     1      -3.600 -10.033  -3.624  1.00  0.00    -0.248 NA
ATOM     55  C   UNL     1      -3.314 -12.344  -3.798  1.00  0.00     0.031 C 
ATOM     56  C   UNL     1      -7.378  -7.895  -4.543  1.00  0.00     0.029 A 
ATOM     57  C   UNL     1      -6.218  -8.592  -4.247  1.00  0.00     0.049 A 
ATOM     58  H   UNL     1      -4.402  -7.872  -3.451  1.00  0.00     0.167 HD
ATOM     59  C   UNL     1      -4.775 -10.601  -4.100  1.00  0.00     0.074 A 
ATOM     60  C   UNL     1      -4.531 -12.024  -4.221  1.00  0.00     0.031 C 
ATOM     61  C   UNL     1      -5.953  -9.999  -4.396  1.00  0.00     0.034 A 
BRANCH  48  62
ATOM     62  C   UNL     1      -6.098  -3.972  -3.083  1.00  0.00     0.023 A 
ATOM     63  C   UNL     1      -5.822  -2.970  -4.035  1.00  0.00     0.012 A 
ATOM     64  C   UNL     1      -7.144  -3.782  -2.159  1.00  0.00     0.148 A 
ATOM     65  C   UNL     1      -6.569  -1.791  -4.059  1.00  0.00     0.002 A 
ATOM     66  C   UNL     1      -7.899  -2.616  -2.205  1.00  0.00     0.091 A 
ATOM     67  F   UNL     1      -7.369  -4.737  -1.246  1.00  0.00    -0.205 F 
ATOM     68  C   UNL     1      -7.611  -1.618  -3.151  1.00  0.00     0.022 A 
BRANCH  66  69
ATOM     69  S   UNL     1      -9.285  -2.315  -1.103  1.00  0.00     0.127 S 
ATOM     70  O   UNL     1      -8.752  -1.260  -0.242  1.00  0.00    -0.237 OA
ATOM     71  O   UNL     1     -10.328  -1.876  -2.030  1.00  0.00    -0.237 OA
ATOM     72  O   UNL     1      -9.554  -3.583  -0.440  1.00  0.00    -0.744 OA
ENDBRANCH  66  69
ENDBRANCH  48  62
BRANCH  49  73
ATOM     73  C   UNL     1      -0.496 -12.220  -2.953  1.00  0.00     0.023 A 
ATOM     74  C   UNL     1      -0.114 -12.868  -4.141  1.00  0.00     0.012 A 
ATOM     75  C   UNL     1      -0.027 -12.714  -1.718  1.00  0.00     0.148 A 
ATOM     76  C   UNL     1       0.715 -13.991  -4.098  1.00  0.00     0.002 A 
ATOM     77  C   UNL     1       0.851 -13.789  -1.688  1.00  0.00     0.091 A 
ATOM     78  F   UNL     1      -0.429 -12.103  -0.594  1.00  0.00    -0.205 F 
ATOM     79  C   UNL     1       1.211 -14.440  -2.876  1.00  0.00     0.022 A 
BRANCH  77  80
ATOM     80  S   UNL     1       1.655 -14.315  -0.170  1.00  0.00     0.127 S 
ATOM     81  O   UNL     1       0.901 -15.519   0.168  1.00  0.00    -0.237 OA
ATOM     82  O   UNL     1       3.029 -14.551  -0.615  1.00  0.00    -0.237 OA
ATOM     83  O   UNL     1       1.514 -13.194   0.751  1.00  0.00    -0.744 OA
ENDBRANCH  77  80
ENDBRANCH  49  73
BRANCH  61  84
ATOM     84  C   UNL     1      -7.074 -10.870  -4.894  1.00  0.00     0.023 A 
ATOM     85  C   UNL     1      -7.754 -11.716  -3.996  1.00  0.00     0.012 A 
ATOM     86  C   UNL     1      -7.504 -10.791  -6.233  1.00  0.00     0.148 A 
ATOM     87  C   UNL     1      -8.829 -12.490  -4.429  1.00  0.00     0.002 A 
ATOM     88  C   UNL     1      -8.606 -11.530  -6.646  1.00  0.00     0.091 A 
ATOM     89  F   UNL     1      -6.829  -9.998  -7.077  1.00  0.00    -0.205 F 
ATOM     90  C   UNL     1      -9.262 -12.388  -5.749  1.00  0.00     0.022 A 
BRANCH  88  91
ATOM     91  S   UNL     1      -9.290 -11.382  -8.300  1.00  0.00     0.127 S 
ATOM     92  O   UNL     1      -8.823 -12.617  -8.927  1.00  0.00    -0.237 OA
ATOM     93  O   UNL     1     -10.730 -11.336  -8.040  1.00  0.00    -0.237 OA
ATOM     94  O   UNL     1      -8.740 -10.151  -8.850  1.00  0.00    -0.744 OA
ENDBRANCH  88  91
ENDBRANCH  61  84
ENDBRANCH  35  36
ENDBRANCH  28  30
ENDBRANCH  27  28
ENDBRANCH  26  27
ENDBRANCH   1  26
TORSDOF 17
