REMARK SMILES O=C(CCc1cc2n(n1)CCCN(S(=O)(=O)CCC(F)(F)F)C2)OCCOC(=O)c1ccc(-c2c3nc(c(-c4cccc(S(=O)(=O)[O-])c4F)c4ccc([nH]4)c(-c4cccc(S(=O)(=O)[O-])c4F)c4nc(c(-c5cccc(S(=O)(=O)[O-])c5F)c5ccc2[nH]5)C=C4)C=C3)cc1
REMARK SMILES IDX 1 1 2 2 3 3 4 4 5 5 6 6 9 7 7 8 8 9 23 10 13 11 12 12 14 14
REMARK SMILES IDX 15 15 16 16 17 17 18 18 19 19 20 20 21 21 22 22 10 23 11 24
REMARK SMILES IDX 24 26 25 27 26 28 27 29 28 30 29 31 30 32 31 33 92 34 32 35
REMARK SMILES IDX 91 36 33 37 34 38 35 39 85 40 36 41 90 42 84 43 86 44 37 45
REMARK SMILES IDX 89 46 83 47 82 48 38 50 70 51 50 52 69 53 51 54 54 55 68 56
REMARK SMILES IDX 87 57 52 58 53 59 67 61 88 62 55 63 39 64 40 65 48 66 41 67
REMARK SMILES IDX 43 68 49 69 42 70 44 71 45 72 46 73 47 74 71 75 72 76 80 77
REMARK SMILES IDX 73 78 75 79 81 80 74 81 76 82 77 83 78 84 79 85 56 86 57 87
REMARK SMILES IDX 65 88 58 89 60 90 66 91 59 92 61 93 62 94 63 95 64 96
REMARK H PARENT 86 49 54 60
REMARK Flexibility Score: 90.00
ROOT
ATOM      1  O   UNL     1       1.284  -1.370   1.104  1.00  0.00    -0.252 OA
ATOM      2  C   UNL     1       2.205  -0.748   0.575  1.00  0.00     0.306 C 
ENDROOT
BRANCH   2   3
ATOM      3  C   UNL     1       3.076   0.175   1.405  1.00  0.00     0.129 C 
BRANCH   3   4
ATOM      4  C   UNL     1       3.881  -0.571   2.471  1.00  0.00     0.070 C 
BRANCH   4   5
ATOM      5  C   UNL     1       4.959  -1.363   1.816  1.00  0.00     0.063 A 
ATOM      6  C   UNL     1       4.898  -2.716   1.417  1.00  0.00     0.050 A 
ATOM      7  N   UNL     1       6.022  -0.737   1.295  1.00  0.00    -0.178 NA
ATOM      8  C   UNL     1       5.881  -2.834   0.458  1.00  0.00     0.054 A 
ATOM      9  N   UNL     1       6.554  -1.641   0.460  1.00  0.00    -0.268 N 
BRANCH   8  10
ATOM     10  C   UNL     1       6.169  -3.903  -0.522  1.00  0.00     0.157 C 
BRANCH  10  11
ATOM     11  N   UNL     1       7.523  -4.477  -0.338  1.00  0.00    -0.196 NA
BRANCH  11  12
ATOM     12  C   UNL     1       8.575  -3.539   0.152  1.00  0.00     0.104 CG0
ATOM     13  G   UNL     1       8.658  -2.297  -0.739  1.00  0.00     0.000 G0
ENDBRANCH  11  12
BRANCH  11  14
ATOM     14  S   UNL     1       7.503  -6.045   0.267  1.00  0.00     0.214 S 
ATOM     15  O   UNL     1       7.449  -5.960   1.709  1.00  0.00    -0.212 OA
ATOM     16  O   UNL     1       6.514  -6.807  -0.467  1.00  0.00    -0.212 OA
BRANCH  14  17
ATOM     17  C   UNL     1       9.091  -6.715  -0.177  1.00  0.00     0.163 C 
BRANCH  17  18
ATOM     18  C   UNL     1       9.283  -7.016  -1.654  1.00  0.00     0.133 C 
BRANCH  18  19
ATOM     19  C   UNL     1       9.319  -5.809  -2.559  1.00  0.00     0.390 C 
ATOM     20  F   UNL     1      10.139  -4.857  -2.068  1.00  0.00    -0.171 F 
ATOM     21  F   UNL     1       9.806  -6.166  -3.771  1.00  0.00    -0.171 F 
ATOM     22  F   UNL     1       8.106  -5.270  -2.769  1.00  0.00    -0.171 F 
ENDBRANCH  18  19
ENDBRANCH  17  18
ENDBRANCH  14  17
ENDBRANCH  11  14
ENDBRANCH  10  11
ENDBRANCH   8  10
BRANCH   9  23
ATOM     23  C   UNL     1       7.588  -1.238  -0.471  1.00  0.00     0.146 C 
BRANCH  23  24
ATOM     24  C   UNL     1       8.658  -2.297  -0.739  1.00  0.00     0.040 CG0
ATOM     25  G   UNL     1       8.575  -3.539   0.152  1.00  0.00     0.000 G0
ENDBRANCH  23  24
ENDBRANCH   9  23
ENDBRANCH   4   5
ENDBRANCH   3   4
ENDBRANCH   2   3
BRANCH   2  26
ATOM     26  O   UNL     1       2.392  -0.833  -0.768  1.00  0.00    -0.462 OA
BRANCH  26  27
ATOM     27  C   UNL     1       3.683  -0.825  -1.407  1.00  0.00     0.274 C 
BRANCH  27  28
ATOM     28  C   UNL     1       3.965   0.375  -2.293  1.00  0.00     0.275 C 
BRANCH  28  29
ATOM     29  O   UNL     1       3.970   1.546  -1.501  1.00  0.00    -0.458 OA
BRANCH  29  30
ATOM     30  C   UNL     1       2.744   2.056  -1.223  1.00  0.00     0.338 C 
ATOM     31  O   UNL     1       1.673   1.668  -1.612  1.00  0.00    -0.246 OA
BRANCH  30  32
ATOM     32  C   UNL     1       2.988   3.291  -0.471  1.00  0.00     0.060 A 
ATOM     33  C   UNL     1       2.012   4.267  -0.632  1.00  0.00     0.016 A 
ATOM     34  C   UNL     1       4.274   3.565   0.030  1.00  0.00     0.016 A 
ATOM     35  C   UNL     1       2.428   5.569  -0.594  1.00  0.00     0.010 A 
ATOM     36  C   UNL     1       4.690   4.867   0.055  1.00  0.00     0.010 A 
ATOM     37  C   UNL     1       3.786   5.832  -0.365  1.00  0.00    -0.014 A 
BRANCH  37  38
ATOM     38  C   UNL     1       4.210   7.202  -0.475  1.00  0.00     0.031 A 
ATOM     39  C   UNL     1       3.715   7.996   0.663  1.00  0.00     0.074 A 
ATOM     40  C   UNL     1       4.979   7.636  -1.488  1.00  0.00     0.049 A 
ATOM     41  N   UNL     1       2.748   8.850   0.653  1.00  0.00    -0.248 NA
ATOM     42  C   UNL     1       4.156   7.594   2.008  1.00  0.00     0.031 C 
ATOM     43  C   UNL     1       5.713   6.844  -2.479  1.00  0.00     0.029 A 
ATOM     44  N   UNL     1       5.372   8.905  -1.758  1.00  0.00    -0.354 N 
ATOM     45  C   UNL     1       2.656   9.293   1.967  1.00  0.00     0.074 A 
ATOM     46  C   UNL     1       3.328   8.309   2.768  1.00  0.00     0.031 C 
ATOM     47  C   UNL     1       6.655   7.628  -3.056  1.00  0.00     0.029 A 
ATOM     48  C   UNL     1       6.496   8.989  -2.570  1.00  0.00     0.049 A 
ATOM     49  H   UNL     1       4.903   9.697  -1.410  1.00  0.00     0.167 HD
ATOM     50  C   UNL     1       2.347  10.591   2.226  1.00  0.00     0.034 A 
ATOM     51  C   UNL     1       7.282  10.084  -2.724  1.00  0.00     0.034 A 
ATOM     52  C   UNL     1       1.694  11.197   1.087  1.00  0.00     0.049 A 
ATOM     53  C   UNL     1       6.487  11.258  -2.283  1.00  0.00     0.074 A 
ATOM     54  C   UNL     1       0.557  10.918   0.354  1.00  0.00     0.029 A 
ATOM     55  N   UNL     1       2.463  12.017   0.296  1.00  0.00    -0.354 N 
ATOM     56  N   UNL     1       5.424  11.680  -2.908  1.00  0.00    -0.248 NA
ATOM     57  C   UNL     1       6.601  11.670  -0.892  1.00  0.00     0.031 C 
ATOM     58  C   UNL     1       0.907  11.207  -0.998  1.00  0.00     0.029 A 
ATOM     59  C   UNL     1       2.208  11.713  -1.014  1.00  0.00     0.049 A 
ATOM     60  H   UNL     1       3.091  12.705   0.616  1.00  0.00     0.167 HD
ATOM     61  C   UNL     1       4.529  11.993  -1.891  1.00  0.00     0.074 A 
ATOM     62  C   UNL     1       5.343  12.070  -0.679  1.00  0.00     0.031 C 
ATOM     63  C   UNL     1       3.182  11.859  -2.075  1.00  0.00     0.034 A 
BRANCH  50  64
ATOM     64  C   UNL     1       3.046  11.425   3.284  1.00  0.00     0.023 A 
ATOM     65  C   UNL     1       2.625  12.768   3.401  1.00  0.00     0.012 A 
ATOM     66  C   UNL     1       4.255  11.082   3.938  1.00  0.00     0.148 A 
ATOM     67  C   UNL     1       3.415  13.734   4.032  1.00  0.00     0.002 A 
ATOM     68  C   UNL     1       5.009  12.032   4.614  1.00  0.00     0.091 A 
ATOM     69  F   UNL     1       4.768   9.858   3.833  1.00  0.00    -0.205 F 
ATOM     70  C   UNL     1       4.613  13.368   4.631  1.00  0.00     0.022 A 
BRANCH  68  71
ATOM     71  S   UNL     1       6.557  11.601   5.427  1.00  0.00     0.127 S 
ATOM     72  O   UNL     1       7.531  12.240   4.548  1.00  0.00    -0.237 OA
ATOM     73  O   UNL     1       6.388  12.234   6.735  1.00  0.00    -0.237 OA
ATOM     74  O   UNL     1       6.596  10.145   5.470  1.00  0.00    -0.744 OA
ENDBRANCH  68  71
ENDBRANCH  50  64
BRANCH  51  75
ATOM     75  C   UNL     1       8.752  10.162  -2.905  1.00  0.00     0.023 A 
ATOM     76  C   UNL     1       9.333  11.352  -3.386  1.00  0.00     0.012 A 
ATOM     77  C   UNL     1       9.605   9.186  -2.342  1.00  0.00     0.148 A 
ATOM     78  C   UNL     1      10.712  11.576  -3.283  1.00  0.00     0.002 A 
ATOM     79  C   UNL     1      10.976   9.408  -2.250  1.00  0.00     0.091 A 
ATOM     80  F   UNL     1       9.063   8.082  -1.812  1.00  0.00    -0.205 F 
ATOM     81  C   UNL     1      11.532  10.608  -2.708  1.00  0.00     0.022 A 
BRANCH  79  82
ATOM     82  S   UNL     1      12.091   8.213  -1.500  1.00  0.00     0.127 S 
ATOM     83  O   UNL     1      13.140   8.102  -2.514  1.00  0.00    -0.237 OA
ATOM     84  O   UNL     1      12.493   8.900  -0.276  1.00  0.00    -0.237 OA
ATOM     85  O   UNL     1      11.309   6.997  -1.315  1.00  0.00    -0.744 OA
ENDBRANCH  79  82
ENDBRANCH  51  75
BRANCH  63  86
ATOM     86  C   UNL     1       2.680  11.613  -3.476  1.00  0.00     0.023 A 
ATOM     87  C   UNL     1       2.986  10.442  -4.203  1.00  0.00     0.012 A 
ATOM     88  C   UNL     1       1.738  12.511  -4.002  1.00  0.00     0.148 A 
ATOM     89  C   UNL     1       2.378  10.186  -5.436  1.00  0.00     0.002 A 
ATOM     90  C   UNL     1       1.101  12.231  -5.204  1.00  0.00     0.091 A 
ATOM     91  F   UNL     1       1.457  13.617  -3.297  1.00  0.00    -0.205 F 
ATOM     92  C   UNL     1       1.425  11.074  -5.930  1.00  0.00     0.022 A 
BRANCH  90  93
ATOM     93  S   UNL     1      -0.222  13.271  -5.824  1.00  0.00     0.127 S 
ATOM     94  O   UNL     1       0.435  13.979  -6.921  1.00  0.00    -0.237 OA
ATOM     95  O   UNL     1      -1.224  12.290  -6.241  1.00  0.00    -0.237 OA
ATOM     96  O   UNL     1      -0.637  14.103  -4.701  1.00  0.00    -0.744 OA
ENDBRANCH  90  93
ENDBRANCH  63  86
ENDBRANCH  37  38
ENDBRANCH  30  32
ENDBRANCH  29  30
ENDBRANCH  28  29
ENDBRANCH  27  28
ENDBRANCH  26  27
ENDBRANCH   2  26
TORSDOF 20
