REMARK SMILES CC[C@H]1CCC[C@@H]([NH2+][C@@](C)(CC)C(=O)OCCOC(=O)c2ccc(-c3c4nc(c(-c5cccc(S(=O)(=O)[O-])c5F)c5ccc([nH]5)c(-c5cccc(S(=O)(=O)[O-])c5F)c5nc(c(-c6cccc(S(=O)(=O)[O-])c6F)c6ccc3[nH]6)C=C5)C=C4)cc2)C1
REMARK SMILES IDX 16 1 15 2 13 3 14 4 9 5 10 6 8 7 7 10 3 11 4 12 84 13 5 14
REMARK SMILES IDX 6 15 2 16 1 17 11 18 12 19 17 20 18 21 19 22 20 23 21 24
REMARK SMILES IDX 22 25 83 26 23 27 82 28 24 29 25 30 26 31 76 32 27 33 81 34
REMARK SMILES IDX 75 35 77 36 28 37 80 38 74 39 73 40 29 42 61 43 41 44 60 45
REMARK SMILES IDX 42 46 45 47 59 48 78 49 43 50 44 51 58 53 79 54 46 55 30 56
REMARK SMILES IDX 31 57 39 58 32 59 34 60 40 61 33 62 35 63 36 64 37 65 38 66
REMARK SMILES IDX 62 67 63 68 71 69 64 70 66 71 72 72 65 73 67 74 68 75 69 76
REMARK SMILES IDX 70 77 47 78 48 79 56 80 49 81 51 82 57 83 50 84 52 85 53 86
REMARK SMILES IDX 54 87 55 88
REMARK H PARENT 8 8 8 9 77 41 45 52
REMARK Flexibility Score: inf
ROOT
ATOM      1  C   UNL     1       1.847  -8.324   4.295  1.00  0.00     0.274 C 
ENDROOT
BRANCH   1   2
ATOM      2  O   UNL     1       1.537  -6.902   4.167  1.00  0.00    -0.457 OA
BRANCH   2   3
ATOM      3  C   UNL     1       2.398  -6.192   3.376  1.00  0.00     0.367 C 
ATOM      4  O   UNL     1       3.329  -6.755   2.795  1.00  0.00    -0.245 OA
BRANCH   3   5
ATOM      5  C   UNL     1       2.255  -4.622   3.445  1.00  0.00     0.191 C 
ATOM      6  C   UNL     1       3.794  -4.249   3.322  1.00  0.00     0.092 C 
BRANCH   5   7
ATOM      7  N   UNL     1       1.691  -3.799   2.319  1.00  0.00    -0.330 N 
ATOM      8  H   UNL     1       1.867  -2.845   2.634  1.00  0.00     0.347 HD
ATOM      9  H   UNL     1       2.104  -4.375   1.586  1.00  0.00     0.347 HD
BRANCH   7  10
ATOM     10  C   UNL     1       0.341  -3.671   1.620  1.00  0.00     0.183 C 
ATOM     11  C   UNL     1       1.427  -2.626  -1.207  1.00  0.00    -0.006 C 
ATOM     12  C   UNL     1       1.602  -4.361  -2.017  1.00  0.00     0.004 C 
ATOM     13  C   UNL     1       0.587  -2.372   0.406  1.00  0.00     0.068 C 
ATOM     14  C   UNL     1       0.488  -5.852  -1.190  1.00  0.00     0.006 C 
ATOM     15  C   UNL     1      -0.437  -5.149   0.690  1.00  0.00     0.065 C 
BRANCH  11  16
ATOM     16  C   UNL     1       2.767  -1.846  -1.214  1.00  0.00     0.000 C 
ATOM     17  C   UNL     1       3.728  -2.117  -0.062  1.00  0.00     0.004 C 
ENDBRANCH  11  16
ENDBRANCH   7  10
ENDBRANCH   5   7
BRANCH   5  18
ATOM     18  C   UNL     1       1.870  -4.149   4.861  1.00  0.00     0.077 C 
ATOM     19  C   UNL     1       0.396  -3.874   5.061  1.00  0.00     0.011 C 
ENDBRANCH   5  18
ENDBRANCH   3   5
ENDBRANCH   2   3
ENDBRANCH   1   2
BRANCH   1  20
ATOM     20  C   UNL     1       0.813  -9.189   3.584  1.00  0.00     0.275 C 
BRANCH  20  21
ATOM     21  O   UNL     1       0.863  -8.870   2.183  1.00  0.00    -0.458 OA
BRANCH  21  22
ATOM     22  C   UNL     1      -0.177  -8.112   1.794  1.00  0.00     0.338 C 
ATOM     23  O   UNL     1      -1.198  -7.907   2.439  1.00  0.00    -0.246 OA
BRANCH  22  24
ATOM     24  C   UNL     1       0.104  -7.341   0.555  1.00  0.00     0.060 A 
ATOM     25  C   UNL     1       1.376  -6.193   0.676  1.00  0.00     0.016 A 
ATOM     26  C   UNL     1      -1.351  -6.992  -0.266  1.00  0.00     0.016 A 
ATOM     27  C   UNL     1       1.156  -4.585  -0.086  1.00  0.00     0.010 A 
ATOM     28  C   UNL     1      -1.691  -5.535  -1.060  1.00  0.00     0.010 A 
ATOM     29  C   UNL     1      -0.489  -4.227  -1.087  1.00  0.00    -0.014 A 
BRANCH  29  30
ATOM     30  C   UNL     1      -0.957  -3.725  -2.685  1.00  0.00     0.031 A 
ATOM     31  C   UNL     1      -2.219  -2.839  -2.812  1.00  0.00     0.074 A 
ATOM     32  C   UNL     1      -0.669  -4.369  -3.889  1.00  0.00     0.049 A 
ATOM     33  N   UNL     1      -2.815  -2.369  -3.889  1.00  0.00    -0.248 NA
ATOM     34  C   UNL     1      -2.943  -2.535  -1.570  1.00  0.00     0.031 C 
ATOM     35  C   UNL     1       0.235  -5.513  -4.119  1.00  0.00     0.029 A 
ATOM     36  N   UNL     1      -1.085  -4.133  -5.209  1.00  0.00    -0.354 N 
ATOM     37  C   UNL     1      -3.987  -1.742  -3.463  1.00  0.00     0.074 A 
ATOM     38  C   UNL     1      -4.027  -1.915  -2.024  1.00  0.00     0.031 C 
ATOM     39  C   UNL     1       0.427  -5.759  -5.408  1.00  0.00     0.029 A 
ATOM     40  C   UNL     1      -0.442  -4.911  -6.172  1.00  0.00     0.049 A 
ATOM     41  H   UNL     1      -1.776  -3.470  -5.437  1.00  0.00     0.167 HD
ATOM     42  C   UNL     1      -4.947  -1.087  -4.176  1.00  0.00     0.034 A 
ATOM     43  C   UNL     1      -0.467  -5.015  -7.519  1.00  0.00     0.034 A 
ATOM     44  C   UNL     1      -4.967  -0.937  -5.614  1.00  0.00     0.049 A 
ATOM     45  C   UNL     1      -1.394  -4.156  -8.296  1.00  0.00     0.074 A 
ATOM     46  C   UNL     1      -5.802  -0.141  -6.386  1.00  0.00     0.029 A 
ATOM     47  N   UNL     1      -4.169  -1.637  -6.506  1.00  0.00    -0.354 N 
ATOM     48  N   UNL     1      -2.286  -3.321  -7.837  1.00  0.00    -0.248 NA
ATOM     49  C   UNL     1      -1.314  -4.227  -9.761  1.00  0.00     0.031 C 
ATOM     50  C   UNL     1      -5.542  -0.395  -7.738  1.00  0.00     0.029 A 
ATOM     51  C   UNL     1      -4.507  -1.308  -7.813  1.00  0.00     0.049 A 
ATOM     52  H   UNL     1      -3.464  -2.275  -6.250  1.00  0.00     0.167 HD
ATOM     53  C   UNL     1      -2.868  -2.750  -8.954  1.00  0.00     0.074 A 
ATOM     54  C   UNL     1      -2.208  -3.313 -10.114  1.00  0.00     0.031 C 
ATOM     55  C   UNL     1      -3.869  -1.843  -8.989  1.00  0.00     0.034 A 
BRANCH  42  56
ATOM     56  C   UNL     1      -6.059  -0.401  -3.399  1.00  0.00     0.023 A 
ATOM     57  C   UNL     1      -5.742   0.705  -2.581  1.00  0.00     0.012 A 
ATOM     58  C   UNL     1      -7.412  -0.782  -3.533  1.00  0.00     0.148 A 
ATOM     59  C   UNL     1      -6.734   1.377  -1.865  1.00  0.00     0.002 A 
ATOM     60  C   UNL     1      -8.402  -0.078  -2.850  1.00  0.00     0.091 A 
ATOM     61  F   UNL     1      -7.709  -1.828  -4.317  1.00  0.00    -0.205 F 
ATOM     62  C   UNL     1      -8.062   0.989  -2.003  1.00  0.00     0.022 A 
BRANCH  60  63
ATOM     63  S   UNL     1     -10.155  -0.439  -3.026  1.00  0.00     0.127 S 
ATOM     64  O   UNL     1     -10.453  -1.082  -1.746  1.00  0.00    -0.237 OA
ATOM     65  O   UNL     1     -10.733   0.896  -3.183  1.00  0.00    -0.237 OA
ATOM     66  O   UNL     1     -10.273  -1.292  -4.200  1.00  0.00    -0.744 OA
ENDBRANCH  60  63
ENDBRANCH  42  56
BRANCH  43  67
ATOM     67  C   UNL     1       0.510  -5.925  -8.218  1.00  0.00     0.023 A 
ATOM     68  C   UNL     1       1.614  -5.361  -8.890  1.00  0.00     0.012 A 
ATOM     69  C   UNL     1       0.431  -7.330  -8.104  1.00  0.00     0.148 A 
ATOM     70  C   UNL     1       2.614  -6.172  -9.435  1.00  0.00     0.002 A 
ATOM     71  C   UNL     1       1.467  -8.127  -8.584  1.00  0.00     0.091 A 
ATOM     72  F   UNL     1      -0.623  -7.854  -7.463  1.00  0.00    -0.205 F 
ATOM     73  C   UNL     1       2.551  -7.552  -9.264  1.00  0.00     0.022 A 
BRANCH  71  74
ATOM     74  S   UNL     1       1.567  -9.892  -8.244  1.00  0.00     0.127 S 
ATOM     75  O   UNL     1       1.345 -10.464  -9.569  1.00  0.00    -0.237 OA
ATOM     76  O   UNL     1       2.934 -10.026  -7.737  1.00  0.00    -0.237 OA
ATOM     77  O   UNL     1       0.532 -10.162  -7.256  1.00  0.00    -0.744 OA
ENDBRANCH  71  74
ENDBRANCH  43  67
BRANCH  55  78
ATOM     78  C   UNL     1      -4.313  -1.365 -10.341  1.00  0.00     0.023 A 
ATOM     79  C   UNL     1      -5.024  -2.224 -11.203  1.00  0.00     0.012 A 
ATOM     80  C   UNL     1      -4.048  -0.043 -10.744  1.00  0.00     0.148 A 
ATOM     81  C   UNL     1      -5.442  -1.780 -12.457  1.00  0.00     0.002 A 
ATOM     82  C   UNL     1      -4.513   0.408 -11.971  1.00  0.00     0.091 A 
ATOM     83  F   UNL     1      -3.337   0.743  -9.923  1.00  0.00    -0.205 F 
ATOM     84  C   UNL     1      -5.198  -0.462 -12.835  1.00  0.00     0.022 A 
BRANCH  82  85
ATOM     85  S   UNL     1      -4.327   2.113 -12.500  1.00  0.00     0.127 S 
ATOM     86  O   UNL     1      -3.385   1.980 -13.611  1.00  0.00    -0.237 OA
ATOM     87  O   UNL     1      -5.691   2.462 -12.894  1.00  0.00    -0.237 OA
ATOM     88  O   UNL     1      -3.824   2.843 -11.344  1.00  0.00    -0.744 OA
ENDBRANCH  82  85
ENDBRANCH  55  78
ENDBRANCH  29  30
ENDBRANCH  22  24
ENDBRANCH  21  22
ENDBRANCH  20  21
ENDBRANCH   1  20
TORSDOF 18
