REMARK SMILES COC(=O)c1ccc(NC(=O)[C@@H]2CC=CC[C@@H]2C(=O)OCCOC(=O)c2ccc(-c3c4nc(c(-c5cccc(S(=O)(=O)[O-])c5F)c5ccc([nH]5)c(-c5cccc(S(=O)(=O)[O-])c5F)c5nc(c(-c6cccc(S(=O)(=O)[O-])c6F)c6ccc3[nH]6)C=C5)C=C4)cc2)c(C)c1
REMARK SMILES IDX 21 1 20 2 18 3 19 4 17 5 12 6 13 7 14 8 16 9 15 10 10 11
REMARK SMILES IDX 9 12 11 14 8 15 5 16 6 17 91 18 7 19 89 20 90 21 3 22 4 23
REMARK SMILES IDX 2 24 1 25 22 26 23 27 24 28 25 29 26 30 27 31 88 32 28 33
REMARK SMILES IDX 87 34 29 35 30 36 31 37 81 38 32 39 86 40 80 41 82 42 33 43
REMARK SMILES IDX 85 44 79 45 78 46 34 48 66 49 46 50 65 51 47 52 50 53 64 54
REMARK SMILES IDX 83 55 48 56 49 57 63 59 84 60 51 61 35 62 36 63 44 64 37 65
REMARK SMILES IDX 39 66 45 67 38 68 40 69 41 70 42 71 43 72 67 73 68 74 76 75
REMARK SMILES IDX 69 76 71 77 77 78 70 79 72 80 73 81 74 82 75 83 52 84 53 85
REMARK SMILES IDX 61 86 54 87 56 88 62 89 55 90 57 91 58 92 59 93 60 94
REMARK H PARENT 9 13 82 47 50 58
REMARK Flexibility Score: inf
ROOT
ATOM      1  C   UNL     1       1.948  -3.436   1.356  1.00  0.00     0.274 C 
ENDROOT
BRANCH   1   2
ATOM      2  O   UNL     1       3.266  -4.008   1.313  1.00  0.00    -0.462 OA
BRANCH   2   3
ATOM      3  C   UNL     1       4.149  -3.551   0.396  1.00  0.00     0.310 C 
ATOM      4  O   UNL     1       3.817  -2.944  -0.617  1.00  0.00    -0.252 OA
BRANCH   3   5
ATOM      5  C   UNL     1       5.589  -3.565   0.908  1.00  0.00     0.116 C 
ATOM      6  C   UNL     1       6.542  -4.780   0.808  1.00  0.00     0.097 C 
ATOM      7  C   UNL     1       6.462  -5.757   1.986  1.00  0.00     0.041 C 
ATOM      8  C   UNL     1       6.383  -5.070   3.309  1.00  0.00    -0.030 C 
ATOM      9  C   UNL     1       5.660  -2.893   2.305  1.00  0.00     0.043 C 
ATOM     10  C   UNL     1       6.039  -3.785   3.449  1.00  0.00    -0.030 C 
BRANCH   6  11
ATOM     11  C   UNL     1       6.587  -5.559  -0.512  1.00  0.00     0.228 C 
ATOM     12  N   UNL     1       7.639  -6.421  -0.793  1.00  0.00    -0.326 N 
ATOM     13  H   UNL     1       7.448  -7.076  -1.502  1.00  0.00     0.169 HD
ATOM     14  O   UNL     1       5.647  -5.467  -1.308  1.00  0.00    -0.274 OA
BRANCH  12  15
ATOM     15  C   UNL     1       8.945  -6.524  -0.235  1.00  0.00     0.044 A 
ATOM     16  C   UNL     1      11.322  -6.809   1.277  1.00  0.00     0.060 A 
ATOM     17  C   UNL     1      10.714  -5.568   1.165  1.00  0.00     0.018 A 
ATOM     18  C   UNL     1      10.818  -7.880   0.542  1.00  0.00     0.021 A 
ATOM     19  C   UNL     1       9.568  -5.429   0.378  1.00  0.00     0.027 A 
ATOM     20  C   UNL     1       9.675  -7.729  -0.277  1.00  0.00    -0.027 A 
ATOM     21  C   UNL     1       9.331  -8.927  -1.116  1.00  0.00     0.046 C 
BRANCH  16  22
ATOM     22  C   UNL     1      12.525  -6.940   2.136  1.00  0.00     0.337 C 
ATOM     23  O   UNL     1      12.658  -6.321   3.181  1.00  0.00    -0.246 OA
BRANCH  22  24
ATOM     24  O   UNL     1      13.473  -7.789   1.661  1.00  0.00    -0.465 OA
ATOM     25  C   UNL     1      13.962  -7.512   0.344  1.00  0.00     0.282 C 
ENDBRANCH  22  24
ENDBRANCH  16  22
ENDBRANCH  12  15
ENDBRANCH   6  11
ENDBRANCH   3   5
ENDBRANCH   2   3
ENDBRANCH   1   2
BRANCH   1  26
ATOM     26  C   UNL     1       1.075  -3.243   0.094  1.00  0.00     0.275 C 
BRANCH  26  27
ATOM     27  O   UNL     1       1.231  -4.011  -1.128  1.00  0.00    -0.458 OA
BRANCH  27  28
ATOM     28  C   UNL     1       1.319  -5.351  -1.314  1.00  0.00     0.338 C 
ATOM     29  O   UNL     1       1.231  -5.892  -2.394  1.00  0.00    -0.246 OA
BRANCH  28  30
ATOM     30  C   UNL     1       1.498  -6.124  -0.091  1.00  0.00     0.060 A 
ATOM     31  C   UNL     1       2.754  -6.672   0.188  1.00  0.00     0.016 A 
ATOM     32  C   UNL     1       0.441  -6.172   0.814  1.00  0.00     0.016 A 
ATOM     33  C   UNL     1       2.996  -7.169   1.462  1.00  0.00     0.010 A 
ATOM     34  C   UNL     1       0.704  -6.614   2.091  1.00  0.00     0.010 A 
ATOM     35  C   UNL     1       1.988  -7.083   2.424  1.00  0.00    -0.014 A 
BRANCH  35  36
ATOM     36  C   UNL     1       2.087  -7.763   3.706  1.00  0.00     0.031 A 
ATOM     37  C   UNL     1       2.864  -7.261   4.859  1.00  0.00     0.074 A 
ATOM     38  C   UNL     1       1.418  -8.935   3.721  1.00  0.00     0.049 A 
ATOM     39  N   UNL     1       3.374  -8.042   5.750  1.00  0.00    -0.248 NA
ATOM     40  C   UNL     1       3.170  -5.851   5.094  1.00  0.00     0.031 C 
ATOM     41  C   UNL     1       1.071  -9.800   4.828  1.00  0.00     0.029 A 
ATOM     42  N   UNL     1       1.092  -9.684   2.578  1.00  0.00    -0.354 N 
ATOM     43  C   UNL     1       3.853  -7.259   6.783  1.00  0.00     0.074 A 
ATOM     44  C   UNL     1       3.773  -5.902   6.293  1.00  0.00     0.031 C 
ATOM     45  C   UNL     1       0.841 -11.034   4.336  1.00  0.00     0.029 A 
ATOM     46  C   UNL     1       1.238 -11.021   2.930  1.00  0.00     0.049 A 
ATOM     47  H   UNL     1       0.815  -9.331   1.702  1.00  0.00     0.167 HD
ATOM     48  C   UNL     1       4.101  -7.839   7.994  1.00  0.00     0.034 A 
ATOM     49  C   UNL     1       2.150 -11.848   2.336  1.00  0.00     0.034 A 
ATOM     50  C   UNL     1       3.821  -9.274   7.931  1.00  0.00     0.049 A 
ATOM     51  C   UNL     1       3.037 -12.525   3.356  1.00  0.00     0.074 A 
ATOM     52  C   UNL     1       2.642  -9.970   8.146  1.00  0.00     0.029 A 
ATOM     53  N   UNL     1       4.699 -10.148   7.309  1.00  0.00    -0.354 N 
ATOM     54  N   UNL     1       3.275 -12.038   4.538  1.00  0.00    -0.248 NA
ATOM     55  C   UNL     1       3.779 -13.752   3.089  1.00  0.00     0.031 C 
ATOM     56  C   UNL     1       2.783 -11.251   7.569  1.00  0.00     0.029 A 
ATOM     57  C   UNL     1       4.059 -11.349   7.043  1.00  0.00     0.049 A 
ATOM     58  H   UNL     1       5.638  -9.946   7.090  1.00  0.00     0.167 HD
ATOM     59  C   UNL     1       4.228 -12.799   5.160  1.00  0.00     0.074 A 
ATOM     60  C   UNL     1       4.479 -13.886   4.228  1.00  0.00     0.031 C 
ATOM     61  C   UNL     1       4.753 -12.435   6.367  1.00  0.00     0.034 A 
BRANCH  48  62
ATOM     62  C   UNL     1       4.199  -7.105   9.324  1.00  0.00     0.023 A 
ATOM     63  C   UNL     1       3.699  -7.792  10.460  1.00  0.00     0.012 A 
ATOM     64  C   UNL     1       4.673  -5.794   9.550  1.00  0.00     0.148 A 
ATOM     65  C   UNL     1       3.563  -7.194  11.715  1.00  0.00     0.002 A 
ATOM     66  C   UNL     1       4.508  -5.181  10.804  1.00  0.00     0.091 A 
ATOM     67  F   UNL     1       5.314  -5.151   8.567  1.00  0.00    -0.205 F 
ATOM     68  C   UNL     1       3.942  -5.876  11.880  1.00  0.00     0.022 A 
BRANCH  66  69
ATOM     69  S   UNL     1       4.926  -3.458  11.130  1.00  0.00     0.127 S 
ATOM     70  O   UNL     1       3.633  -2.904  11.539  1.00  0.00    -0.237 OA
ATOM     71  O   UNL     1       5.905  -3.567  12.210  1.00  0.00    -0.237 OA
ATOM     72  O   UNL     1       5.440  -2.920   9.877  1.00  0.00    -0.744 OA
ENDBRANCH  66  69
ENDBRANCH  48  62
BRANCH  49  73
ATOM     73  C   UNL     1       2.681 -11.412   0.998  1.00  0.00     0.023 A 
ATOM     74  C   UNL     1       1.787 -11.088  -0.052  1.00  0.00     0.012 A 
ATOM     75  C   UNL     1       4.027 -11.051   0.843  1.00  0.00     0.148 A 
ATOM     76  C   UNL     1       2.205 -10.329  -1.156  1.00  0.00     0.002 A 
ATOM     77  C   UNL     1       4.433 -10.307  -0.263  1.00  0.00     0.091 A 
ATOM     78  F   UNL     1       4.913 -11.371   1.796  1.00  0.00    -0.205 F 
ATOM     79  C   UNL     1       3.529  -9.921  -1.254  1.00  0.00     0.022 A 
BRANCH  77  80
ATOM     80  S   UNL     1       6.131  -9.787  -0.344  1.00  0.00     0.127 S 
ATOM     81  O   UNL     1       6.200  -8.958  -1.550  1.00  0.00    -0.237 OA
ATOM     82  O   UNL     1       6.310  -9.029   0.887  1.00  0.00    -0.237 OA
ATOM     83  O   UNL     1       6.839 -11.059  -0.453  1.00  0.00    -0.744 OA
ENDBRANCH  77  80
ENDBRANCH  49  73
BRANCH  61  84
ATOM     84  C   UNL     1       5.924 -13.096   7.053  1.00  0.00     0.023 A 
ATOM     85  C   UNL     1       6.909 -13.806   6.342  1.00  0.00     0.012 A 
ATOM     86  C   UNL     1       6.144 -12.909   8.441  1.00  0.00     0.148 A 
ATOM     87  C   UNL     1       8.015 -14.372   6.985  1.00  0.00     0.002 A 
ATOM     88  C   UNL     1       7.301 -13.378   9.055  1.00  0.00     0.091 A 
ATOM     89  F   UNL     1       5.219 -12.292   9.191  1.00  0.00    -0.205 F 
ATOM     90  C   UNL     1       8.223 -14.141   8.338  1.00  0.00     0.022 A 
BRANCH  88  91
ATOM     91  S   UNL     1       7.700 -12.893  10.739  1.00  0.00     0.127 S 
ATOM     92  O   UNL     1       7.063 -13.949  11.521  1.00  0.00    -0.237 OA
ATOM     93  O   UNL     1       9.164 -12.933  10.743  1.00  0.00    -0.237 OA
ATOM     94  O   UNL     1       7.143 -11.555  10.883  1.00  0.00    -0.744 OA
ENDBRANCH  88  91
ENDBRANCH  61  84
ENDBRANCH  35  36
ENDBRANCH  28  30
ENDBRANCH  27  28
ENDBRANCH  26  27
ENDBRANCH   1  26
TORSDOF 18
