REMARK SMILES COC(=O)[C@H]1Sc2nnc(CCC(=O)OCCOC(=O)c3ccc(-c4c5nc(c(-c6cccc(S(=O)(=O)[O-])c6F)c6ccc([nH]6)c(-c6cccc(S(=O)(=O)[O-])c6F)c6nc(c(-c7cccc(S(=O)(=O)[O-])c7F)c7ccc4[nH]7)C=C6)C=C5)cc3)c(=O)n2N=C1C
REMARK SMILES IDX 16 1 15 2 13 3 14 4 12 5 11 6 10 7 5 8 6 9 88 10 7 11 87 12
REMARK SMILES IDX 89 13 8 14 86 15 9 16 84 17 85 18 3 19 4 20 2 21 1 22 17 23
REMARK SMILES IDX 18 24 19 25 20 26 21 27 22 28 83 29 23 30 82 31 24 32 25 33
REMARK SMILES IDX 26 34 76 35 27 36 81 37 75 38 77 39 28 40 80 41 74 42 73 43
REMARK SMILES IDX 29 45 61 46 41 47 60 48 42 49 45 50 59 51 78 52 43 53 44 54
REMARK SMILES IDX 58 56 79 57 46 58 30 59 31 60 39 61 32 62 34 63 40 64 33 65
REMARK SMILES IDX 35 66 36 67 37 68 38 69 62 70 63 71 71 72 64 73 66 74 72 75
REMARK SMILES IDX 65 76 67 77 68 78 69 79 70 80 47 81 48 82 56 83 49 84 51 85
REMARK SMILES IDX 57 86 50 87 52 88 53 89 54 90 55 91
REMARK H PARENT 77 44 45 55
REMARK Flexibility Score: inf
ROOT
ATOM      1  C   UNL     1      -0.057   8.342   4.286  1.00  0.00     0.274 C 
ENDROOT
BRANCH   1   2
ATOM      2  O   UNL     1      -0.216   8.456   2.858  1.00  0.00    -0.462 OA
BRANCH   2   3
ATOM      3  C   UNL     1      -0.850   9.565   2.399  1.00  0.00     0.306 C 
ATOM      4  O   UNL     1      -1.376  10.414   3.104  1.00  0.00    -0.252 OA
BRANCH   3   5
ATOM      5  C   UNL     1      -0.919   9.591   0.888  1.00  0.00     0.129 C 
BRANCH   5   6
ATOM      6  C   UNL     1       0.357   9.133   0.185  1.00  0.00     0.076 C 
BRANCH   6   7
ATOM      7  C   UNL     1       0.388   7.628   0.076  1.00  0.00     0.131 A 
ATOM      8  C   UNL     1       0.022   2.934   2.044  1.00  0.00     0.210 C 
ATOM      9  S   UNL     1       0.017   3.243   0.279  1.00  0.00    -0.063 SA
ATOM     10  C   UNL     1       0.968   3.831   2.781  1.00  0.00     0.061 C 
ATOM     11  C   UNL     1       0.119   4.981   0.280  1.00  0.00     0.214 A 
ATOM     12  N   UNL     1       1.349   5.011   2.410  1.00  0.00    -0.171 NA
ATOM     13  C   UNL     1       1.442   3.374   4.143  1.00  0.00     0.065 C 
ATOM     14  N   UNL     1      -0.436   5.608  -0.709  1.00  0.00    -0.123 NA
ATOM     15  N   UNL     1       0.858   5.590   1.263  1.00  0.00    -0.169 N 
ATOM     16  N   UNL     1      -0.424   7.011  -0.728  1.00  0.00    -0.147 NA
ATOM     17  C   UNL     1       1.297   6.869   1.005  1.00  0.00     0.296 A 
ATOM     18  O   UNL     1       2.320   7.391   1.423  1.00  0.00    -0.265 OA
BRANCH   8  19
ATOM     19  C   UNL     1      -1.346   2.901   2.677  1.00  0.00     0.325 C 
ATOM     20  O   UNL     1      -1.614   2.151   3.612  1.00  0.00    -0.250 OA
BRANCH  19  21
ATOM     21  O   UNL     1      -2.202   3.826   2.171  1.00  0.00    -0.468 OA
ATOM     22  C   UNL     1      -3.513   3.788   2.742  1.00  0.00     0.282 C 
ENDBRANCH  19  21
ENDBRANCH   8  19
ENDBRANCH   6   7
ENDBRANCH   5   6
ENDBRANCH   3   5
ENDBRANCH   2   3
ENDBRANCH   1   2
BRANCH   1  23
ATOM     23  C   UNL     1       1.331   8.804   4.736  1.00  0.00     0.275 C 
BRANCH  23  24
ATOM     24  O   UNL     1       1.446  10.234   4.651  1.00  0.00    -0.458 OA
BRANCH  24  25
ATOM     25  C   UNL     1       2.108  10.697   3.568  1.00  0.00     0.338 C 
ATOM     26  O   UNL     1       2.646  10.053   2.687  1.00  0.00    -0.246 OA
BRANCH  25  27
ATOM     27  C   UNL     1       2.005  12.156   3.510  1.00  0.00     0.060 A 
ATOM     28  C   UNL     1       1.149  12.720   2.561  1.00  0.00     0.016 A 
ATOM     29  C   UNL     1       2.833  12.952   4.301  1.00  0.00     0.016 A 
ATOM     30  C   UNL     1       1.125  14.099   2.390  1.00  0.00     0.010 A 
ATOM     31  C   UNL     1       2.799  14.336   4.135  1.00  0.00     0.010 A 
ATOM     32  C   UNL     1       1.958  14.913   3.168  1.00  0.00    -0.014 A 
BRANCH  32  33
ATOM     33  C   UNL     1       1.968  16.376   2.952  1.00  0.00     0.031 A 
ATOM     34  C   UNL     1       3.119  17.018   2.237  1.00  0.00     0.074 A 
ATOM     35  C   UNL     1       0.940  17.114   3.407  1.00  0.00     0.049 A 
ATOM     36  N   UNL     1       3.338  18.284   2.002  1.00  0.00    -0.248 NA
ATOM     37  C   UNL     1       4.163  16.118   1.718  1.00  0.00     0.031 C 
ATOM     38  C   UNL     1      -0.234  16.582   4.101  1.00  0.00     0.029 A 
ATOM     39  N   UNL     1       0.724  18.467   3.369  1.00  0.00    -0.354 N 
ATOM     40  C   UNL     1       4.552  18.340   1.329  1.00  0.00     0.074 A 
ATOM     41  C   UNL     1       5.030  16.980   1.203  1.00  0.00     0.031 C 
ATOM     42  C   UNL     1      -1.045  17.599   4.429  1.00  0.00     0.029 A 
ATOM     43  C   UNL     1      -0.432  18.855   4.004  1.00  0.00     0.049 A 
ATOM     44  H   UNL     1       1.337  19.100   2.929  1.00  0.00     0.167 HD
ATOM     45  C   UNL     1       5.197  19.427   0.845  1.00  0.00     0.034 A 
ATOM     46  C   UNL     1      -0.930  20.086   4.231  1.00  0.00     0.034 A 
ATOM     47  C   UNL     1       4.698  20.771   0.958  1.00  0.00     0.049 A 
ATOM     48  C   UNL     1      -0.174  21.279   3.713  1.00  0.00     0.074 A 
ATOM     49  C   UNL     1       5.263  21.941   0.481  1.00  0.00     0.029 A 
ATOM     50  N   UNL     1       3.516  21.127   1.592  1.00  0.00    -0.354 N 
ATOM     51  N   UNL     1       0.931  21.312   3.007  1.00  0.00    -0.248 NA
ATOM     52  C   UNL     1      -0.740  22.604   4.005  1.00  0.00     0.031 C 
ATOM     53  C   UNL     1       4.430  23.005   0.841  1.00  0.00     0.029 A 
ATOM     54  C   UNL     1       3.338  22.498   1.528  1.00  0.00     0.049 A 
ATOM     55  H   UNL     1       2.896  20.497   2.024  1.00  0.00     0.167 HD
ATOM     56  C   UNL     1       1.185  22.655   2.755  1.00  0.00     0.074 A 
ATOM     57  C   UNL     1       0.101  23.403   3.360  1.00  0.00     0.031 C 
ATOM     58  C   UNL     1       2.230  23.220   2.102  1.00  0.00     0.034 A 
BRANCH  45  59
ATOM     59  C   UNL     1       6.490  19.207   0.108  1.00  0.00     0.023 A 
ATOM     60  C   UNL     1       6.457  18.685  -1.201  1.00  0.00     0.012 A 
ATOM     61  C   UNL     1       7.726  19.581   0.673  1.00  0.00     0.148 A 
ATOM     62  C   UNL     1       7.635  18.519  -1.929  1.00  0.00     0.002 A 
ATOM     63  C   UNL     1       8.892  19.446  -0.073  1.00  0.00     0.091 A 
ATOM     64  F   UNL     1       7.738  20.054   1.927  1.00  0.00    -0.205 F 
ATOM     65  C   UNL     1       8.849  18.909  -1.371  1.00  0.00     0.022 A 
BRANCH  63  66
ATOM     66  S   UNL     1      10.497  19.983   0.529  1.00  0.00     0.127 S 
ATOM     67  O   UNL     1      11.173  18.705   0.747  1.00  0.00    -0.237 OA
ATOM     68  O   UNL     1      11.008  20.758  -0.603  1.00  0.00    -0.237 OA
ATOM     69  O   UNL     1      10.236  20.763   1.730  1.00  0.00    -0.744 OA
ENDBRANCH  63  66
ENDBRANCH  45  59
BRANCH  46  70
ATOM     70  C   UNL     1      -2.236  20.234   4.934  1.00  0.00     0.023 A 
ATOM     71  C   UNL     1      -3.360  20.671   4.208  1.00  0.00     0.012 A 
ATOM     72  C   UNL     1      -2.388  19.881   6.290  1.00  0.00     0.148 A 
ATOM     73  C   UNL     1      -4.609  20.767   4.822  1.00  0.00     0.002 A 
ATOM     74  C   UNL     1      -3.646  19.925   6.880  1.00  0.00     0.091 A 
ATOM     75  F   UNL     1      -1.302  19.487   6.970  1.00  0.00    -0.205 F 
ATOM     76  C   UNL     1      -4.756  20.380   6.151  1.00  0.00     0.022 A 
BRANCH  74  77
ATOM     77  S   UNL     1      -3.952  19.313   8.542  1.00  0.00     0.127 S 
ATOM     78  O   UNL     1      -4.186  20.552   9.279  1.00  0.00    -0.237 OA
ATOM     79  O   UNL     1      -5.139  18.480   8.345  1.00  0.00    -0.237 OA
ATOM     80  O   UNL     1      -2.755  18.570   8.913  1.00  0.00    -0.744 OA
ENDBRANCH  74  77
ENDBRANCH  46  70
BRANCH  58  81
ATOM     81  C   UNL     1       2.267  24.723   2.009  1.00  0.00     0.023 A 
ATOM     82  C   UNL     1       2.612  25.475   3.149  1.00  0.00     0.012 A 
ATOM     83  C   UNL     1       2.065  25.380   0.779  1.00  0.00     0.148 A 
ATOM     84  C   UNL     1       2.737  26.861   3.071  1.00  0.00     0.002 A 
ATOM     85  C   UNL     1       2.236  26.757   0.700  1.00  0.00     0.091 A 
ATOM     86  F   UNL     1       1.718  24.647  -0.289  1.00  0.00    -0.205 F 
ATOM     87  C   UNL     1       2.563  27.500   1.846  1.00  0.00     0.022 A 
BRANCH  85  88
ATOM     88  S   UNL     1       2.130  27.650  -0.856  1.00  0.00     0.127 S 
ATOM     89  O   UNL     1       0.837  28.320  -0.727  1.00  0.00    -0.237 OA
ATOM     90  O   UNL     1       3.288  28.541  -0.785  1.00  0.00    -0.237 OA
ATOM     91  O   UNL     1       2.211  26.640  -1.902  1.00  0.00    -0.744 OA
ENDBRANCH  85  88
ENDBRANCH  58  81
ENDBRANCH  32  33
ENDBRANCH  25  27
ENDBRANCH  24  25
ENDBRANCH  23  24
ENDBRANCH   1  23
TORSDOF 18
