REMARK SMILES C[C@@H]([C@H]1CC=CS1)n1nccc1NC(=O)CC1(CC(=O)OCCOC(=O)c2ccc(-c3c4nc(c(-c5cccc(S(=O)(=O)[O-])c5F)c5ccc([nH]5)c(-c5cccc(S(=O)(=O)[O-])c5F)c5nc(c(-c6cccc(S(=O)(=O)[O-])c6F)c6ccc3[nH]6)C=C5)C=C4)cc2)CCCCC1
REMARK SMILES IDX 21 1 19 2 20 3 18 4 17 5 90 6 94 7 91 8 93 9 92 10 16 11
REMARK SMILES IDX 14 12 13 13 15 15 12 16 8 17 9 18 10 19 11 20 2 21 1 22 3 23
REMARK SMILES IDX 4 24 7 25 5 26 6 27 22 28 23 29 24 30 25 31 26 32 27 33
REMARK SMILES IDX 28 34 89 35 29 36 88 37 30 38 31 39 32 40 82 41 33 42 87 43
REMARK SMILES IDX 81 44 83 45 34 46 86 47 80 48 79 49 35 51 67 52 47 53 66 54
REMARK SMILES IDX 48 55 51 56 65 57 84 58 49 59 50 60 64 62 85 63 52 64 36 65
REMARK SMILES IDX 37 66 45 67 38 68 40 69 46 70 39 71 41 72 42 73 43 74 44 75
REMARK SMILES IDX 68 76 69 77 77 78 70 79 72 80 78 81 71 82 73 83 74 84 75 85
REMARK SMILES IDX 76 86 53 87 54 88 62 89 55 90 57 91 63 92 56 93 58 94 59 95
REMARK SMILES IDX 60 96 61 97
REMARK H PARENT 13 14 83 50 51 61
REMARK Flexibility Score: inf
ROOT
ATOM      1  O   UNL     1      -1.390  -6.552   7.286  1.00  0.00    -0.462 OA
ENDROOT
BRANCH   1   2
ATOM      2  C   UNL     1      -1.971  -5.503   6.665  1.00  0.00     0.306 C 
ATOM      3  O   UNL     1      -2.684  -4.671   7.218  1.00  0.00    -0.252 OA
BRANCH   2   4
ATOM      4  C   UNL     1      -1.627  -5.405   5.184  1.00  0.00     0.130 C 
BRANCH   4   5
ATOM      5  C   UNL     1      -0.740  -6.439   4.415  1.00  0.00    -0.010 C 
ATOM      6  C   UNL     1      -1.040  -6.234   2.905  1.00  0.00     0.008 C 
ATOM      7  C   UNL     1      -1.086  -7.923   4.739  1.00  0.00     0.008 C 
ATOM      8  C   UNL     1      -2.423  -6.686   2.438  1.00  0.00     0.001 C 
ATOM      9  C   UNL     1      -2.499  -8.324   4.345  1.00  0.00     0.001 C 
ATOM     10  C   UNL     1      -2.707  -8.122   2.850  1.00  0.00     0.000 C 
BRANCH   5  11
ATOM     11  C   UNL     1       0.801  -6.321   4.677  1.00  0.00     0.108 C 
BRANCH  11  12
ATOM     12  C   UNL     1       1.653  -5.093   4.392  1.00  0.00     0.226 C 
ATOM     13  N   UNL     1       1.426  -4.211   3.287  1.00  0.00    -0.311 N 
ATOM     14  H   UNL     1       1.198  -3.269   3.463  1.00  0.00     0.171 HD
ATOM     15  O   UNL     1       2.695  -4.875   4.991  1.00  0.00    -0.275 OA
BRANCH  13  16
ATOM     16  C   UNL     1       1.520  -4.653   1.973  1.00  0.00     0.131 A 
ATOM     17  N   UNL     1       1.227  -3.984   0.793  1.00  0.00    -0.246 N 
ATOM     18  N   UNL     1       1.131  -4.851  -0.236  1.00  0.00    -0.179 NA
ATOM     19  C   UNL     1       1.585  -6.004   0.239  1.00  0.00     0.137 A 
ATOM     20  C   UNL     1       1.952  -5.904   1.583  1.00  0.00     0.068 A 
BRANCH  17  21
ATOM     21  C   UNL     1       0.922  -2.566   0.576  1.00  0.00     0.120 C 
ATOM     22  C   UNL     1       1.992  -1.671   1.235  1.00  0.00     0.034 C 
BRANCH  21  23
ATOM     23  C   UNL     1       0.753  -2.088  -0.907  1.00  0.00     0.079 C 
ATOM     24  C   UNL     1       2.029  -2.178  -1.773  1.00  0.00     0.045 C 
ATOM     25  S   UNL     1      -0.600  -2.863  -1.899  1.00  0.00    -0.128 SA
ATOM     26  C   UNL     1       1.760  -3.064  -2.945  1.00  0.00    -0.019 C 
ATOM     27  C   UNL     1       0.497  -3.472  -3.094  1.00  0.00     0.037 C 
ENDBRANCH  21  23
ENDBRANCH  17  21
ENDBRANCH  13  16
ENDBRANCH  11  12
ENDBRANCH   5  11
ENDBRANCH   4   5
ENDBRANCH   2   4
ENDBRANCH   1   2
BRANCH   1  28
ATOM     28  C   UNL     1      -1.386  -6.537   8.726  1.00  0.00     0.274 C 
BRANCH  28  29
ATOM     29  C   UNL     1       0.029  -6.240   9.203  1.00  0.00     0.275 C 
BRANCH  29  30
ATOM     30  O   UNL     1       0.319  -4.835   9.271  1.00  0.00    -0.458 OA
BRANCH  30  31
ATOM     31  C   UNL     1       0.739  -4.284   8.115  1.00  0.00     0.338 C 
ATOM     32  O   UNL     1       0.291  -4.463   6.997  1.00  0.00    -0.246 OA
BRANCH  31  33
ATOM     33  C   UNL     1       2.041  -3.647   8.257  1.00  0.00     0.060 A 
ATOM     34  C   UNL     1       2.530  -3.021   7.106  1.00  0.00     0.016 A 
ATOM     35  C   UNL     1       2.854  -3.913   9.358  1.00  0.00     0.016 A 
ATOM     36  C   UNL     1       3.881  -2.813   6.982  1.00  0.00     0.010 A 
ATOM     37  C   UNL     1       4.199  -3.628   9.268  1.00  0.00     0.010 A 
ATOM     38  C   UNL     1       4.707  -3.116   8.068  1.00  0.00    -0.014 A 
BRANCH  38  39
ATOM     39  C   UNL     1       6.022  -2.488   8.060  1.00  0.00     0.031 A 
ATOM     40  C   UNL     1       5.876  -1.000   7.943  1.00  0.00     0.074 A 
ATOM     41  C   UNL     1       7.145  -3.185   8.323  1.00  0.00     0.049 A 
ATOM     42  N   UNL     1       6.393  -0.208   7.060  1.00  0.00    -0.248 NA
ATOM     43  C   UNL     1       4.813  -0.352   8.751  1.00  0.00     0.031 C 
ATOM     44  C   UNL     1       7.226  -4.611   8.657  1.00  0.00     0.029 A 
ATOM     45  N   UNL     1       8.422  -2.752   8.535  1.00  0.00    -0.354 N 
ATOM     46  C   UNL     1       5.940   1.065   7.417  1.00  0.00     0.074 A 
ATOM     47  C   UNL     1       4.785   0.875   8.238  1.00  0.00     0.031 C 
ATOM     48  C   UNL     1       8.387  -4.850   9.302  1.00  0.00     0.029 A 
ATOM     49  C   UNL     1       9.164  -3.624   9.339  1.00  0.00     0.049 A 
ATOM     50  H   UNL     1       8.782  -1.915   8.162  1.00  0.00     0.167 HD
ATOM     51  C   UNL     1       6.777   2.134   7.344  1.00  0.00     0.034 A 
ATOM     52  C   UNL     1      10.267  -3.327  10.077  1.00  0.00     0.034 A 
ATOM     53  C   UNL     1       7.833   1.877   6.399  1.00  0.00     0.049 A 
ATOM     54  C   UNL     1      10.783  -2.032   9.589  1.00  0.00     0.074 A 
ATOM     55  C   UNL     1       7.901   1.582   5.054  1.00  0.00     0.029 A 
ATOM     56  N   UNL     1       9.031   1.503   6.950  1.00  0.00    -0.354 N 
ATOM     57  N   UNL     1      11.318  -1.863   8.416  1.00  0.00    -0.248 NA
ATOM     58  C   UNL     1      10.335  -0.823  10.259  1.00  0.00     0.031 C 
ATOM     59  C   UNL     1       9.008   0.695   4.921  1.00  0.00     0.029 A 
ATOM     60  C   UNL     1       9.616   0.550   6.169  1.00  0.00     0.049 A 
ATOM     61  H   UNL     1       9.411   1.867   7.782  1.00  0.00     0.167 HD
ATOM     62  C   UNL     1      10.831  -0.632   8.003  1.00  0.00     0.074 A 
ATOM     63  C   UNL     1      10.365   0.021   9.224  1.00  0.00     0.031 C 
ATOM     64  C   UNL     1      10.570  -0.408   6.682  1.00  0.00     0.034 A 
BRANCH  51  65
ATOM     65  C   UNL     1       6.952   3.144   8.477  1.00  0.00     0.023 A 
ATOM     66  C   UNL     1       7.903   4.168   8.267  1.00  0.00     0.012 A 
ATOM     67  C   UNL     1       6.489   2.982   9.808  1.00  0.00     0.148 A 
ATOM     68  C   UNL     1       8.426   4.920   9.326  1.00  0.00     0.002 A 
ATOM     69  C   UNL     1       6.960   3.776  10.848  1.00  0.00     0.091 A 
ATOM     70  F   UNL     1       5.667   1.986  10.129  1.00  0.00    -0.205 F 
ATOM     71  C   UNL     1       7.956   4.724  10.619  1.00  0.00     0.022 A 
BRANCH  69  72
ATOM     72  S   UNL     1       6.358   3.581  12.534  1.00  0.00     0.127 S 
ATOM     73  O   UNL     1       7.545   3.064  13.208  1.00  0.00    -0.237 OA
ATOM     74  O   UNL     1       5.994   4.956  12.874  1.00  0.00    -0.237 OA
ATOM     75  O   UNL     1       5.226   2.666  12.453  1.00  0.00    -0.744 OA
ENDBRANCH  69  72
ENDBRANCH  51  65
BRANCH  52  76
ATOM     76  C   UNL     1      10.776  -3.908  11.347  1.00  0.00     0.023 A 
ATOM     77  C   UNL     1      12.108  -3.649  11.742  1.00  0.00     0.012 A 
ATOM     78  C   UNL     1       9.903  -4.463  12.305  1.00  0.00     0.148 A 
ATOM     79  C   UNL     1      12.540  -3.896  13.052  1.00  0.00     0.002 A 
ATOM     80  C   UNL     1      10.339  -4.720  13.603  1.00  0.00     0.091 A 
ATOM     81  F   UNL     1       8.618  -4.649  11.978  1.00  0.00    -0.205 F 
ATOM     82  C   UNL     1      11.653  -4.425  13.985  1.00  0.00     0.022 A 
BRANCH  80  83
ATOM     83  S   UNL     1       9.238  -5.378  14.864  1.00  0.00     0.127 S 
ATOM     84  O   UNL     1      10.041  -6.460  15.432  1.00  0.00    -0.237 OA
ATOM     85  O   UNL     1       9.056  -4.222  15.738  1.00  0.00    -0.237 OA
ATOM     86  O   UNL     1       8.047  -5.827  14.153  1.00  0.00    -0.744 OA
ENDBRANCH  80  83
ENDBRANCH  52  76
BRANCH  64  87
ATOM     87  C   UNL     1      11.184  -1.349   5.679  1.00  0.00     0.023 A 
ATOM     88  C   UNL     1      10.893  -2.728   5.618  1.00  0.00     0.012 A 
ATOM     89  C   UNL     1      11.995  -0.780   4.684  1.00  0.00     0.148 A 
ATOM     90  C   UNL     1      11.429  -3.524   4.601  1.00  0.00     0.002 A 
ATOM     91  C   UNL     1      12.476  -1.561   3.645  1.00  0.00     0.091 A 
ATOM     92  F   UNL     1      12.267   0.531   4.762  1.00  0.00    -0.205 F 
ATOM     93  C   UNL     1      12.208  -2.937   3.605  1.00  0.00     0.022 A 
BRANCH  91  94
ATOM     94  S   UNL     1      13.365  -0.824   2.276  1.00  0.00     0.127 S 
ATOM     95  O   UNL     1      14.749  -1.171   2.589  1.00  0.00    -0.237 OA
ATOM     96  O   UNL     1      12.800  -1.525   1.122  1.00  0.00    -0.237 OA
ATOM     97  O   UNL     1      13.045   0.599   2.316  1.00  0.00    -0.744 OA
ENDBRANCH  91  94
ENDBRANCH  64  87
ENDBRANCH  38  39
ENDBRANCH  31  33
ENDBRANCH  30  31
ENDBRANCH  29  30
ENDBRANCH  28  29
ENDBRANCH   1  28
TORSDOF 20
