REMARK SMILES O=C(OCCOC(=O)c1cc(NC(=S)NC(=O)c2ccccc2F)ccc1Cl)c1ccc(-c2c3nc(c(-c4cccc(S(=O)(=O)[O-])c4F)c4ccc([nH]4)c(-c4cccc(S(=O)(=O)[O-])c4F)c4nc(c(-c5cccc(S(=O)(=O)[O-])c5F)c5ccc2[nH]5)C=C4)C=C3)cc1
REMARK SMILES IDX 5 1 4 2 3 3 2 4 1 5 29 6 30 7 91 8 31 9 90 10 32 11 33 12
REMARK SMILES IDX 34 13 84 14 35 15 89 16 83 17 85 18 36 19 88 20 82 21 81 22
REMARK SMILES IDX 37 24 69 25 49 26 68 27 50 28 53 29 67 30 86 31 51 32 52 33
REMARK SMILES IDX 66 35 87 36 54 37 38 38 39 39 47 40 40 41 42 42 48 43 41 44
REMARK SMILES IDX 43 45 44 46 45 47 46 48 70 49 71 50 79 51 72 52 74 53 80 54
REMARK SMILES IDX 73 55 75 56 76 57 77 58 78 59 55 60 56 61 64 62 57 63 59 64
REMARK SMILES IDX 65 65 58 66 60 67 61 68 62 69 63 70 6 71 7 72 8 73 9 74
REMARK SMILES IDX 10 75 27 76 11 77 26 78 28 79 25 80 12 81 13 83 14 84 15 85
REMARK SMILES IDX 16 86 17 88 18 89 19 90 23 91 20 92 22 93 24 94 21 95
REMARK H PARENT 85 23 53 34 12 82 15 87
REMARK Flexibility Score: inf
ROOT
ATOM      1  C   UNL     1       4.193  -1.432  -1.691  1.00  0.00     0.275 C 
ENDROOT
BRANCH   1   2
ATOM      2  C   UNL     1       4.972  -1.733  -0.393  1.00  0.00     0.275 C 
BRANCH   2   3
ATOM      3  O   UNL     1       4.371  -1.241   0.801  1.00  0.00    -0.458 OA
BRANCH   3   4
ATOM      4  C   UNL     1       4.060   0.051   1.025  1.00  0.00     0.338 C 
ATOM      5  O   UNL     1       3.061   0.291   1.701  1.00  0.00    -0.246 OA
BRANCH   4   6
ATOM      6  C   UNL     1       4.882   1.197   0.490  1.00  0.00     0.060 A 
ATOM      7  C   UNL     1       5.853   1.177  -0.524  1.00  0.00     0.016 A 
ATOM      8  C   UNL     1       4.469   2.445   0.940  1.00  0.00     0.016 A 
ATOM      9  C   UNL     1       6.233   2.336  -1.219  1.00  0.00     0.010 A 
ATOM     10  C   UNL     1       4.777   3.580   0.200  1.00  0.00     0.010 A 
ATOM     11  C   UNL     1       5.641   3.549  -0.916  1.00  0.00    -0.014 A 
BRANCH  11  12
ATOM     12  C   UNL     1       5.944   4.809  -1.661  1.00  0.00     0.031 A 
ATOM     13  C   UNL     1       6.306   6.003  -0.823  1.00  0.00     0.074 A 
ATOM     14  C   UNL     1       5.819   4.962  -3.004  1.00  0.00     0.049 A 
ATOM     15  N   UNL     1       6.411   7.253  -1.173  1.00  0.00    -0.248 NA
ATOM     16  C   UNL     1       6.491   5.769   0.626  1.00  0.00     0.031 C 
ATOM     17  C   UNL     1       5.434   3.932  -3.972  1.00  0.00     0.029 A 
ATOM     18  N   UNL     1       5.974   6.084  -3.795  1.00  0.00    -0.354 N 
ATOM     19  C   UNL     1       6.651   7.918   0.017  1.00  0.00     0.074 A 
ATOM     20  C   UNL     1       6.407   6.998   1.096  1.00  0.00     0.031 C 
ATOM     21  C   UNL     1       5.346   4.473  -5.204  1.00  0.00     0.029 A 
ATOM     22  C   UNL     1       5.688   5.888  -5.133  1.00  0.00     0.049 A 
ATOM     23  H   UNL     1       6.265   6.953  -3.435  1.00  0.00     0.167 HD
ATOM     24  C   UNL     1       7.236   9.115   0.212  1.00  0.00     0.034 A 
ATOM     25  C   UNL     1       5.726   6.747  -6.178  1.00  0.00     0.034 A 
ATOM     26  C   UNL     1       7.649   9.972  -0.847  1.00  0.00     0.049 A 
ATOM     27  C   UNL     1       6.282   8.136  -5.944  1.00  0.00     0.074 A 
ATOM     28  C   UNL     1       8.345  11.158  -0.762  1.00  0.00     0.029 A 
ATOM     29  N   UNL     1       7.412   9.721  -2.186  1.00  0.00    -0.354 N 
ATOM     30  N   UNL     1       6.700   8.674  -4.825  1.00  0.00    -0.248 NA
ATOM     31  C   UNL     1       6.458   9.003  -7.122  1.00  0.00     0.031 C 
ATOM     32  C   UNL     1       8.494  11.653  -2.058  1.00  0.00     0.029 A 
ATOM     33  C   UNL     1       7.929  10.748  -2.946  1.00  0.00     0.049 A 
ATOM     34  H   UNL     1       6.945   8.931  -2.542  1.00  0.00     0.167 HD
ATOM     35  C   UNL     1       7.263   9.898  -5.174  1.00  0.00     0.074 A 
ATOM     36  C   UNL     1       7.124  10.028  -6.608  1.00  0.00     0.031 C 
ATOM     37  C   UNL     1       7.849  10.826  -4.379  1.00  0.00     0.034 A 
BRANCH  24  38
ATOM     38  C   UNL     1       7.585   9.465   1.625  1.00  0.00     0.023 A 
ATOM     39  C   UNL     1       8.600   8.743   2.295  1.00  0.00     0.012 A 
ATOM     40  C   UNL     1       6.900  10.490   2.288  1.00  0.00     0.148 A 
ATOM     41  C   UNL     1       8.891   9.008   3.628  1.00  0.00     0.002 A 
ATOM     42  C   UNL     1       7.241  10.792   3.597  1.00  0.00     0.091 A 
ATOM     43  F   UNL     1       5.922  11.130   1.633  1.00  0.00    -0.205 F 
ATOM     44  C   UNL     1       8.220  10.041   4.274  1.00  0.00     0.022 A 
BRANCH  42  45
ATOM     45  S   UNL     1       6.501  12.158   4.487  1.00  0.00     0.127 S 
ATOM     46  O   UNL     1       5.909  11.476   5.637  1.00  0.00    -0.237 OA
ATOM     47  O   UNL     1       7.670  12.979   4.794  1.00  0.00    -0.237 OA
ATOM     48  O   UNL     1       5.542  12.764   3.573  1.00  0.00    -0.744 OA
ENDBRANCH  42  45
ENDBRANCH  24  38
BRANCH  25  49
ATOM     49  C   UNL     1       5.355   6.326  -7.569  1.00  0.00     0.023 A 
ATOM     50  C   UNL     1       6.362   6.202  -8.550  1.00  0.00     0.012 A 
ATOM     51  C   UNL     1       4.013   6.126  -7.950  1.00  0.00     0.148 A 
ATOM     52  C   UNL     1       6.039   5.949  -9.887  1.00  0.00     0.002 A 
ATOM     53  C   UNL     1       3.700   5.835  -9.278  1.00  0.00     0.091 A 
ATOM     54  F   UNL     1       3.063   6.244  -7.012  1.00  0.00    -0.205 F 
ATOM     55  C   UNL     1       4.710   5.765 -10.252  1.00  0.00     0.022 A 
BRANCH  53  56
ATOM     56  S   UNL     1       2.023   5.501  -9.835  1.00  0.00     0.127 S 
ATOM     57  O   UNL     1       1.781   6.611 -10.752  1.00  0.00    -0.237 OA
ATOM     58  O   UNL     1       2.176   4.193 -10.472  1.00  0.00    -0.237 OA
ATOM     59  O   UNL     1       1.205   5.490  -8.628  1.00  0.00    -0.744 OA
ENDBRANCH  53  56
ENDBRANCH  25  49
BRANCH  37  60
ATOM     60  C   UNL     1       8.451  12.047  -5.014  1.00  0.00     0.023 A 
ATOM     61  C   UNL     1       7.617  13.053  -5.536  1.00  0.00     0.012 A 
ATOM     62  C   UNL     1       9.842  12.266  -4.934  1.00  0.00     0.148 A 
ATOM     63  C   UNL     1       8.161  14.255  -5.983  1.00  0.00     0.002 A 
ATOM     64  C   UNL     1      10.368  13.491  -5.319  1.00  0.00     0.091 A 
ATOM     65  F   UNL     1      10.617  11.287  -4.444  1.00  0.00    -0.205 F 
ATOM     66  C   UNL     1       9.530  14.482  -5.856  1.00  0.00     0.022 A 
BRANCH  64  67
ATOM     67  S   UNL     1      12.092  13.921  -5.062  1.00  0.00     0.127 S 
ATOM     68  O   UNL     1      12.592  13.976  -6.434  1.00  0.00    -0.237 OA
ATOM     69  O   UNL     1      11.989  15.220  -4.396  1.00  0.00    -0.237 OA
ATOM     70  O   UNL     1      12.655  12.860  -4.237  1.00  0.00    -0.744 OA
ENDBRANCH  64  67
ENDBRANCH  37  60
ENDBRANCH  11  12
ENDBRANCH   4   6
ENDBRANCH   3   4
ENDBRANCH   2   3
ENDBRANCH   1   2
BRANCH   1  71
ATOM     71  O   UNL     1       3.698  -0.071  -1.858  1.00  0.00    -0.458 OA
BRANCH  71  72
ATOM     72  C   UNL     1       2.527   0.024  -2.558  1.00  0.00     0.339 C 
ATOM     73  O   UNL     1       1.926  -0.957  -2.981  1.00  0.00    -0.246 OA
BRANCH  72  74
ATOM     74  C   UNL     1       2.101   1.470  -2.940  1.00  0.00     0.080 A 
ATOM     75  C   UNL     1       0.665   2.763  -2.366  1.00  0.00     0.043 A 
ATOM     76  C   UNL     1       2.597   1.679  -4.679  1.00  0.00     0.055 A 
ATOM     77  C   UNL     1      -0.038   3.954  -3.304  1.00  0.00     0.041 A 
ATOM     78  C   UNL     1       1.774   2.954  -5.643  1.00  0.00     0.023 A 
ATOM     79  Cl  UNL     1       3.791   0.690  -5.420  1.00  0.00    -0.083 Cl
ATOM     80  C   UNL     1       0.505   4.048  -4.955  1.00  0.00     0.028 A 
BRANCH  77  81
ATOM     81  N   UNL     1      -0.969   4.632  -2.464  1.00  0.00    -0.332 N 
ATOM     82  H   UNL     1      -1.448   5.376  -2.895  1.00  0.00     0.169 HD
BRANCH  81  83
ATOM     83  C   UNL     1      -1.314   4.407  -1.106  1.00  0.00     0.177 C 
ATOM     84  S   UNL     1      -2.118   5.649  -0.305  1.00  0.00    -0.040 S 
BRANCH  83  85
ATOM     85  N   UNL     1      -1.126   3.169  -0.310  1.00  0.00    -0.299 N 
ATOM     86  C   UNL     1      -0.612   1.710  -0.113  1.00  0.00     0.260 C 
ATOM     87  H   UNL     1      -1.551   3.383   0.551  1.00  0.00     0.172 HD
ATOM     88  O   UNL     1      -1.095   1.018   0.779  1.00  0.00    -0.269 OA
BRANCH  86  89
ATOM     89  C   UNL     1       0.548   1.125  -1.030  1.00  0.00     0.075 A 
ATOM     90  C   UNL     1      -0.027   0.842  -2.721  1.00  0.00     0.017 A 
ATOM     91  C   UNL     1       1.846   2.281  -0.663  1.00  0.00     0.135 A 
ATOM     92  C   UNL     1       0.603   1.949  -4.031  1.00  0.00     0.001 A 
ATOM     93  C   UNL     1       2.586   3.357  -1.829  1.00  0.00     0.040 A 
ATOM     94  F   UNL     1       1.817   2.783   0.589  1.00  0.00    -0.206 F 
ATOM     95  C   UNL     1       2.026   3.302  -3.510  1.00  0.00     0.003 A 
ENDBRANCH  86  89
ENDBRANCH  83  85
ENDBRANCH  81  83
ENDBRANCH  77  81
ENDBRANCH  72  74
ENDBRANCH  71  72
ENDBRANCH   1  71
TORSDOF 18
