REMARK SMILES C[C@@H](NC1=[NH+]CCC1)C(=O)OCCOC(=O)c1ccc(-c2c3nc(c(-c4cccc(S(=O)(=O)[O-])c4F)c4ccc([nH]4)c(-c4cccc(S(=O)(=O)[O-])c4F)c4nc(c(-c5cccc(S(=O)(=O)[O-])c5F)c5ccc2[nH]5)C=C4)C=C3)cc1
REMARK SMILES IDX 13 1 12 2 11 3 9 4 10 5 2 6 1 7 3 8 4 9 5 11 8 12 6 13 7 15
REMARK SMILES IDX 14 16 15 17 16 18 17 19 18 20 79 21 19 22 78 23 20 24 21 25
REMARK SMILES IDX 22 26 72 27 23 28 77 29 71 30 73 31 24 32 76 33 70 34 69 35
REMARK SMILES IDX 25 37 57 38 37 39 56 40 38 41 41 42 55 43 74 44 39 45 40 46
REMARK SMILES IDX 54 48 75 49 42 50 26 51 27 52 35 53 28 54 30 55 36 56 29 57
REMARK SMILES IDX 31 58 32 59 33 60 34 61 58 62 59 63 67 64 60 65 62 66 68 67
REMARK SMILES IDX 61 68 63 69 64 70 65 71 66 72 43 73 44 74 52 75 45 76 47 77
REMARK SMILES IDX 53 78 46 79 48 80 49 81 50 82 51 83
REMARK H PARENT 3 10 5 14 73 36 41 47
REMARK Flexibility Score: inf
ROOT
ATOM      1  C   UNL     1      -3.548  -0.092   0.561  1.00  0.00     0.275 C 
ENDROOT
BRANCH   1   2
ATOM      2  C   UNL     1      -3.062   0.654  -0.689  1.00  0.00     0.274 C 
BRANCH   2   3
ATOM      3  O   UNL     1      -1.636   0.577  -0.884  1.00  0.00    -0.459 OA
BRANCH   3   4
ATOM      4  C   UNL     1      -0.908   1.581  -0.320  1.00  0.00     0.350 C 
ATOM      5  O   UNL     1      -1.390   2.478   0.364  1.00  0.00    -0.247 OA
BRANCH   4   6
ATOM      6  C   UNL     1       0.581   1.525  -0.678  1.00  0.00     0.279 C 
ATOM      7  C   UNL     1       1.141   0.116  -0.474  1.00  0.00     0.071 C 
BRANCH   6   8
ATOM      8  N   UNL     1       0.891   1.951  -2.042  1.00  0.00    -0.265 N 
ATOM      9  C   UNL     1       0.081   2.573  -2.938  1.00  0.00     0.243 C 
ATOM     10  H   UNL     1       1.807   1.763  -2.351  1.00  0.00     0.305 HD
ATOM     11  N   UNL     1       0.132   2.221  -4.191  1.00  0.00    -0.279 N 
ATOM     12  C   UNL     1      -0.862   3.702  -2.626  1.00  0.00     0.131 C 
ATOM     13  C   UNL     1      -0.911   3.019  -4.864  1.00  0.00     0.234 C 
ATOM     14  H   UNL     1       0.738   1.564  -4.603  1.00  0.00     0.304 HD
ATOM     15  C   UNL     1      -1.837   3.484  -3.755  1.00  0.00     0.058 C 
ENDBRANCH   6   8
ENDBRANCH   4   6
ENDBRANCH   3   4
ENDBRANCH   2   3
ENDBRANCH   1   2
BRANCH   1  16
ATOM     16  O   UNL     1      -3.142   0.560   1.779  1.00  0.00    -0.458 OA
BRANCH  16  17
ATOM     17  C   UNL     1      -1.950   0.145   2.268  1.00  0.00     0.338 C 
ATOM     18  O   UNL     1      -1.263  -0.763   1.828  1.00  0.00    -0.246 OA
BRANCH  17  19
ATOM     19  C   UNL     1      -1.467   1.060   3.319  1.00  0.00     0.060 A 
ATOM     20  C   UNL     1      -0.157   1.537   3.196  1.00  0.00     0.016 A 
ATOM     21  C   UNL     1      -2.235   1.385   4.439  1.00  0.00     0.016 A 
ATOM     22  C   UNL     1       0.406   2.315   4.199  1.00  0.00     0.010 A 
ATOM     23  C   UNL     1      -1.662   2.156   5.457  1.00  0.00     0.010 A 
ATOM     24  C   UNL     1      -0.330   2.596   5.354  1.00  0.00    -0.014 A 
BRANCH  24  25
ATOM     25  C   UNL     1       0.370   3.218   6.501  1.00  0.00     0.031 A 
ATOM     26  C   UNL     1       0.832   2.341   7.631  1.00  0.00     0.074 A 
ATOM     27  C   UNL     1       0.645   4.534   6.501  1.00  0.00     0.049 A 
ATOM     28  N   UNL     1       1.489   2.664   8.713  1.00  0.00    -0.248 NA
ATOM     29  C   UNL     1       0.513   0.907   7.526  1.00  0.00     0.031 C 
ATOM     30  C   UNL     1       0.274   5.474   5.443  1.00  0.00     0.029 A 
ATOM     31  N   UNL     1       1.301   5.307   7.425  1.00  0.00    -0.354 N 
ATOM     32  C   UNL     1       1.629   1.486   9.436  1.00  0.00     0.074 A 
ATOM     33  C   UNL     1       0.988   0.440   8.671  1.00  0.00     0.031 C 
ATOM     34  C   UNL     1       0.700   6.703   5.784  1.00  0.00     0.029 A 
ATOM     35  C   UNL     1       1.352   6.640   7.090  1.00  0.00     0.049 A 
ATOM     36  H   UNL     1       1.698   4.943   8.249  1.00  0.00     0.167 HD
ATOM     37  C   UNL     1       2.246   1.291  10.625  1.00  0.00     0.034 A 
ATOM     38  C   UNL     1       1.859   7.687   7.769  1.00  0.00     0.034 A 
ATOM     39  C   UNL     1       2.913   2.328  11.364  1.00  0.00     0.049 A 
ATOM     40  C   UNL     1       2.534   7.441   9.094  1.00  0.00     0.074 A 
ATOM     41  C   UNL     1       3.604   2.226  12.558  1.00  0.00     0.029 A 
ATOM     42  N   UNL     1       2.968   3.660  10.981  1.00  0.00    -0.354 N 
ATOM     43  N   UNL     1       2.748   6.306   9.715  1.00  0.00    -0.248 NA
ATOM     44  C   UNL     1       3.067   8.618   9.795  1.00  0.00     0.031 C 
ATOM     45  C   UNL     1       4.059   3.502  12.909  1.00  0.00     0.029 A 
ATOM     46  C   UNL     1       3.673   4.393  11.920  1.00  0.00     0.049 A 
ATOM     47  H   UNL     1       2.565   4.029  10.163  1.00  0.00     0.167 HD
ATOM     48  C   UNL     1       3.473   6.626  10.858  1.00  0.00     0.074 A 
ATOM     49  C   UNL     1       3.677   8.060  10.833  1.00  0.00     0.031 C 
ATOM     50  C   UNL     1       3.917   5.811  11.847  1.00  0.00     0.034 A 
BRANCH  37  51
ATOM     51  C   UNL     1       2.236  -0.102  11.193  1.00  0.00     0.023 A 
ATOM     52  C   UNL     1       3.056  -1.098  10.624  1.00  0.00     0.012 A 
ATOM     53  C   UNL     1       1.441  -0.417  12.311  1.00  0.00     0.148 A 
ATOM     54  C   UNL     1       3.060  -2.394  11.141  1.00  0.00     0.002 A 
ATOM     55  C   UNL     1       1.481  -1.699  12.846  1.00  0.00     0.091 A 
ATOM     56  F   UNL     1       0.646   0.536  12.820  1.00  0.00    -0.205 F 
ATOM     57  C   UNL     1       2.280  -2.691  12.256  1.00  0.00     0.022 A 
BRANCH  55  58
ATOM     58  S   UNL     1       0.567  -2.156  14.323  1.00  0.00     0.127 S 
ATOM     59  O   UNL     1      -0.509  -2.973  13.765  1.00  0.00    -0.237 OA
ATOM     60  O   UNL     1       1.567  -2.903  15.087  1.00  0.00    -0.237 OA
ATOM     61  O   UNL     1       0.150  -0.903  14.938  1.00  0.00    -0.744 OA
ENDBRANCH  55  58
ENDBRANCH  37  51
BRANCH  38  62
ATOM     62  C   UNL     1       1.795   9.058   7.186  1.00  0.00     0.023 A 
ATOM     63  C   UNL     1       2.982   9.691   6.770  1.00  0.00     0.012 A 
ATOM     64  C   UNL     1       0.568   9.731   7.030  1.00  0.00     0.148 A 
ATOM     65  C   UNL     1       2.952  10.980   6.236  1.00  0.00     0.002 A 
ATOM     66  C   UNL     1       0.539  10.993   6.447  1.00  0.00     0.091 A 
ATOM     67  F   UNL     1      -0.550   9.121   7.451  1.00  0.00    -0.205 F 
ATOM     68  C   UNL     1       1.731  11.626   6.065  1.00  0.00     0.022 A 
BRANCH  66  69
ATOM     69  S   UNL     1      -0.998  11.846   6.077  1.00  0.00     0.127 S 
ATOM     70  O   UNL     1      -0.995  12.914   7.073  1.00  0.00    -0.237 OA
ATOM     71  O   UNL     1      -0.775  12.287   4.699  1.00  0.00    -0.237 OA
ATOM     72  O   UNL     1      -2.047  10.845   6.222  1.00  0.00    -0.744 OA
ENDBRANCH  66  69
ENDBRANCH  38  62
BRANCH  50  73
ATOM     73  C   UNL     1       4.708   6.439  12.965  1.00  0.00     0.023 A 
ATOM     74  C   UNL     1       4.054   7.234  13.927  1.00  0.00     0.012 A 
ATOM     75  C   UNL     1       6.086   6.181  13.103  1.00  0.00     0.148 A 
ATOM     76  C   UNL     1       4.766   7.792  14.988  1.00  0.00     0.002 A 
ATOM     77  C   UNL     1       6.779   6.700  14.190  1.00  0.00     0.091 A 
ATOM     78  F   UNL     1       6.697   5.439  12.168  1.00  0.00    -0.205 F 
ATOM     79  C   UNL     1       6.124   7.516  15.126  1.00  0.00     0.022 A 
BRANCH  77  80
ATOM     80  S   UNL     1       8.506   6.309  14.495  1.00  0.00     0.127 S 
ATOM     81  O   UNL     1       9.174   7.524  14.032  1.00  0.00    -0.237 OA
ATOM     82  O   UNL     1       8.534   6.113  15.945  1.00  0.00    -0.237 OA
ATOM     83  O   UNL     1       8.781   5.105  13.722  1.00  0.00    -0.744 OA
ENDBRANCH  77  80
ENDBRANCH  50  73
ENDBRANCH  24  25
ENDBRANCH  17  19
ENDBRANCH  16  17
ENDBRANCH   1  16
TORSDOF 15
