REMARK SMILES CCOC(=O)c1c(NC(=O)c2ncccc2C(=O)OCCOC(=O)c2ccc(-c3c4nc(c(-c5cccc(S(=O)(=O)[O-])c5F)c5ccc([nH]5)c(-c5cccc(S(=O)(=O)[O-])c5F)c5nc(c(-c6cccc(S(=O)(=O)[O-])c6F)c6ccc3[nH]6)C=C5)C=C4)cc2)sc2c1CC[C@H](C)C2
REMARK SMILES IDX 20 1 19 2 17 3 18 4 16 5 11 6 12 7 13 8 15 9 14 10 9 11 8 12
REMARK SMILES IDX 10 14 7 15 6 16 90 17 88 18 89 19 91 20 95 21 92 22 93 23
REMARK SMILES IDX 94 24 4 25 5 26 3 27 2 28 1 29 21 30 22 31 23 32 24 33 25 34
REMARK SMILES IDX 26 35 87 36 27 37 86 38 28 39 29 40 30 41 80 42 31 43 85 44
REMARK SMILES IDX 79 45 81 46 32 47 84 48 78 49 77 50 33 52 65 53 45 54 64 55
REMARK SMILES IDX 46 56 49 57 63 58 82 59 47 60 48 61 62 63 83 64 50 65 34 66
REMARK SMILES IDX 35 67 43 68 36 69 38 70 44 71 37 72 39 73 40 74 41 75 42 76
REMARK SMILES IDX 66 77 67 78 75 79 68 80 70 81 76 82 69 83 71 84 72 85 73 86
REMARK SMILES IDX 74 87 51 88 52 89 60 90 53 91 55 92 61 93 54 94 56 95 57 96
REMARK SMILES IDX 58 97 59 98
REMARK H PARENT 8 13 81 51 49 62
REMARK Flexibility Score: inf
ROOT
ATOM      1  C   UNL     1       5.570  -2.413  -4.746  1.00  0.00     0.275 C 
ENDROOT
BRANCH   1   2
ATOM      2  O   UNL     1       4.437  -1.931  -3.988  1.00  0.00    -0.458 OA
BRANCH   2   3
ATOM      3  C   UNL     1       3.270  -1.800  -4.675  1.00  0.00     0.340 C 
ATOM      4  O   UNL     1       3.100  -1.965  -5.872  1.00  0.00    -0.246 OA
BRANCH   3   5
ATOM      5  C   UNL     1       2.248  -1.193  -3.820  1.00  0.00     0.091 A 
ATOM      6  C   UNL     1       0.996  -1.732  -3.553  1.00  0.00     0.142 A 
ATOM      7  N   UNL     1      -0.065  -0.943  -3.188  1.00  0.00    -0.250 NA
ATOM      8  C   UNL     1       0.145   0.380  -3.058  1.00  0.00     0.112 A 
ATOM      9  C   UNL     1       2.460   0.162  -3.529  1.00  0.00     0.020 A 
ATOM     10  C   UNL     1       1.393   0.962  -3.140  1.00  0.00     0.021 A 
BRANCH   6  11
ATOM     11  C   UNL     1       0.581  -3.147  -3.705  1.00  0.00     0.275 C 
ATOM     12  N   UNL     1       0.737  -4.105  -2.716  1.00  0.00    -0.311 N 
ATOM     13  H   UNL     1       0.026  -4.785  -2.681  1.00  0.00     0.171 HD
ATOM     14  O   UNL     1      -0.087  -3.442  -4.702  1.00  0.00    -0.267 OA
BRANCH  12  15
ATOM     15  C   UNL     1       1.730  -4.253  -1.774  1.00  0.00     0.110 A 
ATOM     16  C   UNL     1       2.569  -3.479  -0.994  1.00  0.00     0.098 A 
ATOM     17  C   UNL     1       3.755  -4.251  -0.642  1.00  0.00    -0.017 A 
ATOM     18  S   UNL     1       2.026  -5.912  -1.481  1.00  0.00    -0.122 S 
ATOM     19  C   UNL     1       3.623  -5.566  -1.046  1.00  0.00     0.011 A 
ATOM     20  C   UNL     1       4.968  -3.808   0.125  1.00  0.00     0.038 C 
ATOM     21  C   UNL     1       4.683  -6.612  -0.997  1.00  0.00     0.050 C 
ATOM     22  C   UNL     1       6.107  -4.860   0.136  1.00  0.00     0.008 C 
ATOM     23  C   UNL     1       5.611  -6.325   0.192  1.00  0.00    -0.009 C 
ATOM     24  C   UNL     1       6.775  -7.316   0.202  1.00  0.00     0.008 C 
BRANCH  16  25
ATOM     25  C   UNL     1       2.252  -2.129  -0.575  1.00  0.00     0.341 C 
ATOM     26  O   UNL     1       3.061  -1.208  -0.561  1.00  0.00    -0.246 OA
BRANCH  25  27
ATOM     27  O   UNL     1       0.962  -2.058  -0.150  1.00  0.00    -0.462 OA
BRANCH  27  28
ATOM     28  C   UNL     1       0.365  -0.808   0.204  1.00  0.00     0.230 C 
ATOM     29  C   UNL     1       1.071  -0.040   1.299  1.00  0.00     0.049 C 
ENDBRANCH  27  28
ENDBRANCH  25  27
ENDBRANCH  16  25
ENDBRANCH  12  15
ENDBRANCH   6  11
ENDBRANCH   3   5
ENDBRANCH   2   3
ENDBRANCH   1   2
BRANCH   1  30
ATOM     30  C   UNL     1       5.861  -3.893  -4.491  1.00  0.00     0.275 C 
BRANCH  30  31
ATOM     31  O   UNL     1       5.160  -4.780  -5.372  1.00  0.00    -0.458 OA
BRANCH  31  32
ATOM     32  C   UNL     1       3.882  -4.978  -4.995  1.00  0.00     0.338 C 
ATOM     33  O   UNL     1       3.221  -4.235  -4.290  1.00  0.00    -0.246 OA
BRANCH  32  34
ATOM     34  C   UNL     1       3.434  -6.352  -5.177  1.00  0.00     0.060 A 
ATOM     35  C   UNL     1       2.104  -6.573  -4.820  1.00  0.00     0.016 A 
ATOM     36  C   UNL     1       4.371  -7.384  -5.214  1.00  0.00     0.016 A 
ATOM     37  C   UNL     1       1.787  -7.763  -4.216  1.00  0.00     0.010 A 
ATOM     38  C   UNL     1       4.008  -8.621  -4.720  1.00  0.00     0.010 A 
ATOM     39  C   UNL     1       2.756  -8.773  -4.121  1.00  0.00    -0.014 A 
BRANCH  39  40
ATOM     40  C   UNL     1       2.305 -10.058  -3.589  1.00  0.00     0.031 A 
ATOM     41  C   UNL     1       1.022 -10.496  -4.227  1.00  0.00     0.074 A 
ATOM     42  C   UNL     1       3.052 -10.806  -2.748  1.00  0.00     0.049 A 
ATOM     43  N   UNL     1      -0.080 -10.871  -3.661  1.00  0.00    -0.248 NA
ATOM     44  C   UNL     1       0.891 -10.259  -5.685  1.00  0.00     0.031 C 
ATOM     45  C   UNL     1       4.409 -10.524  -2.270  1.00  0.00     0.029 A 
ATOM     46  N   UNL     1       2.840 -12.080  -2.306  1.00  0.00    -0.354 N 
ATOM     47  C   UNL     1      -0.950 -11.136  -4.720  1.00  0.00     0.074 A 
ATOM     48  C   UNL     1      -0.397 -10.514  -5.889  1.00  0.00     0.031 C 
ATOM     49  C   UNL     1       5.001 -11.683  -1.913  1.00  0.00     0.029 A 
ATOM     50  C   UNL     1       4.033 -12.757  -2.037  1.00  0.00     0.049 A 
ATOM     51  H   UNL     1       1.947 -12.478  -2.190  1.00  0.00     0.167 HD
ATOM     52  C   UNL     1      -1.875 -12.127  -4.648  1.00  0.00     0.034 A 
ATOM     53  C   UNL     1       4.236 -14.099  -2.070  1.00  0.00     0.034 A 
ATOM     54  C   UNL     1      -2.242 -12.419  -3.293  1.00  0.00     0.049 A 
ATOM     55  C   UNL     1       2.906 -14.750  -2.027  1.00  0.00     0.074 A 
ATOM     56  C   UNL     1      -2.750 -11.670  -2.249  1.00  0.00     0.029 A 
ATOM     57  N   UNL     1      -1.724 -13.556  -2.727  1.00  0.00    -0.354 N 
ATOM     58  N   UNL     1       2.115 -14.710  -0.994  1.00  0.00    -0.248 NA
ATOM     59  C   UNL     1       2.271 -15.060  -3.299  1.00  0.00     0.031 C 
ATOM     60  C   UNL     1      -2.075 -12.155  -1.092  1.00  0.00     0.029 A 
ATOM     61  C   UNL     1      -1.257 -13.215  -1.486  1.00  0.00     0.049 A 
ATOM     62  H   UNL     1      -1.694 -14.451  -3.137  1.00  0.00     0.167 HD
ATOM     63  C   UNL     1       0.853 -14.523  -1.541  1.00  0.00     0.074 A 
ATOM     64  C   UNL     1       0.999 -14.839  -2.961  1.00  0.00     0.031 C 
ATOM     65  C   UNL     1      -0.116 -13.843  -0.863  1.00  0.00     0.034 A 
BRANCH  52  66
ATOM     66  C   UNL     1      -2.111 -13.088  -5.791  1.00  0.00     0.023 A 
ATOM     67  C   UNL     1      -3.204 -13.970  -5.695  1.00  0.00     0.012 A 
ATOM     68  C   UNL     1      -1.167 -13.348  -6.817  1.00  0.00     0.148 A 
ATOM     69  C   UNL     1      -3.332 -15.066  -6.557  1.00  0.00     0.002 A 
ATOM     70  C   UNL     1      -1.350 -14.375  -7.730  1.00  0.00     0.091 A 
ATOM     71  F   UNL     1       0.003 -12.703  -6.838  1.00  0.00    -0.205 F 
ATOM     72  C   UNL     1      -2.415 -15.260  -7.585  1.00  0.00     0.022 A 
BRANCH  70  73
ATOM     73  S   UNL     1      -0.216 -14.614  -9.104  1.00  0.00     0.127 S 
ATOM     74  O   UNL     1       0.532 -15.788  -8.666  1.00  0.00    -0.237 OA
ATOM     75  O   UNL     1      -1.139 -14.843 -10.216  1.00  0.00    -0.237 OA
ATOM     76  O   UNL     1       0.539 -13.371  -9.208  1.00  0.00    -0.744 OA
ENDBRANCH  70  73
ENDBRANCH  52  66
BRANCH  53  77
ATOM     77  C   UNL     1       5.449 -14.856  -2.480  1.00  0.00     0.023 A 
ATOM     78  C   UNL     1       5.563 -16.220  -2.138  1.00  0.00     0.012 A 
ATOM     79  C   UNL     1       6.359 -14.338  -3.429  1.00  0.00     0.148 A 
ATOM     80  C   UNL     1       6.527 -17.041  -2.739  1.00  0.00     0.002 A 
ATOM     81  C   UNL     1       7.326 -15.153  -4.011  1.00  0.00     0.091 A 
ATOM     82  F   UNL     1       6.220 -13.071  -3.839  1.00  0.00    -0.205 F 
ATOM     83  C   UNL     1       7.405 -16.510  -3.679  1.00  0.00     0.022 A 
BRANCH  81  84
ATOM     84  S   UNL     1       8.483 -14.529  -5.239  1.00  0.00     0.127 S 
ATOM     85  O   UNL     1       9.756 -15.072  -4.762  1.00  0.00    -0.237 OA
ATOM     86  O   UNL     1       7.980 -15.136  -6.467  1.00  0.00    -0.237 OA
ATOM     87  O   UNL     1       8.393 -13.075  -5.166  1.00  0.00    -0.744 OA
ENDBRANCH  81  84
ENDBRANCH  53  77
BRANCH  65  88
ATOM     88  C   UNL     1       0.127 -13.506   0.586  1.00  0.00     0.023 A 
ATOM     89  C   UNL     1       1.184 -12.673   1.011  1.00  0.00     0.012 A 
ATOM     90  C   UNL     1      -0.841 -13.904   1.522  1.00  0.00     0.148 A 
ATOM     91  C   UNL     1       1.285 -12.269   2.346  1.00  0.00     0.002 A 
ATOM     92  C   UNL     1      -0.764 -13.463   2.836  1.00  0.00     0.091 A 
ATOM     93  F   UNL     1      -1.841 -14.694   1.102  1.00  0.00    -0.205 F 
ATOM     94  C   UNL     1       0.302 -12.653   3.256  1.00  0.00     0.022 A 
BRANCH  92  95
ATOM     95  S   UNL     1      -2.065 -13.826   4.016  1.00  0.00     0.127 S 
ATOM     96  O   UNL     1      -1.455 -14.876   4.828  1.00  0.00    -0.237 OA
ATOM     97  O   UNL     1      -2.237 -12.544   4.702  1.00  0.00    -0.237 OA
ATOM     98  O   UNL     1      -3.220 -14.234   3.225  1.00  0.00    -0.744 OA
ENDBRANCH  92  95
ENDBRANCH  65  88
ENDBRANCH  39  40
ENDBRANCH  32  34
ENDBRANCH  31  32
ENDBRANCH  30  31
ENDBRANCH   1  30
TORSDOF 19
