REMARK SMILES O=C1[NH+]=C(Nc2ccc(C(=O)OCCOC(=O)c3ccc(-c4c5nc(c(-c6cccc(S(=O)(=O)[O-])c6F)c6ccc([nH]6)c(-c6cccc(S(=O)(=O)[O-])c6F)c6nc(c(-c7cccc(S(=O)(=O)[O-])c7F)c7ccc4[nH]7)C=C6)C=C5)cc3)c(O)c2)S/C1=C\c1ccc[nH]1
REMARK SMILES IDX 14 1 13 2 12 3 10 4 11 5 9 6 6 7 7 8 83 9 8 10 81 11 5 12
REMARK SMILES IDX 1 13 2 14 3 15 85 16 4 17 84 19 86 20 87 22 88 23 91 24
REMARK SMILES IDX 89 25 90 26 82 28 15 30 16 31 17 32 18 33 19 34 80 35 20 36
REMARK SMILES IDX 79 37 21 38 22 39 23 40 73 41 24 42 78 43 72 44 74 45 25 46
REMARK SMILES IDX 77 47 71 48 70 49 26 51 58 52 38 53 57 54 39 55 42 56 56 57
REMARK SMILES IDX 75 58 40 59 41 60 55 62 76 63 43 64 27 65 28 66 36 67 29 68
REMARK SMILES IDX 31 69 37 70 30 71 32 72 33 73 34 74 35 75 59 76 60 77 68 78
REMARK SMILES IDX 61 79 63 80 69 81 62 82 64 83 65 84 66 85 67 86 44 87 45 88
REMARK SMILES IDX 53 89 46 90 48 91 54 92 47 93 49 94 50 95 51 96 52 97
REMARK H PARENT 3 18 5 21 91 27 82 29 74 50 42 61
REMARK Flexibility Score: inf
ROOT
ATOM      1  C   UNL     1      -2.773   9.674  -0.769  1.00  0.00     0.275 C 
ENDROOT
BRANCH   1   2
ATOM      2  C   UNL     1      -1.247   9.792  -0.743  1.00  0.00     0.275 C 
BRANCH   2   3
ATOM      3  O   UNL     1      -0.605   8.505  -0.892  1.00  0.00    -0.458 OA
BRANCH   3   4
ATOM      4  C   UNL     1      -0.078   7.971   0.243  1.00  0.00     0.342 C 
ATOM      5  O   UNL     1      -0.076   8.491   1.346  1.00  0.00    -0.246 OA
BRANCH   4   6
ATOM      6  C   UNL     1       0.430   6.596  -0.005  1.00  0.00     0.102 A 
ATOM      7  C   UNL     1       1.214   3.907  -0.339  1.00  0.00     0.129 A 
ATOM      8  C   UNL     1       0.758   4.362   0.900  1.00  0.00     0.053 A 
ATOM      9  C   UNL     1       1.341   4.824  -1.389  1.00  0.00     0.098 A 
ATOM     10  C   UNL     1       0.414   5.703   1.076  1.00  0.00     0.024 A 
ATOM     11  C   UNL     1       0.914   6.147  -1.237  1.00  0.00     0.134 A 
BRANCH   7  12
ATOM     12  N   UNL     1       1.613   2.578  -0.507  1.00  0.00    -0.234 N 
ATOM     13  O   UNL     1      -2.159  -0.128  -0.133  1.00  0.00    -0.240 OA
ATOM     14  C   UNL     1      -0.975   0.171  -0.121  1.00  0.00     0.346 C 
ATOM     15  N   UNL     1      -0.479   1.451  -0.242  1.00  0.00    -0.199 N 
ATOM     16  C   UNL     1       0.122  -0.840  -0.041  1.00  0.00     0.111 C 
ATOM     17  C   UNL     1       0.807   1.494  -0.315  1.00  0.00     0.322 C 
ATOM     18  H   UNL     1      -1.051   2.252  -0.270  1.00  0.00     0.316 HD
ATOM     19  S   UNL     1       1.639  -0.042  -0.194  1.00  0.00     0.006 SA
ATOM     20  C   UNL     1      -0.127  -2.151   0.073  1.00  0.00     0.050 C 
ATOM     21  H   UNL     1       2.543   2.412  -0.783  1.00  0.00     0.313 HD
BRANCH  20  22
ATOM     22  C   UNL     1       0.897  -3.125   0.159  1.00  0.00     0.039 A 
ATOM     23  C   UNL     1       1.921  -3.361   1.054  1.00  0.00     0.027 A 
ATOM     24  N   UNL     1       0.954  -4.104  -0.803  1.00  0.00    -0.362 N 
ATOM     25  C   UNL     1       2.639  -4.492   0.595  1.00  0.00     0.020 A 
ATOM     26  C   UNL     1       2.030  -4.921  -0.563  1.00  0.00     0.083 A 
ATOM     27  H   UNL     1       0.320  -4.205  -1.549  1.00  0.00     0.166 HD
ENDBRANCH  20  22
ENDBRANCH   7  12
BRANCH  11  28
ATOM     28  O   UNL     1       1.014   6.943  -2.346  1.00  0.00    -0.507 OA
ATOM     29  H   UNL     1       0.743   7.839  -2.305  1.00  0.00     0.293 HD
ENDBRANCH  11  28
ENDBRANCH   4   6
ENDBRANCH   3   4
ENDBRANCH   2   3
ENDBRANCH   1   2
BRANCH   1  30
ATOM     30  O   UNL     1      -3.257   9.007   0.411  1.00  0.00    -0.458 OA
BRANCH  30  31
ATOM     31  C   UNL     1      -3.712   7.749   0.211  1.00  0.00     0.338 C 
ATOM     32  O   UNL     1      -3.780   7.153  -0.852  1.00  0.00    -0.246 OA
BRANCH  31  33
ATOM     33  C   UNL     1      -4.005   7.099   1.497  1.00  0.00     0.060 A 
ATOM     34  C   UNL     1      -2.963   6.408   2.105  1.00  0.00     0.016 A 
ATOM     35  C   UNL     1      -5.302   6.982   1.991  1.00  0.00     0.016 A 
ATOM     36  C   UNL     1      -3.214   5.511   3.138  1.00  0.00     0.010 A 
ATOM     37  C   UNL     1      -5.544   6.135   3.085  1.00  0.00     0.010 A 
ATOM     38  C   UNL     1      -4.514   5.343   3.632  1.00  0.00    -0.014 A 
BRANCH  38  39
ATOM     39  C   UNL     1      -4.789   4.265   4.630  1.00  0.00     0.031 A 
ATOM     40  C   UNL     1      -5.757   3.153   4.298  1.00  0.00     0.074 A 
ATOM     41  C   UNL     1      -4.145   4.240   5.816  1.00  0.00     0.049 A 
ATOM     42  N   UNL     1      -6.199   2.184   5.061  1.00  0.00    -0.248 NA
ATOM     43  C   UNL     1      -6.317   3.138   2.937  1.00  0.00     0.031 C 
ATOM     44  C   UNL     1      -3.174   5.235   6.275  1.00  0.00     0.029 A 
ATOM     45  N   UNL     1      -4.212   3.342   6.855  1.00  0.00    -0.354 N 
ATOM     46  C   UNL     1      -7.142   1.498   4.301  1.00  0.00     0.074 A 
ATOM     47  C   UNL     1      -7.207   2.159   3.017  1.00  0.00     0.031 C 
ATOM     48  C   UNL     1      -2.722   4.883   7.489  1.00  0.00     0.029 A 
ATOM     49  C   UNL     1      -3.415   3.676   7.926  1.00  0.00     0.049 A 
ATOM     50  H   UNL     1      -4.776   2.535   6.834  1.00  0.00     0.167 HD
ATOM     51  C   UNL     1      -7.876   0.407   4.632  1.00  0.00     0.034 A 
ATOM     52  C   UNL     1      -3.275   3.097   9.136  1.00  0.00     0.034 A 
ATOM     53  C   UNL     1      -7.742  -0.318   5.868  1.00  0.00     0.049 A 
ATOM     54  C   UNL     1      -4.063   1.856   9.456  1.00  0.00     0.074 A 
ATOM     55  C   UNL     1      -8.405  -1.465   6.268  1.00  0.00     0.029 A 
ATOM     56  N   UNL     1      -6.872   0.017   6.894  1.00  0.00    -0.354 N 
ATOM     57  N   UNL     1      -4.907   1.195   8.702  1.00  0.00    -0.248 NA
ATOM     58  C   UNL     1      -3.859   1.264  10.787  1.00  0.00     0.031 C 
ATOM     59  C   UNL     1      -7.946  -1.817   7.542  1.00  0.00     0.029 A 
ATOM     60  C   UNL     1      -6.978  -0.903   7.924  1.00  0.00     0.049 A 
ATOM     61  H   UNL     1      -6.269   0.794   6.891  1.00  0.00     0.167 HD
ATOM     62  C   UNL     1      -5.311   0.097   9.454  1.00  0.00     0.074 A 
ATOM     63  C   UNL     1      -4.594   0.163  10.709  1.00  0.00     0.031 C 
ATOM     64  C   UNL     1      -6.213  -0.866   9.142  1.00  0.00     0.034 A 
BRANCH  51  65
ATOM     65  C   UNL     1      -8.883  -0.096   3.629  1.00  0.00     0.023 A 
ATOM     66  C   UNL     1      -8.451  -0.767   2.468  1.00  0.00     0.012 A 
ATOM     67  C   UNL     1     -10.265   0.036   3.876  1.00  0.00     0.148 A 
ATOM     68  C   UNL     1      -9.376  -1.270   1.553  1.00  0.00     0.002 A 
ATOM     69  C   UNL     1     -11.181  -0.509   2.983  1.00  0.00     0.091 A 
ATOM     70  F   UNL     1     -10.658   0.693   4.977  1.00  0.00    -0.205 F 
ATOM     71  C   UNL     1     -10.738  -1.151   1.816  1.00  0.00     0.022 A 
BRANCH  69  72
ATOM     72  S   UNL     1     -12.954  -0.484   3.276  1.00  0.00     0.127 S 
ATOM     73  O   UNL     1     -13.410   0.459   2.255  1.00  0.00    -0.237 OA
ATOM     74  O   UNL     1     -13.327  -1.877   3.027  1.00  0.00    -0.237 OA
ATOM     75  O   UNL     1     -13.130  -0.045   4.653  1.00  0.00    -0.744 OA
ENDBRANCH  69  72
ENDBRANCH  51  65
BRANCH  52  76
ATOM     76  C   UNL     1      -2.332   3.675  10.138  1.00  0.00     0.023 A 
ATOM     77  C   UNL     1      -1.178   2.957  10.507  1.00  0.00     0.012 A 
ATOM     78  C   UNL     1      -2.569   4.936  10.721  1.00  0.00     0.148 A 
ATOM     79  C   UNL     1      -0.297   3.466  11.462  1.00  0.00     0.002 A 
ATOM     80  C   UNL     1      -1.654   5.466  11.623  1.00  0.00     0.091 A 
ATOM     81  F   UNL     1      -3.684   5.596  10.378  1.00  0.00    -0.205 F 
ATOM     82  C   UNL     1      -0.528   4.724  12.010  1.00  0.00     0.022 A 
BRANCH  80  83
ATOM     83  S   UNL     1      -1.803   7.138  12.261  1.00  0.00     0.127 S 
ATOM     84  O   UNL     1      -2.258   6.897  13.628  1.00  0.00    -0.237 OA
ATOM     85  O   UNL     1      -0.430   7.631  12.146  1.00  0.00    -0.237 OA
ATOM     86  O   UNL     1      -2.752   7.806  11.381  1.00  0.00    -0.744 OA
ENDBRANCH  80  83
ENDBRANCH  52  76
BRANCH  64  87
ATOM     87  C   UNL     1      -6.442  -1.958  10.155  1.00  0.00     0.023 A 
ATOM     88  C   UNL     1      -7.134  -1.675  11.350  1.00  0.00     0.012 A 
ATOM     89  C   UNL     1      -6.010  -3.276   9.904  1.00  0.00     0.148 A 
ATOM     90  C   UNL     1      -7.352  -2.675  12.297  1.00  0.00     0.002 A 
ATOM     91  C   UNL     1      -6.274  -4.277  10.831  1.00  0.00     0.091 A 
ATOM     92  F   UNL     1      -5.334  -3.525   8.772  1.00  0.00    -0.205 F 
ATOM     93  C   UNL     1      -6.932  -3.977  12.034  1.00  0.00     0.022 A 
BRANCH  91  94
ATOM     94  S   UNL     1      -5.849  -5.996  10.524  1.00  0.00     0.127 S 
ATOM     95  O   UNL     1      -4.624  -6.146  11.307  1.00  0.00    -0.237 OA
ATOM     96  O   UNL     1      -7.008  -6.709  11.063  1.00  0.00    -0.237 OA
ATOM     97  O   UNL     1      -5.694  -6.112   9.080  1.00  0.00    -0.744 OA
ENDBRANCH  91  94
ENDBRANCH  64  87
ENDBRANCH  38  39
ENDBRANCH  31  33
ENDBRANCH  30  31
ENDBRANCH   1  30
TORSDOF 17
