REMARK SMILES O=C1NC(=S)S/C1=C\c1ccc(OCc2cn(-c3ccc(C(=O)OCCOC(=O)c4ccc(-c5c6nc(c(-c7cccc(S(=O)(=O)[O-])c7F)c7ccc([nH]7)c(-c7cccc(S(=O)(=O)[O-])c7F)c7nc(c(-c8cccc(S(=O)(=O)[O-])c8F)c8ccc5[nH]8)C=C7)C=C6)cc4)cc3)nn2)cc1
REMARK SMILES IDX 25 1 24 2 22 3 23 4 21 5 18 6 19 7 94 8 20 9 93 10 17 11
REMARK SMILES IDX 15 12 16 13 96 14 95 15 14 16 13 17 12 18 9 19 10 20 98 21
REMARK SMILES IDX 11 22 97 23 8 24 1 25 2 26 3 27 7 28 4 29 6 31 5 32 26 33
REMARK SMILES IDX 27 34 28 35 29 36 30 37 31 38 92 39 32 40 91 41 33 42 34 43
REMARK SMILES IDX 35 44 85 45 36 46 90 47 84 48 86 49 37 50 89 51 83 52 82 53
REMARK SMILES IDX 38 55 70 56 50 57 69 58 51 59 54 60 68 61 87 62 52 63 53 64
REMARK SMILES IDX 67 66 88 67 55 68 39 69 40 70 48 71 41 72 43 73 49 74 42 75
REMARK SMILES IDX 44 76 45 77 46 78 47 79 71 80 72 81 80 82 73 83 75 84 81 85
REMARK SMILES IDX 74 86 76 87 77 88 78 89 79 90 56 91 57 92 65 93 58 94 60 95
REMARK SMILES IDX 66 96 59 97 61 98 62 99 63 100 64 101
REMARK H PARENT 3 30 86 54 54 65
REMARK Flexibility Score: inf
ROOT
ATOM      1  C   UNL     1       8.124  10.878  -0.253  1.00  0.00     0.275 C 
ENDROOT
BRANCH   1   2
ATOM      2  O   UNL     1       6.745  10.476  -0.252  1.00  0.00    -0.458 OA
BRANCH   2   3
ATOM      3  C   UNL     1       6.272  10.046  -1.448  1.00  0.00     0.338 C 
ATOM      4  O   UNL     1       6.829  10.149  -2.533  1.00  0.00    -0.246 OA
BRANCH   3   5
ATOM      5  C   UNL     1       4.982   9.345  -1.270  1.00  0.00     0.060 A 
ATOM      6  C   UNL     1       2.492   8.100  -1.122  1.00  0.00     0.066 A 
ATOM      7  C   UNL     1       3.427   7.676  -2.077  1.00  0.00     0.029 A 
ATOM      8  C   UNL     1       2.833   9.087  -0.188  1.00  0.00     0.029 A 
ATOM      9  C   UNL     1       4.659   8.320  -2.167  1.00  0.00     0.018 A 
ATOM     10  C   UNL     1       4.088   9.695  -0.251  1.00  0.00     0.018 A 
BRANCH   6  11
ATOM     11  N   UNL     1       1.182   7.573  -1.169  1.00  0.00    -0.220 N 
ATOM     12  C   UNL     1      -0.988   7.322  -1.169  1.00  0.00     0.120 A 
ATOM     13  C   UNL     1       0.016   8.150  -0.712  1.00  0.00     0.144 A 
ATOM     14  N   UNL     1      -0.417   6.282  -1.850  1.00  0.00    -0.131 NA
ATOM     15  N   UNL     1       0.893   6.446  -1.851  1.00  0.00    -0.062 NA
BRANCH  12  16
ATOM     16  C   UNL     1      -2.472   7.477  -1.133  1.00  0.00     0.289 C 
BRANCH  16  17
ATOM     17  O   UNL     1      -3.149   6.732  -0.106  1.00  0.00    -0.487 OA
BRANCH  17  18
ATOM     18  C   UNL     1      -3.146   5.366  -0.193  1.00  0.00     0.119 A 
ATOM     19  C   UNL     1      -2.918   2.572  -0.023  1.00  0.00    -0.024 A 
ATOM     20  C   UNL     1      -3.395   3.304   1.067  1.00  0.00     0.012 A 
ATOM     21  C   UNL     1      -2.648   3.234  -1.223  1.00  0.00     0.012 A 
ATOM     22  C   UNL     1      -3.504   4.696   0.979  1.00  0.00     0.047 A 
ATOM     23  C   UNL     1      -2.788   4.620  -1.313  1.00  0.00     0.047 A 
BRANCH  19  24
ATOM     24  C   UNL     1      -2.676   1.131   0.083  1.00  0.00     0.029 C 
ATOM     25  O   UNL     1      -2.182  -1.733   0.145  1.00  0.00    -0.268 OA
ATOM     26  C   UNL     1      -1.277  -0.914   0.107  1.00  0.00     0.263 C 
ATOM     27  N   UNL     1       0.057  -1.211   0.066  1.00  0.00    -0.307 N 
ATOM     28  C   UNL     1      -1.462   0.562   0.085  1.00  0.00     0.080 C 
ATOM     29  C   UNL     1       0.944  -0.178   0.031  1.00  0.00     0.145 C 
ATOM     30  H   UNL     1       0.367  -2.145   0.061  1.00  0.00     0.171 HD
ATOM     31  S   UNL     1       0.080   1.341   0.043  1.00  0.00    -0.055 SA
ATOM     32  S   UNL     1       2.584  -0.373  -0.012  1.00  0.00    -0.052 S 
ENDBRANCH  19  24
ENDBRANCH  17  18
ENDBRANCH  16  17
ENDBRANCH  12  16
ENDBRANCH   6  11
ENDBRANCH   3   5
ENDBRANCH   2   3
ENDBRANCH   1   2
BRANCH   1  33
ATOM     33  C   UNL     1       9.040   9.698   0.036  1.00  0.00     0.275 C 
BRANCH  33  34
ATOM     34  O   UNL     1       9.057   8.758  -1.038  1.00  0.00    -0.458 OA
BRANCH  34  35
ATOM     35  C   UNL     1       8.254   7.686  -0.853  1.00  0.00     0.338 C 
ATOM     36  O   UNL     1       7.230   7.635  -0.192  1.00  0.00    -0.246 OA
BRANCH  35  37
ATOM     37  C   UNL     1       8.934   6.487  -1.345  1.00  0.00     0.060 A 
ATOM     38  C   UNL     1       8.184   5.316  -1.488  1.00  0.00     0.016 A 
ATOM     39  C   UNL     1      10.336   6.482  -1.387  1.00  0.00     0.016 A 
ATOM     40  C   UNL     1       8.855   4.112  -1.567  1.00  0.00     0.010 A 
ATOM     41  C   UNL     1      11.000   5.280  -1.437  1.00  0.00     0.010 A 
ATOM     42  C   UNL     1      10.253   4.106  -1.480  1.00  0.00    -0.014 A 
BRANCH  42  43
ATOM     43  C   UNL     1      10.953   2.849  -1.660  1.00  0.00     0.031 A 
ATOM     44  C   UNL     1      10.897   2.393  -3.070  1.00  0.00     0.074 A 
ATOM     45  C   UNL     1      11.693   2.279  -0.689  1.00  0.00     0.049 A 
ATOM     46  N   UNL     1      10.265   1.369  -3.539  1.00  0.00    -0.248 NA
ATOM     47  C   UNL     1      11.412   3.302  -4.110  1.00  0.00     0.031 C 
ATOM     48  C   UNL     1      12.026   2.848   0.620  1.00  0.00     0.029 A 
ATOM     49  N   UNL     1      12.435   1.136  -0.723  1.00  0.00    -0.354 N 
ATOM     50  C   UNL     1      10.552   1.364  -4.902  1.00  0.00     0.074 A 
ATOM     51  C   UNL     1      11.010   2.685  -5.221  1.00  0.00     0.031 C 
ATOM     52  C   UNL     1      13.086   2.185   1.135  1.00  0.00     0.029 A 
ATOM     53  C   UNL     1      13.429   1.082   0.254  1.00  0.00     0.049 A 
ATOM     54  H   UNL     1      12.282   0.415  -1.376  1.00  0.00     0.167 HD
ATOM     55  C   UNL     1      10.715   0.188  -5.565  1.00  0.00     0.034 A 
ATOM     56  C   UNL     1      14.502   0.249   0.277  1.00  0.00     0.034 A 
ATOM     57  C   UNL     1      10.151  -0.905  -4.809  1.00  0.00     0.049 A 
ATOM     58  C   UNL     1      14.212  -0.868  -0.649  1.00  0.00     0.074 A 
ATOM     59  C   UNL     1       8.907  -1.203  -4.289  1.00  0.00     0.029 A 
ATOM     60  N   UNL     1      11.048  -1.707  -4.148  1.00  0.00    -0.354 N 
ATOM     61  N   UNL     1      13.303  -1.773  -0.428  1.00  0.00    -0.248 NA
ATOM     62  C   UNL     1      14.649  -0.739  -2.030  1.00  0.00     0.031 C 
ATOM     63  C   UNL     1       9.170  -1.853  -3.048  1.00  0.00     0.029 A 
ATOM     64  C   UNL     1      10.552  -1.991  -2.909  1.00  0.00     0.049 A 
ATOM     65  H   UNL     1      11.908  -2.025  -4.509  1.00  0.00     0.167 HD
ATOM     66  C   UNL     1      12.714  -1.967  -1.669  1.00  0.00     0.074 A 
ATOM     67  C   UNL     1      13.661  -1.407  -2.632  1.00  0.00     0.031 C 
ATOM     68  C   UNL     1      11.389  -2.277  -1.766  1.00  0.00     0.034 A 
BRANCH  55  69
ATOM     69  C   UNL     1      11.770  -0.061  -6.631  1.00  0.00     0.023 A 
ATOM     70  C   UNL     1      11.785  -1.353  -7.208  1.00  0.00     0.012 A 
ATOM     71  C   UNL     1      12.903   0.752  -6.875  1.00  0.00     0.148 A 
ATOM     72  C   UNL     1      12.901  -1.841  -7.896  1.00  0.00     0.002 A 
ATOM     73  C   UNL     1      13.979   0.290  -7.623  1.00  0.00     0.091 A 
ATOM     74  F   UNL     1      13.022   1.945  -6.292  1.00  0.00    -0.205 F 
ATOM     75  C   UNL     1      14.000  -1.019  -8.103  1.00  0.00     0.022 A 
BRANCH  73  76
ATOM     76  S   UNL     1      15.413   1.325  -7.960  1.00  0.00     0.127 S 
ATOM     77  O   UNL     1      16.445   0.656  -7.173  1.00  0.00    -0.237 OA
ATOM     78  O   UNL     1      15.544   1.181  -9.410  1.00  0.00    -0.237 OA
ATOM     79  O   UNL     1      15.051   2.667  -7.522  1.00  0.00    -0.744 OA
ENDBRANCH  73  76
ENDBRANCH  55  69
BRANCH  56  80
ATOM     80  C   UNL     1      15.868   0.444   0.823  1.00  0.00     0.023 A 
ATOM     81  C   UNL     1      16.699  -0.680   1.029  1.00  0.00     0.012 A 
ATOM     82  C   UNL     1      16.465   1.722   0.861  1.00  0.00     0.148 A 
ATOM     83  C   UNL     1      18.079  -0.537   1.221  1.00  0.00     0.002 A 
ATOM     84  C   UNL     1      17.836   1.860   1.060  1.00  0.00     0.091 A 
ATOM     85  F   UNL     1      15.707   2.796   0.606  1.00  0.00    -0.205 F 
ATOM     86  C   UNL     1      18.649   0.732   1.226  1.00  0.00     0.022 A 
BRANCH  84  87
ATOM     87  S   UNL     1      18.647   3.465   1.048  1.00  0.00     0.127 S 
ATOM     88  O   UNL     1      19.466   3.400   2.260  1.00  0.00    -0.237 OA
ATOM     89  O   UNL     1      19.400   3.414  -0.202  1.00  0.00    -0.237 OA
ATOM     90  O   UNL     1      17.577   4.453   1.102  1.00  0.00    -0.744 OA
ENDBRANCH  84  87
ENDBRANCH  56  80
BRANCH  68  91
ATOM     91  C   UNL     1      10.682  -2.761  -0.529  1.00  0.00     0.023 A 
ATOM     92  C   UNL     1      10.518  -1.974   0.630  1.00  0.00     0.012 A 
ATOM     93  C   UNL     1      10.031  -4.003  -0.608  1.00  0.00     0.148 A 
ATOM     94  C   UNL     1       9.738  -2.434   1.696  1.00  0.00     0.002 A 
ATOM     95  C   UNL     1       9.217  -4.432   0.429  1.00  0.00     0.091 A 
ATOM     96  F   UNL     1      10.207  -4.741  -1.715  1.00  0.00    -0.205 F 
ATOM     97  C   UNL     1       9.075  -3.656   1.589  1.00  0.00     0.022 A 
BRANCH  95  98
ATOM     98  S   UNL     1       8.250  -5.934   0.279  1.00  0.00     0.127 S 
ATOM     99  O   UNL     1       9.039  -6.884   1.060  1.00  0.00    -0.237 OA
ATOM    100  O   UNL     1       6.973  -5.554   0.885  1.00  0.00    -0.237 OA
ATOM    101  O   UNL     1       8.165  -6.211  -1.151  1.00  0.00    -0.744 OA
ENDBRANCH  95  98
ENDBRANCH  68  91
ENDBRANCH  42  43
ENDBRANCH  35  37
ENDBRANCH  34  35
ENDBRANCH  33  34
ENDBRANCH   1  33
TORSDOF 19
