REMARK SMILES CO[C@H]1CN(C(=O)c2cn(C(C)C)cc(C(=O)OCCOC(=O)c3ccc(-c4c5nc(c(-c6cccc(S(=O)(=O)[O-])c6F)c6ccc([nH]6)c(-c6cccc(S(=O)(=O)[O-])c6F)c6nc(c(-c7cccc(S(=O)(=O)[O-])c7F)c7ccc4[nH]7)C=C6)C=C5)cc3)c2=O)CC[C@H]1[NH3+]
REMARK SMILES IDX 19 1 18 2 16 3 17 4 15 5 8 6 9 7 87 8 10 9 88 10 14 11 6 12
REMARK SMILES IDX 7 13 5 14 3 15 4 16 91 17 90 18 89 19 2 20 1 21 92 22 11 26
REMARK SMILES IDX 12 27 13 28 20 29 21 30 22 31 23 32 24 33 25 34 86 35 26 36
REMARK SMILES IDX 85 37 27 38 28 39 29 40 79 41 30 42 84 43 78 44 80 45 31 46
REMARK SMILES IDX 83 47 77 48 76 49 32 51 64 52 44 53 63 54 45 55 48 56 62 57
REMARK SMILES IDX 81 58 46 59 47 60 61 62 82 63 49 64 33 65 34 66 42 67 35 68
REMARK SMILES IDX 37 69 43 70 36 71 38 72 39 73 40 74 41 75 65 76 66 77 74 78
REMARK SMILES IDX 67 79 69 80 75 81 68 82 70 83 71 84 72 85 73 86 50 87 51 88
REMARK SMILES IDX 59 89 52 90 54 91 60 92 53 93 55 94 56 95 57 96 58 97
REMARK H PARENT 92 23 92 24 92 25 80 50 48 61
REMARK Flexibility Score: inf
ROOT
ATOM      1  C   UNL     1       8.070   1.290   1.918  1.00  0.00     0.275 C 
ENDROOT
BRANCH   1   2
ATOM      2  O   UNL     1       6.928   1.090   1.064  1.00  0.00    -0.458 OA
BRANCH   2   3
ATOM      3  C   UNL     1       5.841   1.865   1.293  1.00  0.00     0.343 C 
ATOM      4  O   UNL     1       5.751   2.729   2.154  1.00  0.00    -0.246 OA
BRANCH   3   5
ATOM      5  C   UNL     1       4.799   1.622   0.282  1.00  0.00     0.124 A 
ATOM      6  C   UNL     1       3.253   0.209  -1.129  1.00  0.00     0.104 A 
ATOM      7  C   UNL     1       2.688   1.349  -1.561  1.00  0.00     0.103 A 
ATOM      8  C   UNL     1       4.464   0.285  -0.265  1.00  0.00     0.208 A 
ATOM      9  N   UNL     1       3.117   2.615  -1.175  1.00  0.00    -0.350 N 
ATOM     10  O   UNL     1       5.075  -0.729   0.059  1.00  0.00    -0.288 OA
ATOM     11  C   UNL     1       4.081   2.665  -0.171  1.00  0.00     0.105 A 
BRANCH   6  12
ATOM     12  C   UNL     1       2.565  -1.065  -1.413  1.00  0.00     0.259 C 
ATOM     13  O   UNL     1       2.406  -1.432  -2.576  1.00  0.00    -0.269 OA
BRANCH  12  14
ATOM     14  N   UNL     1       2.063  -1.760  -0.316  1.00  0.00    -0.335 N 
ATOM     15  C   UNL     1       0.741  -1.424   1.780  1.00  0.00     0.195 C 
ATOM     16  C   UNL     1       2.102  -1.297   1.079  1.00  0.00     0.158 C 
ATOM     17  C   UNL     1       0.158  -2.856   1.617  1.00  0.00     0.213 C 
ATOM     18  C   UNL     1       0.164  -3.252   0.131  1.00  0.00     0.089 C 
ATOM     19  C   UNL     1       1.540  -3.104  -0.509  1.00  0.00     0.126 C 
BRANCH  15  20
ATOM     20  O   UNL     1       0.930  -1.041   3.149  1.00  0.00    -0.373 OA
ATOM     21  C   UNL     1      -0.283  -0.754   3.830  1.00  0.00     0.195 C 
ENDBRANCH  15  20
BRANCH  17  22
ATOM     22  N   UNL     1       0.831  -3.869   2.448  1.00  0.00    -0.353 N 
ATOM     23  H   UNL     1       1.806  -3.950   2.160  1.00  0.00     0.344 HD
ATOM     24  H   UNL     1       0.366  -4.769   2.332  1.00  0.00     0.344 HD
ATOM     25  H   UNL     1       0.788  -3.587   3.428  1.00  0.00     0.344 HD
ENDBRANCH  17  22
ENDBRANCH  12  14
ENDBRANCH   6  12
BRANCH   9  26
ATOM     26  C   UNL     1       2.574   3.878  -1.748  1.00  0.00     0.080 C 
ATOM     27  C   UNL     1       2.627   3.873  -3.276  1.00  0.00     0.031 C 
ATOM     28  C   UNL     1       1.168   4.146  -1.225  1.00  0.00     0.031 C 
ENDBRANCH   9  26
ENDBRANCH   3   5
ENDBRANCH   2   3
ENDBRANCH   1   2
BRANCH   1  29
ATOM     29  C   UNL     1       9.219   1.926   1.136  1.00  0.00     0.275 C 
BRANCH  29  30
ATOM     30  O   UNL     1       8.925   3.306   0.852  1.00  0.00    -0.458 OA
BRANCH  30  31
ATOM     31  C   UNL     1       8.535   3.576  -0.414  1.00  0.00     0.338 C 
ATOM     32  O   UNL     1       8.467   2.802  -1.357  1.00  0.00    -0.246 OA
BRANCH  31  33
ATOM     33  C   UNL     1       8.042   4.958  -0.464  1.00  0.00     0.060 A 
ATOM     34  C   UNL     1       8.849   6.026  -0.835  1.00  0.00     0.016 A 
ATOM     35  C   UNL     1       6.694   5.163  -0.192  1.00  0.00     0.016 A 
ATOM     36  C   UNL     1       8.287   7.309  -0.898  1.00  0.00     0.010 A 
ATOM     37  C   UNL     1       6.116   6.419  -0.327  1.00  0.00     0.010 A 
ATOM     38  C   UNL     1       6.912   7.518  -0.654  1.00  0.00    -0.014 A 
BRANCH  38  39
ATOM     39  C   UNL     1       6.298   8.868  -0.763  1.00  0.00     0.031 A 
ATOM     40  C   UNL     1       5.614   9.515   0.417  1.00  0.00     0.074 A 
ATOM     41  C   UNL     1       6.298   9.497  -1.956  1.00  0.00     0.049 A 
ATOM     42  N   UNL     1       5.060  10.699   0.496  1.00  0.00    -0.248 NA
ATOM     43  C   UNL     1       5.501   8.726   1.657  1.00  0.00     0.031 C 
ATOM     44  C   UNL     1       6.802   8.930  -3.208  1.00  0.00     0.029 A 
ATOM     45  N   UNL     1       5.863  10.749  -2.310  1.00  0.00    -0.354 N 
ATOM     46  C   UNL     1       4.506  10.781   1.768  1.00  0.00     0.074 A 
ATOM     47  C   UNL     1       4.755   9.514   2.419  1.00  0.00     0.031 C 
ATOM     48  C   UNL     1       6.701   9.851  -4.179  1.00  0.00     0.029 A 
ATOM     49  C   UNL     1       6.112  11.066  -3.625  1.00  0.00     0.049 A 
ATOM     50  H   UNL     1       5.415  11.362  -1.683  1.00  0.00     0.167 HD
ATOM     51  C   UNL     1       3.887  11.829   2.360  1.00  0.00     0.034 A 
ATOM     52  C   UNL     1       5.919  12.214  -4.303  1.00  0.00     0.034 A 
ATOM     53  C   UNL     1       3.729  13.121   1.751  1.00  0.00     0.049 A 
ATOM     54  C   UNL     1       5.352  13.407  -3.587  1.00  0.00     0.074 A 
ATOM     55  C   UNL     1       3.231  14.281   2.317  1.00  0.00     0.029 A 
ATOM     56  N   UNL     1       4.082  13.428   0.448  1.00  0.00    -0.354 N 
ATOM     57  N   UNL     1       4.980  13.511  -2.335  1.00  0.00    -0.248 NA
ATOM     58  C   UNL     1       5.207  14.647  -4.364  1.00  0.00     0.031 C 
ATOM     59  C   UNL     1       3.291  15.295   1.356  1.00  0.00     0.029 A 
ATOM     60  C   UNL     1       3.823  14.763   0.193  1.00  0.00     0.049 A 
ATOM     61  H   UNL     1       4.462  12.792  -0.200  1.00  0.00     0.167 HD
ATOM     62  C   UNL     1       4.569  14.827  -2.169  1.00  0.00     0.074 A 
ATOM     63  C   UNL     1       4.759  15.491  -3.442  1.00  0.00     0.031 C 
ATOM     64  C   UNL     1       4.060  15.423  -1.064  1.00  0.00     0.034 A 
BRANCH  51  65
ATOM     65  C   UNL     1       3.429  11.670   3.785  1.00  0.00     0.023 A 
ATOM     66  C   UNL     1       4.387  11.722   4.817  1.00  0.00     0.012 A 
ATOM     67  C   UNL     1       2.062  11.575   4.111  1.00  0.00     0.148 A 
ATOM     68  C   UNL     1       3.995  11.664   6.153  1.00  0.00     0.002 A 
ATOM     69  C   UNL     1       1.676  11.548   5.447  1.00  0.00     0.091 A 
ATOM     70  F   UNL     1       1.169  11.519   3.112  1.00  0.00    -0.205 F 
ATOM     71  C   UNL     1       2.642  11.586   6.468  1.00  0.00     0.022 A 
BRANCH  69  72
ATOM     72  S   UNL     1      -0.043  11.507   5.969  1.00  0.00     0.127 S 
ATOM     73  O   UNL     1      -0.120  10.203   6.627  1.00  0.00    -0.237 OA
ATOM     74  O   UNL     1      -0.115  12.653   6.875  1.00  0.00    -0.237 OA
ATOM     75  O   UNL     1      -0.837  11.634   4.755  1.00  0.00    -0.744 OA
ENDBRANCH  69  72
ENDBRANCH  51  65
BRANCH  52  76
ATOM     76  C   UNL     1       6.391  12.310  -5.710  1.00  0.00     0.023 A 
ATOM     77  C   UNL     1       7.600  12.982  -5.976  1.00  0.00     0.012 A 
ATOM     78  C   UNL     1       5.707  11.672  -6.761  1.00  0.00     0.148 A 
ATOM     79  C   UNL     1       8.118  13.023  -7.270  1.00  0.00     0.002 A 
ATOM     80  C   UNL     1       6.249  11.684  -8.041  1.00  0.00     0.091 A 
ATOM     81  F   UNL     1       4.558  11.042  -6.478  1.00  0.00    -0.205 F 
ATOM     82  C   UNL     1       7.449  12.365  -8.299  1.00  0.00     0.022 A 
BRANCH  80  83
ATOM     83  S   UNL     1       5.521  10.776  -9.409  1.00  0.00     0.127 S 
ATOM     84  O   UNL     1       5.107  11.859 -10.298  1.00  0.00    -0.237 OA
ATOM     85  O   UNL     1       6.659   9.989  -9.885  1.00  0.00    -0.237 OA
ATOM     86  O   UNL     1       4.440   9.989  -8.832  1.00  0.00    -0.744 OA
ENDBRANCH  80  83
ENDBRANCH  52  76
BRANCH  64  87
ATOM     87  C   UNL     1       3.659  16.867  -1.161  1.00  0.00     0.023 A 
ATOM     88  C   UNL     1       2.419  17.193  -1.744  1.00  0.00     0.012 A 
ATOM     89  C   UNL     1       4.436  17.877  -0.562  1.00  0.00     0.148 A 
ATOM     90  C   UNL     1       1.959  18.509  -1.734  1.00  0.00     0.002 A 
ATOM     91  C   UNL     1       3.957  19.180  -0.528  1.00  0.00     0.091 A 
ATOM     92  F   UNL     1       5.616  17.538  -0.022  1.00  0.00    -0.205 F 
ATOM     93  C   UNL     1       2.721  19.498  -1.116  1.00  0.00     0.022 A 
BRANCH  91  94
ATOM     94  S   UNL     1       4.827  20.511   0.308  1.00  0.00     0.127 S 
ATOM     95  O   UNL     1       5.233  21.353  -0.816  1.00  0.00    -0.237 OA
ATOM     96  O   UNL     1       3.778  21.084   1.153  1.00  0.00    -0.237 OA
ATOM     97  O   UNL     1       5.919  19.883   1.039  1.00  0.00    -0.744 OA
ENDBRANCH  91  94
ENDBRANCH  64  87
ENDBRANCH  38  39
ENDBRANCH  31  33
ENDBRANCH  30  31
ENDBRANCH  29  30
ENDBRANCH   1  29
TORSDOF 19
