REMARK SMILES CCN(c1cccc(C)c1)c1nc(OCC(=O)OCCOC(=O)c2ccc(-c3c4nc(c(-c5cccc(S(=O)(=O)[O-])c5F)c5ccc([nH]5)c(-c5cccc(S(=O)(=O)[O-])c5F)c5nc(c(-c6cccc(S(=O)(=O)[O-])c6F)c6ccc3[nH]6)C=C5)C=C4)cc2)cc(-c2ccc(C)cc2)n1
REMARK SMILES IDX 19 1 18 2 16 3 17 4 15 5 14 6 13 7 11 8 12 9 96 10 88 11
REMARK SMILES IDX 87 12 3 13 2 14 1 15 4 16 5 17 10 18 6 19 8 20 7 21 9 22
REMARK SMILES IDX 89 23 90 24 95 25 91 26 94 27 92 28 93 29 20 30 21 31 22 32
REMARK SMILES IDX 23 33 24 34 25 35 86 36 26 37 85 38 27 39 28 40 29 41 79 42
REMARK SMILES IDX 30 43 84 44 78 45 80 46 31 47 83 48 77 49 76 50 32 52 64 53
REMARK SMILES IDX 44 54 63 55 45 56 48 57 62 58 81 59 46 60 47 61 61 63 82 64
REMARK SMILES IDX 49 65 33 66 34 67 42 68 35 69 37 70 43 71 36 72 38 73 39 74
REMARK SMILES IDX 40 75 41 76 65 77 66 78 74 79 67 80 69 81 75 82 68 83 70 84
REMARK SMILES IDX 71 85 72 86 73 87 50 88 51 89 59 90 52 91 54 92 60 93 53 94
REMARK SMILES IDX 55 95 56 96 57 97 58 98
REMARK H PARENT 80 51 48 62
REMARK Flexibility Score: inf
ROOT
ATOM      1  C   UNL     1       7.867   3.090  -3.665  1.00  0.00     0.274 C 
ENDROOT
BRANCH   1   2
ATOM      2  O   UNL     1       7.333   2.401  -4.808  1.00  0.00    -0.460 OA
BRANCH   2   3
ATOM      3  C   UNL     1       7.340   0.948  -4.757  1.00  0.00     0.344 C 
ATOM      4  O   UNL     1       8.377   0.650  -4.102  1.00  0.00    -0.248 OA
BRANCH   3   5
ATOM      5  C   UNL     1       5.692  -0.302  -5.464  1.00  0.00     0.353 C 
BRANCH   5   6
ATOM      6  O   UNL     1       4.859  -1.558  -4.938  1.00  0.00    -0.466 OA
BRANCH   6   7
ATOM      7  C   UNL     1       4.060  -1.490  -3.792  1.00  0.00     0.219 A 
ATOM      8  C   UNL     1       2.267  -0.674  -2.624  1.00  0.00     0.233 A 
ATOM      9  N   UNL     1       2.872  -0.862  -3.822  1.00  0.00    -0.177 NA
ATOM     10  N   UNL     1       2.899  -0.859  -1.456  1.00  0.00    -0.212 NA
ATOM     11  C   UNL     1       4.033  -1.568  -1.458  1.00  0.00     0.080 A 
ATOM     12  C   UNL     1       4.577  -2.039  -2.633  1.00  0.00     0.097 A 
BRANCH   8  13
ATOM     13  N   UNL     1       0.887  -0.419  -2.555  1.00  0.00    -0.311 N 
BRANCH  13  14
ATOM     14  C   UNL     1       0.415   0.501  -1.503  1.00  0.00     0.122 C 
ATOM     15  C   UNL     1       0.663   0.057  -0.060  1.00  0.00     0.028 C 
ENDBRANCH  13  14
BRANCH  13  16
ATOM     16  C   UNL     1      -0.080  -1.190  -3.233  1.00  0.00     0.044 A 
ATOM     17  C   UNL     1      -1.213  -0.605  -3.812  1.00  0.00     0.026 A 
ATOM     18  C   UNL     1       0.078  -2.583  -3.378  1.00  0.00     0.029 A 
ATOM     19  C   UNL     1      -2.141  -1.372  -4.523  1.00  0.00     0.002 A 
ATOM     20  C   UNL     1      -0.854  -3.369  -4.077  1.00  0.00    -0.049 A 
ATOM     21  C   UNL     1      -1.962  -2.748  -4.656  1.00  0.00     0.003 A 
ATOM     22  C   UNL     1      -0.641  -4.849  -4.207  1.00  0.00     0.044 C 
ENDBRANCH  13  16
ENDBRANCH   8  13
BRANCH  11  23
ATOM     23  C   UNL     1       4.750  -1.639  -0.172  1.00  0.00     0.000 A 
ATOM     24  C   UNL     1       5.297  -0.476   0.398  1.00  0.00     0.010 A 
ATOM     25  C   UNL     1       5.029  -2.850   0.461  1.00  0.00     0.010 A 
ATOM     26  C   UNL     1       6.291  -0.542   1.380  1.00  0.00     0.004 A 
ATOM     27  C   UNL     1       5.950  -2.912   1.517  1.00  0.00     0.004 A 
ATOM     28  C   UNL     1       6.657  -1.772   1.919  1.00  0.00    -0.051 A 
ATOM     29  C   UNL     1       7.785  -1.868   2.901  1.00  0.00     0.044 C 
ENDBRANCH  11  23
ENDBRANCH   6   7
ENDBRANCH   5   6
ENDBRANCH   3   5
ENDBRANCH   2   3
ENDBRANCH   1   2
BRANCH   1  30
ATOM     30  C   UNL     1       6.721   3.357  -2.678  1.00  0.00     0.275 C 
BRANCH  30  31
ATOM     31  O   UNL     1       6.058   2.261  -1.985  1.00  0.00    -0.458 OA
BRANCH  31  32
ATOM     32  C   UNL     1       6.390   0.975  -2.201  1.00  0.00     0.338 C 
ATOM     33  O   UNL     1       7.117   0.337  -1.460  1.00  0.00    -0.246 OA
BRANCH  32  34
ATOM     34  C   UNL     1       5.876   0.401  -3.484  1.00  0.00     0.060 A 
ATOM     35  C   UNL     1       6.979  -0.968  -3.988  1.00  0.00     0.016 A 
ATOM     36  C   UNL     1       5.312   1.593  -4.717  1.00  0.00     0.016 A 
ATOM     37  C   UNL     1       7.728  -0.959  -5.619  1.00  0.00     0.010 A 
ATOM     38  C   UNL     1       6.083   1.569  -6.369  1.00  0.00     0.010 A 
ATOM     39  C   UNL     1       7.376   0.377  -6.738  1.00  0.00    -0.014 A 
BRANCH  39  40
ATOM     40  C   UNL     1       8.523   0.978  -7.459  1.00  0.00     0.031 A 
ATOM     41  C   UNL     1       8.409   0.967  -8.912  1.00  0.00     0.074 A 
ATOM     42  C   UNL     1       9.602   1.564  -6.859  1.00  0.00     0.049 A 
ATOM     43  N   UNL     1       9.414   0.829  -9.700  1.00  0.00    -0.248 NA
ATOM     44  C   UNL     1       7.116   0.938  -9.582  1.00  0.00     0.031 C 
ATOM     45  C   UNL     1      10.519   2.539  -7.451  1.00  0.00     0.029 A 
ATOM     46  N   UNL     1      10.149   1.399  -5.585  1.00  0.00    -0.354 N 
ATOM     47  C   UNL     1       8.926   1.046 -10.966  1.00  0.00     0.074 A 
ATOM     48  C   UNL     1       7.506   0.848 -10.854  1.00  0.00     0.031 C 
ATOM     49  C   UNL     1      11.578   2.724  -6.639  1.00  0.00     0.029 A 
ATOM     50  C   UNL     1      11.490   1.765  -5.554  1.00  0.00     0.049 A 
ATOM     51  H   UNL     1       9.648   1.065  -4.806  1.00  0.00     0.167 HD
ATOM     52  C   UNL     1       9.745   1.624 -11.886  1.00  0.00     0.034 A 
ATOM     53  C   UNL     1      12.509   1.014  -5.034  1.00  0.00     0.034 A 
ATOM     54  C   UNL     1      11.081   1.850 -11.298  1.00  0.00     0.049 A 
ATOM     55  C   UNL     1      13.447   0.588  -6.156  1.00  0.00     0.074 A 
ATOM     56  C   UNL     1      11.690   2.974 -10.759  1.00  0.00     0.029 A 
ATOM     57  N   UNL     1      11.847   0.764 -10.888  1.00  0.00    -0.354 N 
ATOM     58  N   UNL     1      13.289   0.960  -7.396  1.00  0.00    -0.248 NA
ATOM     59  C   UNL     1      14.571  -0.336  -6.012  1.00  0.00     0.031 C 
ATOM     60  C   UNL     1      12.808   2.546  -9.992  1.00  0.00     0.029 A 
ATOM     61  C   UNL     1      12.905   1.168 -10.086  1.00  0.00     0.049 A 
ATOM     62  H   UNL     1      11.662  -0.171 -11.134  1.00  0.00     0.167 HD
ATOM     63  C   UNL     1      14.066   0.195  -8.218  1.00  0.00     0.074 A 
ATOM     64  C   UNL     1      14.925  -0.528  -7.296  1.00  0.00     0.031 C 
ATOM     65  C   UNL     1      13.859   0.181  -9.572  1.00  0.00     0.034 A 
BRANCH  52  66
ATOM     66  C   UNL     1       9.282   2.297 -13.170  1.00  0.00     0.023 A 
ATOM     67  C   UNL     1      10.206   3.159 -13.801  1.00  0.00     0.012 A 
ATOM     68  C   UNL     1       8.018   2.191 -13.803  1.00  0.00     0.148 A 
ATOM     69  C   UNL     1       9.887   3.911 -14.937  1.00  0.00     0.002 A 
ATOM     70  C   UNL     1       7.684   2.963 -14.920  1.00  0.00     0.091 A 
ATOM     71  F   UNL     1       7.125   1.298 -13.385  1.00  0.00    -0.205 F 
ATOM     72  C   UNL     1       8.618   3.827 -15.489  1.00  0.00     0.022 A 
BRANCH  70  73
ATOM     73  S   UNL     1       6.046   2.919 -15.678  1.00  0.00     0.127 S 
ATOM     74  O   UNL     1       5.680   4.337 -15.703  1.00  0.00    -0.237 OA
ATOM     75  O   UNL     1       6.324   2.341 -16.990  1.00  0.00    -0.237 OA
ATOM     76  O   UNL     1       5.206   2.107 -14.805  1.00  0.00    -0.744 OA
ENDBRANCH  70  73
ENDBRANCH  52  66
BRANCH  53  77
ATOM     77  C   UNL     1      12.110   0.144  -3.883  1.00  0.00     0.023 A 
ATOM     78  C   UNL     1      11.601   0.777  -2.724  1.00  0.00     0.012 A 
ATOM     79  C   UNL     1      11.824  -1.211  -4.084  1.00  0.00     0.148 A 
ATOM     80  C   UNL     1      10.649   0.135  -1.926  1.00  0.00     0.002 A 
ATOM     81  C   UNL     1      10.848  -1.833  -3.314  1.00  0.00     0.091 A 
ATOM     82  F   UNL     1      12.443  -1.873  -5.070  1.00  0.00    -0.205 F 
ATOM     83  C   UNL     1      10.227  -1.152  -2.260  1.00  0.00     0.022 A 
BRANCH  81  84
ATOM     84  S   UNL     1      10.233  -3.430  -3.861  1.00  0.00     0.127 S 
ATOM     85  O   UNL     1       8.926  -3.537  -3.214  1.00  0.00    -0.237 OA
ATOM     86  O   UNL     1      10.165  -3.295  -5.311  1.00  0.00    -0.237 OA
ATOM     87  O   UNL     1      11.248  -4.343  -3.345  1.00  0.00    -0.744 OA
ENDBRANCH  81  84
ENDBRANCH  53  77
BRANCH  65  88
ATOM     88  C   UNL     1      14.534  -0.755 -10.558  1.00  0.00     0.023 A 
ATOM     89  C   UNL     1      15.146  -1.960 -10.173  1.00  0.00     0.012 A 
ATOM     90  C   UNL     1      14.479  -0.491 -11.954  1.00  0.00     0.148 A 
ATOM     91  C   UNL     1      15.761  -2.806 -11.103  1.00  0.00     0.002 A 
ATOM     92  C   UNL     1      14.960  -1.405 -12.881  1.00  0.00     0.091 A 
ATOM     93  F   UNL     1      13.992   0.675 -12.400  1.00  0.00    -0.205 F 
ATOM     94  C   UNL     1      15.650  -2.540 -12.460  1.00  0.00     0.022 A 
BRANCH  92  95
ATOM     95  S   UNL     1      14.587  -1.241 -14.632  1.00  0.00     0.127 S 
ATOM     96  O   UNL     1      15.831  -0.680 -15.153  1.00  0.00    -0.237 OA
ATOM     97  O   UNL     1      14.332  -2.629 -15.023  1.00  0.00    -0.237 OA
ATOM     98  O   UNL     1      13.416  -0.377 -14.701  1.00  0.00    -0.744 OA
ENDBRANCH  92  95
ENDBRANCH  65  88
ENDBRANCH  39  40
ENDBRANCH  32  34
ENDBRANCH  31  32
ENDBRANCH  30  31
ENDBRANCH   1  30
TORSDOF 20
