REMARK SMILES O=C(OCCOC(=O)c1ccc(-c2ccc(Cl)cc2)cc1F)c1ccc(-c2c3nc(c(-c4cccc(S(=O)(=O)[O-])c4F)c4ccc([nH]4)c(-c4cccc(S(=O)(=O)[O-])c4F)c4nc(c(-c5cccc(S(=O)(=O)[O-])c5F)c5ccc2[nH]5)C=C4)C=C3)cc1
REMARK SMILES IDX 4 1 3 2 2 3 1 4 23 5 24 6 85 7 25 8 84 9 26 10 27 11 28 12
REMARK SMILES IDX 78 13 29 14 83 15 77 16 79 17 30 18 82 19 76 20 75 21 31 23
REMARK SMILES IDX 63 24 43 25 62 26 44 27 47 28 61 29 80 30 45 31 46 32 60 34
REMARK SMILES IDX 81 35 48 36 32 37 33 38 41 39 34 40 36 41 42 42 35 43 37 44
REMARK SMILES IDX 38 45 39 46 40 47 64 48 65 49 73 50 66 51 68 52 74 53 67 54
REMARK SMILES IDX 69 55 70 56 71 57 72 58 49 59 50 60 58 61 51 62 53 63 59 64
REMARK SMILES IDX 52 65 54 66 55 67 56 68 57 69 5 70 6 71 7 72 8 73 9 74 10 75
REMARK SMILES IDX 21 76 11 77 20 78 22 79 12 80 13 81 14 82 19 83 15 84 18 85
REMARK SMILES IDX 16 86 17 87
REMARK H PARENT 79 22 47 33
REMARK Flexibility Score: inf
ROOT
ATOM      1  C   UNL     1       4.255  -1.361   0.233  1.00  0.00     0.275 C 
ENDROOT
BRANCH   1   2
ATOM      2  O   UNL     1       3.147  -0.682   0.846  1.00  0.00    -0.458 OA
BRANCH   2   3
ATOM      3  C   UNL     1       2.860   0.639   0.917  1.00  0.00     0.338 C 
ATOM      4  O   UNL     1       1.926   0.987   1.639  1.00  0.00    -0.246 OA
BRANCH   3   5
ATOM      5  C   UNL     1       3.532   1.700   0.093  1.00  0.00     0.060 A 
ATOM      6  C   UNL     1       4.775   1.604  -0.542  1.00  0.00     0.016 A 
ATOM      7  C   UNL     1       2.812   2.897  -0.072  1.00  0.00     0.016 A 
ATOM      8  C   UNL     1       5.257   2.623  -1.367  1.00  0.00     0.010 A 
ATOM      9  C   UNL     1       3.284   3.920  -0.898  1.00  0.00     0.010 A 
ATOM     10  C   UNL     1       4.517   3.786  -1.547  1.00  0.00    -0.014 A 
BRANCH  10  11
ATOM     11  C   UNL     1       5.117   4.949  -2.230  1.00  0.00     0.031 A 
ATOM     12  C   UNL     1       5.630   6.058  -1.364  1.00  0.00     0.074 A 
ATOM     13  C   UNL     1       5.215   5.010  -3.571  1.00  0.00     0.049 A 
ATOM     14  N   UNL     1       6.129   7.209  -1.713  1.00  0.00    -0.248 NA
ATOM     15  C   UNL     1       5.611   5.822   0.093  1.00  0.00     0.031 C 
ATOM     16  C   UNL     1       4.891   3.925  -4.491  1.00  0.00     0.029 A 
ATOM     17  N   UNL     1       5.587   6.038  -4.398  1.00  0.00    -0.354 N 
ATOM     18  C   UNL     1       6.489   7.830  -0.527  1.00  0.00     0.074 A 
ATOM     19  C   UNL     1       6.112   6.955   0.558  1.00  0.00     0.031 C 
ATOM     20  C   UNL     1       4.968   4.373  -5.756  1.00  0.00     0.029 A 
ATOM     21  C   UNL     1       5.372   5.772  -5.733  1.00  0.00     0.049 A 
ATOM     22  H   UNL     1       5.971   6.883  -4.070  1.00  0.00     0.167 HD
ATOM     23  C   UNL     1       7.119   9.012  -0.365  1.00  0.00     0.034 A 
ATOM     24  C   UNL     1       5.491   6.576  -6.808  1.00  0.00     0.034 A 
ATOM     25  C   UNL     1       7.492   9.861  -1.459  1.00  0.00     0.049 A 
ATOM     26  C   UNL     1       6.061   7.954  -6.583  1.00  0.00     0.074 A 
ATOM     27  C   UNL     1       8.136  11.081  -1.417  1.00  0.00     0.029 A 
ATOM     28  N   UNL     1       7.242   9.578  -2.794  1.00  0.00    -0.354 N 
ATOM     29  N   UNL     1       6.474   8.500  -5.462  1.00  0.00    -0.248 NA
ATOM     30  C   UNL     1       6.251   8.801  -7.768  1.00  0.00     0.031 C 
ATOM     31  C   UNL     1       8.243  11.555  -2.727  1.00  0.00     0.029 A 
ATOM     32  C   UNL     1       7.700  10.611  -3.587  1.00  0.00     0.049 A 
ATOM     33  H   UNL     1       6.802   8.762  -3.126  1.00  0.00     0.167 HD
ATOM     34  C   UNL     1       7.033   9.722  -5.814  1.00  0.00     0.074 A 
ATOM     35  C   UNL     1       6.907   9.833  -7.255  1.00  0.00     0.031 C 
ATOM     36  C   UNL     1       7.601  10.666  -5.024  1.00  0.00     0.034 A 
BRANCH  23  37
ATOM     37  C   UNL     1       7.457   9.436   1.034  1.00  0.00     0.023 A 
ATOM     38  C   UNL     1       8.510   8.799   1.722  1.00  0.00     0.012 A 
ATOM     39  C   UNL     1       6.767  10.497   1.647  1.00  0.00     0.148 A 
ATOM     40  C   UNL     1       8.862   9.204   3.008  1.00  0.00     0.002 A 
ATOM     41  C   UNL     1       7.152  10.925   2.910  1.00  0.00     0.091 A 
ATOM     42  F   UNL     1       5.750  11.064   0.982  1.00  0.00    -0.205 F 
ATOM     43  C   UNL     1       8.192  10.274   3.596  1.00  0.00     0.022 A 
BRANCH  41  44
ATOM     44  S   UNL     1       6.403  12.336   3.725  1.00  0.00     0.127 S 
ATOM     45  O   UNL     1       5.861  11.724   4.938  1.00  0.00    -0.237 OA
ATOM     46  O   UNL     1       7.557  13.207   3.943  1.00  0.00    -0.237 OA
ATOM     47  O   UNL     1       5.404  12.855   2.801  1.00  0.00    -0.744 OA
ENDBRANCH  41  44
ENDBRANCH  23  37
BRANCH  24  48
ATOM     48  C   UNL     1       5.174   6.083  -8.183  1.00  0.00     0.023 A 
ATOM     49  C   UNL     1       6.226   5.905  -9.104  1.00  0.00     0.012 A 
ATOM     50  C   UNL     1       3.856   5.795  -8.595  1.00  0.00     0.148 A 
ATOM     51  C   UNL     1       5.971   5.501 -10.415  1.00  0.00     0.002 A 
ATOM     52  C   UNL     1       3.612   5.350  -9.894  1.00  0.00     0.091 A 
ATOM     53  F   UNL     1       2.859   5.975  -7.717  1.00  0.00    -0.205 F 
ATOM     54  C   UNL     1       4.667   5.220 -10.809  1.00  0.00     0.022 A 
BRANCH  52  55
ATOM     55  S   UNL     1       1.981   4.850 -10.463  1.00  0.00     0.127 S 
ATOM     56  O   UNL     1       1.562   6.011 -11.242  1.00  0.00    -0.237 OA
ATOM     57  O   UNL     1       2.279   3.654 -11.252  1.00  0.00    -0.237 OA
ATOM     58  O   UNL     1       1.214   4.579  -9.255  1.00  0.00    -0.744 OA
ENDBRANCH  52  55
ENDBRANCH  24  48
BRANCH  36  59
ATOM     59  C   UNL     1       8.161  11.892  -5.694  1.00  0.00     0.023 A 
ATOM     60  C   UNL     1       7.286  12.852  -6.237  1.00  0.00     0.012 A 
ATOM     61  C   UNL     1       9.547  12.142  -5.682  1.00  0.00     0.148 A 
ATOM     62  C   UNL     1       7.785  14.031  -6.785  1.00  0.00     0.002 A 
ATOM     63  C   UNL     1      10.032  13.346  -6.174  1.00  0.00     0.091 A 
ATOM     64  F   UNL     1      10.362  11.206  -5.173  1.00  0.00    -0.205 F 
ATOM     65  C   UNL     1       9.154  14.285  -6.739  1.00  0.00     0.022 A 
BRANCH  63  66
ATOM     66  S   UNL     1      11.761  13.811  -6.043  1.00  0.00     0.127 S 
ATOM     67  O   UNL     1      12.199  13.724  -7.435  1.00  0.00    -0.237 OA
ATOM     68  O   UNL     1      11.675  15.173  -5.514  1.00  0.00    -0.237 OA
ATOM     69  O   UNL     1      12.370  12.848  -5.135  1.00  0.00    -0.744 OA
ENDBRANCH  63  66
ENDBRANCH  36  59
ENDBRANCH  10  11
ENDBRANCH   3   5
ENDBRANCH   2   3
ENDBRANCH   1   2
BRANCH   1  70
ATOM     70  C   UNL     1       4.058  -1.687  -1.252  1.00  0.00     0.275 C 
BRANCH  70  71
ATOM     71  O   UNL     1       3.577  -0.582  -2.034  1.00  0.00    -0.458 OA
BRANCH  71  72
ATOM     72  C   UNL     1       2.229  -0.533  -2.216  1.00  0.00     0.341 C 
ATOM     73  O   UNL     1       1.415  -1.327  -1.786  1.00  0.00    -0.246 OA
BRANCH  72  74
ATOM     74  C   UNL     1       1.847   0.726  -2.883  1.00  0.00     0.095 A 
ATOM     75  C   UNL     1       0.866   1.529  -2.294  1.00  0.00     0.019 A 
ATOM     76  C   UNL     1       2.422   1.118  -4.083  1.00  0.00     0.138 A 
ATOM     77  C   UNL     1       0.520   2.755  -2.879  1.00  0.00     0.010 A 
ATOM     78  C   UNL     1       2.031   2.311  -4.697  1.00  0.00     0.049 A 
ATOM     79  F   UNL     1       3.358   0.362  -4.675  1.00  0.00    -0.206 F 
ATOM     80  C   UNL     1       1.100   3.170  -4.089  1.00  0.00    -0.015 A 
BRANCH  80  81
ATOM     81  C   UNL     1       0.715   4.443  -4.721  1.00  0.00    -0.018 A 
ATOM     82  C   UNL     1       0.202   4.458  -6.027  1.00  0.00     0.010 A 
ATOM     83  C   UNL     1       0.841   5.675  -4.054  1.00  0.00     0.010 A 
ATOM     84  C   UNL     1      -0.205   5.650  -6.635  1.00  0.00     0.021 A 
ATOM     85  C   UNL     1       0.443   6.873  -4.665  1.00  0.00     0.021 A 
ATOM     86  C   UNL     1      -0.087   6.853  -5.952  1.00  0.00     0.041 A 
ATOM     87  Cl  UNL     1      -0.608   8.317  -6.692  1.00  0.00    -0.084 Cl
ENDBRANCH  80  81
ENDBRANCH  72  74
ENDBRANCH  71  72
ENDBRANCH  70  71
ENDBRANCH   1  70
TORSDOF 15
