REMARK SMILES CC(=O)O[C@@H](C)c1nc2ccc(C(=O)OCCOC(=O)c3ccc(-c4c5nc(c(-c6cccc(S(=O)(=O)[O-])c6F)c6ccc([nH]6)c(-c6cccc(S(=O)(=O)[O-])c6F)c6nc(c(-c7cccc(S(=O)(=O)[O-])c7F)c7ccc4[nH]7)C=C6)C=C5)cc3)cc2[nH]1
REMARK SMILES IDX 16 1 15 2 13 3 14 4 12 5 7 6 8 7 86 8 9 9 85 10 10 12 84 13
REMARK SMILES IDX 11 14 5 15 6 16 4 17 2 18 1 19 3 20 17 21 18 22 19 23 20 24
REMARK SMILES IDX 21 25 22 26 83 27 23 28 82 29 24 30 25 31 26 32 76 33 27 34
REMARK SMILES IDX 81 35 75 36 77 37 28 38 80 39 74 40 73 41 29 43 61 44 41 45
REMARK SMILES IDX 60 46 42 47 45 48 59 49 78 50 43 51 44 52 58 54 79 55 46 56
REMARK SMILES IDX 30 57 31 58 39 59 32 60 34 61 40 62 33 63 35 64 36 65 37 66
REMARK SMILES IDX 38 67 62 68 63 69 71 70 64 71 66 72 72 73 65 74 67 75 68 76
REMARK SMILES IDX 69 77 70 78 47 79 48 80 56 81 49 82 51 83 57 84 50 85 52 86
REMARK SMILES IDX 53 87 54 88 55 89
REMARK H PARENT 86 11 77 42 45 53
REMARK Flexibility Score: inf
ROOT
ATOM      1  C   UNL     1      -9.162  -2.039  -2.055  1.00  0.00     0.275 C 
ENDROOT
BRANCH   1   2
ATOM      2  O   UNL     1      -7.921  -2.772  -1.973  1.00  0.00    -0.458 OA
BRANCH   2   3
ATOM      3  C   UNL     1      -6.940  -2.349  -2.812  1.00  0.00     0.338 C 
ATOM      4  O   UNL     1      -7.022  -1.452  -3.627  1.00  0.00    -0.246 OA
BRANCH   3   5
ATOM      5  C   UNL     1      -5.665  -3.060  -2.537  1.00  0.00     0.062 A 
ATOM      6  C   UNL     1      -1.187  -3.551  -1.921  1.00  0.00     0.148 A 
ATOM      7  N   UNL     1      -1.900  -4.655  -1.769  1.00  0.00    -0.229 NA
ATOM      8  N   UNL     1      -1.996  -2.505  -2.294  1.00  0.00    -0.339 N 
ATOM      9  C   UNL     1      -3.208  -4.292  -1.991  1.00  0.00     0.089 A 
ATOM     10  C   UNL     1      -3.285  -2.957  -2.354  1.00  0.00     0.066 A 
ATOM     11  H   UNL     1      -1.698  -1.587  -2.486  1.00  0.00     0.168 HD
ATOM     12  C   UNL     1      -4.393  -5.045  -1.917  1.00  0.00     0.031 A 
ATOM     13  C   UNL     1      -4.479  -2.321  -2.683  1.00  0.00     0.044 A 
ATOM     14  C   UNL     1      -5.624  -4.410  -2.167  1.00  0.00     0.018 A 
BRANCH   6  15
ATOM     15  C   UNL     1       0.301  -3.392  -1.809  1.00  0.00     0.239 C 
ATOM     16  C   UNL     1       0.972  -4.391  -0.876  1.00  0.00     0.062 C 
BRANCH  15  17
ATOM     17  O   UNL     1       0.656  -2.016  -1.511  1.00  0.00    -0.455 OA
BRANCH  17  18
ATOM     18  C   UNL     1       0.384  -1.499  -0.282  1.00  0.00     0.303 C 
ATOM     19  C   UNL     1       0.933  -0.107  -0.179  1.00  0.00     0.139 C 
ATOM     20  O   UNL     1      -0.229  -2.065   0.609  1.00  0.00    -0.253 OA
ENDBRANCH  17  18
ENDBRANCH  15  17
ENDBRANCH   6  15
ENDBRANCH   3   5
ENDBRANCH   2   3
ENDBRANCH   1   2
BRANCH   1  21
ATOM     21  C   UNL     1      -9.309  -1.066  -0.886  1.00  0.00     0.275 C 
BRANCH  21  22
ATOM     22  O   UNL     1      -8.294  -0.050  -0.959  1.00  0.00    -0.458 OA
BRANCH  22  23
ATOM     23  C   UNL     1      -7.452   0.015   0.097  1.00  0.00     0.338 C 
ATOM     24  O   UNL     1      -7.489  -0.655   1.116  1.00  0.00    -0.246 OA
BRANCH  23  25
ATOM     25  C   UNL     1      -6.407   1.020  -0.157  1.00  0.00     0.060 A 
ATOM     26  C   UNL     1      -5.510   0.810  -1.198  1.00  0.00     0.016 A 
ATOM     27  C   UNL     1      -6.218   2.083   0.721  1.00  0.00     0.016 A 
ATOM     28  C   UNL     1      -4.354   1.583  -1.296  1.00  0.00     0.010 A 
ATOM     29  C   UNL     1      -5.119   2.933   0.548  1.00  0.00     0.010 A 
ATOM     30  C   UNL     1      -4.141   2.666  -0.430  1.00  0.00    -0.014 A 
BRANCH  30  31
ATOM     31  C   UNL     1      -2.896   3.491  -0.521  1.00  0.00     0.031 A 
ATOM     32  C   UNL     1      -2.023   3.698   0.695  1.00  0.00     0.074 A 
ATOM     33  C   UNL     1      -2.542   4.076  -1.685  1.00  0.00     0.049 A 
ATOM     34  N   UNL     1      -1.012   4.514   0.859  1.00  0.00    -0.248 NA
ATOM     35  C   UNL     1      -2.338   2.897   1.889  1.00  0.00     0.031 C 
ATOM     36  C   UNL     1      -3.277   3.967  -2.947  1.00  0.00     0.029 A 
ATOM     37  N   UNL     1      -1.479   4.893  -1.996  1.00  0.00    -0.354 N 
ATOM     38  C   UNL     1      -0.636   4.396   2.194  1.00  0.00     0.074 A 
ATOM     39  C   UNL     1      -1.515   3.414   2.790  1.00  0.00     0.031 C 
ATOM     40  C   UNL     1      -2.632   4.660  -3.897  1.00  0.00     0.029 A 
ATOM     41  C   UNL     1      -1.492   5.341  -3.297  1.00  0.00     0.049 A 
ATOM     42  H   UNL     1      -0.777   5.133  -1.349  1.00  0.00     0.167 HD
ATOM     43  C   UNL     1       0.353   5.040   2.862  1.00  0.00     0.034 A 
ATOM     44  C   UNL     1      -0.710   6.236  -3.934  1.00  0.00     0.034 A 
ATOM     45  C   UNL     1       1.285   5.951   2.251  1.00  0.00     0.049 A 
ATOM     46  C   UNL     1       0.395   6.918  -3.179  1.00  0.00     0.074 A 
ATOM     47  C   UNL     1       2.362   6.598   2.833  1.00  0.00     0.029 A 
ATOM     48  N   UNL     1       1.258   6.341   0.921  1.00  0.00    -0.354 N 
ATOM     49  N   UNL     1       0.766   6.750  -1.933  1.00  0.00    -0.248 NA
ATOM     50  C   UNL     1       1.194   7.905  -3.918  1.00  0.00     0.031 C 
ATOM     51  C   UNL     1       2.979   7.388   1.857  1.00  0.00     0.029 A 
ATOM     52  C   UNL     1       2.299   7.218   0.662  1.00  0.00     0.049 A 
ATOM     53  H   UNL     1       0.597   6.038   0.257  1.00  0.00     0.167 HD
ATOM     54  C   UNL     1       1.852   7.597  -1.744  1.00  0.00     0.074 A 
ATOM     55  C   UNL     1       2.098   8.253  -3.012  1.00  0.00     0.031 C 
ATOM     56  C   UNL     1       2.567   7.827  -0.615  1.00  0.00     0.034 A 
BRANCH  43  57
ATOM     57  C   UNL     1       0.499   4.767   4.339  1.00  0.00     0.023 A 
ATOM     58  C   UNL     1       1.018   3.534   4.781  1.00  0.00     0.012 A 
ATOM     59  C   UNL     1       0.173   5.756   5.289  1.00  0.00     0.148 A 
ATOM     60  C   UNL     1       1.176   3.276   6.143  1.00  0.00     0.002 A 
ATOM     61  C   UNL     1       0.374   5.509   6.643  1.00  0.00     0.091 A 
ATOM     62  F   UNL     1      -0.339   6.917   4.854  1.00  0.00    -0.205 F 
ATOM     63  C   UNL     1       0.864   4.265   7.072  1.00  0.00     0.022 A 
BRANCH  61  64
ATOM     64  S   UNL     1       0.080   6.753   7.905  1.00  0.00     0.127 S 
ATOM     65  O   UNL     1      -1.172   6.284   8.497  1.00  0.00    -0.237 OA
ATOM     66  O   UNL     1       1.254   6.606   8.767  1.00  0.00    -0.237 OA
ATOM     67  O   UNL     1       0.006   8.025   7.200  1.00  0.00    -0.744 OA
ENDBRANCH  61  64
ENDBRANCH  43  57
BRANCH  44  68
ATOM     68  C   UNL     1      -0.947   6.528  -5.378  1.00  0.00     0.023 A 
ATOM     69  C   UNL     1      -0.003   6.104  -6.333  1.00  0.00     0.012 A 
ATOM     70  C   UNL     1      -2.122   7.172  -5.813  1.00  0.00     0.148 A 
ATOM     71  C   UNL     1      -0.220   6.325  -7.693  1.00  0.00     0.002 A 
ATOM     72  C   UNL     1      -2.362   7.331  -7.172  1.00  0.00     0.091 A 
ATOM     73  F   UNL     1      -2.996   7.591  -4.887  1.00  0.00    -0.205 F 
ATOM     74  C   UNL     1      -1.405   6.923  -8.114  1.00  0.00     0.022 A 
BRANCH  72  75
ATOM     75  S   UNL     1      -3.927   7.948  -7.803  1.00  0.00     0.127 S 
ATOM     76  O   UNL     1      -3.551   9.272  -8.291  1.00  0.00    -0.237 OA
ATOM     77  O   UNL     1      -4.237   6.971  -8.847  1.00  0.00    -0.237 OA
ATOM     78  O   UNL     1      -4.842   7.924  -6.670  1.00  0.00    -0.744 OA
ENDBRANCH  72  75
ENDBRANCH  44  68
BRANCH  56  79
ATOM     79  C   UNL     1       3.708   8.805  -0.702  1.00  0.00     0.023 A 
ATOM     80  C   UNL     1       3.442  10.186  -0.785  1.00  0.00     0.012 A 
ATOM     81  C   UNL     1       5.043   8.360  -0.639  1.00  0.00     0.148 A 
ATOM     82  C   UNL     1       4.488  11.107  -0.835  1.00  0.00     0.002 A 
ATOM     83  C   UNL     1       6.079   9.286  -0.643  1.00  0.00     0.091 A 
ATOM     84  F   UNL     1       5.276   7.040  -0.584  1.00  0.00    -0.205 F 
ATOM     85  C   UNL     1       5.804  10.659  -0.752  1.00  0.00     0.022 A 
BRANCH  83  86
ATOM     86  S   UNL     1       7.799   8.803  -0.453  1.00  0.00     0.127 S 
ATOM     87  O   UNL     1       8.310   8.977  -1.811  1.00  0.00    -0.237 OA
ATOM     88  O   UNL     1       8.293   9.783   0.515  1.00  0.00    -0.237 OA
ATOM     89  O   UNL     1       7.776   7.431   0.037  1.00  0.00    -0.744 OA
ENDBRANCH  83  86
ENDBRANCH  56  79
ENDBRANCH  30  31
ENDBRANCH  23  25
ENDBRANCH  22  23
ENDBRANCH  21  22
ENDBRANCH   1  21
TORSDOF 17
