REMARK SMILES Cc1ccc(NC(=O)C[NH+]2CCN(c3ccc(C(=O)OCCOC(=O)c4ccc(-c5c6nc(c(-c7cccc(S(=O)(=O)[O-])c7F)c7ccc([nH]7)c(-c7cccc(S(=O)(=O)[O-])c7F)c7nc(c(-c8cccc(S(=O)(=O)[O-])c8F)c8ccc5[nH]8)C=C7)C=C6)cc4)cc3NS(C)(=O)=O)CC2)cc1
REMARK SMILES IDX 21 1 20 2 18 3 19 4 17 5 14 6 15 7 90 8 16 9 89 10 13 11
REMARK SMILES IDX 10 12 11 13 97 14 12 16 96 17 9 18 7 19 6 20 8 22 5 23 1 24
REMARK SMILES IDX 2 25 3 26 99 27 4 28 98 29 91 30 92 32 93 33 94 34 95 35
REMARK SMILES IDX 22 36 23 37 24 38 25 39 26 40 27 41 88 42 28 43 87 44 29 45
REMARK SMILES IDX 30 46 31 47 81 48 32 49 86 50 80 51 82 52 33 53 85 54 79 55
REMARK SMILES IDX 78 56 34 58 66 59 46 60 65 61 47 62 50 63 64 64 83 65 48 66
REMARK SMILES IDX 49 67 63 69 84 70 51 71 35 72 36 73 44 74 37 75 39 76 45 77
REMARK SMILES IDX 38 78 40 79 41 80 42 81 43 82 67 83 68 84 76 85 69 86 71 87
REMARK SMILES IDX 77 88 70 89 72 90 73 91 74 92 75 93 52 94 53 95 61 96 54 97
REMARK SMILES IDX 56 98 62 99 55 100 57 101 58 102 59 103 60 104
REMARK H PARENT 10 15 6 21 91 31 82 57 50 68
REMARK Flexibility Score: inf
ROOT
ATOM      1  C   UNL     1       7.448  -2.649  -2.794  1.00  0.00     0.275 C 
ENDROOT
BRANCH   1   2
ATOM      2  O   UNL     1       6.217  -2.887  -2.115  1.00  0.00    -0.458 OA
BRANCH   2   3
ATOM      3  C   UNL     1       5.307  -1.892  -2.069  1.00  0.00     0.338 C 
ATOM      4  O   UNL     1       5.421  -0.768  -2.523  1.00  0.00    -0.246 OA
BRANCH   3   5
ATOM      5  C   UNL     1       4.109  -2.410  -1.376  1.00  0.00     0.062 A 
ATOM      6  C   UNL     1       1.652  -3.178  -0.357  1.00  0.00     0.062 A 
ATOM      7  C   UNL     1       2.256  -3.935  -1.376  1.00  0.00     0.029 A 
ATOM      8  C   UNL     1       2.424  -2.189   0.353  1.00  0.00     0.073 A 
ATOM      9  C   UNL     1       3.494  -3.561  -1.877  1.00  0.00     0.018 A 
ATOM     10  C   UNL     1       3.583  -1.726  -0.266  1.00  0.00     0.044 A 
BRANCH   6  11
ATOM     11  N   UNL     1       0.253  -3.142  -0.373  1.00  0.00    -0.359 N 
ATOM     12  N   UNL     1      -2.593  -2.839  -1.162  1.00  0.00    -0.324 N 
ATOM     13  C   UNL     1      -1.521  -2.018  -1.751  1.00  0.00     0.284 C 
ATOM     14  C   UNL     1      -1.985  -4.179  -0.891  1.00  0.00     0.284 C 
ATOM     15  H   UNL     1      -3.381  -2.916  -1.806  1.00  0.00     0.348 HD
ATOM     16  C   UNL     1      -0.284  -1.880  -0.858  1.00  0.00     0.178 C 
ATOM     17  C   UNL     1      -0.652  -4.248  -0.070  1.00  0.00     0.178 C 
BRANCH  12  18
ATOM     18  C   UNL     1      -3.185  -2.229   0.062  1.00  0.00     0.364 C 
BRANCH  18  19
ATOM     19  C   UNL     1      -4.097  -1.006  -0.247  1.00  0.00     0.279 C 
ATOM     20  N   UNL     1      -3.697   0.310  -0.226  1.00  0.00    -0.321 N 
ATOM     21  H   UNL     1      -4.406   0.945  -0.478  1.00  0.00     0.170 HD
ATOM     22  O   UNL     1      -5.274  -1.189  -0.600  1.00  0.00    -0.268 OA
BRANCH  20  23
ATOM     23  C   UNL     1      -2.478   0.919   0.085  1.00  0.00     0.041 A 
ATOM     24  C   UNL     1       1.690   1.654  -0.328  1.00  0.00     0.044 C 
ATOM     25  C   UNL     1       0.224   1.643   0.013  1.00  0.00    -0.051 A 
ATOM     26  C   UNL     1      -0.290   0.791   0.985  1.00  0.00     0.005 A 
ATOM     27  C   UNL     1      -0.693   2.346  -0.754  1.00  0.00     0.005 A 
ATOM     28  C   UNL     1      -1.637   0.449   1.062  1.00  0.00     0.026 A 
ATOM     29  C   UNL     1      -2.049   1.993  -0.708  1.00  0.00     0.026 A 
ENDBRANCH  20  23
ENDBRANCH  18  19
ENDBRANCH  12  18
ENDBRANCH   6  11
BRANCH   8  30
ATOM     30  N   UNL     1       1.812  -1.527   1.516  1.00  0.00    -0.282 N 
ATOM     31  H   UNL     1       0.833  -1.424   1.531  1.00  0.00     0.180 HD
BRANCH  30  32
ATOM     32  S   UNL     1       2.712  -0.927   2.842  1.00  0.00     0.229 S 
ATOM     33  C   UNL     1       2.034   0.667   3.226  1.00  0.00     0.183 C 
ATOM     34  O   UNL     1       2.238  -1.676   3.998  1.00  0.00    -0.207 OA
ATOM     35  O   UNL     1       4.072  -0.637   2.496  1.00  0.00    -0.207 OA
ENDBRANCH  30  32
ENDBRANCH   8  30
ENDBRANCH   3   5
ENDBRANCH   2   3
ENDBRANCH   1   2
BRANCH   1  36
ATOM     36  C   UNL     1       8.386  -1.536  -2.283  1.00  0.00     0.275 C 
BRANCH  36  37
ATOM     37  O   UNL     1       8.003  -0.657  -1.193  1.00  0.00    -0.458 OA
BRANCH  37  38
ATOM     38  C   UNL     1       7.746  -0.957   0.106  1.00  0.00     0.338 C 
ATOM     39  O   UNL     1       7.592  -0.096   0.961  1.00  0.00    -0.246 OA
BRANCH  38  40
ATOM     40  C   UNL     1       7.574  -2.374   0.423  1.00  0.00     0.060 A 
ATOM     41  C   UNL     1       6.368  -2.800   0.988  1.00  0.00     0.016 A 
ATOM     42  C   UNL     1       8.556  -3.277   0.043  1.00  0.00     0.016 A 
ATOM     43  C   UNL     1       6.083  -4.150   1.086  1.00  0.00     0.010 A 
ATOM     44  C   UNL     1       8.244  -4.610   0.037  1.00  0.00     0.010 A 
ATOM     45  C   UNL     1       7.046  -5.035   0.637  1.00  0.00    -0.014 A 
BRANCH  45  46
ATOM     46  C   UNL     1       7.098  -6.391   1.136  1.00  0.00     0.031 A 
ATOM     47  C   UNL     1       6.224  -7.441   0.624  1.00  0.00     0.074 A 
ATOM     48  C   UNL     1       8.117  -6.542   2.012  1.00  0.00     0.049 A 
ATOM     49  N   UNL     1       5.966  -8.511   1.284  1.00  0.00    -0.248 NA
ATOM     50  C   UNL     1       5.489  -7.346  -0.634  1.00  0.00     0.031 C 
ATOM     51  C   UNL     1       8.887  -7.706   2.376  1.00  0.00     0.029 A 
ATOM     52  N   UNL     1       8.636  -5.514   2.820  1.00  0.00    -0.354 N 
ATOM     53  C   UNL     1       5.351  -9.381   0.410  1.00  0.00     0.074 A 
ATOM     54  C   UNL     1       4.912  -8.554  -0.687  1.00  0.00     0.031 C 
ATOM     55  C   UNL     1       9.650  -7.396   3.445  1.00  0.00     0.029 A 
ATOM     56  C   UNL     1       9.234  -6.085   3.939  1.00  0.00     0.049 A 
ATOM     57  H   UNL     1       8.584  -4.551   2.626  1.00  0.00     0.167 HD
ATOM     58  C   UNL     1       5.519 -10.716   0.630  1.00  0.00     0.034 A 
ATOM     59  C   UNL     1       8.844  -5.777   5.214  1.00  0.00     0.034 A 
ATOM     60  C   UNL     1       6.290 -10.914   1.875  1.00  0.00     0.049 A 
ATOM     61  C   UNL     1       8.168  -7.014   5.827  1.00  0.00     0.074 A 
ATOM     62  C   UNL     1       7.647 -11.105   2.088  1.00  0.00     0.029 A 
ATOM     63  N   UNL     1       5.752 -10.540   3.104  1.00  0.00    -0.354 N 
ATOM     64  N   UNL     1       7.832  -8.081   5.154  1.00  0.00    -0.248 NA
ATOM     65  C   UNL     1       7.750  -7.098   7.224  1.00  0.00     0.031 C 
ATOM     66  C   UNL     1       7.935 -10.761   3.436  1.00  0.00     0.029 A 
ATOM     67  C   UNL     1       6.754 -10.391   4.055  1.00  0.00     0.049 A 
ATOM     68  H   UNL     1       4.792 -10.400   3.275  1.00  0.00     0.167 HD
ATOM     69  C   UNL     1       7.053  -8.897   5.928  1.00  0.00     0.074 A 
ATOM     70  C   UNL     1       7.068  -8.255   7.232  1.00  0.00     0.031 C 
ATOM     71  C   UNL     1       6.419 -10.000   5.422  1.00  0.00     0.034 A 
BRANCH  58  72
ATOM     72  C   UNL     1       5.368 -11.822  -0.412  1.00  0.00     0.023 A 
ATOM     73  C   UNL     1       6.028 -13.043  -0.131  1.00  0.00     0.012 A 
ATOM     74  C   UNL     1       4.702 -11.761  -1.660  1.00  0.00     0.148 A 
ATOM     75  C   UNL     1       6.109 -14.095  -1.050  1.00  0.00     0.002 A 
ATOM     76  C   UNL     1       4.797 -12.805  -2.591  1.00  0.00     0.091 A 
ATOM     77  F   UNL     1       3.929 -10.714  -1.954  1.00  0.00    -0.205 F 
ATOM     78  C   UNL     1       5.510 -13.969  -2.291  1.00  0.00     0.022 A 
BRANCH  76  79
ATOM     79  S   UNL     1       4.051 -12.733  -4.234  1.00  0.00     0.127 S 
ATOM     80  O   UNL     1       5.212 -12.914  -5.107  1.00  0.00    -0.237 OA
ATOM     81  O   UNL     1       3.129 -13.867  -4.210  1.00  0.00    -0.237 OA
ATOM     82  O   UNL     1       3.417 -11.424  -4.342  1.00  0.00    -0.744 OA
ENDBRANCH  76  79
ENDBRANCH  58  72
BRANCH  59  83
ATOM     83  C   UNL     1       8.274  -4.379   5.391  1.00  0.00     0.023 A 
ATOM     84  C   UNL     1       8.898  -3.254   4.788  1.00  0.00     0.012 A 
ATOM     85  C   UNL     1       6.924  -4.268   5.694  1.00  0.00     0.148 A 
ATOM     86  C   UNL     1       8.127  -2.187   4.292  1.00  0.00     0.002 A 
ATOM     87  C   UNL     1       6.153  -3.344   5.024  1.00  0.00     0.091 A 
ATOM     88  F   UNL     1       6.336  -5.115   6.543  1.00  0.00    -0.205 F 
ATOM     89  C   UNL     1       6.736  -2.277   4.335  1.00  0.00     0.022 A 
BRANCH  87  90
ATOM     90  S   UNL     1       4.480  -3.910   4.691  1.00  0.00     0.127 S 
ATOM     91  O   UNL     1       4.199  -3.303   3.397  1.00  0.00    -0.237 OA
ATOM     92  O   UNL     1       4.614  -5.359   4.604  1.00  0.00    -0.237 OA
ATOM     93  O   UNL     1       3.764  -3.397   5.852  1.00  0.00    -0.744 OA
ENDBRANCH  87  90
ENDBRANCH  59  83
BRANCH  71  94
ATOM     94  C   UNL     1       5.443 -10.861   6.192  1.00  0.00     0.023 A 
ATOM     95  C   UNL     1       4.661 -10.364   7.249  1.00  0.00     0.012 A 
ATOM     96  C   UNL     1       5.195 -12.197   5.783  1.00  0.00     0.148 A 
ATOM     97  C   UNL     1       3.757 -11.178   7.938  1.00  0.00     0.002 A 
ATOM     98  C   UNL     1       4.199 -12.957   6.381  1.00  0.00     0.091 A 
ATOM     99  F   UNL     1       5.947 -12.756   4.823  1.00  0.00    -0.205 F 
ATOM    100  C   UNL     1       3.510 -12.470   7.492  1.00  0.00     0.022 A 
BRANCH  98 101
ATOM    101  S   UNL     1       3.665 -14.511   5.652  1.00  0.00     0.127 S 
ATOM    102  O   UNL     1       4.456 -15.486   6.399  1.00  0.00    -0.237 OA
ATOM    103  O   UNL     1       2.233 -14.526   5.959  1.00  0.00    -0.237 OA
ATOM    104  O   UNL     1       3.966 -14.392   4.231  1.00  0.00    -0.744 OA
ENDBRANCH  98 101
ENDBRANCH  71  94
ENDBRANCH  45  46
ENDBRANCH  38  40
ENDBRANCH  37  38
ENDBRANCH  36  37
ENDBRANCH   1  36
TORSDOF 20
