REMARK SMILES Cc1ccc(Nc2c(F)cccc2Cl)c(CC(=O)OCCOC(=O)c2ccc(-c3c4nc(c(-c5cccc(S(=O)(=O)[O-])c5F)c5ccc([nH]5)c(-c5cccc(S(=O)(=O)[O-])c5F)c5nc(c(-c6cccc(S(=O)(=O)[O-])c6F)c6ccc3[nH]6)C=C5)C=C4)cc2)c1
REMARK SMILES IDX 20 1 19 2 17 3 18 4 16 5 15 6 1 7 2 8 3 9 88 10 4 11 5 12
REMARK SMILES IDX 6 13 7 15 8 16 13 17 9 18 10 19 12 20 14 21 11 22 21 23
REMARK SMILES IDX 22 24 23 25 24 26 25 27 26 28 87 29 27 30 86 31 28 32 29 33
REMARK SMILES IDX 30 34 80 35 31 36 85 37 79 38 81 39 32 40 84 41 78 42 77 43
REMARK SMILES IDX 33 45 65 46 45 47 64 48 46 49 49 50 63 51 82 52 47 53 48 54
REMARK SMILES IDX 62 56 83 57 50 58 34 59 35 60 43 61 36 62 38 63 44 64 37 65
REMARK SMILES IDX 39 66 40 67 41 68 42 69 66 70 67 71 75 72 68 73 70 74 76 75
REMARK SMILES IDX 69 76 71 77 72 78 73 79 74 80 51 81 52 82 60 83 53 84 55 85
REMARK SMILES IDX 61 86 54 87 56 88 57 89 58 90 59 91
REMARK H PARENT 6 14 81 44 49 55
REMARK Flexibility Score: inf
ROOT
ATOM      1  C   UNL     1      -3.068   1.232  -4.741  1.00  0.00     0.274 C 
ENDROOT
BRANCH   1   2
ATOM      2  O   UNL     1      -2.095   1.549  -3.760  1.00  0.00    -0.462 OA
BRANCH   2   3
ATOM      3  C   UNL     1      -1.565   0.528  -3.054  1.00  0.00     0.310 C 
ATOM      4  O   UNL     1      -1.615  -0.643  -3.422  1.00  0.00    -0.252 OA
BRANCH   3   5
ATOM      5  C   UNL     1      -0.889   1.116  -1.844  1.00  0.00     0.160 C 
BRANCH   5   6
ATOM      6  C   UNL     1      -0.466   0.143  -0.780  1.00  0.00    -0.013 A 
ATOM      7  C   UNL     1       3.035  -0.505   0.449  1.00  0.00     0.044 C 
ATOM      8  C   UNL     1       1.561  -0.670   0.268  1.00  0.00    -0.051 A 
ATOM      9  C   UNL     1       0.909  -1.878   0.498  1.00  0.00     0.005 A 
ATOM     10  C   UNL     1       0.848   0.354  -0.329  1.00  0.00     0.009 A 
ATOM     11  C   UNL     1      -0.461  -2.010   0.232  1.00  0.00     0.026 A 
ATOM     12  C   UNL     1      -1.205  -0.974  -0.338  1.00  0.00     0.042 A 
BRANCH  12  13
ATOM     13  N   UNL     1      -2.585  -1.129  -0.605  1.00  0.00    -0.352 N 
ATOM     14  H   UNL     1      -2.989  -0.396  -1.123  1.00  0.00     0.167 HD
BRANCH  13  15
ATOM     15  C   UNL     1      -3.489  -2.172  -0.247  1.00  0.00     0.094 A 
ATOM     16  C   UNL     1      -3.639  -2.604   1.080  1.00  0.00     0.148 A 
ATOM     17  C   UNL     1      -4.406  -2.704  -1.178  1.00  0.00     0.067 A 
ATOM     18  F   UNL     1      -2.843  -2.126   2.049  1.00  0.00    -0.205 F 
ATOM     19  C   UNL     1      -4.594  -3.559   1.450  1.00  0.00     0.041 A 
ATOM     20  C   UNL     1      -5.413  -3.605  -0.798  1.00  0.00     0.023 A 
ATOM     21  Cl  UNL     1      -4.275  -2.436  -2.875  1.00  0.00    -0.082 Cl
ATOM     22  C   UNL     1      -5.494  -4.052   0.513  1.00  0.00     0.005 A 
ENDBRANCH  13  15
ENDBRANCH  12  13
ENDBRANCH   5   6
ENDBRANCH   3   5
ENDBRANCH   2   3
ENDBRANCH   1   2
BRANCH   1  23
ATOM     23  C   UNL     1      -4.410   0.677  -4.207  1.00  0.00     0.275 C 
BRANCH  23  24
ATOM     24  O   UNL     1      -4.707   0.488  -2.765  1.00  0.00    -0.458 OA
BRANCH  24  25
ATOM     25  C   UNL     1      -4.741   1.190  -1.596  1.00  0.00     0.338 C 
ATOM     26  O   UNL     1      -5.103   0.658  -0.555  1.00  0.00    -0.246 OA
BRANCH  25  27
ATOM     27  C   UNL     1      -4.156   2.528  -1.574  1.00  0.00     0.060 A 
ATOM     28  C   UNL     1      -3.483   3.118  -0.489  1.00  0.00     0.016 A 
ATOM     29  C   UNL     1      -4.145   3.142  -2.788  1.00  0.00     0.016 A 
ATOM     30  C   UNL     1      -2.779   4.311  -0.709  1.00  0.00     0.010 A 
ATOM     31  C   UNL     1      -3.083   3.936  -3.065  1.00  0.00     0.010 A 
ATOM     32  C   UNL     1      -2.612   4.716  -2.027  1.00  0.00    -0.014 A 
BRANCH  32  33
ATOM     33  C   UNL     1      -2.298   6.034  -2.552  1.00  0.00     0.031 A 
ATOM     34  C   UNL     1      -0.944   6.563  -2.496  1.00  0.00     0.074 A 
ATOM     35  C   UNL     1      -3.304   6.551  -3.311  1.00  0.00     0.049 A 
ATOM     36  N   UNL     1      -0.687   7.806  -2.311  1.00  0.00    -0.248 NA
ATOM     37  C   UNL     1       0.245   5.727  -2.658  1.00  0.00     0.031 C 
ATOM     38  C   UNL     1      -3.349   7.579  -4.330  1.00  0.00     0.029 A 
ATOM     39  N   UNL     1      -4.639   6.098  -3.285  1.00  0.00    -0.354 N 
ATOM     40  C   UNL     1       0.624   7.978  -2.694  1.00  0.00     0.074 A 
ATOM     41  C   UNL     1       1.210   6.656  -2.715  1.00  0.00     0.031 C 
ATOM     42  C   UNL     1      -4.648   7.883  -4.570  1.00  0.00     0.029 A 
ATOM     43  C   UNL     1      -5.471   7.147  -3.610  1.00  0.00     0.049 A 
ATOM     44  H   UNL     1      -4.929   5.183  -3.070  1.00  0.00     0.167 HD
ATOM     45  C   UNL     1       0.994   9.162  -3.256  1.00  0.00     0.034 A 
ATOM     46  C   UNL     1      -6.243   7.615  -2.585  1.00  0.00     0.034 A 
ATOM     47  C   UNL     1      -0.204   9.980  -3.518  1.00  0.00     0.049 A 
ATOM     48  C   UNL     1      -5.779   8.986  -2.180  1.00  0.00     0.074 A 
ATOM     49  C   UNL     1      -0.963  10.149  -4.666  1.00  0.00     0.029 A 
ATOM     50  N   UNL     1      -0.985  10.445  -2.466  1.00  0.00    -0.354 N 
ATOM     51  N   UNL     1      -4.649   9.507  -2.562  1.00  0.00    -0.248 NA
ATOM     52  C   UNL     1      -6.543   9.871  -1.315  1.00  0.00     0.031 C 
ATOM     53  C   UNL     1      -2.230  10.666  -4.288  1.00  0.00     0.029 A 
ATOM     54  C   UNL     1      -2.248  10.818  -2.912  1.00  0.00     0.049 A 
ATOM     55  H   UNL     1      -0.684  10.503  -1.530  1.00  0.00     0.167 HD
ATOM     56  C   UNL     1      -4.445  10.687  -1.919  1.00  0.00     0.074 A 
ATOM     57  C   UNL     1      -5.703  10.917  -1.223  1.00  0.00     0.031 C 
ATOM     58  C   UNL     1      -3.239  11.327  -1.966  1.00  0.00     0.034 A 
BRANCH  45  59
ATOM     59  C   UNL     1       2.328   9.419  -3.929  1.00  0.00     0.023 A 
ATOM     60  C   UNL     1       2.353  10.368  -4.976  1.00  0.00     0.012 A 
ATOM     61  C   UNL     1       3.567   8.826  -3.589  1.00  0.00     0.148 A 
ATOM     62  C   UNL     1       3.510  10.671  -5.696  1.00  0.00     0.002 A 
ATOM     63  C   UNL     1       4.722   9.102  -4.333  1.00  0.00     0.091 A 
ATOM     64  F   UNL     1       3.642   8.033  -2.511  1.00  0.00    -0.205 F 
ATOM     65  C   UNL     1       4.693  10.023  -5.387  1.00  0.00     0.022 A 
BRANCH  63  66
ATOM     66  S   UNL     1       6.299   8.277  -4.050  1.00  0.00     0.127 S 
ATOM     67  O   UNL     1       6.678   7.862  -5.403  1.00  0.00    -0.237 OA
ATOM     68  O   UNL     1       7.121   9.349  -3.495  1.00  0.00    -0.237 OA
ATOM     69  O   UNL     1       6.014   7.166  -3.150  1.00  0.00    -0.744 OA
ENDBRANCH  63  66
ENDBRANCH  45  59
BRANCH  46  70
ATOM     70  C   UNL     1      -6.678   6.535  -1.606  1.00  0.00     0.023 A 
ATOM     71  C   UNL     1      -7.426   5.435  -2.109  1.00  0.00     0.012 A 
ATOM     72  C   UNL     1      -6.141   6.414  -0.308  1.00  0.00     0.148 A 
ATOM     73  C   UNL     1      -7.547   4.236  -1.393  1.00  0.00     0.002 A 
ATOM     74  C   UNL     1      -6.303   5.227   0.419  1.00  0.00     0.091 A 
ATOM     75  F   UNL     1      -5.426   7.427   0.200  1.00  0.00    -0.205 F 
ATOM     76  C   UNL     1      -6.971   4.126  -0.133  1.00  0.00     0.022 A 
BRANCH  74  77
ATOM     77  S   UNL     1      -5.682   5.113   2.106  1.00  0.00     0.127 S 
ATOM     78  O   UNL     1      -6.140   3.793   2.543  1.00  0.00    -0.237 OA
ATOM     79  O   UNL     1      -4.237   5.222   1.952  1.00  0.00    -0.237 OA
ATOM     80  O   UNL     1      -6.359   6.225   2.765  1.00  0.00    -0.744 OA
ENDBRANCH  74  77
ENDBRANCH  46  70
BRANCH  58  81
ATOM     81  C   UNL     1      -2.877  12.509  -1.105  1.00  0.00     0.023 A 
ATOM     82  C   UNL     1      -3.522  12.775   0.115  1.00  0.00     0.012 A 
ATOM     83  C   UNL     1      -1.764  13.320  -1.436  1.00  0.00     0.148 A 
ATOM     84  C   UNL     1      -3.152  13.853   0.920  1.00  0.00     0.002 A 
ATOM     85  C   UNL     1      -1.308  14.293  -0.560  1.00  0.00     0.091 A 
ATOM     86  F   UNL     1      -1.147  13.169  -2.618  1.00  0.00    -0.205 F 
ATOM     87  C   UNL     1      -2.028  14.597   0.596  1.00  0.00     0.022 A 
BRANCH  85  88
ATOM     88  S   UNL     1       0.294  15.066  -0.799  1.00  0.00     0.127 S 
ATOM     89  O   UNL     1      -0.068  16.306  -1.480  1.00  0.00    -0.237 OA
ATOM     90  O   UNL     1       0.764  15.238   0.577  1.00  0.00    -0.237 OA
ATOM     91  O   UNL     1       1.068  14.108  -1.577  1.00  0.00    -0.744 OA
ENDBRANCH  85  88
ENDBRANCH  58  81
ENDBRANCH  32  33
ENDBRANCH  25  27
ENDBRANCH  24  25
ENDBRANCH  23  24
ENDBRANCH   1  23
TORSDOF 17
