REMARK SMILES [NH3+][C@@H](CSCc1nccs1)C(=O)OCCOC(=O)c1ccc(-c2c3nc(c(-c4cccc(S(=O)(=O)[O-])c4F)c4ccc([nH]4)c(-c4cccc(S(=O)(=O)[O-])c4F)c4nc(c(-c5cccc(S(=O)(=O)[O-])c5F)c5ccc2[nH]5)C=C4)C=C3)cc1
REMARK SMILES IDX 14 1 13 2 11 3 12 4 2 5 1 6 3 10 4 11 5 12 6 13 7 14 10 15
REMARK SMILES IDX 8 16 9 17 15 18 16 19 17 20 18 21 19 22 20 23 81 24 21 25
REMARK SMILES IDX 80 26 22 27 23 28 24 29 74 30 25 31 79 32 73 33 75 34 26 35
REMARK SMILES IDX 78 36 72 37 71 38 27 40 59 41 39 42 58 43 40 44 43 45 57 46
REMARK SMILES IDX 76 47 41 48 42 49 56 51 77 52 44 53 28 54 29 55 37 56 30 57
REMARK SMILES IDX 32 58 38 59 31 60 33 61 34 62 35 63 36 64 60 65 61 66 69 67
REMARK SMILES IDX 62 68 64 69 70 70 63 71 65 72 66 73 67 74 68 75 45 76 46 77
REMARK SMILES IDX 54 78 47 79 49 80 55 81 48 82 50 83 51 84 52 85 53 86
REMARK H PARENT 1 7 1 8 1 9 75 39 43 50
REMARK Flexibility Score: inf
ROOT
ATOM      1  C   UNL     1      -3.008   1.085  -0.066  1.00  0.00     0.274 C 
ENDROOT
BRANCH   1   2
ATOM      2  O   UNL     1      -1.573   1.030  -0.160  1.00  0.00    -0.458 OA
BRANCH   2   3
ATOM      3  C   UNL     1      -0.881   1.800   0.733  1.00  0.00     0.365 C 
ATOM      4  O   UNL     1      -1.390   2.571   1.537  1.00  0.00    -0.245 OA
BRANCH   3   5
ATOM      5  C   UNL     1       0.636   1.635   0.574  1.00  0.00     0.301 C 
BRANCH   5   6
ATOM      6  N   UNL     1       1.018   0.283   0.124  1.00  0.00    -0.345 N 
ATOM      7  H   UNL     1       2.033   0.228   0.035  1.00  0.00     0.345 HD
ATOM      8  H   UNL     1       0.587   0.091  -0.780  1.00  0.00     0.345 HD
ATOM      9  H   UNL     1       0.699  -0.405   0.806  1.00  0.00     0.345 HD
ENDBRANCH   5   6
BRANCH   5  10
ATOM     10  C   UNL     1       1.232   2.809  -0.215  1.00  0.00     0.147 C 
BRANCH  10  11
ATOM     11  S   UNL     1       0.590   3.141  -1.904  1.00  0.00    -0.148 SA
BRANCH  11  12
ATOM     12  C   UNL     1       1.254   1.735  -2.850  1.00  0.00     0.137 C 
BRANCH  12  13
ATOM     13  C   UNL     1       2.723   1.498  -2.680  1.00  0.00     0.102 A 
ATOM     14  N   UNL     1       3.223   0.418  -2.112  1.00  0.00    -0.249 NA
ATOM     15  S   UNL     1       3.888   2.637  -3.241  1.00  0.00    -0.126 S 
ATOM     16  C   UNL     1       4.603   0.481  -2.115  1.00  0.00     0.123 A 
ATOM     17  C   UNL     1       5.142   1.626  -2.657  1.00  0.00     0.087 A 
ENDBRANCH  12  13
ENDBRANCH  11  12
ENDBRANCH  10  11
ENDBRANCH   5  10
ENDBRANCH   3   5
ENDBRANCH   2   3
ENDBRANCH   1   2
BRANCH   1  18
ATOM     18  C   UNL     1      -3.571  -0.233   0.468  1.00  0.00     0.275 C 
BRANCH  18  19
ATOM     19  O   UNL     1      -3.094  -0.499   1.798  1.00  0.00    -0.458 OA
BRANCH  19  20
ATOM     20  C   UNL     1      -1.982  -1.273   1.860  1.00  0.00     0.338 C 
ATOM     21  O   UNL     1      -1.406  -1.805   0.927  1.00  0.00    -0.246 OA
BRANCH  20  22
ATOM     22  C   UNL     1      -1.484  -1.288   3.246  1.00  0.00     0.060 A 
ATOM     23  C   UNL     1      -0.221  -0.749   3.502  1.00  0.00     0.016 A 
ATOM     24  C   UNL     1      -2.225  -1.878   4.271  1.00  0.00     0.016 A 
ATOM     25  C   UNL     1       0.311  -0.799   4.788  1.00  0.00     0.010 A 
ATOM     26  C   UNL     1      -1.686  -1.935   5.561  1.00  0.00     0.010 A 
ATOM     27  C   UNL     1      -0.409  -1.409   5.823  1.00  0.00    -0.014 A 
BRANCH  27  28
ATOM     28  C   UNL     1       0.209  -1.556   7.163  1.00  0.00     0.031 A 
ATOM     29  C   UNL     1       0.745  -2.893   7.592  1.00  0.00     0.074 A 
ATOM     30  C   UNL     1       0.292  -0.496   7.988  1.00  0.00     0.049 A 
ATOM     31  N   UNL     1       1.286  -3.240   8.730  1.00  0.00    -0.248 NA
ATOM     32  C   UNL     1       0.659  -3.985   6.609  1.00  0.00     0.031 C 
ATOM     33  C   UNL     1      -0.189   0.851   7.681  1.00  0.00     0.029 A 
ATOM     34  N   UNL     1       0.795  -0.392   9.261  1.00  0.00    -0.354 N 
ATOM     35  C   UNL     1       1.581  -4.593   8.614  1.00  0.00     0.074 A 
ATOM     36  C   UNL     1       1.147  -5.008   7.297  1.00  0.00     0.031 C 
ATOM     37  C   UNL     1       0.024   1.643   8.745  1.00  0.00     0.029 A 
ATOM     38  C   UNL     1       0.632   0.856   9.815  1.00  0.00     0.049 A 
ATOM     39  H   UNL     1       1.231  -1.138   9.731  1.00  0.00     0.167 HD
ATOM     40  C   UNL     1       2.177  -5.411   9.514  1.00  0.00     0.034 A 
ATOM     41  C   UNL     1       0.924   1.306  11.052  1.00  0.00     0.034 A 
ATOM     42  C   UNL     1       2.631  -4.989  10.812  1.00  0.00     0.049 A 
ATOM     43  C   UNL     1       1.575   0.371  12.037  1.00  0.00     0.074 A 
ATOM     44  C   UNL     1       3.270  -5.738  11.786  1.00  0.00     0.029 A 
ATOM     45  N   UNL     1       2.496  -3.706  11.320  1.00  0.00    -0.354 N 
ATOM     46  N   UNL     1       1.940  -0.878  11.874  1.00  0.00    -0.248 NA
ATOM     47  C   UNL     1       1.884   0.917  13.367  1.00  0.00     0.031 C 
ATOM     48  C   UNL     1       3.512  -4.908  12.887  1.00  0.00     0.029 A 
ATOM     49  C   UNL     1       3.037  -3.640  12.593  1.00  0.00     0.049 A 
ATOM     50  H   UNL     1       2.077  -2.953  10.845  1.00  0.00     0.167 HD
ATOM     51  C   UNL     1       2.547  -1.257  13.066  1.00  0.00     0.074 A 
ATOM     52  C   UNL     1       2.524  -0.097  13.934  1.00  0.00     0.031 C 
ATOM     53  C   UNL     1       3.060  -2.461  13.420  1.00  0.00     0.034 A 
BRANCH  40  54
ATOM     54  C   UNL     1       2.410  -6.842   9.107  1.00  0.00     0.023 A 
ATOM     55  C   UNL     1       3.437  -7.140   8.190  1.00  0.00     0.012 A 
ATOM     56  C   UNL     1       1.655  -7.891   9.667  1.00  0.00     0.148 A 
ATOM     57  C   UNL     1       3.692  -8.458   7.813  1.00  0.00     0.002 A 
ATOM     58  C   UNL     1       1.940  -9.206   9.315  1.00  0.00     0.091 A 
ATOM     59  F   UNL     1       0.667  -7.585  10.520  1.00  0.00    -0.205 F 
ATOM     60  C   UNL     1       2.951  -9.490   8.382  1.00  0.00     0.022 A 
BRANCH  58  61
ATOM     61  S   UNL     1       1.088 -10.609  10.046  1.00  0.00     0.127 S 
ATOM     62  O   UNL     1       0.235 -11.044   8.941  1.00  0.00    -0.237 OA
ATOM     63  O   UNL     1       2.193 -11.516  10.356  1.00  0.00    -0.237 OA
ATOM     64  O   UNL     1       0.388 -10.088  11.212  1.00  0.00    -0.744 OA
ENDBRANCH  58  61
ENDBRANCH  40  54
BRANCH  41  65
ATOM     65  C   UNL     1       0.642   2.724  11.415  1.00  0.00     0.023 A 
ATOM     66  C   UNL     1       1.714   3.613  11.623  1.00  0.00     0.012 A 
ATOM     67  C   UNL     1      -0.678   3.200  11.540  1.00  0.00     0.148 A 
ATOM     68  C   UNL     1       1.478   4.942  11.976  1.00  0.00     0.002 A 
ATOM     69  C   UNL     1      -0.907   4.538  11.838  1.00  0.00     0.091 A 
ATOM     70  F   UNL     1      -1.687   2.334  11.364  1.00  0.00    -0.205 F 
ATOM     71  C   UNL     1       0.169   5.408  12.072  1.00  0.00     0.022 A 
BRANCH  69  72
ATOM     72  S   UNL     1      -2.559   5.243  11.854  1.00  0.00     0.127 S 
ATOM     73  O   UNL     1      -2.825   5.351  13.285  1.00  0.00    -0.237 OA
ATOM     74  O   UNL     1      -2.356   6.520  11.168  1.00  0.00    -0.237 OA
ATOM     75  O   UNL     1      -3.389   4.298  11.119  1.00  0.00    -0.744 OA
ENDBRANCH  69  72
ENDBRANCH  41  65
BRANCH  53  76
ATOM     76  C   UNL     1       3.666  -2.585  14.794  1.00  0.00     0.023 A 
ATOM     77  C   UNL     1       2.826  -2.635  15.923  1.00  0.00     0.012 A 
ATOM     78  C   UNL     1       5.059  -2.720  14.960  1.00  0.00     0.148 A 
ATOM     79  C   UNL     1       3.364  -2.788  17.201  1.00  0.00     0.002 A 
ATOM     80  C   UNL     1       5.584  -2.916  16.233  1.00  0.00     0.091 A 
ATOM     81  F   UNL     1       5.844  -2.649  13.876  1.00  0.00    -0.205 F 
ATOM     82  C   UNL     1       4.740  -2.940  17.354  1.00  0.00     0.022 A 
BRANCH  80  83
ATOM     83  S   UNL     1       7.335  -3.211  16.510  1.00  0.00     0.127 S 
ATOM     84  O   UNL     1       7.779  -1.914  17.017  1.00  0.00    -0.237 OA
ATOM     85  O   UNL     1       7.319  -4.282  17.508  1.00  0.00    -0.237 OA
ATOM     86  O   UNL     1       7.881  -3.603  15.218  1.00  0.00    -0.744 OA
ENDBRANCH  80  83
ENDBRANCH  53  76
ENDBRANCH  27  28
ENDBRANCH  20  22
ENDBRANCH  19  20
ENDBRANCH  18  19
ENDBRANCH   1  18
TORSDOF 19
