REMARK SMILES CC[C@H](C(=O)OCCOC(=O)c1ccc(-c2c3nc(c(-c4cccc(S(=O)(=O)[O-])c4F)c4ccc([nH]4)c(-c4cccc(S(=O)(=O)[O-])c4F)c4nc(c(-c5cccc(S(=O)(=O)[O-])c5F)c5ccc2[nH]5)C=C4)C=C3)cc1)N1C(=O)/C(=C\c2cc(OC)ccc2OC)SC1=S
REMARK SMILES IDX 7 1 6 2 4 3 5 4 3 5 2 6 1 7 75 8 76 9 91 10 77 11 78 12
REMARK SMILES IDX 90 13 92 14 79 15 80 16 81 17 87 18 82 19 86 20 85 21 88 22
REMARK SMILES IDX 89 23 83 24 84 25 8 26 9 27 10 28 11 29 12 30 13 31 74 32
REMARK SMILES IDX 14 33 73 34 15 35 16 36 17 37 67 38 18 39 72 40 66 41 68 42
REMARK SMILES IDX 19 43 71 44 65 45 64 46 20 48 52 49 32 50 51 51 33 52 36 53
REMARK SMILES IDX 50 54 69 55 34 56 35 57 49 59 70 60 37 61 21 62 22 63 30 64
REMARK SMILES IDX 23 65 25 66 31 67 24 68 26 69 27 70 28 71 29 72 53 73 54 74
REMARK SMILES IDX 62 75 55 76 57 77 63 78 56 79 58 80 59 81 60 82 61 83 38 84
REMARK SMILES IDX 39 85 47 86 40 87 42 88 48 89 41 90 43 91 44 92 45 93 46 94
REMARK H PARENT 68 47 36 58
REMARK Flexibility Score: inf
ROOT
ATOM      1  C   UNL     1       0.234  -1.114  -0.825  1.00  0.00     0.274 C 
ENDROOT
BRANCH   1   2
ATOM      2  O   UNL     1       0.136   0.183  -0.198  1.00  0.00    -0.461 OA
BRANCH   2   3
ATOM      3  C   UNL     1      -0.254   0.129   1.102  1.00  0.00     0.329 C 
ATOM      4  O   UNL     1      -0.403  -0.945   1.679  1.00  0.00    -0.250 OA
BRANCH   3   5
ATOM      5  C   UNL     1      -0.267   1.499   1.840  1.00  0.00     0.201 C 
BRANCH   5   6
ATOM      6  C   UNL     1      -0.737   2.789   1.153  1.00  0.00     0.034 C 
ATOM      7  C   UNL     1      -0.714   2.841  -0.360  1.00  0.00     0.007 C 
ENDBRANCH   5   6
BRANCH   5   8
ATOM      8  N   UNL     1      -0.890   1.336   3.189  1.00  0.00    -0.278 N 
ATOM      9  C   UNL     1      -1.811   0.316   3.400  1.00  0.00     0.266 C 
ATOM     10  C   UNL     1      -0.650   2.099   4.317  1.00  0.00     0.149 C 
ATOM     11  O   UNL     1      -2.696  -0.038   2.638  1.00  0.00    -0.268 OA
ATOM     12  C   UNL     1      -1.650  -0.110   4.804  1.00  0.00     0.081 C 
ATOM     13  S   UNL     1      -1.480   1.368   5.707  1.00  0.00    -0.054 SA
ATOM     14  S   UNL     1       0.317   3.448   4.483  1.00  0.00    -0.052 S 
ATOM     15  C   UNL     1      -1.195  -1.268   5.308  1.00  0.00     0.033 C 
BRANCH  15  16
ATOM     16  C   UNL     1      -0.795  -2.576   4.713  1.00  0.00     0.021 A 
ATOM     17  C   UNL     1      -1.847  -3.535   4.834  1.00  0.00     0.058 A 
ATOM     18  C   UNL     1       0.513  -3.068   4.385  1.00  0.00     0.126 A 
ATOM     19  C   UNL     1      -1.634  -4.909   4.668  1.00  0.00     0.119 A 
ATOM     20  C   UNL     1       0.603  -4.440   4.011  1.00  0.00     0.051 A 
ATOM     21  C   UNL     1      -0.429  -5.352   4.173  1.00  0.00     0.050 A 
BRANCH  18  22
ATOM     22  O   UNL     1       1.845  -2.550   4.499  1.00  0.00    -0.496 OA
ATOM     23  C   UNL     1       3.500  -1.474   4.808  1.00  0.00     0.278 C 
ENDBRANCH  18  22
BRANCH  19  24
ATOM     24  O   UNL     1      -2.635  -5.767   5.034  1.00  0.00    -0.497 OA
ATOM     25  C   UNL     1      -2.164  -6.909   5.770  1.00  0.00     0.278 C 
ENDBRANCH  19  24
ENDBRANCH  15  16
ENDBRANCH   5   8
ENDBRANCH   3   5
ENDBRANCH   2   3
ENDBRANCH   1   2
BRANCH   1  26
ATOM     26  C   UNL     1       1.606  -1.790  -0.643  1.00  0.00     0.275 C 
BRANCH  26  27
ATOM     27  O   UNL     1       1.916  -2.165   0.712  1.00  0.00    -0.458 OA
BRANCH  27  28
ATOM     28  C   UNL     1       2.434  -1.186   1.495  1.00  0.00     0.338 C 
ATOM     29  O   UNL     1       2.726  -0.056   1.176  1.00  0.00    -0.246 OA
BRANCH  28  30
ATOM     30  C   UNL     1       2.443  -1.649   2.885  1.00  0.00     0.060 A 
ATOM     31  C   UNL     1       1.644  -0.637   4.159  1.00  0.00     0.016 A 
ATOM     32  C   UNL     1       3.298  -3.154   3.342  1.00  0.00     0.016 A 
ATOM     33  C   UNL     1       1.675  -1.168   5.893  1.00  0.00     0.010 A 
ATOM     34  C   UNL     1       3.325  -3.684   5.071  1.00  0.00     0.010 A 
ATOM     35  C   UNL     1       2.502  -2.715   6.349  1.00  0.00    -0.014 A 
BRANCH  35  36
ATOM     36  C   UNL     1       2.585  -3.140   7.777  1.00  0.00     0.031 A 
ATOM     37  C   UNL     1       3.919  -3.397   8.406  1.00  0.00     0.074 A 
ATOM     38  C   UNL     1       1.465  -3.361   8.493  1.00  0.00     0.049 A 
ATOM     39  N   UNL     1       4.188  -3.862   9.597  1.00  0.00    -0.248 NA
ATOM     40  C   UNL     1       5.111  -3.140   7.586  1.00  0.00     0.031 C 
ATOM     41  C   UNL     1       0.129  -3.278   7.944  1.00  0.00     0.029 A 
ATOM     42  N   UNL     1       1.235  -3.739   9.792  1.00  0.00    -0.354 N 
ATOM     43  C   UNL     1       5.566  -4.023   9.637  1.00  0.00     0.074 A 
ATOM     44  C   UNL     1       6.079  -3.622   8.348  1.00  0.00     0.031 C 
ATOM     45  C   UNL     1      -0.796  -3.542   8.871  1.00  0.00     0.029 A 
ATOM     46  C   UNL     1      -0.105  -3.891  10.096  1.00  0.00     0.049 A 
ATOM     47  H   UNL     1       1.956  -3.886  10.446  1.00  0.00     0.167 HD
ATOM     48  C   UNL     1       6.337  -4.449  10.664  1.00  0.00     0.034 A 
ATOM     49  C   UNL     1      -0.719  -4.294  11.224  1.00  0.00     0.034 A 
ATOM     50  C   UNL     1       5.807  -4.788  11.955  1.00  0.00     0.049 A 
ATOM     51  C   UNL     1       0.158  -4.633  12.389  1.00  0.00     0.074 A 
ATOM     52  C   UNL     1       6.488  -5.161  13.098  1.00  0.00     0.029 A 
ATOM     53  N   UNL     1       4.455  -4.782  12.274  1.00  0.00    -0.354 N 
ATOM     54  N   UNL     1       1.468  -4.674  12.433  1.00  0.00    -0.248 NA
ATOM     55  C   UNL     1      -0.504  -4.941  13.660  1.00  0.00     0.031 C 
ATOM     56  C   UNL     1       5.545  -5.378  14.110  1.00  0.00     0.029 A 
ATOM     57  C   UNL     1       4.279  -5.122  13.602  1.00  0.00     0.049 A 
ATOM     58  H   UNL     1       3.728  -4.566  11.646  1.00  0.00     0.167 HD
ATOM     59  C   UNL     1       1.793  -4.987  13.741  1.00  0.00     0.074 A 
ATOM     60  C   UNL     1       0.539  -5.102  14.464  1.00  0.00     0.031 C 
ATOM     61  C   UNL     1       3.015  -5.180  14.293  1.00  0.00     0.034 A 
BRANCH  48  62
ATOM     62  C   UNL     1       7.820  -4.532  10.415  1.00  0.00     0.023 A 
ATOM     63  C   UNL     1       8.568  -3.347  10.243  1.00  0.00     0.012 A 
ATOM     64  C   UNL     1       8.469  -5.777  10.308  1.00  0.00     0.148 A 
ATOM     65  C   UNL     1       9.919  -3.400   9.904  1.00  0.00     0.002 A 
ATOM     66  C   UNL     1       9.829  -5.821  10.016  1.00  0.00     0.091 A 
ATOM     67  F   UNL     1       7.742  -6.893  10.458  1.00  0.00    -0.205 F 
ATOM     68  C   UNL     1      10.549  -4.636   9.795  1.00  0.00     0.022 A 
BRANCH  66  69
ATOM     69  S   UNL     1      10.755  -7.356   9.911  1.00  0.00     0.127 S 
ATOM     70  O   UNL     1      11.103  -7.394   8.491  1.00  0.00    -0.237 OA
ATOM     71  O   UNL     1      11.880  -7.094  10.808  1.00  0.00    -0.237 OA
ATOM     72  O   UNL     1       9.850  -8.406  10.357  1.00  0.00    -0.744 OA
ENDBRANCH  66  69
ENDBRANCH  48  62
BRANCH  49  73
ATOM     73  C   UNL     1      -2.211  -4.315  11.312  1.00  0.00     0.023 A 
ATOM     74  C   UNL     1      -2.866  -3.346  12.097  1.00  0.00     0.012 A 
ATOM     75  C   UNL     1      -2.989  -5.234  10.577  1.00  0.00     0.148 A 
ATOM     76  C   UNL     1      -4.260  -3.306  12.172  1.00  0.00     0.002 A 
ATOM     77  C   UNL     1      -4.379  -5.159  10.618  1.00  0.00     0.091 A 
ATOM     78  F   UNL     1      -2.354  -6.151   9.833  1.00  0.00    -0.205 F 
ATOM     79  C   UNL     1      -5.016  -4.205  11.425  1.00  0.00     0.022 A 
BRANCH  77  80
ATOM     80  S   UNL     1      -5.435  -6.198   9.599  1.00  0.00     0.127 S 
ATOM     81  O   UNL     1      -6.003  -7.109  10.589  1.00  0.00    -0.237 OA
ATOM     82  O   UNL     1      -6.378  -5.225   9.046  1.00  0.00    -0.237 OA
ATOM     83  O   UNL     1      -4.550  -6.807   8.615  1.00  0.00    -0.744 OA
ENDBRANCH  77  80
ENDBRANCH  49  73
BRANCH  61  84
ATOM     84  C   UNL     1       3.051  -5.495  15.757  1.00  0.00     0.023 A 
ATOM     85  C   UNL     1       2.700  -6.782  16.205  1.00  0.00     0.012 A 
ATOM     86  C   UNL     1       3.505  -4.531  16.675  1.00  0.00     0.148 A 
ATOM     87  C   UNL     1       2.781  -7.100  17.558  1.00  0.00     0.002 A 
ATOM     88  C   UNL     1       3.629  -4.870  18.014  1.00  0.00     0.091 A 
ATOM     89  F   UNL     1       3.803  -3.304  16.222  1.00  0.00    -0.205 F 
ATOM     90  C   UNL     1       3.258  -6.149  18.459  1.00  0.00     0.022 A 
BRANCH  88  91
ATOM     91  S   UNL     1       4.329  -3.739  19.219  1.00  0.00     0.127 S 
ATOM     92  O   UNL     1       3.137  -3.302  19.944  1.00  0.00    -0.237 OA
ATOM     93  O   UNL     1       5.223  -4.612  19.981  1.00  0.00    -0.237 OA
ATOM     94  O   UNL     1       5.009  -2.707  18.449  1.00  0.00    -0.744 OA
ENDBRANCH  88  91
ENDBRANCH  61  84
ENDBRANCH  35  36
ENDBRANCH  28  30
ENDBRANCH  27  28
ENDBRANCH  26  27
ENDBRANCH   1  26
TORSDOF 19
