REMARK SMILES O=C(OCCOC(=O)[C@@]1(Cl)C[C@@H]2CC[C@H]1C2)c1ccc(-c2c3nc(c(-c4cccc(S(=O)(=O)[O-])c4F)c4ccc([nH]4)c(-c4cccc(S(=O)(=O)[O-])c4F)c4nc(c(-c5cccc(S(=O)(=O)[O-])c5F)c5ccc2[nH]5)C=C4)C=C3)cc1
REMARK SMILES IDX 3 1 2 2 1 3 17 4 18 5 79 6 19 7 78 8 20 9 21 10 22 11 72 12
REMARK SMILES IDX 23 13 77 14 71 15 73 16 24 17 76 18 70 19 69 20 25 22 57 23
REMARK SMILES IDX 37 24 56 25 38 26 41 27 55 28 74 29 39 30 40 31 54 33 75 34
REMARK SMILES IDX 42 35 26 36 27 37 35 38 28 39 30 40 36 41 29 42 31 43 32 44
REMARK SMILES IDX 33 45 34 46 58 47 59 48 67 49 60 50 62 51 68 52 61 53 63 54
REMARK SMILES IDX 64 55 65 56 66 57 43 58 44 59 52 60 45 61 47 62 53 63 46 64
REMARK SMILES IDX 48 65 49 66 50 67 51 68 4 69 5 70 6 71 7 72 8 73 9 74 11 75
REMARK SMILES IDX 15 76 10 77 12 78 14 79 16 80 13 81
REMARK H PARENT 73 21 41 32
REMARK Flexibility Score: inf
ROOT
ATOM      1  O   UNL     1       5.911  -0.712   4.669  1.00  0.00    -0.458 OA
ENDROOT
BRANCH   1   2
ATOM      2  C   UNL     1       6.078  -1.325   3.471  1.00  0.00     0.338 C 
ATOM      3  O   UNL     1       6.794  -0.788   2.628  1.00  0.00    -0.246 OA
BRANCH   2   4
ATOM      4  C   UNL     1       5.325  -2.554   3.069  1.00  0.00     0.060 A 
ATOM      5  C   UNL     1       4.916  -3.583   3.922  1.00  0.00     0.016 A 
ATOM      6  C   UNL     1       4.977  -2.650   1.712  1.00  0.00     0.016 A 
ATOM      7  C   UNL     1       4.050  -4.591   3.478  1.00  0.00     0.010 A 
ATOM      8  C   UNL     1       4.105  -3.650   1.266  1.00  0.00     0.010 A 
ATOM      9  C   UNL     1       3.599  -4.608   2.158  1.00  0.00    -0.014 A 
BRANCH   9  10
ATOM     10  C   UNL     1       2.662  -5.660   1.692  1.00  0.00     0.031 A 
ATOM     11  C   UNL     1       3.167  -6.669   0.704  1.00  0.00     0.074 A 
ATOM     12  C   UNL     1       1.381  -5.709   2.120  1.00  0.00     0.049 A 
ATOM     13  N   UNL     1       2.551  -7.711   0.217  1.00  0.00    -0.248 NA
ATOM     14  C   UNL     1       4.553  -6.508   0.229  1.00  0.00     0.031 C 
ATOM     15  C   UNL     1       0.763  -4.805   3.092  1.00  0.00     0.029 A 
ATOM     16  N   UNL     1       0.341  -6.523   1.739  1.00  0.00    -0.354 N 
ATOM     17  C   UNL     1       3.497  -8.366  -0.557  1.00  0.00     0.074 A 
ATOM     18  C   UNL     1       4.680  -7.540  -0.588  1.00  0.00     0.031 C 
ATOM     19  C   UNL     1      -0.566  -5.020   3.122  1.00  0.00     0.029 A 
ATOM     20  C   UNL     1      -0.886  -6.121   2.225  1.00  0.00     0.049 A 
ATOM     21  H   UNL     1       0.460  -7.319   1.172  1.00  0.00     0.167 HD
ATOM     22  C   UNL     1       3.423  -9.598  -1.107  1.00  0.00     0.034 A 
ATOM     23  C   UNL     1      -2.122  -6.596   1.974  1.00  0.00     0.034 A 
ATOM     24  C   UNL     1       2.236 -10.398  -1.098  1.00  0.00     0.049 A 
ATOM     25  C   UNL     1      -2.232  -7.888   1.204  1.00  0.00     0.074 A 
ATOM     26  C   UNL     1       2.046 -11.670  -1.601  1.00  0.00     0.029 A 
ATOM     27  N   UNL     1       1.018  -9.980  -0.582  1.00  0.00    -0.354 N 
ATOM     28  N   UNL     1      -1.278  -8.600   0.653  1.00  0.00    -0.248 NA
ATOM     29  C   UNL     1      -3.565  -8.502   1.119  1.00  0.00     0.031 C 
ATOM     30  C   UNL     1       0.700 -12.008  -1.420  1.00  0.00     0.029 A 
ATOM     31  C   UNL     1       0.064 -10.961  -0.770  1.00  0.00     0.049 A 
ATOM     32  H   UNL     1       0.858  -9.113  -0.145  1.00  0.00     0.167 HD
ATOM     33  C   UNL     1      -1.877  -9.783   0.239  1.00  0.00     0.074 A 
ATOM     34  C   UNL     1      -3.279  -9.685   0.592  1.00  0.00     0.031 C 
ATOM     35  C   UNL     1      -1.315 -10.861  -0.362  1.00  0.00     0.034 A 
BRANCH  22  36
ATOM     36  C   UNL     1       4.696 -10.148  -1.682  1.00  0.00     0.023 A 
ATOM     37  C   UNL     1       5.744 -10.503  -0.803  1.00  0.00     0.012 A 
ATOM     38  C   UNL     1       4.876 -10.284  -3.067  1.00  0.00     0.148 A 
ATOM     39  C   UNL     1       6.970 -10.939  -1.298  1.00  0.00     0.002 A 
ATOM     40  C   UNL     1       6.087 -10.759  -3.553  1.00  0.00     0.091 A 
ATOM     41  F   UNL     1       3.874  -9.920  -3.880  1.00  0.00    -0.205 F 
ATOM     42  C   UNL     1       7.139 -11.072  -2.673  1.00  0.00     0.022 A 
BRANCH  40  43
ATOM     43  S   UNL     1       6.401 -11.014  -5.300  1.00  0.00     0.127 S 
ATOM     44  O   UNL     1       7.497 -10.080  -5.544  1.00  0.00    -0.237 OA
ATOM     45  O   UNL     1       6.777 -12.425  -5.337  1.00  0.00    -0.237 OA
ATOM     46  O   UNL     1       5.153 -10.692  -5.985  1.00  0.00    -0.744 OA
ENDBRANCH  40  43
ENDBRANCH  22  36
BRANCH  23  47
ATOM     47  C   UNL     1      -3.344  -5.931   2.519  1.00  0.00     0.023 A 
ATOM     48  C   UNL     1      -4.072  -6.541   3.560  1.00  0.00     0.012 A 
ATOM     49  C   UNL     1      -3.827  -4.729   1.962  1.00  0.00     0.148 A 
ATOM     50  C   UNL     1      -5.287  -6.005   3.993  1.00  0.00     0.002 A 
ATOM     51  C   UNL     1      -5.022  -4.181   2.421  1.00  0.00     0.091 A 
ATOM     52  F   UNL     1      -3.121  -4.158   0.976  1.00  0.00    -0.205 F 
ATOM     53  C   UNL     1      -5.763  -4.828   3.423  1.00  0.00     0.022 A 
BRANCH  51  54
ATOM     54  S   UNL     1      -5.689  -2.632   1.800  1.00  0.00     0.127 S 
ATOM     55  O   UNL     1      -6.880  -3.083   1.086  1.00  0.00    -0.237 OA
ATOM     56  O   UNL     1      -5.954  -1.901   3.040  1.00  0.00    -0.237 OA
ATOM     57  O   UNL     1      -4.637  -2.055   0.973  1.00  0.00    -0.744 OA
ENDBRANCH  51  54
ENDBRANCH  23  47
BRANCH  35  58
ATOM     58  C   UNL     1      -2.196 -12.052  -0.618  1.00  0.00     0.023 A 
ATOM     59  C   UNL     1      -3.198 -11.995  -1.605  1.00  0.00     0.012 A 
ATOM     60  C   UNL     1      -1.974 -13.257   0.078  1.00  0.00     0.148 A 
ATOM     61  C   UNL     1      -3.992 -13.109  -1.870  1.00  0.00     0.002 A 
ATOM     62  C   UNL     1      -2.725 -14.381  -0.237  1.00  0.00     0.091 A 
ATOM     63  F   UNL     1      -1.030 -13.283   1.030  1.00  0.00    -0.205 F 
ATOM     64  C   UNL     1      -3.745 -14.305  -1.198  1.00  0.00     0.022 A 
BRANCH  62  65
ATOM     65  S   UNL     1      -2.395 -15.988   0.492  1.00  0.00     0.127 S 
ATOM     66  O   UNL     1      -3.533 -16.145   1.396  1.00  0.00    -0.237 OA
ATOM     67  O   UNL     1      -2.418 -16.868  -0.677  1.00  0.00    -0.237 OA
ATOM     68  O   UNL     1      -1.093 -15.877   1.137  1.00  0.00    -0.744 OA
ENDBRANCH  62  65
ENDBRANCH  35  58
ENDBRANCH   9  10
ENDBRANCH   2   4
ENDBRANCH   1   2
BRANCH   1  69
ATOM     69  C   UNL     1       5.275  -1.195   5.865  1.00  0.00     0.275 C 
BRANCH  69  70
ATOM     70  C   UNL     1       3.752  -1.042   5.910  1.00  0.00     0.274 C 
BRANCH  70  71
ATOM     71  O   UNL     1       3.150  -1.054   4.606  1.00  0.00    -0.461 OA
BRANCH  71  72
ATOM     72  C   UNL     1       2.464   0.066   4.232  1.00  0.00     0.327 C 
ATOM     73  O   UNL     1       2.313   1.038   4.968  1.00  0.00    -0.250 OA
BRANCH  72  74
ATOM     74  C   UNL     1       1.924   0.003   2.784  1.00  0.00     0.145 C 
ATOM     75  C   UNL     1       2.074  -1.337   2.048  1.00  0.00     0.039 C 
ATOM     76  C   UNL     1       0.380   0.183   2.764  1.00  0.00     0.022 C 
ATOM     77  Cl  UNL     1       2.815   1.298   1.910  1.00  0.00    -0.106 Cl
ATOM     78  C   UNL     1       0.638  -1.763   1.725  1.00  0.00    -0.008 C 
ATOM     79  C   UNL     1      -0.155   0.450   1.338  1.00  0.00     0.006 C 
ATOM     80  C   UNL     1      -0.099  -1.265   2.962  1.00  0.00     0.009 C 
ATOM     81  C   UNL     1       0.080  -0.878   0.613  1.00  0.00     0.004 C 
ENDBRANCH  72  74
ENDBRANCH  71  72
ENDBRANCH  70  71
ENDBRANCH  69  70
ENDBRANCH   1  69
TORSDOF 14
