REMARK SMILES CCn1ncc(-c2cc(C(F)(F)F)nc(-n3ccc(C(=O)OCCOC(=O)c4ccc(-c5c6nc(c(-c7cccc(S(=O)(=O)[O-])c7F)c7ccc([nH]7)c(-c7cccc(S(=O)(=O)[O-])c7F)c7nc(c(-c8cccc(S(=O)(=O)[O-])c8F)c8ccc5[nH]8)C=C7)C=C6)cc4)n3)n2)c1C
REMARK SMILES IDX 23 1 22 2 20 3 21 4 19 5 16 6 17 7 91 8 18 9 15 10 7 11 8 12
REMARK SMILES IDX 92 13 9 14 14 15 6 16 3 17 4 18 93 19 5 20 94 21 2 22 1 23
REMARK SMILES IDX 10 24 11 25 12 26 13 27 24 28 25 29 26 30 27 31 28 32 29 33
REMARK SMILES IDX 90 34 30 35 89 36 31 37 32 38 33 39 83 40 34 41 88 42 82 43
REMARK SMILES IDX 84 44 35 45 87 46 81 47 80 48 36 50 68 51 48 52 67 53 49 54
REMARK SMILES IDX 52 55 66 56 85 57 50 58 51 59 65 61 86 62 53 63 37 64 38 65
REMARK SMILES IDX 46 66 39 67 41 68 47 69 40 70 42 71 43 72 44 73 45 74 69 75
REMARK SMILES IDX 70 76 78 77 71 78 73 79 79 80 72 81 74 82 75 83 76 84 77 85
REMARK SMILES IDX 54 86 55 87 63 88 56 89 58 90 64 91 57 92 59 93 60 94 61 95
REMARK SMILES IDX 62 96
REMARK H PARENT 84 49 52 60
REMARK Flexibility Score: inf
ROOT
ATOM      1  C   UNL     1      -6.338  -5.789  -6.411  1.00  0.00     0.275 C 
ENDROOT
BRANCH   1   2
ATOM      2  O   UNL     1      -5.126  -5.718  -5.643  1.00  0.00    -0.457 OA
BRANCH   2   3
ATOM      3  C   UNL     1      -5.145  -6.336  -4.421  1.00  0.00     0.358 C 
ATOM      4  O   UNL     1      -6.165  -6.747  -3.869  1.00  0.00    -0.244 OA
BRANCH   3   5
ATOM      5  C   UNL     1      -3.799  -6.598  -3.897  1.00  0.00     0.170 A 
ATOM      6  N   UNL     1      -1.676  -6.451  -3.647  1.00  0.00    -0.205 N 
ATOM      7  C   UNL     1      -2.018  -7.681  -3.134  1.00  0.00     0.119 A 
ATOM      8  N   UNL     1      -2.769  -5.744  -4.049  1.00  0.00    -0.158 NA
ATOM      9  C   UNL     1      -3.385  -7.773  -3.216  1.00  0.00     0.058 A 
BRANCH   6  10
ATOM     10  C   UNL     1      -0.354  -5.905  -3.726  1.00  0.00     0.251 A 
ATOM     11  C   UNL     1       0.996  -4.056  -3.670  1.00  0.00     0.080 A 
ATOM     12  C   UNL     1       2.132  -4.825  -3.771  1.00  0.00     0.062 A 
ATOM     13  N   UNL     1      -0.241  -4.567  -3.710  1.00  0.00    -0.211 NA
ATOM     14  C   UNL     1       1.943  -6.196  -3.824  1.00  0.00     0.150 A 
ATOM     15  N   UNL     1       0.702  -6.749  -3.740  1.00  0.00    -0.207 NA
BRANCH  11  16
ATOM     16  C   UNL     1       1.070  -2.645  -3.370  1.00  0.00     0.041 A 
ATOM     17  N   UNL     1       0.826  -0.729  -2.325  1.00  0.00    -0.269 N 
ATOM     18  N   UNL     1       1.594  -0.428  -3.395  1.00  0.00    -0.181 NA
ATOM     19  C   UNL     1       0.496  -2.061  -2.250  1.00  0.00     0.045 A 
ATOM     20  C   UNL     1       1.716  -1.590  -4.039  1.00  0.00     0.145 A 
ATOM     21  C   UNL     1      -0.300  -2.668  -1.147  1.00  0.00     0.067 C 
BRANCH  17  22
ATOM     22  C   UNL     1       0.436   0.339  -1.421  1.00  0.00     0.141 C 
ATOM     23  C   UNL     1       1.168   0.288  -0.090  1.00  0.00     0.029 C 
ENDBRANCH  17  22
ENDBRANCH  11  16
BRANCH  14  24
ATOM     24  C   UNL     1       3.150  -7.111  -3.980  1.00  0.00     0.433 C 
ATOM     25  F   UNL     1       3.221  -8.076  -3.023  1.00  0.00    -0.165 F 
ATOM     26  F   UNL     1       3.175  -7.753  -5.181  1.00  0.00    -0.165 F 
ATOM     27  F   UNL     1       4.339  -6.438  -3.906  1.00  0.00    -0.165 F 
ENDBRANCH  14  24
ENDBRANCH   6  10
ENDBRANCH   3   5
ENDBRANCH   2   3
ENDBRANCH   1   2
BRANCH   1  28
ATOM     28  C   UNL     1      -6.397  -7.052  -7.264  1.00  0.00     0.275 C 
BRANCH  28  29
ATOM     29  O   UNL     1      -6.624  -8.217  -6.472  1.00  0.00    -0.458 OA
BRANCH  29  30
ATOM     30  C   UNL     1      -5.510  -8.911  -6.154  1.00  0.00     0.338 C 
ATOM     31  O   UNL     1      -4.362  -8.499  -6.167  1.00  0.00    -0.246 OA
BRANCH  30  32
ATOM     32  C   UNL     1      -5.846 -10.326  -5.974  1.00  0.00     0.060 A 
ATOM     33  C   UNL     1      -4.830 -11.177  -5.524  1.00  0.00     0.016 A 
ATOM     34  C   UNL     1      -7.055 -10.822  -6.481  1.00  0.00     0.016 A 
ATOM     35  C   UNL     1      -4.974 -12.535  -5.711  1.00  0.00     0.010 A 
ATOM     36  C   UNL     1      -7.191 -12.176  -6.678  1.00  0.00     0.010 A 
ATOM     37  C   UNL     1      -6.125 -13.010  -6.346  1.00  0.00    -0.014 A 
BRANCH  37  38
ATOM     38  C   UNL     1      -6.242 -14.436  -6.570  1.00  0.00     0.031 A 
ATOM     39  C   UNL     1      -6.487 -15.212  -5.331  1.00  0.00     0.074 A 
ATOM     40  C   UNL     1      -6.278 -14.961  -7.810  1.00  0.00     0.049 A 
ATOM     41  N   UNL     1      -5.747 -16.133  -4.810  1.00  0.00    -0.248 NA
ATOM     42  C   UNL     1      -7.623 -14.802  -4.489  1.00  0.00     0.031 C 
ATOM     43  C   UNL     1      -6.356 -14.235  -9.082  1.00  0.00     0.029 A 
ATOM     44  N   UNL     1      -6.422 -16.261  -8.184  1.00  0.00    -0.354 N 
ATOM     45  C   UNL     1      -6.454 -16.581  -3.696  1.00  0.00     0.074 A 
ATOM     46  C   UNL     1      -7.474 -15.603  -3.436  1.00  0.00     0.031 C 
ATOM     47  C   UNL     1      -6.796 -15.078 -10.041  1.00  0.00     0.029 A 
ATOM     48  C   UNL     1      -6.907 -16.412  -9.478  1.00  0.00     0.049 A 
ATOM     49  H   UNL     1      -6.204 -17.020  -7.596  1.00  0.00     0.167 HD
ATOM     50  C   UNL     1      -6.322 -17.855  -3.242  1.00  0.00     0.034 A 
ATOM     51  C   UNL     1      -7.460 -17.533 -10.004  1.00  0.00     0.034 A 
ATOM     52  C   UNL     1      -5.121 -18.475  -3.736  1.00  0.00     0.049 A 
ATOM     53  C   UNL     1      -7.051 -18.674  -9.152  1.00  0.00     0.074 A 
ATOM     54  C   UNL     1      -3.773 -18.187  -3.667  1.00  0.00     0.029 A 
ATOM     55  N   UNL     1      -5.263 -19.391  -4.748  1.00  0.00    -0.354 N 
ATOM     56  N   UNL     1      -5.827 -19.109  -9.061  1.00  0.00    -0.248 NA
ATOM     57  C   UNL     1      -7.941 -19.080  -8.076  1.00  0.00     0.031 C 
ATOM     58  C   UNL     1      -3.246 -18.586  -4.930  1.00  0.00     0.029 A 
ATOM     59  C   UNL     1      -4.290 -19.137  -5.676  1.00  0.00     0.049 A 
ATOM     60  H   UNL     1      -5.942 -20.102  -4.798  1.00  0.00     0.167 HD
ATOM     61  C   UNL     1      -5.677 -19.443  -7.721  1.00  0.00     0.074 A 
ATOM     62  C   UNL     1      -7.038 -19.523  -7.197  1.00  0.00     0.031 C 
ATOM     63  C   UNL     1      -4.467 -19.330  -7.099  1.00  0.00     0.034 A 
BRANCH  50  64
ATOM     64  C   UNL     1      -7.461 -18.675  -2.676  1.00  0.00     0.023 A 
ATOM     65  C   UNL     1      -7.136 -19.937  -2.131  1.00  0.00     0.012 A 
ATOM     66  C   UNL     1      -8.832 -18.414  -2.908  1.00  0.00     0.148 A 
ATOM     67  C   UNL     1      -8.114 -20.908  -1.892  1.00  0.00     0.002 A 
ATOM     68  C   UNL     1      -9.808 -19.349  -2.589  1.00  0.00     0.091 A 
ATOM     69  F   UNL     1      -9.208 -17.316  -3.570  1.00  0.00    -0.205 F 
ATOM     70  C   UNL     1      -9.453 -20.612  -2.115  1.00  0.00     0.022 A 
BRANCH  68  71
ATOM     71  S   UNL     1     -11.555 -18.989  -2.809  1.00  0.00     0.127 S 
ATOM     72  O   UNL     1     -11.858 -19.742  -4.022  1.00  0.00    -0.237 OA
ATOM     73  O   UNL     1     -12.131 -19.534  -1.579  1.00  0.00    -0.237 OA
ATOM     74  O   UNL     1     -11.642 -17.537  -2.912  1.00  0.00    -0.744 OA
ENDBRANCH  68  71
ENDBRANCH  50  64
BRANCH  51  75
ATOM     75  C   UNL     1      -8.530 -17.660 -11.019  1.00  0.00     0.023 A 
ATOM     76  C   UNL     1      -8.683 -18.873 -11.719  1.00  0.00     0.012 A 
ATOM     77  C   UNL     1      -9.562 -16.700 -11.117  1.00  0.00     0.148 A 
ATOM     78  C   UNL     1      -9.838 -19.134 -12.466  1.00  0.00     0.002 A 
ATOM     79  C   UNL     1     -10.702 -16.957 -11.871  1.00  0.00     0.091 A 
ATOM     80  F   UNL     1      -9.471 -15.576 -10.394  1.00  0.00    -0.205 F 
ATOM     81  C   UNL     1     -10.850 -18.180 -12.538  1.00  0.00     0.022 A 
BRANCH  79  82
ATOM     82  S   UNL     1     -12.053 -15.777 -11.996  1.00  0.00     0.127 S 
ATOM     83  O   UNL     1     -12.306 -15.757 -13.437  1.00  0.00    -0.237 OA
ATOM     84  O   UNL     1     -13.094 -16.422 -11.200  1.00  0.00    -0.237 OA
ATOM     85  O   UNL     1     -11.535 -14.522 -11.464  1.00  0.00    -0.744 OA
ENDBRANCH  79  82
ENDBRANCH  51  75
BRANCH  63  86
ATOM     86  C   UNL     1      -3.245 -19.107  -7.954  1.00  0.00     0.023 A 
ATOM     87  C   UNL     1      -3.084 -17.954  -8.751  1.00  0.00     0.012 A 
ATOM     88  C   UNL     1      -2.161 -19.989  -7.811  1.00  0.00     0.148 A 
ATOM     89  C   UNL     1      -1.878 -17.701  -9.409  1.00  0.00     0.002 A 
ATOM     90  C   UNL     1      -0.947 -19.709  -8.426  1.00  0.00     0.091 A 
ATOM     91  F   UNL     1      -2.327 -21.079  -7.045  1.00  0.00    -0.205 F 
ATOM     92  C   UNL     1      -0.804 -18.571  -9.236  1.00  0.00     0.022 A 
BRANCH  90  93
ATOM     93  S   UNL     1       0.506 -20.718  -8.131  1.00  0.00     0.127 S 
ATOM     94  O   UNL     1       0.596 -21.494  -9.366  1.00  0.00    -0.237 OA
ATOM     95  O   UNL     1       1.559 -19.714  -7.962  1.00  0.00    -0.237 OA
ATOM     96  O   UNL     1       0.221 -21.485  -6.925  1.00  0.00    -0.744 OA
ENDBRANCH  90  93
ENDBRANCH  63  86
ENDBRANCH  37  38
ENDBRANCH  30  32
ENDBRANCH  29  30
ENDBRANCH  28  29
ENDBRANCH   1  28
TORSDOF 18
