REMARK SMILES CC1(C)CCC[C@H]1NS(=O)(=O)c1ccc(O)c(C(=O)OCCOC(=O)c2ccc(-c3c4nc(c(-c5cccc(S(=O)(=O)[O-])c5F)c5ccc([nH]5)c(-c5cccc(S(=O)(=O)[O-])c5F)c5nc(c(-c6cccc(S(=O)(=O)[O-])c6F)c6ccc3[nH]6)C=C5)C=C4)cc2)c1
REMARK SMILES IDX 21 1 20 2 18 3 19 4 17 5 12 6 13 7 89 8 14 9 15 10 9 11
REMARK SMILES IDX 10 12 11 13 8 14 7 16 1 17 2 18 3 19 4 20 5 21 6 22 16 23
REMARK SMILES IDX 22 25 23 26 24 27 25 28 26 29 27 30 88 31 28 32 87 33 29 34
REMARK SMILES IDX 30 35 31 36 81 37 32 38 86 39 80 40 82 41 33 42 85 43 79 44
REMARK SMILES IDX 78 45 34 47 66 48 46 49 65 50 47 51 50 52 64 53 83 54 48 55
REMARK SMILES IDX 49 56 63 58 84 59 51 60 35 61 36 62 44 63 37 64 39 65 45 66
REMARK SMILES IDX 38 67 40 68 41 69 42 70 43 71 67 72 68 73 76 74 69 75 71 76
REMARK SMILES IDX 77 77 70 78 72 79 73 80 74 81 75 82 52 83 53 84 61 85 54 86
REMARK SMILES IDX 56 87 62 88 55 89 57 90 58 91 59 92 60 93
REMARK H PARENT 8 15 16 24 82 46 50 57
REMARK Flexibility Score: inf
ROOT
ATOM      1  C   UNL     1      -1.067  10.342   0.835  1.00  0.00     0.275 C 
ENDROOT
BRANCH   1   2
ATOM      2  O   UNL     1      -0.849   9.048   0.243  1.00  0.00    -0.458 OA
BRANCH   2   3
ATOM      3  C   UNL     1       0.055   8.234   0.846  1.00  0.00     0.342 C 
ATOM      4  O   UNL     1       0.685   8.465   1.863  1.00  0.00    -0.246 OA
BRANCH   3   5
ATOM      5  C   UNL     1       0.046   6.913   0.176  1.00  0.00     0.103 A 
ATOM      6  C   UNL     1      -0.364   4.535   0.394  1.00  0.00     0.083 A 
ATOM      7  C   UNL     1      -0.396   4.414  -0.996  1.00  0.00     0.025 A 
ATOM      8  C   UNL     1      -0.092   5.775   0.984  1.00  0.00     0.041 A 
ATOM      9  C   UNL     1      -0.136   5.525  -1.801  1.00  0.00     0.048 A 
ATOM     10  C   UNL     1       0.065   6.776  -1.216  1.00  0.00     0.130 A 
BRANCH   6  11
ATOM     11  S   UNL     1      -0.986   3.219   1.418  1.00  0.00     0.240 S 
ATOM     12  O   UNL     1      -2.347   2.983   0.981  1.00  0.00    -0.207 OA
ATOM     13  O   UNL     1      -0.672   3.565   2.780  1.00  0.00    -0.207 OA
BRANCH  11  14
ATOM     14  N   UNL     1      -0.037   1.867   1.105  1.00  0.00    -0.208 NA
ATOM     15  H   UNL     1       0.911   2.214   0.960  1.00  0.00     0.141 HD
BRANCH  14  16
ATOM     16  C   UNL     1      -0.311   0.948  -0.013  1.00  0.00     0.075 C 
ATOM     17  C   UNL     1       1.988  -0.067   0.758  1.00  0.00     0.013 C 
ATOM     18  C   UNL     1       0.699  -0.244  -0.057  1.00  0.00    -0.019 C 
ATOM     19  C   UNL     1       1.109  -0.505  -1.524  1.00  0.00     0.013 C 
ATOM     20  C   UNL     1      -0.118  -1.431   0.486  1.00  0.00     0.008 C 
ATOM     21  C   UNL     1      -1.515  -1.197  -0.058  1.00  0.00     0.002 C 
ATOM     22  C   UNL     1      -1.706   0.303   0.091  1.00  0.00     0.020 C 
ENDBRANCH  14  16
ENDBRANCH  11  14
ENDBRANCH   6  11
BRANCH  10  23
ATOM     23  O   UNL     1       0.282   7.862  -2.016  1.00  0.00    -0.507 OA
ATOM     24  H   UNL     1       0.293   7.763  -2.948  1.00  0.00     0.293 HD
ENDBRANCH  10  23
ENDBRANCH   3   5
ENDBRANCH   2   3
ENDBRANCH   1   2
BRANCH   1  25
ATOM     25  C   UNL     1      -2.530  10.478   1.252  1.00  0.00     0.275 C 
BRANCH  25  26
ATOM     26  O   UNL     1      -2.791   9.569   2.336  1.00  0.00    -0.458 OA
BRANCH  26  27
ATOM     27  C   UNL     1      -3.797   8.689   2.137  1.00  0.00     0.338 C 
ATOM     28  O   UNL     1      -4.564   8.636   1.190  1.00  0.00    -0.246 OA
BRANCH  27  29
ATOM     29  C   UNL     1      -3.815   7.719   3.243  1.00  0.00     0.060 A 
ATOM     30  C   UNL     1      -2.783   6.791   3.328  1.00  0.00     0.016 A 
ATOM     31  C   UNL     1      -4.912   7.630   4.097  1.00  0.00     0.016 A 
ATOM     32  C   UNL     1      -2.893   5.706   4.196  1.00  0.00     0.010 A 
ATOM     33  C   UNL     1      -4.979   6.582   5.025  1.00  0.00     0.010 A 
ATOM     34  C   UNL     1      -4.002   5.569   5.043  1.00  0.00    -0.014 A 
BRANCH  34  35
ATOM     35  C   UNL     1      -4.182   4.321   5.851  1.00  0.00     0.031 A 
ATOM     36  C   UNL     1      -5.419   3.470   5.665  1.00  0.00     0.074 A 
ATOM     37  C   UNL     1      -3.240   3.911   6.726  1.00  0.00     0.049 A 
ATOM     38  N   UNL     1      -5.819   2.425   6.346  1.00  0.00    -0.248 NA
ATOM     39  C   UNL     1      -6.340   3.859   4.584  1.00  0.00     0.031 C 
ATOM     40  C   UNL     1      -1.985   4.607   7.011  1.00  0.00     0.029 A 
ATOM     41  N   UNL     1      -3.191   2.799   7.535  1.00  0.00    -0.354 N 
ATOM     42  C   UNL     1      -7.069   2.090   5.837  1.00  0.00     0.074 A 
ATOM     43  C   UNL     1      -7.362   3.041   4.787  1.00  0.00     0.031 C 
ATOM     44  C   UNL     1      -1.274   3.891   7.896  1.00  0.00     0.029 A 
ATOM     45  C   UNL     1      -2.046   2.718   8.294  1.00  0.00     0.049 A 
ATOM     46  H   UNL     1      -3.908   2.125   7.568  1.00  0.00     0.167 HD
ATOM     47  C   UNL     1      -7.894   1.074   6.191  1.00  0.00     0.034 A 
ATOM     48  C   UNL     1      -1.661   1.814   9.218  1.00  0.00     0.034 A 
ATOM     49  C   UNL     1      -7.562   0.053   7.149  1.00  0.00     0.049 A 
ATOM     50  C   UNL     1      -2.564   0.655   9.544  1.00  0.00     0.074 A 
ATOM     51  C   UNL     1      -8.319  -1.039   7.539  1.00  0.00     0.029 A 
ATOM     52  N   UNL     1      -6.366  -0.024   7.844  1.00  0.00    -0.354 N 
ATOM     53  N   UNL     1      -3.724   0.338   9.022  1.00  0.00    -0.248 NA
ATOM     54  C   UNL     1      -2.095  -0.283  10.575  1.00  0.00     0.031 C 
ATOM     55  C   UNL     1      -7.577  -1.780   8.467  1.00  0.00     0.029 A 
ATOM     56  C   UNL     1      -6.357  -1.151   8.649  1.00  0.00     0.049 A 
ATOM     57  H   UNL     1      -5.630   0.627   7.776  1.00  0.00     0.167 HD
ATOM     58  C   UNL     1      -4.115  -0.840   9.649  1.00  0.00     0.074 A 
ATOM     59  C   UNL     1      -3.050  -1.204  10.560  1.00  0.00     0.031 C 
ATOM     60  C   UNL     1      -5.267  -1.540   9.505  1.00  0.00     0.034 A 
BRANCH  47  61
ATOM     61  C   UNL     1      -9.233   0.988   5.505  1.00  0.00     0.023 A 
ATOM     62  C   UNL     1      -9.311   0.536   4.173  1.00  0.00     0.012 A 
ATOM     63  C   UNL     1     -10.419   1.301   6.199  1.00  0.00     0.148 A 
ATOM     64  C   UNL     1     -10.544   0.428   3.531  1.00  0.00     0.002 A 
ATOM     65  C   UNL     1     -11.649   1.150   5.566  1.00  0.00     0.091 A 
ATOM     66  F   UNL     1     -10.326   1.750   7.459  1.00  0.00    -0.205 F 
ATOM     67  C   UNL     1     -11.712   0.725   4.229  1.00  0.00     0.022 A 
BRANCH  65  68
ATOM     68  S   UNL     1     -13.209   1.430   6.412  1.00  0.00     0.127 S 
ATOM     69  O   UNL     1     -13.617   2.722   5.864  1.00  0.00    -0.237 OA
ATOM     70  O   UNL     1     -14.016   0.295   5.960  1.00  0.00    -0.237 OA
ATOM     71  O   UNL     1     -12.898   1.418   7.835  1.00  0.00    -0.744 OA
ENDBRANCH  65  68
ENDBRANCH  47  61
BRANCH  48  72
ATOM     72  C   UNL     1      -0.330   1.947   9.879  1.00  0.00     0.023 A 
ATOM     73  C   UNL     1       0.679   1.005   9.595  1.00  0.00     0.012 A 
ATOM     74  C   UNL     1      -0.048   3.008  10.760  1.00  0.00     0.148 A 
ATOM     75  C   UNL     1       1.935   1.105  10.195  1.00  0.00     0.002 A 
ATOM     76  C   UNL     1       1.225   3.137  11.305  1.00  0.00     0.091 A 
ATOM     77  F   UNL     1      -1.027   3.878  11.045  1.00  0.00    -0.205 F 
ATOM     78  C   UNL     1       2.213   2.178  11.037  1.00  0.00     0.022 A 
BRANCH  76  79
ATOM     79  S   UNL     1       1.700   4.567  12.283  1.00  0.00     0.127 S 
ATOM     80  O   UNL     1       1.659   4.030  13.640  1.00  0.00    -0.237 OA
ATOM     81  O   UNL     1       3.042   4.855  11.776  1.00  0.00    -0.237 OA
ATOM     82  O   UNL     1       0.714   5.593  11.971  1.00  0.00    -0.744 OA
ENDBRANCH  76  79
ENDBRANCH  48  72
BRANCH  60  83
ATOM     83  C   UNL     1      -5.432  -2.786  10.336  1.00  0.00     0.023 A 
ATOM     84  C   UNL     1      -5.691  -2.669  11.717  1.00  0.00     0.012 A 
ATOM     85  C   UNL     1      -5.382  -4.065   9.749  1.00  0.00     0.148 A 
ATOM     86  C   UNL     1      -5.863  -3.806  12.506  1.00  0.00     0.002 A 
ATOM     87  C   UNL     1      -5.595  -5.193  10.535  1.00  0.00     0.091 A 
ATOM     88  F   UNL     1      -5.111  -4.162   8.440  1.00  0.00    -0.205 F 
ATOM     89  C   UNL     1      -5.825  -5.066  11.914  1.00  0.00     0.022 A 
BRANCH  87  90
ATOM     90  S   UNL     1      -5.644  -6.845   9.828  1.00  0.00     0.127 S 
ATOM     91  O   UNL     1      -4.288  -7.323  10.088  1.00  0.00    -0.237 OA
ATOM     92  O   UNL     1      -6.684  -7.501  10.622  1.00  0.00    -0.237 OA
ATOM     93  O   UNL     1      -5.992  -6.658   8.426  1.00  0.00    -0.744 OA
ENDBRANCH  87  90
ENDBRANCH  60  83
ENDBRANCH  34  35
ENDBRANCH  27  29
ENDBRANCH  26  27
ENDBRANCH  25  26
ENDBRANCH   1  25
TORSDOF 18
