REMARK SMILES C[C@H]([NH2+]C[C@@]1(C)CCCO1)C(=O)OCCOC(=O)c1ccc(-c2c3nc(c(-c4cccc(S(=O)(=O)[O-])c4F)c4ccc([nH]4)c(-c4cccc(S(=O)(=O)[O-])c4F)c4nc(c(-c5cccc(S(=O)(=O)[O-])c5F)c5ccc2[nH]5)C=C4)C=C3)cc1
REMARK SMILES IDX 14 1 13 2 11 3 12 4 2 5 1 6 3 7 4 10 5 11 6 12 7 13 10 14
REMARK SMILES IDX 8 15 9 16 15 17 16 18 17 19 18 20 19 21 20 22 81 23 21 24
REMARK SMILES IDX 80 25 22 26 23 27 24 28 74 29 25 30 79 31 73 32 75 33 26 34
REMARK SMILES IDX 78 35 72 36 71 37 27 39 59 40 39 41 58 42 40 43 43 44 57 45
REMARK SMILES IDX 76 46 41 47 42 48 56 50 77 51 44 52 28 53 29 54 37 55 30 56
REMARK SMILES IDX 32 57 38 58 31 59 33 60 34 61 35 62 36 63 60 64 61 65 69 66
REMARK SMILES IDX 62 67 64 68 70 69 63 70 65 71 66 72 67 73 68 74 45 75 46 76
REMARK SMILES IDX 54 77 47 78 49 79 55 80 48 81 50 82 51 83 52 84 53 85
REMARK H PARENT 3 8 3 9 75 38 43 49
REMARK Flexibility Score: inf
ROOT
ATOM      1  C   UNL     1      -3.001   1.120  -0.283  1.00  0.00     0.274 C 
ENDROOT
BRANCH   1   2
ATOM      2  O   UNL     1      -1.572   1.115  -0.456  1.00  0.00    -0.458 OA
BRANCH   2   3
ATOM      3  C   UNL     1      -0.862   1.962   0.338  1.00  0.00     0.364 C 
ATOM      4  O   UNL     1      -1.370   2.812   1.061  1.00  0.00    -0.245 OA
BRANCH   3   5
ATOM      5  C   UNL     1       0.659   1.753   0.257  1.00  0.00     0.290 C 
ATOM      6  C   UNL     1       1.333   2.992  -0.325  1.00  0.00     0.088 C 
BRANCH   5   7
ATOM      7  N   UNL     1       1.084   0.461  -0.326  1.00  0.00    -0.332 N 
ATOM      8  H   UNL     1       0.422  -0.251  -0.015  1.00  0.00     0.347 HD
ATOM      9  H   UNL     1       2.041   0.322  -0.002  1.00  0.00     0.347 HD
BRANCH   7  10
ATOM     10  C   UNL     1       1.156   0.392  -1.787  1.00  0.00     0.296 C 
BRANCH  10  11
ATOM     11  C   UNL     1       1.798  -0.918  -2.336  1.00  0.00     0.114 C 
ATOM     12  C   UNL     1       1.034  -2.174  -1.900  1.00  0.00     0.048 C 
ATOM     13  C   UNL     1       1.916  -0.846  -3.865  1.00  0.00     0.043 C 
ATOM     14  O   UNL     1       3.156  -1.044  -1.856  1.00  0.00    -0.369 OA
ATOM     15  C   UNL     1       3.179  -1.621  -4.151  1.00  0.00     0.032 C 
ATOM     16  C   UNL     1       4.038  -1.285  -2.955  1.00  0.00     0.161 C 
ENDBRANCH  10  11
ENDBRANCH   7  10
ENDBRANCH   5   7
ENDBRANCH   3   5
ENDBRANCH   2   3
ENDBRANCH   1   2
BRANCH   1  17
ATOM     17  C   UNL     1      -3.469  -0.185   0.368  1.00  0.00     0.275 C 
BRANCH  17  18
ATOM     18  O   UNL     1      -3.021  -0.300   1.731  1.00  0.00    -0.458 OA
BRANCH  18  19
ATOM     19  C   UNL     1      -1.794  -0.853   1.889  1.00  0.00     0.338 C 
ATOM     20  O   UNL     1      -1.060  -1.268   1.007  1.00  0.00    -0.246 OA
BRANCH  19  21
ATOM     21  C   UNL     1      -1.377  -0.760   3.300  1.00  0.00     0.060 A 
ATOM     22  C   UNL     1      -0.142  -0.166   3.573  1.00  0.00     0.016 A 
ATOM     23  C   UNL     1      -2.145  -1.300   4.334  1.00  0.00     0.016 A 
ATOM     24  C   UNL     1       0.334  -0.106   4.878  1.00  0.00     0.010 A 
ATOM     25  C   UNL     1      -1.661  -1.248   5.646  1.00  0.00     0.010 A 
ATOM     26  C   UNL     1      -0.414  -0.660   5.924  1.00  0.00    -0.014 A 
BRANCH  26  27
ATOM     27  C   UNL     1       0.146  -0.660   7.296  1.00  0.00     0.031 A 
ATOM     28  C   UNL     1       0.699  -1.929   7.878  1.00  0.00     0.074 A 
ATOM     29  C   UNL     1       0.173   0.482   8.007  1.00  0.00     0.049 A 
ATOM     30  N   UNL     1       1.204  -2.141   9.066  1.00  0.00    -0.248 NA
ATOM     31  C   UNL     1       0.681  -3.119   7.011  1.00  0.00     0.031 C 
ATOM     32  C   UNL     1      -0.324   1.776   7.541  1.00  0.00     0.029 A 
ATOM     33  N   UNL     1       0.626   0.734   9.278  1.00  0.00    -0.354 N 
ATOM     34  C   UNL     1       1.530  -3.490   9.104  1.00  0.00     0.074 A 
ATOM     35  C   UNL     1       1.164  -4.051   7.821  1.00  0.00     0.031 C 
ATOM     36  C   UNL     1      -0.163   2.684   8.517  1.00  0.00     0.029 A 
ATOM     37  C   UNL     1       0.419   2.030   9.687  1.00  0.00     0.049 A 
ATOM     38  H   UNL     1       1.058   0.052   9.842  1.00  0.00     0.167 HD
ATOM     39  C   UNL     1       2.098  -4.194  10.112  1.00  0.00     0.034 A 
ATOM     40  C   UNL     1       0.654   2.618  10.876  1.00  0.00     0.034 A 
ATOM     41  C   UNL     1       2.497  -3.624  11.371  1.00  0.00     0.049 A 
ATOM     42  C   UNL     1       1.281   1.810  11.980  1.00  0.00     0.074 A 
ATOM     43  C   UNL     1       3.119  -4.247  12.439  1.00  0.00     0.029 A 
ATOM     44  N   UNL     1       2.311  -2.299  11.735  1.00  0.00    -0.354 N 
ATOM     45  N   UNL     1       1.676   0.560  11.966  1.00  0.00    -0.248 NA
ATOM     46  C   UNL     1       1.520   2.500  13.257  1.00  0.00     0.031 C 
ATOM     47  C   UNL     1       3.295  -3.301  13.455  1.00  0.00     0.029 A 
ATOM     48  C   UNL     1       2.798  -2.086  13.013  1.00  0.00     0.049 A 
ATOM     49  H   UNL     1       1.894  -1.612  11.167  1.00  0.00     0.167 HD
ATOM     50  C   UNL     1       2.234   0.321  13.216  1.00  0.00     0.074 A 
ATOM     51  C   UNL     1       2.147   1.564  13.956  1.00  0.00     0.031 C 
ATOM     52  C   UNL     1       2.753  -0.828  13.715  1.00  0.00     0.034 A 
BRANCH  39  53
ATOM     53  C   UNL     1       2.352  -5.660   9.883  1.00  0.00     0.023 A 
ATOM     54  C   UNL     1       3.420  -6.060   9.054  1.00  0.00     0.012 A 
ATOM     55  C   UNL     1       1.573  -6.640  10.528  1.00  0.00     0.148 A 
ATOM     56  C   UNL     1       3.691  -7.412   8.849  1.00  0.00     0.002 A 
ATOM     57  C   UNL     1       1.873  -7.986  10.349  1.00  0.00     0.091 A 
ATOM     58  F   UNL     1       0.546  -6.240  11.292  1.00  0.00    -0.205 F 
ATOM     59  C   UNL     1       2.925  -8.374   9.504  1.00  0.00     0.022 A 
BRANCH  57  60
ATOM     60  S   UNL     1       0.986  -9.293  11.204  1.00  0.00     0.127 S 
ATOM     61  O   UNL     1       0.167  -9.848  10.127  1.00  0.00    -0.237 OA
ATOM     62  O   UNL     1       2.073 -10.164  11.653  1.00  0.00    -0.237 OA
ATOM     63  O   UNL     1       0.251  -8.641  12.279  1.00  0.00    -0.744 OA
ENDBRANCH  57  60
ENDBRANCH  39  53
BRANCH  40  64
ATOM     64  C   UNL     1       0.327   4.059  11.068  1.00  0.00     0.023 A 
ATOM     65  C   UNL     1       1.370   4.995  11.204  1.00  0.00     0.012 A 
ATOM     66  C   UNL     1      -1.008   4.511  11.081  1.00  0.00     0.148 A 
ATOM     67  C   UNL     1       1.089   6.352  11.371  1.00  0.00     0.002 A 
ATOM     68  C   UNL     1      -1.278   5.869  11.193  1.00  0.00     0.091 A 
ATOM     69  F   UNL     1      -1.988   3.602  10.974  1.00  0.00    -0.205 F 
ATOM     70  C   UNL     1      -0.232   6.790  11.354  1.00  0.00     0.022 A 
BRANCH  68  71
ATOM     71  S   UNL     1      -2.944   6.528  11.048  1.00  0.00     0.127 S 
ATOM     72  O   UNL     1      -3.256   6.861  12.435  1.00  0.00    -0.237 OA
ATOM     73  O   UNL     1      -2.741   7.681  10.169  1.00  0.00    -0.237 OA
ATOM     74  O   UNL     1      -3.735   5.458  10.456  1.00  0.00    -0.744 OA
ENDBRANCH  68  71
ENDBRANCH  40  64
BRANCH  52  75
ATOM     75  C   UNL     1       3.290  -0.798  15.122  1.00  0.00     0.023 A 
ATOM     76  C   UNL     1       2.393  -0.765  16.208  1.00  0.00     0.012 A 
ATOM     77  C   UNL     1       4.675  -0.879  15.370  1.00  0.00     0.148 A 
ATOM     78  C   UNL     1       2.866  -0.787  17.519  1.00  0.00     0.002 A 
ATOM     79  C   UNL     1       5.137  -0.944  16.680  1.00  0.00     0.091 A 
ATOM     80  F   UNL     1       5.514  -0.888  14.324  1.00  0.00    -0.205 F 
ATOM     81  C   UNL     1       4.235  -0.888  17.755  1.00  0.00     0.022 A 
BRANCH  79  82
ATOM     82  S   UNL     1       6.876  -1.167  17.072  1.00  0.00     0.127 S 
ATOM     83  O   UNL     1       7.261   0.177  17.496  1.00  0.00    -0.237 OA
ATOM     84  O   UNL     1       6.830  -2.157  18.150  1.00  0.00    -0.237 OA
ATOM     85  O   UNL     1       7.502  -1.644  15.846  1.00  0.00    -0.744 OA
ENDBRANCH  79  82
ENDBRANCH  52  75
ENDBRANCH  26  27
ENDBRANCH  19  21
ENDBRANCH  18  19
ENDBRANCH  17  18
ENDBRANCH   1  17
TORSDOF 17
