REMARK SMILES Cc1ccc(S(=O)(=O)Nc2cc3c(cc2C(=O)OCCOC(=O)c2ccc(-c4c5nc(c(-c6cccc(S(=O)(=O)[O-])c6F)c6ccc([nH]6)c(-c6cccc(S(=O)(=O)[O-])c6F)c6nc(c(-c7cccc(S(=O)(=O)[O-])c7F)c7ccc4[nH]7)C=C6)C=C5)cc2)OCCO3)s1
REMARK SMILES IDX 19 1 18 2 16 3 17 4 15 5 10 6 11 7 12 8 14 9 13 10 90 11
REMARK SMILES IDX 87 12 89 13 88 14 9 15 6 17 7 18 8 19 5 20 1 21 2 22 3 23
REMARK SMILES IDX 91 24 4 25 20 26 21 27 22 28 23 29 24 30 25 31 86 32 26 33
REMARK SMILES IDX 85 34 27 35 28 36 29 37 79 38 30 39 84 40 78 41 80 42 31 43
REMARK SMILES IDX 83 44 77 45 76 46 32 48 64 49 44 50 63 51 45 52 48 53 62 54
REMARK SMILES IDX 81 55 46 56 47 57 61 59 82 60 49 61 33 62 34 63 42 64 35 65
REMARK SMILES IDX 37 66 43 67 36 68 38 69 39 70 40 71 41 72 65 73 66 74 74 75
REMARK SMILES IDX 67 76 69 77 75 78 68 79 70 80 71 81 72 82 73 83 50 84 51 85
REMARK SMILES IDX 59 86 52 87 54 88 60 89 53 90 55 91 56 92 57 93 58 94
REMARK H PARENT 9 16 80 47 48 58
REMARK Flexibility Score: inf
ROOT
ATOM      1  C   UNL     1      -0.994  -0.944   3.522  1.00  0.00     0.275 C 
ENDROOT
BRANCH   1   2
ATOM      2  O   UNL     1      -1.317  -1.635   2.292  1.00  0.00    -0.458 OA
BRANCH   2   3
ATOM      3  C   UNL     1      -2.642  -1.744   2.027  1.00  0.00     0.340 C 
ATOM      4  O   UNL     1      -3.556  -1.296   2.703  1.00  0.00    -0.246 OA
BRANCH   3   5
ATOM      5  C   UNL     1      -2.915  -2.650   0.897  1.00  0.00     0.088 A 
ATOM      6  C   UNL     1      -3.592  -2.215  -0.257  1.00  0.00     0.067 A 
ATOM      7  C   UNL     1      -4.226  -3.147  -1.079  1.00  0.00     0.078 A 
ATOM      8  C   UNL     1      -4.045  -4.503  -0.852  1.00  0.00     0.163 A 
ATOM      9  C   UNL     1      -2.718  -4.019   1.115  1.00  0.00     0.068 A 
ATOM     10  C   UNL     1      -3.228  -4.936   0.199  1.00  0.00     0.162 A 
ATOM     11  O   UNL     1      -4.653  -5.350  -1.740  1.00  0.00    -0.486 OA
ATOM     12  O   UNL     1      -2.896  -6.255   0.377  1.00  0.00    -0.486 OA
ATOM     13  C   UNL     1      -4.531  -6.718  -1.344  1.00  0.00     0.271 C 
ATOM     14  C   UNL     1      -3.126  -6.991  -0.835  1.00  0.00     0.271 C 
BRANCH   6  15
ATOM     15  N   UNL     1      -3.522  -0.859  -0.717  1.00  0.00    -0.278 N 
ATOM     16  H   UNL     1      -4.017  -0.132  -0.276  1.00  0.00     0.180 HD
BRANCH  15  17
ATOM     17  S   UNL     1      -2.515  -0.578  -2.092  1.00  0.00     0.271 S 
ATOM     18  O   UNL     1      -2.544   0.852  -2.336  1.00  0.00    -0.200 OA
ATOM     19  O   UNL     1      -2.900  -1.508  -3.127  1.00  0.00    -0.200 OA
BRANCH  17  20
ATOM     20  C   UNL     1      -0.851  -1.040  -1.676  1.00  0.00     0.140 A 
ATOM     21  C   UNL     1       2.711  -0.162  -0.395  1.00  0.00     0.056 C 
ATOM     22  C   UNL     1       1.472  -0.790  -0.926  1.00  0.00     0.003 A 
ATOM     23  C   UNL     1       1.020  -2.083  -0.764  1.00  0.00     0.016 A 
ATOM     24  S   UNL     1       0.374   0.138  -1.857  1.00  0.00    -0.127 S 
ATOM     25  C   UNL     1      -0.308  -2.240  -1.251  1.00  0.00     0.034 A 
ENDBRANCH  17  20
ENDBRANCH  15  17
ENDBRANCH   6  15
ENDBRANCH   3   5
ENDBRANCH   2   3
ENDBRANCH   1   2
BRANCH   1  26
ATOM     26  C   UNL     1      -0.553   0.503   3.297  1.00  0.00     0.275 C 
BRANCH  26  27
ATOM     27  O   UNL     1      -1.653   1.306   2.829  1.00  0.00    -0.458 OA
BRANCH  27  28
ATOM     28  C   UNL     1      -1.628   1.509   1.494  1.00  0.00     0.338 C 
ATOM     29  O   UNL     1      -0.751   1.127   0.737  1.00  0.00    -0.246 OA
BRANCH  28  30
ATOM     30  C   UNL     1      -2.816   2.194   0.976  1.00  0.00     0.060 A 
ATOM     31  C   UNL     1      -4.032   1.524   1.002  1.00  0.00     0.016 A 
ATOM     32  C   UNL     1      -2.656   3.333   0.182  1.00  0.00     0.016 A 
ATOM     33  C   UNL     1      -5.034   1.903   0.114  1.00  0.00     0.010 A 
ATOM     34  C   UNL     1      -3.720   3.791  -0.606  1.00  0.00     0.010 A 
ATOM     35  C   UNL     1      -4.911   3.056  -0.684  1.00  0.00    -0.014 A 
BRANCH  35  36
ATOM     36  C   UNL     1      -6.062   3.498  -1.525  1.00  0.00     0.031 A 
ATOM     37  C   UNL     1      -5.932   3.759  -3.006  1.00  0.00     0.074 A 
ATOM     38  C   UNL     1      -7.260   3.661  -0.927  1.00  0.00     0.049 A 
ATOM     39  N   UNL     1      -6.816   4.275  -3.826  1.00  0.00    -0.248 NA
ATOM     40  C   UNL     1      -4.663   3.397  -3.657  1.00  0.00     0.031 C 
ATOM     41  C   UNL     1      -7.524   3.438   0.498  1.00  0.00     0.029 A 
ATOM     42  N   UNL     1      -8.478   4.052  -1.427  1.00  0.00    -0.354 N 
ATOM     43  C   UNL     1      -6.196   4.352  -5.070  1.00  0.00     0.074 A 
ATOM     44  C   UNL     1      -4.866   3.806  -4.905  1.00  0.00     0.031 C 
ATOM     45  C   UNL     1      -8.820   3.643   0.748  1.00  0.00     0.029 A 
ATOM     46  C   UNL     1      -9.448   4.161  -0.457  1.00  0.00     0.049 A 
ATOM     47  H   UNL     1      -8.640   4.236  -2.380  1.00  0.00     0.167 HD
ATOM     48  C   UNL     1      -6.694   4.834  -6.236  1.00  0.00     0.034 A 
ATOM     49  C   UNL     1     -10.680   4.699  -0.489  1.00  0.00     0.034 A 
ATOM     50  C   UNL     1      -8.037   5.338  -6.399  1.00  0.00     0.049 A 
ATOM     51  C   UNL     1     -11.182   5.280  -1.770  1.00  0.00     0.074 A 
ATOM     52  C   UNL     1      -8.647   5.804  -7.552  1.00  0.00     0.029 A 
ATOM     53  N   UNL     1      -8.975   5.449  -5.384  1.00  0.00    -0.354 N 
ATOM     54  N   UNL     1     -10.594   5.312  -2.940  1.00  0.00    -0.248 NA
ATOM     55  C   UNL     1     -12.511   5.899  -1.738  1.00  0.00     0.031 C 
ATOM     56  C   UNL     1      -9.941   6.227  -7.228  1.00  0.00     0.029 A 
ATOM     57  C   UNL     1     -10.149   5.997  -5.878  1.00  0.00     0.049 A 
ATOM     58  H   UNL     1      -8.829   5.178  -4.449  1.00  0.00     0.167 HD
ATOM     59  C   UNL     1     -11.482   5.954  -3.789  1.00  0.00     0.074 A 
ATOM     60  C   UNL     1     -12.663   6.260  -3.005  1.00  0.00     0.031 C 
ATOM     61  C   UNL     1     -11.324   6.280  -5.095  1.00  0.00     0.034 A 
BRANCH  48  62
ATOM     62  C   UNL     1      -5.804   4.841  -7.457  1.00  0.00     0.023 A 
ATOM     63  C   UNL     1      -5.566   3.643  -8.159  1.00  0.00     0.012 A 
ATOM     64  C   UNL     1      -5.316   6.055  -7.984  1.00  0.00     0.148 A 
ATOM     65  C   UNL     1      -4.849   3.651  -9.357  1.00  0.00     0.002 A 
ATOM     66  C   UNL     1      -4.634   6.061  -9.197  1.00  0.00     0.091 A 
ATOM     67  F   UNL     1      -5.537   7.184  -7.295  1.00  0.00    -0.205 F 
ATOM     68  C   UNL     1      -4.396   4.859  -9.882  1.00  0.00     0.022 A 
BRANCH  66  69
ATOM     69  S   UNL     1      -4.088   7.577  -9.995  1.00  0.00     0.127 S 
ATOM     70  O   UNL     1      -2.641   7.512  -9.798  1.00  0.00    -0.237 OA
ATOM     71  O   UNL     1      -4.523   7.375 -11.378  1.00  0.00    -0.237 OA
ATOM     72  O   UNL     1      -4.767   8.663  -9.302  1.00  0.00    -0.744 OA
ENDBRANCH  66  69
ENDBRANCH  48  62
BRANCH  49  73
ATOM     73  C   UNL     1     -11.476   4.745   0.770  1.00  0.00     0.023 A 
ATOM     74  C   UNL     1     -12.609   3.926   0.911  1.00  0.00     0.012 A 
ATOM     75  C   UNL     1     -11.030   5.503   1.872  1.00  0.00     0.148 A 
ATOM     76  C   UNL     1     -13.280   3.857   2.133  1.00  0.00     0.002 A 
ATOM     77  C   UNL     1     -11.652   5.365   3.105  1.00  0.00     0.091 A 
ATOM     78  F   UNL     1      -9.965   6.303   1.708  1.00  0.00    -0.205 F 
ATOM     79  C   UNL     1     -12.788   4.555   3.234  1.00  0.00     0.022 A 
BRANCH  77  80
ATOM     80  S   UNL     1     -10.943   6.064   4.601  1.00  0.00     0.127 S 
ATOM     81  O   UNL     1     -11.783   7.239   4.812  1.00  0.00    -0.237 OA
ATOM     82  O   UNL     1     -11.138   4.984   5.569  1.00  0.00    -0.237 OA
ATOM     83  O   UNL     1      -9.545   6.325   4.281  1.00  0.00    -0.744 OA
ENDBRANCH  77  80
ENDBRANCH  49  73
BRANCH  61  84
ATOM     84  C   UNL     1     -12.465   7.003  -5.755  1.00  0.00     0.023 A 
ATOM     85  C   UNL     1     -12.696   8.360  -5.449  1.00  0.00     0.012 A 
ATOM     86  C   UNL     1     -13.295   6.351  -6.685  1.00  0.00     0.148 A 
ATOM     87  C   UNL     1     -13.762   9.044  -6.029  1.00  0.00     0.002 A 
ATOM     88  C   UNL     1     -14.329   7.052  -7.293  1.00  0.00     0.091 A 
ATOM     89  F   UNL     1     -13.070   5.054  -6.945  1.00  0.00    -0.205 F 
ATOM     90  C   UNL     1     -14.572   8.394  -6.957  1.00  0.00     0.022 A 
BRANCH  88  91
ATOM     91  S   UNL     1     -15.379   6.319  -8.552  1.00  0.00     0.127 S 
ATOM     92  O   UNL     1     -16.636   6.141  -7.826  1.00  0.00    -0.237 OA
ATOM     93  O   UNL     1     -15.410   7.362  -9.578  1.00  0.00    -0.237 OA
ATOM     94  O   UNL     1     -14.715   5.089  -8.962  1.00  0.00    -0.744 OA
ENDBRANCH  88  91
ENDBRANCH  61  84
ENDBRANCH  35  36
ENDBRANCH  28  30
ENDBRANCH  27  28
ENDBRANCH  26  27
ENDBRANCH   1  26
TORSDOF 17
