REMARK SMILES CCCN(CCC)c1cc(C(=O)OCCOC(=O)c2ccc(-c3c4nc(c(-c5cccc(S(=O)(=O)[O-])c5F)c5ccc([nH]5)c(-c5cccc(S(=O)(=O)[O-])c5F)c5nc(c(-c6cccc(S(=O)(=O)[O-])c6F)c6ccc3[nH]6)C=C5)C=C4)cc2)cc(C(F)(F)F)c1
REMARK SMILES IDX 14 1 13 2 11 3 12 4 10 5 8 6 9 7 88 8 83 9 82 10 4 11 3 12
REMARK SMILES IDX 2 13 1 14 5 15 6 16 7 17 84 18 85 19 86 20 87 21 15 22 16 23
REMARK SMILES IDX 17 24 18 25 19 26 20 27 81 28 21 29 80 30 22 31 23 32 24 33
REMARK SMILES IDX 74 34 25 35 79 36 73 37 75 38 26 39 78 40 72 41 71 42 27 44
REMARK SMILES IDX 59 45 39 46 58 47 40 48 43 49 57 50 76 51 41 52 42 53 56 55
REMARK SMILES IDX 77 56 44 57 28 58 29 59 37 60 30 61 32 62 38 63 31 64 33 65
REMARK SMILES IDX 34 66 35 67 36 68 60 69 61 70 69 71 62 72 64 73 70 74 63 75
REMARK SMILES IDX 65 76 66 77 67 78 68 79 45 80 46 81 54 82 47 83 49 84 55 85
REMARK SMILES IDX 48 86 50 87 51 88 52 89 53 90
REMARK H PARENT 75 43 43 54
REMARK Flexibility Score: inf
ROOT
ATOM      1  C   UNL     1       1.728  -6.543   4.627  1.00  0.00     0.275 C 
ENDROOT
BRANCH   1   2
ATOM      2  O   UNL     1       1.500  -5.245   4.042  1.00  0.00    -0.458 OA
BRANCH   2   3
ATOM      3  C   UNL     1       2.197  -4.936   2.915  1.00  0.00     0.338 C 
ATOM      4  O   UNL     1       3.033  -5.615   2.365  1.00  0.00    -0.246 OA
BRANCH   3   5
ATOM      5  C   UNL     1       1.695  -3.636   2.398  1.00  0.00     0.062 A 
ATOM      6  C   UNL     1       1.018  -2.289   0.484  1.00  0.00     0.038 A 
ATOM      7  C   UNL     1       1.650  -3.421   1.014  1.00  0.00     0.041 A 
ATOM      8  C   UNL     1       0.501  -1.346   1.381  1.00  0.00     0.039 A 
ATOM      9  C   UNL     1       0.660  -1.477   2.768  1.00  0.00     0.058 A 
ATOM     10  C   UNL     1       1.235  -2.648   3.272  1.00  0.00     0.029 A 
BRANCH   6  11
ATOM     11  N   UNL     1       0.890  -2.134  -0.888  1.00  0.00    -0.372 N 
BRANCH  11  12
ATOM     12  C   UNL     1       1.728  -1.137  -1.571  1.00  0.00     0.116 C 
BRANCH  12  13
ATOM     13  C   UNL     1       1.152   0.284  -1.476  1.00  0.00     0.018 C 
ATOM     14  C   UNL     1       1.888   1.153  -0.464  1.00  0.00     0.006 C 
ENDBRANCH  12  13
ENDBRANCH  11  12
BRANCH  11  15
ATOM     15  C   UNL     1      -0.393  -2.477  -1.521  1.00  0.00     0.116 C 
BRANCH  15  16
ATOM     16  C   UNL     1      -0.552  -3.975  -1.769  1.00  0.00     0.018 C 
ATOM     17  C   UNL     1      -1.034  -4.717  -0.534  1.00  0.00     0.006 C 
ENDBRANCH  15  16
ENDBRANCH  11  15
ENDBRANCH   6  11
BRANCH   9  18
ATOM     18  C   UNL     1       0.236  -0.378   3.704  1.00  0.00     0.416 C 
ATOM     19  F   UNL     1      -0.761  -0.758   4.548  1.00  0.00    -0.166 F 
ATOM     20  F   UNL     1       1.260   0.036   4.505  1.00  0.00    -0.166 F 
ATOM     21  F   UNL     1      -0.211   0.744   3.074  1.00  0.00    -0.166 F 
ENDBRANCH   9  18
ENDBRANCH   3   5
ENDBRANCH   2   3
ENDBRANCH   1   2
BRANCH   1  22
ATOM     22  C   UNL     1       0.512  -7.435   4.386  1.00  0.00     0.275 C 
BRANCH  22  23
ATOM     23  O   UNL     1       0.539  -7.876   3.019  1.00  0.00    -0.458 OA
BRANCH  23  24
ATOM     24  C   UNL     1      -0.591  -7.693   2.300  1.00  0.00     0.338 C 
ATOM     25  O   UNL     1      -1.669  -7.299   2.713  1.00  0.00    -0.246 OA
BRANCH  24  26
ATOM     26  C   UNL     1      -0.324  -7.984   0.875  1.00  0.00     0.060 A 
ATOM     27  C   UNL     1       0.821  -7.471   0.272  1.00  0.00     0.016 A 
ATOM     28  C   UNL     1      -1.304  -8.594   0.090  1.00  0.00     0.016 A 
ATOM     29  C   UNL     1       0.900  -7.421  -1.121  1.00  0.00     0.010 A 
ATOM     30  C   UNL     1      -1.146  -8.660  -1.304  1.00  0.00     0.010 A 
ATOM     31  C   UNL     1      -0.079  -8.007  -1.947  1.00  0.00    -0.014 A 
BRANCH  31  32
ATOM     32  C   UNL     1      -0.028  -7.859  -3.446  1.00  0.00     0.031 A 
ATOM     33  C   UNL     1      -1.257  -7.452  -4.244  1.00  0.00     0.074 A 
ATOM     34  C   UNL     1       1.124  -8.040  -4.130  1.00  0.00     0.049 A 
ATOM     35  N   UNL     1      -1.449  -7.478  -5.542  1.00  0.00    -0.248 NA
ATOM     36  C   UNL     1      -2.422  -6.955  -3.495  1.00  0.00     0.031 C 
ATOM     37  C   UNL     1       2.417  -8.392  -3.545  1.00  0.00     0.029 A 
ATOM     38  N   UNL     1       1.395  -7.947  -5.479  1.00  0.00    -0.354 N 
ATOM     39  C   UNL     1      -2.772  -7.097  -5.750  1.00  0.00     0.074 A 
ATOM     40  C   UNL     1      -3.331  -6.807  -4.449  1.00  0.00     0.031 C 
ATOM     41  C   UNL     1       3.351  -8.411  -4.503  1.00  0.00     0.029 A 
ATOM     42  C   UNL     1       2.702  -8.239  -5.797  1.00  0.00     0.049 A 
ATOM     43  H   UNL     1       0.719  -7.696  -6.150  1.00  0.00     0.167 HD
ATOM     44  C   UNL     1      -3.466  -6.995  -6.911  1.00  0.00     0.034 A 
ATOM     45  C   UNL     1       3.316  -8.439  -6.981  1.00  0.00     0.034 A 
ATOM     46  C   UNL     1      -2.902  -7.187  -8.222  1.00  0.00     0.049 A 
ATOM     47  C   UNL     1       2.525  -8.360  -8.252  1.00  0.00     0.074 A 
ATOM     48  C   UNL     1      -3.533  -7.079  -9.452  1.00  0.00     0.029 A 
ATOM     49  N   UNL     1      -1.581  -7.506  -8.482  1.00  0.00    -0.354 N 
ATOM     50  N   UNL     1       1.268  -8.035  -8.422  1.00  0.00    -0.248 NA
ATOM     51  C   UNL     1       3.236  -8.689  -9.496  1.00  0.00     0.031 C 
ATOM     52  C   UNL     1      -2.595  -7.347 -10.454  1.00  0.00     0.029 A 
ATOM     53  C   UNL     1      -1.376  -7.599  -9.849  1.00  0.00     0.049 A 
ATOM     54  H   UNL     1      -0.888  -7.645  -7.796  1.00  0.00     0.167 HD
ATOM     55  C   UNL     1       1.039  -8.114  -9.790  1.00  0.00     0.074 A 
ATOM     56  C   UNL     1       2.295  -8.483 -10.408  1.00  0.00     0.031 C 
ATOM     57  C   UNL     1      -0.118  -7.923 -10.468  1.00  0.00     0.034 A 
BRANCH  44  58
ATOM     58  C   UNL     1      -4.934  -6.654  -6.839  1.00  0.00     0.023 A 
ATOM     59  C   UNL     1      -5.342  -5.329  -6.590  1.00  0.00     0.012 A 
ATOM     60  C   UNL     1      -5.907  -7.633  -7.130  1.00  0.00     0.148 A 
ATOM     61  C   UNL     1      -6.695  -4.989  -6.612  1.00  0.00     0.002 A 
ATOM     62  C   UNL     1      -7.249  -7.277  -7.194  1.00  0.00     0.091 A 
ATOM     63  F   UNL     1      -5.501  -8.893  -7.344  1.00  0.00    -0.205 F 
ATOM     64  C   UNL     1      -7.646  -5.958  -6.927  1.00  0.00     0.022 A 
BRANCH  62  65
ATOM     65  S   UNL     1      -8.532  -8.438  -7.682  1.00  0.00     0.127 S 
ATOM     66  O   UNL     1      -9.188  -8.707  -6.404  1.00  0.00    -0.237 OA
ATOM     67  O   UNL     1      -9.328  -7.644  -8.620  1.00  0.00    -0.237 OA
ATOM     68  O   UNL     1      -7.840  -9.568  -8.284  1.00  0.00    -0.744 OA
ENDBRANCH  62  65
ENDBRANCH  44  58
BRANCH  45  69
ATOM     69  C   UNL     1       4.762  -8.805  -7.002  1.00  0.00     0.023 A 
ATOM     70  C   UNL     1       5.707  -7.910  -7.536  1.00  0.00     0.012 A 
ATOM     71  C   UNL     1       5.208 -10.012  -6.428  1.00  0.00     0.148 A 
ATOM     72  C   UNL     1       7.069  -8.212  -7.497  1.00  0.00     0.002 A 
ATOM     73  C   UNL     1       6.567 -10.266  -6.314  1.00  0.00     0.091 A 
ATOM     74  F   UNL     1       4.291 -10.876  -5.967  1.00  0.00    -0.205 F 
ATOM     75  C   UNL     1       7.501  -9.377  -6.864  1.00  0.00     0.022 A 
BRANCH  73  76
ATOM     76  S   UNL     1       7.189 -11.639  -5.337  1.00  0.00     0.127 S 
ATOM     77  O   UNL     1       7.572 -12.595  -6.372  1.00  0.00    -0.237 OA
ATOM     78  O   UNL     1       8.308 -11.024  -4.620  1.00  0.00    -0.237 OA
ATOM     79  O   UNL     1       6.081 -12.034  -4.478  1.00  0.00    -0.744 OA
ENDBRANCH  73  76
ENDBRANCH  45  69
BRANCH  57  80
ATOM     80  C   UNL     1      -0.081  -8.077 -11.964  1.00  0.00     0.023 A 
ATOM     81  C   UNL     1       0.010  -9.364 -12.532  1.00  0.00     0.012 A 
ATOM     82  C   UNL     1      -0.182  -6.954 -12.808  1.00  0.00     0.148 A 
ATOM     83  C   UNL     1       0.035  -9.527 -13.916  1.00  0.00     0.002 A 
ATOM     84  C   UNL     1      -0.199  -7.128 -14.187  1.00  0.00     0.091 A 
ATOM     85  F   UNL     1      -0.248  -5.737 -12.248  1.00  0.00    -0.205 F 
ATOM     86  C   UNL     1      -0.079  -8.412 -14.743  1.00  0.00     0.022 A 
BRANCH  84  87
ATOM     87  S   UNL     1      -0.422  -5.757 -15.326  1.00  0.00     0.127 S 
ATOM     88  O   UNL     1       0.921  -5.612 -15.884  1.00  0.00    -0.237 OA
ATOM     89  O   UNL     1      -1.417  -6.286 -16.260  1.00  0.00    -0.237 OA
ATOM     90  O   UNL     1      -0.889  -4.637 -14.519  1.00  0.00    -0.744 OA
ENDBRANCH  84  87
ENDBRANCH  57  80
ENDBRANCH  31  32
ENDBRANCH  24  26
ENDBRANCH  23  24
ENDBRANCH  22  23
ENDBRANCH   1  22
TORSDOF 20
