REMARK SMILES Cc1nn(C(C)C)cc1-c1cnccc1C(=O)OCCOC(=O)c1ccc(-c2c3nc(c(-c4cccc(S(=O)(=O)[O-])c4F)c4ccc([nH]4)c(-c4cccc(S(=O)(=O)[O-])c4F)c4nc(c(-c5cccc(S(=O)(=O)[O-])c5F)c5ccc2[nH]5)C=C4)C=C3)cc1
REMARK SMILES IDX 20 1 19 2 18 3 16 4 17 5 15 6 10 7 11 8 12 9 14 10 13 11
REMARK SMILES IDX 9 12 1 13 2 14 3 15 4 16 8 17 5 18 6 19 7 20 21 21 22 22
REMARK SMILES IDX 23 23 24 24 25 25 86 26 26 27 85 28 27 29 28 30 29 31 79 32
REMARK SMILES IDX 30 33 84 34 78 35 80 36 31 37 83 38 77 39 76 40 32 42 64 43
REMARK SMILES IDX 44 44 63 45 45 46 48 47 62 48 81 49 46 50 47 51 61 53 82 54
REMARK SMILES IDX 49 55 33 56 34 57 42 58 35 59 37 60 43 61 36 62 38 63 39 64
REMARK SMILES IDX 40 65 41 66 65 67 66 68 74 69 67 70 69 71 75 72 68 73 70 74
REMARK SMILES IDX 71 75 72 76 73 77 50 78 51 79 59 80 52 81 54 82 60 83 53 84
REMARK SMILES IDX 55 85 56 86 57 87 58 88
REMARK H PARENT 80 41 48 52
REMARK Flexibility Score: inf
ROOT
ATOM      1  C   UNL     1      -2.589   4.373   1.171  1.00  0.00     0.275 C 
ENDROOT
BRANCH   1   2
ATOM      2  C   UNL     1      -1.608   5.123   0.291  1.00  0.00     0.275 C 
BRANCH   2   3
ATOM      3  O   UNL     1      -0.339   4.456   0.332  1.00  0.00    -0.458 OA
BRANCH   3   4
ATOM      4  C   UNL     1       0.635   4.956   1.118  1.00  0.00     0.338 C 
ATOM      5  O   UNL     1       0.588   6.036   1.696  1.00  0.00    -0.246 OA
BRANCH   4   6
ATOM      6  C   UNL     1       1.778   4.007   1.286  1.00  0.00     0.071 A 
ATOM      7  C   UNL     1       2.104   2.935   0.436  1.00  0.00     0.018 A 
ATOM      8  C   UNL     1       3.241   2.198   0.771  1.00  0.00     0.120 A 
ATOM      9  N   UNL     1       4.021   2.411   1.858  1.00  0.00    -0.264 NA
ATOM     10  C   UNL     1       2.555   4.221   2.439  1.00  0.00     0.036 A 
ATOM     11  C   UNL     1       3.641   3.401   2.685  1.00  0.00     0.112 A 
BRANCH   7  12
ATOM     12  C   UNL     1       1.320   2.496  -0.703  1.00  0.00     0.025 A 
ATOM     13  C   UNL     1       0.814  -0.028  -0.200  1.00  0.00     0.069 C 
ATOM     14  C   UNL     1       0.720   1.233  -0.980  1.00  0.00     0.067 A 
ATOM     15  N   UNL     1      -0.042   1.282  -2.082  1.00  0.00    -0.177 NA
ATOM     16  N   UNL     1      -0.009   2.579  -2.437  1.00  0.00    -0.269 N 
ATOM     17  C   UNL     1       0.924   3.302  -1.750  1.00  0.00     0.118 A 
BRANCH  16  18
ATOM     18  C   UNL     1      -0.948   3.101  -3.422  1.00  0.00     0.101 C 
ATOM     19  C   UNL     1      -0.593   2.608  -4.820  1.00  0.00     0.033 C 
ATOM     20  C   UNL     1      -2.402   2.777  -3.067  1.00  0.00     0.033 C 
ENDBRANCH  16  18
ENDBRANCH   7  12
ENDBRANCH   4   6
ENDBRANCH   3   4
ENDBRANCH   2   3
ENDBRANCH   1   2
BRANCH   1  21
ATOM     21  O   UNL     1      -2.267   4.605   2.538  1.00  0.00    -0.458 OA
BRANCH  21  22
ATOM     22  C   UNL     1      -1.419   3.717   3.100  1.00  0.00     0.338 C 
ATOM     23  O   UNL     1      -0.748   2.865   2.542  1.00  0.00    -0.246 OA
BRANCH  22  24
ATOM     24  C   UNL     1      -1.571   3.790   4.552  1.00  0.00     0.060 A 
ATOM     25  C   UNL     1      -0.752   2.956   5.320  1.00  0.00     0.016 A 
ATOM     26  C   UNL     1      -2.696   4.436   5.085  1.00  0.00     0.016 A 
ATOM     27  C   UNL     1      -1.172   2.617   6.586  1.00  0.00     0.010 A 
ATOM     28  C   UNL     1      -3.124   4.080   6.336  1.00  0.00     0.010 A 
ATOM     29  C   UNL     1      -2.396   3.118   7.034  1.00  0.00    -0.014 A 
BRANCH  29  30
ATOM     30  C   UNL     1      -2.914   2.639   8.293  1.00  0.00     0.031 A 
ATOM     31  C   UNL     1      -2.284   3.258   9.478  1.00  0.00     0.074 A 
ATOM     32  C   UNL     1      -3.998   1.844   8.332  1.00  0.00     0.049 A 
ATOM     33  N   UNL     1      -1.647   2.674  10.438  1.00  0.00    -0.248 NA
ATOM     34  C   UNL     1      -2.236   4.728   9.525  1.00  0.00     0.031 C 
ATOM     35  C   UNL     1      -4.871   1.472   7.211  1.00  0.00     0.029 A 
ATOM     36  N   UNL     1      -4.652   1.352   9.416  1.00  0.00    -0.354 N 
ATOM     37  C   UNL     1      -1.311   3.695  11.323  1.00  0.00     0.074 A 
ATOM     38  C   UNL     1      -1.508   4.932  10.620  1.00  0.00     0.031 C 
ATOM     39  C   UNL     1      -6.057   1.055   7.703  1.00  0.00     0.029 A 
ATOM     40  C   UNL     1      -5.974   1.018   9.152  1.00  0.00     0.049 A 
ATOM     41  H   UNL     1      -4.232   1.243  10.300  1.00  0.00     0.167 HD
ATOM     42  C   UNL     1      -1.149   3.455  12.651  1.00  0.00     0.034 A 
ATOM     43  C   UNL     1      -6.950   0.841  10.073  1.00  0.00     0.034 A 
ATOM     44  C   UNL     1      -0.948   2.054  12.914  1.00  0.00     0.049 A 
ATOM     45  C   UNL     1      -6.295   0.617  11.383  1.00  0.00     0.074 A 
ATOM     46  C   UNL     1      -0.018   1.109  12.531  1.00  0.00     0.029 A 
ATOM     47  N   UNL     1      -2.018   1.355  13.418  1.00  0.00    -0.354 N 
ATOM     48  N   UNL     1      -5.580  -0.435  11.669  1.00  0.00    -0.248 NA
ATOM     49  C   UNL     1      -6.100   1.759  12.263  1.00  0.00     0.031 C 
ATOM     50  C   UNL     1      -0.748  -0.110  12.423  1.00  0.00     0.029 A 
ATOM     51  C   UNL     1      -2.075   0.151  12.770  1.00  0.00     0.049 A 
ATOM     52  H   UNL     1      -2.634   1.665  14.120  1.00  0.00     0.167 HD
ATOM     53  C   UNL     1      -4.548   0.047  12.465  1.00  0.00     0.074 A 
ATOM     54  C   UNL     1      -5.000   1.363  12.909  1.00  0.00     0.031 C 
ATOM     55  C   UNL     1      -3.310  -0.534  12.445  1.00  0.00     0.034 A 
BRANCH  42  56
ATOM     56  C   UNL     1      -1.541   4.421  13.748  1.00  0.00     0.023 A 
ATOM     57  C   UNL     1      -1.208   4.053  15.070  1.00  0.00     0.012 A 
ATOM     58  C   UNL     1      -2.439   5.505  13.596  1.00  0.00     0.148 A 
ATOM     59  C   UNL     1      -1.792   4.678  16.177  1.00  0.00     0.002 A 
ATOM     60  C   UNL     1      -2.952   6.177  14.700  1.00  0.00     0.091 A 
ATOM     61  F   UNL     1      -2.926   5.821  12.394  1.00  0.00    -0.205 F 
ATOM     62  C   UNL     1      -2.661   5.745  15.993  1.00  0.00     0.022 A 
BRANCH  60  63
ATOM     63  S   UNL     1      -4.032   7.599  14.499  1.00  0.00     0.127 S 
ATOM     64  O   UNL     1      -5.348   6.998  14.690  1.00  0.00    -0.237 OA
ATOM     65  O   UNL     1      -3.587   8.476  15.583  1.00  0.00    -0.237 OA
ATOM     66  O   UNL     1      -3.742   8.114  13.165  1.00  0.00    -0.744 OA
ENDBRANCH  60  63
ENDBRANCH  42  56
BRANCH  43  67
ATOM     67  C   UNL     1      -8.399   1.110   9.944  1.00  0.00     0.023 A 
ATOM     68  C   UNL     1      -9.304   0.465  10.808  1.00  0.00     0.012 A 
ATOM     69  C   UNL     1      -8.882   2.170   9.143  1.00  0.00     0.148 A 
ATOM     70  C   UNL     1     -10.640   0.874  10.885  1.00  0.00     0.002 A 
ATOM     71  C   UNL     1     -10.215   2.561   9.209  1.00  0.00     0.091 A 
ATOM     72  F   UNL     1      -8.015   2.857   8.385  1.00  0.00    -0.205 F 
ATOM     73  C   UNL     1     -11.096   1.922  10.089  1.00  0.00     0.022 A 
BRANCH  71  74
ATOM     74  S   UNL     1     -10.866   3.906   8.207  1.00  0.00     0.127 S 
ATOM     75  O   UNL     1     -12.124   3.341   7.718  1.00  0.00    -0.237 OA
ATOM     76  O   UNL     1     -11.016   4.972   9.193  1.00  0.00    -0.237 OA
ATOM     77  O   UNL     1      -9.873   4.138   7.165  1.00  0.00    -0.744 OA
ENDBRANCH  71  74
ENDBRANCH  43  67
BRANCH  55  78
ATOM     78  C   UNL     1      -3.164  -1.867  11.748  1.00  0.00     0.023 A 
ATOM     79  C   UNL     1      -3.402  -2.010  10.365  1.00  0.00     0.012 A 
ATOM     80  C   UNL     1      -2.598  -2.945  12.451  1.00  0.00     0.148 A 
ATOM     81  C   UNL     1      -3.111  -3.205   9.703  1.00  0.00     0.002 A 
ATOM     82  C   UNL     1      -2.265  -4.117  11.780  1.00  0.00     0.091 A 
ATOM     83  F   UNL     1      -2.365  -2.796  13.764  1.00  0.00    -0.205 F 
ATOM     84  C   UNL     1      -2.530  -4.254  10.408  1.00  0.00     0.022 A 
BRANCH  82  85
ATOM     85  S   UNL     1      -1.388  -5.452  12.599  1.00  0.00     0.127 S 
ATOM     86  O   UNL     1      -2.456  -6.418  12.841  1.00  0.00    -0.237 OA
ATOM     87  O   UNL     1      -0.413  -5.860  11.585  1.00  0.00    -0.237 OA
ATOM     88  O   UNL     1      -0.789  -4.861  13.790  1.00  0.00    -0.744 OA
ENDBRANCH  82  85
ENDBRANCH  55  78
ENDBRANCH  29  30
ENDBRANCH  22  24
ENDBRANCH  21  22
ENDBRANCH   1  21
TORSDOF 16
