REMARK SMILES O=C(OCCOC(=O)[C@]1(NC(=O)c2nc(C3CC3)n[nH]2)CCSC1)c1ccc(-c2c3nc(c(-c4cccc(S(=O)(=O)[O-])c4F)c4ccc([nH]4)c(-c4cccc(S(=O)(=O)[O-])c4F)c4nc(c(-c5cccc(S(=O)(=O)[O-])c5F)c5ccc2[nH]5)C=C4)C=C3)cc1
REMARK SMILES IDX 4 1 3 2 2 3 1 4 25 5 26 6 87 7 27 8 86 9 28 10 29 11 30 12
REMARK SMILES IDX 80 13 31 14 85 15 79 16 81 17 32 18 84 19 78 20 77 21 33 23
REMARK SMILES IDX 65 24 45 25 64 26 46 27 49 28 63 29 82 30 47 31 48 32 62 34
REMARK SMILES IDX 83 35 50 36 34 37 35 38 43 39 36 40 38 41 44 42 37 43 39 44
REMARK SMILES IDX 40 45 41 46 42 47 66 48 67 49 75 50 68 51 70 52 76 53 69 54
REMARK SMILES IDX 71 55 72 56 73 57 74 58 51 59 52 60 60 61 53 62 55 63 61 64
REMARK SMILES IDX 54 65 56 66 57 67 58 68 59 69 5 70 6 71 7 72 8 73 9 74 21 75
REMARK SMILES IDX 24 76 22 77 23 78 10 79 11 80 12 82 13 83 14 84 20 85 15 86
REMARK SMILES IDX 19 87 16 89 17 90 18 91
REMARK H PARENT 81 22 49 33 10 81 20 88
REMARK Flexibility Score: inf
ROOT
ATOM      1  C   UNL     1       3.885   1.197   1.504  1.00  0.00     0.275 C 
ENDROOT
BRANCH   1   2
ATOM      2  O   UNL     1       3.988   1.948   0.278  1.00  0.00    -0.458 OA
BRANCH   2   3
ATOM      3  C   UNL     1       2.966   1.887  -0.605  1.00  0.00     0.338 C 
ATOM      4  O   UNL     1       1.796   2.124  -0.361  1.00  0.00    -0.246 OA
BRANCH   3   5
ATOM      5  C   UNL     1       3.477   1.342  -1.893  1.00  0.00     0.060 A 
ATOM      6  C   UNL     1       4.734   0.722  -1.949  1.00  0.00     0.016 A 
ATOM      7  C   UNL     1       2.649   1.336  -3.023  1.00  0.00     0.016 A 
ATOM      8  C   UNL     1       5.156   0.102  -3.117  1.00  0.00     0.010 A 
ATOM      9  C   UNL     1       3.074   0.710  -4.201  1.00  0.00     0.010 A 
ATOM     10  C   UNL     1       4.334   0.100  -4.252  1.00  0.00    -0.014 A 
BRANCH  10  11
ATOM     11  C   UNL     1       4.949  -0.333  -5.524  1.00  0.00     0.031 A 
ATOM     12  C   UNL     1       5.792   0.677  -6.239  1.00  0.00     0.074 A 
ATOM     13  C   UNL     1       4.866  -1.602  -5.963  1.00  0.00     0.049 A 
ATOM     14  N   UNL     1       6.568   0.520  -7.273  1.00  0.00    -0.248 NA
ATOM     15  C   UNL     1       5.740   2.055  -5.717  1.00  0.00     0.031 C 
ATOM     16  C   UNL     1       4.038  -2.645  -5.374  1.00  0.00     0.029 A 
ATOM     17  N   UNL     1       5.523  -2.243  -6.983  1.00  0.00    -0.354 N 
ATOM     18  C   UNL     1       7.053   1.786  -7.562  1.00  0.00     0.074 A 
ATOM     19  C   UNL     1       6.524   2.693  -6.569  1.00  0.00     0.031 C 
ATOM     20  C   UNL     1       4.330  -3.824  -5.946  1.00  0.00     0.029 A 
ATOM     21  C   UNL     1       5.305  -3.604  -7.008  1.00  0.00     0.049 A 
ATOM     22  H   UNL     1       6.095  -1.776  -7.634  1.00  0.00     0.167 HD
ATOM     23  C   UNL     1       7.845   2.166  -8.587  1.00  0.00     0.034 A 
ATOM     24  C   UNL     1       5.836  -4.553  -7.806  1.00  0.00     0.034 A 
ATOM     25  C   UNL     1       8.341   1.264  -9.582  1.00  0.00     0.049 A 
ATOM     26  C   UNL     1       6.771  -4.113  -8.902  1.00  0.00     0.074 A 
ATOM     27  C   UNL     1       9.091   1.547 -10.707  1.00  0.00     0.029 A 
ATOM     28  N   UNL     1       8.122  -0.106  -9.572  1.00  0.00    -0.354 N 
ATOM     29  N   UNL     1       7.267  -2.921  -9.136  1.00  0.00    -0.248 NA
ATOM     30  C   UNL     1       7.202  -5.142  -9.861  1.00  0.00     0.031 C 
ATOM     31  C   UNL     1       9.322   0.344 -11.383  1.00  0.00     0.029 A 
ATOM     32  C   UNL     1       8.725  -0.687 -10.671  1.00  0.00     0.049 A 
ATOM     33  H   UNL     1       7.613  -0.592  -8.884  1.00  0.00     0.167 HD
ATOM     34  C   UNL     1       8.051  -3.050 -10.275  1.00  0.00     0.074 A 
ATOM     35  C   UNL     1       8.014  -4.450 -10.650  1.00  0.00     0.031 C 
ATOM     36  C   UNL     1       8.704  -2.094 -10.980  1.00  0.00     0.034 A 
BRANCH  23  37
ATOM     37  C   UNL     1       8.161   3.628  -8.674  1.00  0.00     0.023 A 
ATOM     38  C   UNL     1       9.145   4.179  -7.831  1.00  0.00     0.012 A 
ATOM     39  C   UNL     1       7.426   4.466  -9.532  1.00  0.00     0.148 A 
ATOM     40  C   UNL     1       9.373   5.554  -7.819  1.00  0.00     0.002 A 
ATOM     41  C   UNL     1       7.677   5.832  -9.533  1.00  0.00     0.091 A 
ATOM     42  F   UNL     1       6.460   3.922 -10.287  1.00  0.00    -0.205 F 
ATOM     43  C   UNL     1       8.643   6.379  -8.672  1.00  0.00     0.022 A 
BRANCH  41  44
ATOM     44  S   UNL     1       6.799   6.967 -10.611  1.00  0.00     0.127 S 
ATOM     45  O   UNL     1       5.883   7.615  -9.673  1.00  0.00    -0.237 OA
ATOM     46  O   UNL     1       7.878   7.824 -11.102  1.00  0.00    -0.237 OA
ATOM     47  O   UNL     1       6.171   6.140 -11.633  1.00  0.00    -0.744 OA
ENDBRANCH  41  44
ENDBRANCH  23  37
BRANCH  24  48
ATOM     48  C   UNL     1       5.534  -6.001  -7.590  1.00  0.00     0.023 A 
ATOM     49  C   UNL     1       6.578  -6.872  -7.217  1.00  0.00     0.012 A 
ATOM     50  C   UNL     1       4.237  -6.527  -7.732  1.00  0.00     0.148 A 
ATOM     51  C   UNL     1       6.340  -8.233  -7.011  1.00  0.00     0.002 A 
ATOM     52  C   UNL     1       3.994  -7.872  -7.463  1.00  0.00     0.091 A 
ATOM     53  F   UNL     1       3.252  -5.707  -8.129  1.00  0.00    -0.205 F 
ATOM     54  C   UNL     1       5.045  -8.731  -7.119  1.00  0.00     0.022 A 
BRANCH  52  55
ATOM     55  S   UNL     1       2.318  -8.519  -7.432  1.00  0.00     0.127 S 
ATOM     56  O   UNL     1       2.146  -8.986  -8.804  1.00  0.00    -0.237 OA
ATOM     57  O   UNL     1       2.404  -9.580  -6.427  1.00  0.00    -0.237 OA
ATOM     58  O   UNL     1       1.498  -7.385  -7.024  1.00  0.00    -0.744 OA
ENDBRANCH  52  55
ENDBRANCH  24  48
BRANCH  36  59
ATOM     59  C   UNL     1       9.412  -2.519 -12.235  1.00  0.00     0.023 A 
ATOM     60  C   UNL     1       8.657  -2.759 -13.399  1.00  0.00     0.012 A 
ATOM     61  C   UNL     1      10.817  -2.561 -12.292  1.00  0.00     0.148 A 
ATOM     62  C   UNL     1       9.293  -3.046 -14.605  1.00  0.00     0.002 A 
ATOM     63  C   UNL     1      11.444  -2.808 -13.506  1.00  0.00     0.091 A 
ATOM     64  F   UNL     1      11.511  -2.353 -11.164  1.00  0.00    -0.205 F 
ATOM     65  C   UNL     1      10.685  -3.056 -14.662  1.00  0.00     0.022 A 
BRANCH  63  66
ATOM     66  S   UNL     1      13.230  -2.742 -13.682  1.00  0.00     0.127 S 
ATOM     67  O   UNL     1      13.582  -4.160 -13.688  1.00  0.00    -0.237 OA
ATOM     68  O   UNL     1      13.396  -2.065 -14.969  1.00  0.00    -0.237 OA
ATOM     69  O   UNL     1      13.710  -1.978 -12.538  1.00  0.00    -0.744 OA
ENDBRANCH  63  66
ENDBRANCH  36  59
ENDBRANCH  10  11
ENDBRANCH   3   5
ENDBRANCH   2   3
ENDBRANCH   1   2
BRANCH   1  70
ATOM     70  C   UNL     1       2.869   0.053   1.530  1.00  0.00     0.274 C 
BRANCH  70  71
ATOM     71  O   UNL     1       3.057  -0.804   0.393  1.00  0.00    -0.460 OA
BRANCH  71  72
ATOM     72  C   UNL     1       2.146  -1.821   0.319  1.00  0.00     0.332 C 
ATOM     73  O   UNL     1       1.283  -2.010   1.171  1.00  0.00    -0.249 OA
BRANCH  72  74
ATOM     74  C   UNL     1       2.199  -2.544  -1.053  1.00  0.00     0.148 C 
ATOM     75  C   UNL     1       1.204  -1.776  -1.966  1.00  0.00     0.052 C 
ATOM     76  C   UNL     1       1.652  -3.976  -0.980  1.00  0.00     0.110 C 
ATOM     77  C   UNL     1      -0.219  -2.135  -1.589  1.00  0.00     0.072 C 
ATOM     78  S   UNL     1      -0.159  -3.903  -1.233  1.00  0.00    -0.159 SA
BRANCH  74  79
ATOM     79  N   UNL     1       3.505  -2.512  -1.758  1.00  0.00    -0.333 N 
ATOM     80  C   UNL     1       4.779  -2.887  -1.430  1.00  0.00     0.289 C 
ATOM     81  H   UNL     1       3.440  -2.136  -2.666  1.00  0.00     0.165 HD
ATOM     82  O   UNL     1       5.589  -2.998  -2.346  1.00  0.00    -0.266 OA
BRANCH  80  83
ATOM     83  C   UNL     1       5.207  -2.955  -0.066  1.00  0.00     0.214 A 
ATOM     84  N   UNL     1       4.522  -3.235   1.022  1.00  0.00    -0.207 NA
ATOM     85  N   UNL     1       6.481  -2.612   0.284  1.00  0.00    -0.255 N 
ATOM     86  C   UNL     1       5.408  -2.918   2.023  1.00  0.00     0.154 A 
ATOM     87  N   UNL     1       6.602  -2.480   1.612  1.00  0.00    -0.158 NA
ATOM     88  H   UNL     1       7.216  -2.478  -0.357  1.00  0.00     0.192 HD
BRANCH  86  89
ATOM     89  C   UNL     1       5.066  -2.996   3.496  1.00  0.00     0.060 C 
ATOM     90  C   UNL     1       3.611  -3.073   3.906  1.00  0.00     0.012 C 
ATOM     91  C   UNL     1       4.478  -4.279   4.035  1.00  0.00     0.012 C 
ENDBRANCH  86  89
ENDBRANCH  80  83
ENDBRANCH  74  79
ENDBRANCH  72  74
ENDBRANCH  71  72
ENDBRANCH  70  71
ENDBRANCH   1  70
TORSDOF 17
