REMARK SMILES CCc1ccc(O[C@H](CC)C(=O)OCCOC(=O)c2ccc(-c3c4nc(c(-c5cccc(S(=O)(=O)[O-])c5F)c5ccc([nH]5)c(-c5cccc(S(=O)(=O)[O-])c5F)c5nc(c(-c6cccc(S(=O)(=O)[O-])c6F)c6ccc3[nH]6)C=C5)C=C4)cc2)c(Cl)c1
REMARK SMILES IDX 14 1 13 2 11 3 12 4 8 5 7 6 6 7 3 8 4 9 84 10 5 11 82 12
REMARK SMILES IDX 83 13 2 14 1 15 9 16 10 17 15 18 16 19 17 20 18 21 19 22
REMARK SMILES IDX 20 23 81 24 21 25 80 26 22 27 23 28 24 29 74 30 25 31 79 32
REMARK SMILES IDX 73 33 75 34 26 35 78 36 72 37 71 38 27 40 59 41 39 42 58 43
REMARK SMILES IDX 40 44 43 45 57 46 76 47 41 48 42 49 56 51 77 52 44 53 28 54
REMARK SMILES IDX 29 55 37 56 30 57 32 58 38 59 31 60 33 61 34 62 35 63 36 64
REMARK SMILES IDX 60 65 61 66 69 67 62 68 64 69 70 70 63 71 65 72 66 73 67 74
REMARK SMILES IDX 68 75 45 76 46 77 54 78 47 79 49 80 55 81 48 82 50 83 51 84
REMARK SMILES IDX 52 85 53 86
REMARK H PARENT 75 39 43 50
REMARK Flexibility Score: inf
ROOT
ATOM      1  C   UNL     1      -2.005   4.153   4.084  1.00  0.00     0.274 C 
ENDROOT
BRANCH   1   2
ATOM      2  O   UNL     1      -0.563   4.079   4.058  1.00  0.00    -0.459 OA
BRANCH   2   3
ATOM      3  C   UNL     1       0.061   5.146   4.624  1.00  0.00     0.347 C 
ATOM      4  O   UNL     1      -0.532   6.053   5.203  1.00  0.00    -0.248 OA
BRANCH   3   5
ATOM      5  C   UNL     1       1.591   5.163   4.438  1.00  0.00     0.282 C 
BRANCH   5   6
ATOM      6  O   UNL     1       2.165   5.448   3.168  1.00  0.00    -0.477 OA
BRANCH   6   7
ATOM      7  C   UNL     1       1.669   6.421   2.349  1.00  0.00     0.139 A 
ATOM      8  C   UNL     1       0.525   8.106   0.380  1.00  0.00    -0.047 A 
ATOM      9  C   UNL     1       0.075   8.136   1.701  1.00  0.00     0.007 A 
ATOM     10  C   UNL     1       1.649   7.327   0.085  1.00  0.00     0.028 A 
ATOM     11  C   UNL     1       0.669   7.332   2.680  1.00  0.00     0.048 A 
ATOM     12  C   UNL     1       2.203   6.482   1.054  1.00  0.00     0.083 A 
ATOM     13  Cl  UNL     1       3.564   5.514   0.596  1.00  0.00    -0.080 Cl
BRANCH   8  14
ATOM     14  C   UNL     1      -0.175   8.940  -0.664  1.00  0.00     0.032 C 
ATOM     15  C   UNL     1      -0.388   8.210  -1.986  1.00  0.00     0.009 C 
ENDBRANCH   8  14
ENDBRANCH   6   7
ENDBRANCH   5   6
BRANCH   5  16
ATOM     16  C   UNL     1       2.178   3.809   4.890  1.00  0.00     0.054 C 
ATOM     17  C   UNL     1       3.596   3.948   5.434  1.00  0.00     0.008 C 
ENDBRANCH   5  16
ENDBRANCH   3   5
ENDBRANCH   2   3
ENDBRANCH   1   2
BRANCH   1  18
ATOM     18  C   UNL     1      -2.650   3.611   5.371  1.00  0.00     0.275 C 
BRANCH  18  19
ATOM     19  O   UNL     1      -2.359   4.416   6.530  1.00  0.00    -0.458 OA
BRANCH  19  20
ATOM     20  C   UNL     1      -1.269   4.018   7.231  1.00  0.00     0.338 C 
ATOM     21  O   UNL     1      -0.616   3.007   7.029  1.00  0.00    -0.246 OA
BRANCH  20  22
ATOM     22  C   UNL     1      -0.824   5.064   8.177  1.00  0.00     0.060 A 
ATOM     23  C   UNL     1       0.539   5.387   8.165  1.00  0.00     0.016 A 
ATOM     24  C   UNL     1      -1.678   5.663   9.104  1.00  0.00     0.016 A 
ATOM     25  C   UNL     1       1.065   6.276   9.094  1.00  0.00     0.010 A 
ATOM     26  C   UNL     1      -1.145   6.543  10.057  1.00  0.00     0.010 A 
ATOM     27  C   UNL     1       0.234   6.823  10.077  1.00  0.00    -0.014 A 
BRANCH  27  28
ATOM     28  C   UNL     1       0.870   7.524  11.218  1.00  0.00     0.031 A 
ATOM     29  C   UNL     1       1.108   6.761  12.491  1.00  0.00     0.074 A 
ATOM     30  C   UNL     1       1.300   8.793  11.099  1.00  0.00     0.049 A 
ATOM     31  N   UNL     1       1.684   7.152  13.597  1.00  0.00    -0.248 NA
ATOM     32  C   UNL     1       0.639   5.365  12.517  1.00  0.00     0.031 C 
ATOM     33  C   UNL     1       1.148   9.628   9.909  1.00  0.00     0.029 A 
ATOM     34  N   UNL     1       1.946   9.601  12.000  1.00  0.00    -0.354 N 
ATOM     35  C   UNL     1       1.627   6.063  14.458  1.00  0.00     0.074 A 
ATOM     36  C   UNL     1       0.946   5.000  13.752  1.00  0.00     0.031 C 
ATOM     37  C   UNL     1       1.662  10.844  10.163  1.00  0.00     0.029 A 
ATOM     38  C   UNL     1       2.166  10.876  11.535  1.00  0.00     0.049 A 
ATOM     39  H   UNL     1       2.225   9.298  12.894  1.00  0.00     0.167 HD
ATOM     40  C   UNL     1       2.117   5.947  15.715  1.00  0.00     0.034 A 
ATOM     41  C   UNL     1       2.701  11.948  12.153  1.00  0.00     0.034 A 
ATOM     42  C   UNL     1       2.808   6.998  16.411  1.00  0.00     0.049 A 
ATOM     43  C   UNL     1       3.232  11.800  13.556  1.00  0.00     0.074 A 
ATOM     44  C   UNL     1       3.345   6.979  17.686  1.00  0.00     0.029 A 
ATOM     45  N   UNL     1       3.054   8.259  15.891  1.00  0.00    -0.354 N 
ATOM     46  N   UNL     1       3.252  10.736  14.324  1.00  0.00    -0.248 NA
ATOM     47  C   UNL     1       3.852  12.987  14.162  1.00  0.00     0.031 C 
ATOM     48  C   UNL     1       3.908   8.236  17.940  1.00  0.00     0.029 A 
ATOM     49  C   UNL     1       3.739   9.029  16.816  1.00  0.00     0.049 A 
ATOM     50  H   UNL     1       2.782   8.563  14.995  1.00  0.00     0.167 HD
ATOM     51  C   UNL     1       3.913  11.116  15.488  1.00  0.00     0.074 A 
ATOM     52  C   UNL     1       4.298  12.502  15.313  1.00  0.00     0.031 C 
ATOM     53  C   UNL     1       4.164  10.390  16.606  1.00  0.00     0.034 A 
BRANCH  40  54
ATOM     54  C   UNL     1       1.936   4.620  16.403  1.00  0.00     0.023 A 
ATOM     55  C   UNL     1       2.708   3.513  15.991  1.00  0.00     0.012 A 
ATOM     56  C   UNL     1       1.018   4.467  17.459  1.00  0.00     0.148 A 
ATOM     57  C   UNL     1       2.541   2.267  16.593  1.00  0.00     0.002 A 
ATOM     58  C   UNL     1       0.887   3.231  18.082  1.00  0.00     0.091 A 
ATOM     59  F   UNL     1       0.272   5.522  17.817  1.00  0.00    -0.205 F 
ATOM     60  C   UNL     1       1.637   2.128  17.644  1.00  0.00     0.022 A 
BRANCH  58  61
ATOM     61  S   UNL     1      -0.201   2.974  19.488  1.00  0.00     0.127 S 
ATOM     62  O   UNL     1      -1.310   2.246  18.875  1.00  0.00    -0.237 OA
ATOM     63  O   UNL     1       0.633   2.172  20.384  1.00  0.00    -0.237 OA
ATOM     64  O   UNL     1      -0.521   4.303  19.992  1.00  0.00    -0.744 OA
ENDBRANCH  58  61
ENDBRANCH  40  54
BRANCH  41  65
ATOM     65  C   UNL     1       2.792  13.247  11.429  1.00  0.00     0.023 A 
ATOM     66  C   UNL     1       4.049  13.744  11.034  1.00  0.00     0.012 A 
ATOM     67  C   UNL     1       1.632  13.977  11.104  1.00  0.00     0.148 A 
ATOM     68  C   UNL     1       4.151  14.956  10.350  1.00  0.00     0.002 A 
ATOM     69  C   UNL     1       1.736  15.155  10.373  1.00  0.00     0.091 A 
ATOM     70  F   UNL     1       0.447  13.498  11.507  1.00  0.00    -0.205 F 
ATOM     71  C   UNL     1       2.995  15.655  10.009  1.00  0.00     0.022 A 
BRANCH  69  72
ATOM     72  S   UNL     1       0.296  16.050   9.780  1.00  0.00     0.127 S 
ATOM     73  O   UNL     1       0.322  17.247  10.616  1.00  0.00    -0.237 OA
ATOM     74  O   UNL     1       0.636  16.272   8.374  1.00  0.00    -0.237 OA
ATOM     75  O   UNL     1      -0.836  15.157   9.989  1.00  0.00    -0.744 OA
ENDBRANCH  69  72
ENDBRANCH  41  65
BRANCH  53  76
ATOM     76  C   UNL     1       4.919  11.064  17.722  1.00  0.00     0.023 A 
ATOM     77  C   UNL     1       4.280  12.041  18.511  1.00  0.00     0.012 A 
ATOM     78  C   UNL     1       6.238  10.679  18.035  1.00  0.00     0.148 A 
ATOM     79  C   UNL     1       4.953  12.649  19.570  1.00  0.00     0.002 A 
ATOM     80  C   UNL     1       6.887  11.256  19.121  1.00  0.00     0.091 A 
ATOM     81  F   UNL     1       6.840   9.762  17.262  1.00  0.00    -0.205 F 
ATOM     82  C   UNL     1       6.250  12.249  19.882  1.00  0.00     0.022 A 
BRANCH  80  83
ATOM     83  S   UNL     1       8.522  10.729  19.646  1.00  0.00     0.127 S 
ATOM     84  O   UNL     1       9.367  11.792  19.105  1.00  0.00    -0.237 OA
ATOM     85  O   UNL     1       8.401  10.730  21.105  1.00  0.00    -0.237 OA
ATOM     86  O   UNL     1       8.718   9.408  19.063  1.00  0.00    -0.744 OA
ENDBRANCH  80  83
ENDBRANCH  53  76
ENDBRANCH  27  28
ENDBRANCH  20  22
ENDBRANCH  19  20
ENDBRANCH  18  19
ENDBRANCH   1  18
TORSDOF 18
