REMARK SMILES Cc1cc(S(F)(F)(F)(F)F)cc2c1O[C@H](C(F)(F)F)C(C(=O)OCCOC(=O)c1ccc(-c3c4nc(c(-c5cccc(S(=O)(=O)[O-])c5F)c5ccc([nH]5)c(-c5cccc(S(=O)(=O)[O-])c5F)c5nc(c(-c6cccc(S(=O)(=O)[O-])c6F)c6ccc3[nH]6)C=C5)C=C4)cc1)=C2
REMARK SMILES IDX 25 1 24 2 23 3 21 4 22 5 20 6 1 7 2 8 3 9 13 10 4 11 12 12
REMARK SMILES IDX 14 13 11 14 92 15 15 16 5 17 6 18 7 19 8 20 9 21 10 22 16 23
REMARK SMILES IDX 17 24 18 25 19 26 26 27 27 28 28 29 29 30 30 31 91 32 31 33
REMARK SMILES IDX 90 34 32 35 33 36 34 37 84 38 35 39 89 40 83 41 85 42 36 43
REMARK SMILES IDX 88 44 82 45 81 46 37 48 69 49 49 50 68 51 50 52 53 53 67 54
REMARK SMILES IDX 86 55 51 56 52 57 66 59 87 60 54 61 38 62 39 63 47 64 40 65
REMARK SMILES IDX 42 66 48 67 41 68 43 69 44 70 45 71 46 72 70 73 71 74 79 75
REMARK SMILES IDX 72 76 74 77 80 78 73 79 75 80 76 81 77 82 78 83 55 84 56 85
REMARK SMILES IDX 64 86 57 87 59 88 65 89 58 90 60 91 61 92 62 93 63 94
REMARK H PARENT 85 47 53 58
REMARK Flexibility Score: inf
ROOT
ATOM      1  C   UNL     1       6.311  -7.596  -0.584  1.00  0.00     0.275 C 
ENDROOT
BRANCH   1   2
ATOM      2  C   UNL     1       6.075  -6.760  -1.831  1.00  0.00     0.275 C 
BRANCH   2   3
ATOM      3  O   UNL     1       5.226  -5.666  -1.514  1.00  0.00    -0.459 OA
BRANCH   3   4
ATOM      4  C   UNL     1       3.920  -5.905  -1.008  1.00  0.00     0.338 C 
ATOM      5  O   UNL     1       3.512  -7.096  -0.839  1.00  0.00    -0.246 OA
BRANCH   4   6
ATOM      6  C   UNL     1       3.012  -4.734  -0.669  1.00  0.00     0.087 C 
ATOM      7  C   UNL     1       1.049  -0.065   0.059  1.00  0.00     0.048 C 
ATOM      8  C   UNL     1       0.542  -1.484   0.255  1.00  0.00    -0.007 A 
ATOM      9  C   UNL     1      -0.721  -1.735   0.745  1.00  0.00     0.031 A 
ATOM     10  C   UNL     1       1.379  -2.555  -0.059  1.00  0.00     0.130 A 
ATOM     11  C   UNL     1      -1.163  -3.038   0.933  1.00  0.00     0.108 A 
ATOM     12  C   UNL     1       0.923  -3.879   0.129  1.00  0.00     0.019 A 
ATOM     13  O   UNL     1       2.735  -2.354  -0.585  1.00  0.00    -0.475 OA
ATOM     14  C   UNL     1      -0.362  -4.102   0.627  1.00  0.00     0.036 A 
ATOM     15  C   UNL     1       1.822  -4.982  -0.208  1.00  0.00     0.027 C 
ATOM     16  C   UNL     1       3.489  -3.438  -0.865  1.00  0.00     0.316 C 
BRANCH  11  17
ATOM     17  S   UNL     1      -2.823  -3.330   1.594  1.00  0.00     0.310 S 
ATOM     18  F   UNL     1      -2.296  -3.291   3.089  1.00  0.00    -0.094 F 
ATOM     19  F   UNL     1      -2.515  -4.875   1.598  1.00  0.00    -0.094 F 
ATOM     20  F   UNL     1      -4.246  -3.585   2.167  1.00  0.00    -0.094 F 
ATOM     21  F   UNL     1      -3.062  -1.774   1.714  1.00  0.00    -0.094 F 
ATOM     22  F   UNL     1      -1.341  -3.052   1.119  1.00  0.00    -0.094 F 
ENDBRANCH  11  17
BRANCH  16  23
ATOM     23  C   UNL     1       3.610  -3.364  -2.378  1.00  0.00     0.430 C 
ATOM     24  F   UNL     1       4.131  -2.191  -2.725  1.00  0.00    -0.167 F 
ATOM     25  F   UNL     1       4.400  -4.344  -2.808  1.00  0.00    -0.167 F 
ATOM     26  F   UNL     1       2.405  -3.494  -2.927  1.00  0.00    -0.167 F 
ENDBRANCH  16  23
ENDBRANCH   4   6
ENDBRANCH   3   4
ENDBRANCH   2   3
ENDBRANCH   1   2
BRANCH   1  27
ATOM     27  O   UNL     1       5.069  -8.086  -0.100  1.00  0.00    -0.458 OA
BRANCH  27  28
ATOM     28  C   UNL     1       4.048  -7.177   0.285  1.00  0.00     0.338 C 
ATOM     29  O   UNL     1       4.247  -5.925   0.196  1.00  0.00    -0.246 OA
BRANCH  28  30
ATOM     30  C   UNL     1       2.719  -7.701   0.802  1.00  0.00     0.060 A 
ATOM     31  C   UNL     1       1.523  -7.166   0.337  1.00  0.00     0.016 A 
ATOM     32  C   UNL     1       2.667  -8.676   1.684  1.00  0.00     0.016 A 
ATOM     33  C   UNL     1       0.382  -7.995   0.429  1.00  0.00     0.010 A 
ATOM     34  C   UNL     1       1.437  -9.155   2.149  1.00  0.00     0.010 A 
ATOM     35  C   UNL     1       0.315  -8.831   1.543  1.00  0.00    -0.014 A 
BRANCH  35  36
ATOM     36  C   UNL     1      -1.021  -9.354   2.044  1.00  0.00     0.031 A 
ATOM     37  C   UNL     1      -1.393  -9.023   3.348  1.00  0.00     0.074 A 
ATOM     38  C   UNL     1      -1.800 -10.112   1.186  1.00  0.00     0.049 A 
ATOM     39  N   UNL     1      -2.530  -9.331   3.973  1.00  0.00    -0.248 NA
ATOM     40  C   UNL     1      -0.553  -8.247   4.273  1.00  0.00     0.031 C 
ATOM     41  C   UNL     1      -1.436 -10.443  -0.134  1.00  0.00     0.029 A 
ATOM     42  N   UNL     1      -3.033 -10.672   1.436  1.00  0.00    -0.354 N 
ATOM     43  C   UNL     1      -2.530  -8.823   5.207  1.00  0.00     0.074 A 
ATOM     44  C   UNL     1      -1.256  -8.124   5.420  1.00  0.00     0.031 C 
ATOM     45  C   UNL     1      -2.429 -11.201  -0.668  1.00  0.00     0.029 A 
ATOM     46  C   UNL     1      -3.431 -11.357   0.309  1.00  0.00     0.049 A 
ATOM     47  H   UNL     1      -3.542 -10.597   2.276  1.00  0.00     0.167 HD
ATOM     48  C   UNL     1      -3.544  -8.914   6.163  1.00  0.00     0.034 A 
ATOM     49  C   UNL     1      -4.597 -12.083   0.125  1.00  0.00     0.034 A 
ATOM     50  C   UNL     1      -4.729  -9.604   5.963  1.00  0.00     0.049 A 
ATOM     51  C   UNL     1      -5.586 -12.223   1.101  1.00  0.00     0.074 A 
ATOM     52  C   UNL     1      -5.764  -9.699   6.913  1.00  0.00     0.029 A 
ATOM     53  N   UNL     1      -5.116 -10.309   4.845  1.00  0.00    -0.354 N 
ATOM     54  N   UNL     1      -5.603 -11.682   2.321  1.00  0.00    -0.248 NA
ATOM     55  C   UNL     1      -6.809 -13.016   0.929  1.00  0.00     0.031 C 
ATOM     56  C   UNL     1      -6.758 -10.459   6.378  1.00  0.00     0.029 A 
ATOM     57  C   UNL     1      -6.359 -10.851   5.086  1.00  0.00     0.049 A 
ATOM     58  H   UNL     1      -4.595 -10.408   4.015  1.00  0.00     0.167 HD
ATOM     59  C   UNL     1      -6.723 -12.026   2.960  1.00  0.00     0.074 A 
ATOM     60  C   UNL     1      -7.512 -12.895   2.077  1.00  0.00     0.031 C 
ATOM     61  C   UNL     1      -7.120 -11.646   4.243  1.00  0.00     0.034 A 
BRANCH  48  62
ATOM     62  C   UNL     1      -3.336  -8.218   7.497  1.00  0.00     0.023 A 
ATOM     63  C   UNL     1      -3.252  -6.834   7.612  1.00  0.00     0.012 A 
ATOM     64  C   UNL     1      -3.346  -8.936   8.600  1.00  0.00     0.148 A 
ATOM     65  C   UNL     1      -3.685  -6.274   8.834  1.00  0.00     0.002 A 
ATOM     66  C   UNL     1      -3.264  -8.323   9.855  1.00  0.00     0.091 A 
ATOM     67  F   UNL     1      -3.434 -10.261   8.520  1.00  0.00    -0.205 F 
ATOM     68  C   UNL     1      -3.430  -7.024   9.982  1.00  0.00     0.022 A 
BRANCH  66  69
ATOM     69  S   UNL     1      -2.926  -9.329  11.321  1.00  0.00     0.127 S 
ATOM     70  O   UNL     1      -1.632  -8.848  11.982  1.00  0.00    -0.237 OA
ATOM     71  O   UNL     1      -4.085  -9.194  12.311  1.00  0.00    -0.237 OA
ATOM     72  O   UNL     1      -2.756 -10.967  10.862  1.00  0.00    -0.744 OA
ENDBRANCH  66  69
ENDBRANCH  48  62
BRANCH  49  73
ATOM     73  C   UNL     1      -4.812 -12.766  -1.216  1.00  0.00     0.023 A 
ATOM     74  C   UNL     1      -5.985 -12.479  -1.906  1.00  0.00     0.012 A 
ATOM     75  C   UNL     1      -4.002 -13.678  -1.711  1.00  0.00     0.148 A 
ATOM     76  C   UNL     1      -5.995 -12.781  -3.287  1.00  0.00     0.002 A 
ATOM     77  C   UNL     1      -4.320 -14.349  -2.897  1.00  0.00     0.091 A 
ATOM     78  F   UNL     1      -2.869 -13.964  -1.076  1.00  0.00    -0.205 F 
ATOM     79  C   UNL     1      -5.290 -13.919  -3.675  1.00  0.00     0.022 A 
BRANCH  77  80
ATOM     80  S   UNL     1      -3.385 -15.826  -3.366  1.00  0.00     0.127 S 
ATOM     81  O   UNL     1      -4.337 -17.020  -3.473  1.00  0.00    -0.237 OA
ATOM     82  O   UNL     1      -2.706 -15.592  -4.717  1.00  0.00    -0.237 OA
ATOM     83  O   UNL     1      -2.197 -16.150  -2.179  1.00  0.00    -0.744 OA
ENDBRANCH  77  80
ENDBRANCH  49  73
BRANCH  61  84
ATOM     84  C   UNL     1      -8.468 -12.134   4.747  1.00  0.00     0.023 A 
ATOM     85  C   UNL     1      -8.725 -13.496   4.866  1.00  0.00     0.012 A 
ATOM     86  C   UNL     1      -9.414 -11.288   5.092  1.00  0.00     0.148 A 
ATOM     87  C   UNL     1      -9.728 -13.871   5.787  1.00  0.00     0.002 A 
ATOM     88  C   UNL     1     -10.651 -11.747   5.558  1.00  0.00     0.091 A 
ATOM     89  F   UNL     1      -9.192  -9.980   4.997  1.00  0.00    -0.205 F 
ATOM     90  C   UNL     1     -10.815 -13.006   5.903  1.00  0.00     0.022 A 
BRANCH  88  91
ATOM     91  S   UNL     1     -12.041 -10.595   5.690  1.00  0.00     0.127 S 
ATOM     92  O   UNL     1     -13.191 -11.079   4.803  1.00  0.00    -0.237 OA
ATOM     93  O   UNL     1     -12.512 -10.528   7.144  1.00  0.00    -0.237 OA
ATOM     94  O   UNL     1     -11.544  -9.040   5.179  1.00  0.00    -0.744 OA
ENDBRANCH  88  91
ENDBRANCH  61  84
ENDBRANCH  35  36
ENDBRANCH  28  30
ENDBRANCH  27  28
ENDBRANCH   1  27
TORSDOF 16
