REMARK SMILES C[C@H]1CCc2sc3ncn4nc(/C=C\C(=O)OCCOC(=O)c5ccc(-c6c7nc(c(-c8cccc(S(=O)(=O)[O-])c8F)c8ccc([nH]8)c(-c8cccc(S(=O)(=O)[O-])c8F)c8nc(c(-c9cccc(S(=O)(=O)[O-])c9F)c9ccc6[nH]9)C=C8)C=C7)cc5)nc4c3c2C1
REMARK SMILES IDX 19 1 18 2 17 3 15 4 16 5 14 6 13 7 12 8 1 9 2 10 3 11 90 12
REMARK SMILES IDX 4 13 89 14 5 15 88 16 6 17 7 18 87 19 8 20 10 21 86 22 9 23
REMARK SMILES IDX 11 24 20 25 21 26 22 27 23 28 24 29 85 30 25 31 84 32 26 33
REMARK SMILES IDX 27 34 28 35 78 36 29 37 83 38 77 39 79 40 30 41 82 42 76 43
REMARK SMILES IDX 75 44 31 46 63 47 43 48 62 49 44 50 47 51 61 52 80 53 45 54
REMARK SMILES IDX 46 55 60 57 81 58 48 59 32 60 33 61 41 62 34 63 36 64 42 65
REMARK SMILES IDX 35 66 37 67 38 68 39 69 40 70 64 71 65 72 73 73 66 74 68 75
REMARK SMILES IDX 74 76 67 77 69 78 70 79 71 80 72 81 49 82 50 83 58 84 51 85
REMARK SMILES IDX 53 86 59 87 52 88 54 89 55 90 56 91 57 92
REMARK H PARENT 79 45 47 56
REMARK Flexibility Score: inf
ROOT
ATOM      1  C   UNL     1      -1.125  -0.727   1.905  1.00  0.00     0.275 C 
ENDROOT
BRANCH   1   2
ATOM      2  C   UNL     1      -2.176  -0.744   0.821  1.00  0.00     0.275 C 
BRANCH   2   3
ATOM      3  O   UNL     1      -3.442  -0.840   1.452  1.00  0.00    -0.459 OA
BRANCH   3   4
ATOM      4  C   UNL     1      -4.422  -1.439   0.780  1.00  0.00     0.331 C 
ATOM      5  O   UNL     1      -4.327  -2.182  -0.184  1.00  0.00    -0.247 OA
BRANCH   4   6
ATOM      6  C   UNL     1      -5.685  -1.075   1.424  1.00  0.00     0.097 C 
ATOM      7  C   UNL     1      -6.037   0.175   1.776  1.00  0.00     0.058 C 
BRANCH   7   8
ATOM      8  C   UNL     1      -5.359   1.436   1.635  1.00  0.00     0.175 A 
ATOM      9  C   UNL     1       0.742   2.223  -1.798  1.00  0.00     0.008 C 
ATOM     10  C   UNL     1       0.774   2.106  -0.274  1.00  0.00    -0.009 C 
ATOM     11  C   UNL     1       1.621   3.191   0.406  1.00  0.00     0.009 C 
ATOM     12  C   UNL     1      -0.657   2.088   0.284  1.00  0.00     0.041 C 
ATOM     13  C   UNL     1       0.988   4.590   0.330  1.00  0.00     0.047 C 
ATOM     14  C   UNL     1      -1.258   3.404   0.621  1.00  0.00    -0.020 A 
ATOM     15  C   UNL     1      -0.477   4.542   0.659  1.00  0.00     0.011 A 
ATOM     16  C   UNL     1      -2.593   3.682   1.043  1.00  0.00     0.060 A 
ATOM     17  S   UNL     1      -1.358   5.924   1.121  1.00  0.00    -0.120 S 
ATOM     18  C   UNL     1      -2.795   5.021   1.358  1.00  0.00     0.129 A 
ATOM     19  C   UNL     1      -3.805   2.840   1.269  1.00  0.00     0.168 A 
ATOM     20  N   UNL     1      -3.943   5.621   1.823  1.00  0.00    -0.225 NA
ATOM     21  N   UNL     1      -4.902   3.461   1.785  1.00  0.00    -0.201 N 
ATOM     22  N   UNL     1      -4.086   1.571   1.094  1.00  0.00    -0.207 NA
ATOM     23  C   UNL     1      -4.960   4.826   2.041  1.00  0.00     0.227 A 
ATOM     24  N   UNL     1      -5.910   2.603   2.018  1.00  0.00    -0.145 NA
ENDBRANCH   7   8
ENDBRANCH   4   6
ENDBRANCH   3   4
ENDBRANCH   2   3
ENDBRANCH   1   2
BRANCH   1  25
ATOM     25  O   UNL     1      -1.034  -2.054   2.356  1.00  0.00    -0.458 OA
BRANCH  25  26
ATOM     26  C   UNL     1      -1.991  -2.437   3.221  1.00  0.00     0.338 C 
ATOM     27  O   UNL     1      -2.869  -1.776   3.746  1.00  0.00    -0.246 OA
BRANCH  26  28
ATOM     28  C   UNL     1      -1.656  -3.804   3.581  1.00  0.00     0.060 A 
ATOM     29  C   UNL     1      -2.473  -4.360   4.559  1.00  0.00     0.016 A 
ATOM     30  C   UNL     1      -0.346  -4.240   3.306  1.00  0.00     0.016 A 
ATOM     31  C   UNL     1      -1.852  -5.145   5.484  1.00  0.00     0.010 A 
ATOM     32  C   UNL     1       0.276  -4.997   4.244  1.00  0.00     0.010 A 
ATOM     33  C   UNL     1      -0.469  -5.346   5.357  1.00  0.00    -0.014 A 
BRANCH  33  34
ATOM     34  C   UNL     1       0.175  -6.116   6.370  1.00  0.00     0.031 A 
ATOM     35  C   UNL     1      -0.192  -7.531   6.225  1.00  0.00     0.074 A 
ATOM     36  C   UNL     1       1.023  -5.585   7.259  1.00  0.00     0.049 A 
ATOM     37  N   UNL     1      -1.132  -8.133   6.868  1.00  0.00    -0.248 NA
ATOM     38  C   UNL     1       0.294  -8.246   5.036  1.00  0.00     0.031 C 
ATOM     39  C   UNL     1       1.666  -4.272   7.279  1.00  0.00     0.029 A 
ATOM     40  N   UNL     1       1.580  -6.222   8.307  1.00  0.00    -0.354 N 
ATOM     41  C   UNL     1      -1.153  -9.410   6.333  1.00  0.00     0.074 A 
ATOM     42  C   UNL     1      -0.489  -9.325   5.061  1.00  0.00     0.031 C 
ATOM     43  C   UNL     1       2.712  -4.317   8.141  1.00  0.00     0.029 A 
ATOM     44  C   UNL     1       2.701  -5.601   8.825  1.00  0.00     0.049 A 
ATOM     45  H   UNL     1       1.219  -7.061   8.674  1.00  0.00     0.167 HD
ATOM     46  C   UNL     1      -1.412 -10.475   7.134  1.00  0.00     0.034 A 
ATOM     47  C   UNL     1       3.575  -6.194   9.673  1.00  0.00     0.034 A 
ATOM     48  C   UNL     1      -2.005 -10.055   8.383  1.00  0.00     0.049 A 
ATOM     49  C   UNL     1       2.856  -7.340  10.300  1.00  0.00     0.074 A 
ATOM     50  C   UNL     1      -3.143  -9.350   8.723  1.00  0.00     0.029 A 
ATOM     51  N   UNL     1      -1.162  -9.967   9.468  1.00  0.00    -0.354 N 
ATOM     52  N   UNL     1       1.833  -7.193  11.098  1.00  0.00    -0.248 NA
ATOM     53  C   UNL     1       2.967  -8.647   9.666  1.00  0.00     0.031 C 
ATOM     54  C   UNL     1      -2.743  -8.499   9.796  1.00  0.00     0.029 A 
ATOM     55  C   UNL     1      -1.408  -8.776  10.101  1.00  0.00     0.049 A 
ATOM     56  H   UNL     1      -0.498 -10.641   9.741  1.00  0.00     0.167 HD
ATOM     57  C   UNL     1       0.944  -8.193  10.716  1.00  0.00     0.074 A 
ATOM     58  C   UNL     1       1.738  -9.117   9.907  1.00  0.00     0.031 C 
ATOM     59  C   UNL     1      -0.407  -8.023  10.833  1.00  0.00     0.034 A 
BRANCH  46  60
ATOM     60  C   UNL     1      -0.758 -11.821   6.966  1.00  0.00     0.023 A 
ATOM     61  C   UNL     1      -1.234 -12.864   7.785  1.00  0.00     0.012 A 
ATOM     62  C   UNL     1       0.445 -12.058   6.258  1.00  0.00     0.148 A 
ATOM     63  C   UNL     1      -0.524 -14.059   7.929  1.00  0.00     0.002 A 
ATOM     64  C   UNL     1       1.098 -13.279   6.333  1.00  0.00     0.091 A 
ATOM     65  F   UNL     1       1.062 -11.066   5.613  1.00  0.00    -0.205 F 
ATOM     66  C   UNL     1       0.637 -14.271   7.195  1.00  0.00     0.022 A 
BRANCH  64  67
ATOM     67  S   UNL     1       2.569 -13.611   5.356  1.00  0.00     0.127 S 
ATOM     68  O   UNL     1       3.616 -13.540   6.371  1.00  0.00    -0.237 OA
ATOM     69  O   UNL     1       2.289 -14.953   4.844  1.00  0.00    -0.237 OA
ATOM     70  O   UNL     1       2.600 -12.578   4.327  1.00  0.00    -0.744 OA
ENDBRANCH  64  67
ENDBRANCH  46  60
BRANCH  47  71
ATOM     71  C   UNL     1       5.050  -6.086   9.716  1.00  0.00     0.023 A 
ATOM     72  C   UNL     1       5.731  -6.522  10.869  1.00  0.00     0.012 A 
ATOM     73  C   UNL     1       5.799  -5.863   8.538  1.00  0.00     0.148 A 
ATOM     74  C   UNL     1       7.106  -6.778  10.839  1.00  0.00     0.002 A 
ATOM     75  C   UNL     1       7.166  -6.123   8.513  1.00  0.00     0.091 A 
ATOM     76  F   UNL     1       5.157  -5.490   7.423  1.00  0.00    -0.205 F 
ATOM     77  C   UNL     1       7.820  -6.593   9.659  1.00  0.00     0.022 A 
BRANCH  75  78
ATOM     78  S   UNL     1       8.151  -5.961   7.016  1.00  0.00     0.127 S 
ATOM     79  O   UNL     1       9.269  -5.138   7.480  1.00  0.00    -0.237 OA
ATOM     80  O   UNL     1       8.492  -7.351   6.729  1.00  0.00    -0.237 OA
ATOM     81  O   UNL     1       7.290  -5.308   6.039  1.00  0.00    -0.744 OA
ENDBRANCH  75  78
ENDBRANCH  47  71
BRANCH  59  82
ATOM     82  C   UNL     1      -0.910  -6.813  11.588  1.00  0.00     0.023 A 
ATOM     83  C   UNL     1      -0.677  -5.492  11.148  1.00  0.00     0.012 A 
ATOM     84  C   UNL     1      -1.798  -7.021  12.657  1.00  0.00     0.148 A 
ATOM     85  C   UNL     1      -1.302  -4.406  11.770  1.00  0.00     0.002 A 
ATOM     86  C   UNL     1      -2.456  -5.944  13.239  1.00  0.00     0.091 A 
ATOM     87  F   UNL     1      -2.011  -8.280  13.066  1.00  0.00    -0.205 F 
ATOM     88  C   UNL     1      -2.204  -4.633  12.806  1.00  0.00     0.022 A 
BRANCH  86  89
ATOM     89  S   UNL     1      -3.732  -6.189  14.477  1.00  0.00     0.127 S 
ATOM     90  O   UNL     1      -3.041  -5.809  15.707  1.00  0.00    -0.237 OA
ATOM     91  O   UNL     1      -4.774  -5.255  14.046  1.00  0.00    -0.237 OA
ATOM     92  O   UNL     1      -4.118  -7.592  14.380  1.00  0.00    -0.744 OA
ENDBRANCH  86  89
ENDBRANCH  59  82
ENDBRANCH  33  34
ENDBRANCH  26  28
ENDBRANCH  25  26
ENDBRANCH   1  25
TORSDOF 15
