REMARK SMILES O=C(OCCOC(=O)c1cccc(N[C@H]2CCCC[C@@H]2O)c1)c1ccc(-c2c3nc(c(-c4cccc(S(=O)(=O)[O-])c4F)c4ccc([nH]4)c(-c4cccc(S(=O)(=O)[O-])c4F)c4nc(c(-c5cccc(S(=O)(=O)[O-])c5F)c5ccc2[nH]5)C=C4)C=C3)cc1
REMARK SMILES IDX 4 1 3 2 2 3 1 4 23 5 24 6 85 7 25 8 84 9 26 10 27 11 28 12
REMARK SMILES IDX 78 13 29 14 83 15 77 16 79 17 30 18 82 19 76 20 75 21 31 23
REMARK SMILES IDX 63 24 43 25 62 26 44 27 47 28 61 29 80 30 45 31 46 32 60 34
REMARK SMILES IDX 81 35 48 36 32 37 33 38 41 39 34 40 36 41 42 42 35 43 37 44
REMARK SMILES IDX 38 45 39 46 40 47 64 48 65 49 73 50 66 51 68 52 74 53 67 54
REMARK SMILES IDX 69 55 70 56 71 57 72 58 49 59 50 60 58 61 51 62 53 63 59 64
REMARK SMILES IDX 52 65 54 66 55 67 56 68 57 69 5 70 6 71 7 72 8 73 9 74 10 75
REMARK SMILES IDX 22 76 11 77 13 78 12 79 14 80 15 82 16 83 20 84 17 85 19 86
REMARK SMILES IDX 18 87 21 88
REMARK H PARENT 79 22 47 33 14 81 21 89
REMARK Flexibility Score: inf
ROOT
ATOM      1  C   UNL     1       4.210   0.061  -1.592  1.00  0.00     0.275 C 
ENDROOT
BRANCH   1   2
ATOM      2  O   UNL     1       3.092  -0.586  -0.958  1.00  0.00    -0.458 OA
BRANCH   2   3
ATOM      3  C   UNL     1       2.931  -0.955   0.336  1.00  0.00     0.338 C 
ATOM      4  O   UNL     1       2.032  -1.747   0.616  1.00  0.00    -0.246 OA
BRANCH   3   5
ATOM      5  C   UNL     1       3.696  -0.343   1.467  1.00  0.00     0.060 A 
ATOM      6  C   UNL     1       5.033   0.055   1.422  1.00  0.00     0.016 A 
ATOM      7  C   UNL     1       3.003  -0.190   2.683  1.00  0.00     0.016 A 
ATOM      8  C   UNL     1       5.644   0.646   2.529  1.00  0.00     0.010 A 
ATOM      9  C   UNL     1       3.606   0.410   3.793  1.00  0.00     0.010 A 
ATOM     10  C   UNL     1       4.939   0.821   3.721  1.00  0.00    -0.014 A 
BRANCH  10  11
ATOM     11  C   UNL     1       5.672   1.285   4.918  1.00  0.00     0.031 A 
ATOM     12  C   UNL     1       6.121   0.263   5.921  1.00  0.00     0.074 A 
ATOM     13  C   UNL     1       6.006   2.581   5.058  1.00  0.00     0.049 A 
ATOM     14  N   UNL     1       6.877   0.420   6.974  1.00  0.00    -0.248 NA
ATOM     15  C   UNL     1       5.700  -1.129   5.683  1.00  0.00     0.031 C 
ATOM     16  C   UNL     1       5.667   3.646   4.116  1.00  0.00     0.029 A 
ATOM     17  N   UNL     1       6.689   3.225   6.056  1.00  0.00    -0.354 N 
ATOM     18  C   UNL     1       7.045  -0.851   7.507  1.00  0.00     0.074 A 
ATOM     19  C   UNL     1       6.274  -1.763   6.694  1.00  0.00     0.031 C 
ATOM     20  C   UNL     1       6.080   4.825   4.615  1.00  0.00     0.029 A 
ATOM     21  C   UNL     1       6.712   4.592   5.909  1.00  0.00     0.049 A 
ATOM     22  H   UNL     1       7.122   2.756   6.806  1.00  0.00     0.167 HD
ATOM     23  C   UNL     1       7.811  -1.226   8.557  1.00  0.00     0.034 A 
ATOM     24  C   UNL     1       7.163   5.544   6.746  1.00  0.00     0.034 A 
ATOM     25  C   UNL     1       8.550  -0.303   9.370  1.00  0.00     0.049 A 
ATOM     26  C   UNL     1       7.869   5.116   8.002  1.00  0.00     0.074 A 
ATOM     27  C   UNL     1       9.386  -0.568  10.438  1.00  0.00     0.029 A 
ATOM     28  N   UNL     1       8.512   1.077   9.220  1.00  0.00    -0.354 N 
ATOM     29  N   UNL     1       8.130   3.904   8.424  1.00  0.00    -0.248 NA
ATOM     30  C   UNL     1       8.395   6.183   8.864  1.00  0.00     0.031 C 
ATOM     31  C   UNL     1       9.830   0.655  10.954  1.00  0.00     0.029 A 
ATOM     32  C   UNL     1       9.292   1.680  10.189  1.00  0.00     0.049 A 
ATOM     33  H   UNL     1       8.004   1.555   8.526  1.00  0.00     0.167 HD
ATOM     34  C   UNL     1       8.911   4.056   9.561  1.00  0.00     0.074 A 
ATOM     35  C   UNL     1       9.063   5.483   9.771  1.00  0.00     0.031 C 
ATOM     36  C   UNL     1       9.466   3.102  10.348  1.00  0.00     0.034 A 
BRANCH  23  37
ATOM     37  C   UNL     1       7.900  -2.700   8.843  1.00  0.00     0.023 A 
ATOM     38  C   UNL     1       8.639  -3.530   7.974  1.00  0.00     0.012 A 
ATOM     39  C   UNL     1       7.252  -3.267   9.955  1.00  0.00     0.148 A 
ATOM     40  C   UNL     1       8.700  -4.907   8.184  1.00  0.00     0.002 A 
ATOM     41  C   UNL     1       7.346  -4.636  10.179  1.00  0.00     0.091 A 
ATOM     42  F   UNL     1       6.532  -2.467  10.753  1.00  0.00    -0.205 F 
ATOM     43  C   UNL     1       8.059  -5.458   9.290  1.00  0.00     0.022 A 
BRANCH  41  44
ATOM     44  S   UNL     1       6.600  -5.436  11.603  1.00  0.00     0.127 S 
ATOM     45  O   UNL     1       5.491  -6.162  10.987  1.00  0.00    -0.237 OA
ATOM     46  O   UNL     1       7.690  -6.284  12.086  1.00  0.00    -0.237 OA
ATOM     47  O   UNL     1       6.219  -4.363  12.511  1.00  0.00    -0.744 OA
ENDBRANCH  41  44
ENDBRANCH  23  37
BRANCH  24  48
ATOM     48  C   UNL     1       6.993   6.983   6.412  1.00  0.00     0.023 A 
ATOM     49  C   UNL     1       8.097   7.745   5.992  1.00  0.00     0.012 A 
ATOM     50  C   UNL     1       5.730   7.597   6.510  1.00  0.00     0.148 A 
ATOM     51  C   UNL     1       7.950   9.102   5.696  1.00  0.00     0.002 A 
ATOM     52  C   UNL     1       5.584   8.940   6.181  1.00  0.00     0.091 A 
ATOM     53  F   UNL     1       4.695   6.847   6.913  1.00  0.00    -0.205 F 
ATOM     54  C   UNL     1       6.695   9.698   5.786  1.00  0.00     0.022 A 
BRANCH  52  55
ATOM     55  S   UNL     1       3.991   9.767   6.192  1.00  0.00     0.127 S 
ATOM     56  O   UNL     1       4.204  10.823   7.178  1.00  0.00    -0.237 OA
ATOM     57  O   UNL     1       3.883  10.219   4.807  1.00  0.00    -0.237 OA
ATOM     58  O   UNL     1       3.030   8.742   6.575  1.00  0.00    -0.744 OA
ENDBRANCH  52  55
ENDBRANCH  24  48
BRANCH  36  59
ATOM     59  C   UNL     1      10.350   3.568  11.470  1.00  0.00     0.023 A 
ATOM     60  C   UNL     1       9.783   4.136  12.627  1.00  0.00     0.012 A 
ATOM     61  C   UNL     1      11.743   3.378  11.398  1.00  0.00     0.148 A 
ATOM     62  C   UNL     1      10.597   4.534  13.687  1.00  0.00     0.002 A 
ATOM     63  C   UNL     1      12.542   3.728  12.478  1.00  0.00     0.091 A 
ATOM     64  F   UNL     1      12.262   2.861  10.274  1.00  0.00    -0.205 F 
ATOM     65  C   UNL     1      11.973   4.318  13.618  1.00  0.00     0.022 A 
BRANCH  63  66
ATOM     66  S   UNL     1      14.305   3.389  12.509  1.00  0.00     0.127 S 
ATOM     67  O   UNL     1      14.868   4.714  12.262  1.00  0.00    -0.237 OA
ATOM     68  O   UNL     1      14.502   2.885  13.868  1.00  0.00    -0.237 OA
ATOM     69  O   UNL     1      14.538   2.401  11.463  1.00  0.00    -0.744 OA
ENDBRANCH  63  66
ENDBRANCH  36  59
ENDBRANCH  10  11
ENDBRANCH   3   5
ENDBRANCH   2   3
ENDBRANCH   1   2
BRANCH   1  70
ATOM     70  C   UNL     1       4.159   1.592  -1.599  1.00  0.00     0.275 C 
BRANCH  70  71
ATOM     71  O   UNL     1       3.663   2.151  -0.375  1.00  0.00    -0.458 OA
BRANCH  71  72
ATOM     72  C   UNL     1       2.333   2.422  -0.382  1.00  0.00     0.338 C 
ATOM     73  O   UNL     1       1.575   2.310  -1.334  1.00  0.00    -0.246 OA
BRANCH  72  74
ATOM     74  C   UNL     1       1.865   2.712   0.987  1.00  0.00     0.062 A 
ATOM     75  C   UNL     1       0.762   1.991   1.445  1.00  0.00     0.016 A 
ATOM     76  C   UNL     1       2.475   3.676   1.803  1.00  0.00     0.041 A 
ATOM     77  C   UNL     1       0.290   2.215   2.729  1.00  0.00     0.003 A 
ATOM     78  C   UNL     1       1.987   3.943   3.096  1.00  0.00     0.035 A 
ATOM     79  C   UNL     1       0.894   3.186   3.533  1.00  0.00     0.026 A 
BRANCH  78  80
ATOM     80  N   UNL     1       2.547   4.969   3.823  1.00  0.00    -0.380 N 
ATOM     81  H   UNL     1       3.409   5.297   3.479  1.00  0.00     0.160 HD
BRANCH  80  82
ATOM     82  C   UNL     1       2.060   5.659   5.038  1.00  0.00     0.107 C 
ATOM     83  C   UNL     1       0.683   6.289   4.789  1.00  0.00     0.027 C 
ATOM     84  C   UNL     1       2.116   4.794   6.324  1.00  0.00     0.136 C 
ATOM     85  C   UNL     1       0.091   6.951   6.029  1.00  0.00     0.002 C 
ATOM     86  C   UNL     1       1.530   5.534   7.527  1.00  0.00     0.034 C 
ATOM     87  C   UNL     1       0.121   6.031   7.243  1.00  0.00     0.003 C 
BRANCH  84  88
ATOM     88  O   UNL     1       3.447   4.402   6.655  1.00  0.00    -0.391 OA
ATOM     89  H   UNL     1       3.977   5.190   6.851  1.00  0.00     0.211 HD
ENDBRANCH  84  88
ENDBRANCH  80  82
ENDBRANCH  78  80
ENDBRANCH  72  74
ENDBRANCH  71  72
ENDBRANCH  70  71
ENDBRANCH   1  70
TORSDOF 17
