REMARK SMILES CCCCCCOC(=O)Nc1cccc(-c2ccc([C@@H](C)C(=O)OCCOC(=O)c3ccc(-c4c5nc(c(-c6cccc(S(=O)(=O)[O-])c6F)c6ccc([nH]6)c(-c6cccc(S(=O)(=O)[O-])c6F)c6nc(c(-c7cccc(S(=O)(=O)[O-])c7F)c7ccc4[nH]7)C=C6)C=C5)cc3)cc2F)c1
REMARK SMILES IDX 20 1 21 2 19 3 16 4 17 5 94 6 18 7 93 8 95 9 15 10 11 11
REMARK SMILES IDX 12 12 96 13 13 14 14 15 10 16 8 17 9 18 7 20 6 21 5 22 4 23
REMARK SMILES IDX 3 24 2 25 1 26 22 27 23 28 24 29 25 30 26 31 27 32 28 33
REMARK SMILES IDX 29 34 30 35 31 36 92 37 32 38 91 39 33 40 34 41 35 42 85 43
REMARK SMILES IDX 36 44 90 45 84 46 86 47 37 48 89 49 83 50 82 51 38 53 70 54
REMARK SMILES IDX 50 55 69 56 51 57 54 58 68 59 87 60 52 61 53 62 67 64 88 65
REMARK SMILES IDX 55 66 39 67 40 68 48 69 41 70 43 71 49 72 42 73 44 74 45 75
REMARK SMILES IDX 46 76 47 77 71 78 72 79 80 80 73 81 75 82 81 83 74 84 76 85
REMARK SMILES IDX 77 86 78 87 79 88 56 89 57 90 65 91 58 92 60 93 66 94 59 95
REMARK SMILES IDX 61 96 62 97 63 98 64 99
REMARK H PARENT 10 19 86 52 54 63
REMARK Flexibility Score: inf
ROOT
ATOM      1  C   UNL     1      -6.547   8.946   6.708  1.00  0.00     0.126 C 
ATOM      2  C   UNL     1      -7.152  10.344   6.816  1.00  0.00     0.025 C 
ENDROOT
BRANCH   1   3
ATOM      3  C   UNL     1      -5.405   8.892   5.705  1.00  0.00    -0.031 A 
ATOM      4  C   UNL     1      -3.224   8.841   3.879  1.00  0.00     0.018 A 
ATOM      5  C   UNL     1      -4.512   9.197   3.456  1.00  0.00     0.012 A 
ATOM      6  C   UNL     1      -3.058   8.492   5.226  1.00  0.00     0.131 A 
ATOM      7  C   UNL     1      -5.585   9.227   4.355  1.00  0.00     0.005 A 
ATOM      8  C   UNL     1      -4.122   8.517   6.128  1.00  0.00     0.044 A 
ATOM      9  F   UNL     1      -1.845   8.155   5.694  1.00  0.00    -0.206 F 
BRANCH   4  10
ATOM     10  C   UNL     1      -2.086   8.866   2.949  1.00  0.00    -0.013 A 
ATOM     11  C   UNL     1      -0.127   7.786   1.976  1.00  0.00     0.045 A 
ATOM     12  C   UNL     1       0.226   8.979   1.347  1.00  0.00     0.026 A 
ATOM     13  C   UNL     1      -1.279   7.733   2.767  1.00  0.00     0.035 A 
ATOM     14  C   UNL     1      -0.595  10.099   1.468  1.00  0.00     0.003 A 
ATOM     15  C   UNL     1      -1.739  10.043   2.266  1.00  0.00     0.009 A 
BRANCH  11  16
ATOM     16  N   UNL     1       0.752   6.699   1.879  1.00  0.00    -0.291 N 
ATOM     17  C   UNL     1       0.464   5.373   2.050  1.00  0.00     0.411 C 
ATOM     18  O   UNL     1       1.345   4.570   2.328  1.00  0.00    -0.224 OA
ATOM     19  H   UNL     1       1.688   6.916   1.664  1.00  0.00     0.173 HD
BRANCH  17  20
ATOM     20  O   UNL     1      -0.820   5.060   1.741  1.00  0.00    -0.449 OA
BRANCH  20  21
ATOM     21  C   UNL     1      -1.206   3.678   1.763  1.00  0.00     0.235 C 
BRANCH  21  22
ATOM     22  C   UNL     1      -0.936   2.983   0.424  1.00  0.00     0.042 C 
BRANCH  22  23
ATOM     23  C   UNL     1       0.531   2.638   0.135  1.00  0.00     0.003 C 
BRANCH  23  24
ATOM     24  C   UNL     1       1.193   1.709   1.161  1.00  0.00    -0.000 C 
BRANCH  24  25
ATOM     25  C   UNL     1       0.662   0.276   1.172  1.00  0.00    -0.003 C 
ATOM     26  C   UNL     1       1.034  -0.498  -0.082  1.00  0.00     0.004 C 
ENDBRANCH  24  25
ENDBRANCH  23  24
ENDBRANCH  22  23
ENDBRANCH  21  22
ENDBRANCH  20  21
ENDBRANCH  17  20
ENDBRANCH  11  16
ENDBRANCH   4  10
ENDBRANCH   1   3
BRANCH   1  27
ATOM     27  C   UNL     1      -7.652   7.910   6.532  1.00  0.00     0.313 C 
ATOM     28  O   UNL     1      -8.373   7.564   7.463  1.00  0.00    -0.252 OA
BRANCH  27  29
ATOM     29  O   UNL     1      -7.781   7.454   5.259  1.00  0.00    -0.462 OA
BRANCH  29  30
ATOM     30  C   UNL     1      -8.750   6.411   5.039  1.00  0.00     0.274 C 
BRANCH  30  31
ATOM     31  C   UNL     1      -8.073   5.045   4.912  1.00  0.00     0.275 C 
BRANCH  31  32
ATOM     32  O   UNL     1      -7.496   4.628   6.162  1.00  0.00    -0.458 OA
BRANCH  32  33
ATOM     33  C   UNL     1      -6.177   4.896   6.299  1.00  0.00     0.338 C 
ATOM     34  O   UNL     1      -5.436   5.400   5.472  1.00  0.00    -0.246 OA
BRANCH  33  35
ATOM     35  C   UNL     1      -5.747   4.604   7.674  1.00  0.00     0.060 A 
ATOM     36  C   UNL     1      -5.423   5.683   8.497  1.00  0.00     0.016 A 
ATOM     37  C   UNL     1      -5.557   3.296   8.115  1.00  0.00     0.016 A 
ATOM     38  C   UNL     1      -4.871   5.467   9.754  1.00  0.00     0.010 A 
ATOM     39  C   UNL     1      -5.024   3.077   9.391  1.00  0.00     0.010 A 
ATOM     40  C   UNL     1      -4.655   4.161  10.209  1.00  0.00    -0.014 A 
BRANCH  40  41
ATOM     41  C   UNL     1      -4.002   3.948  11.525  1.00  0.00     0.031 A 
ATOM     42  C   UNL     1      -2.607   3.389  11.592  1.00  0.00     0.074 A 
ATOM     43  C   UNL     1      -4.656   4.276  12.655  1.00  0.00     0.049 A 
ATOM     44  N   UNL     1      -1.887   3.093  12.642  1.00  0.00    -0.248 NA
ATOM     45  C   UNL     1      -1.935   3.124  10.309  1.00  0.00     0.031 C 
ATOM     46  C   UNL     1      -6.007   4.837  12.716  1.00  0.00     0.029 A 
ATOM     47  N   UNL     1      -4.277   4.176  13.970  1.00  0.00    -0.354 N 
ATOM     48  C   UNL     1      -0.696   2.569  12.153  1.00  0.00     0.074 A 
ATOM     49  C   UNL     1      -0.793   2.581  10.709  1.00  0.00     0.031 C 
ATOM     50  C   UNL     1      -6.347   5.024  14.001  1.00  0.00     0.029 A 
ATOM     51  C   UNL     1      -5.258   4.559  14.855  1.00  0.00     0.049 A 
ATOM     52  H   UNL     1      -3.389   3.860  14.254  1.00  0.00     0.167 HD
ATOM     53  C   UNL     1       0.384   2.131  12.843  1.00  0.00     0.034 A 
ATOM     54  C   UNL     1      -5.287   4.516  16.201  1.00  0.00     0.034 A 
ATOM     55  C   UNL     1       0.489   2.157  14.278  1.00  0.00     0.049 A 
ATOM     56  C   UNL     1      -4.076   4.016  16.940  1.00  0.00     0.074 A 
ATOM     57  C   UNL     1       1.558   1.773  15.069  1.00  0.00     0.029 A 
ATOM     58  N   UNL     1      -0.509   2.589  15.138  1.00  0.00    -0.354 N 
ATOM     59  N   UNL     1      -2.925   3.609  16.461  1.00  0.00    -0.248 NA
ATOM     60  C   UNL     1      -4.156   3.995  18.408  1.00  0.00     0.031 C 
ATOM     61  C   UNL     1       1.196   1.950  16.409  1.00  0.00     0.029 A 
ATOM     62  C   UNL     1      -0.086   2.473  16.452  1.00  0.00     0.049 A 
ATOM     63  H   UNL     1      -1.389   2.928  14.856  1.00  0.00     0.167 HD
ATOM     64  C   UNL     1      -2.134   3.316  17.566  1.00  0.00     0.074 A 
ATOM     65  C   UNL     1      -2.929   3.616  18.739  1.00  0.00     0.031 C 
ATOM     66  C   UNL     1      -0.870   2.827  17.608  1.00  0.00     0.034 A 
BRANCH  53  67
ATOM     67  C   UNL     1       1.555   1.605  12.053  1.00  0.00     0.023 A 
ATOM     68  C   UNL     1       2.378   2.500  11.340  1.00  0.00     0.012 A 
ATOM     69  C   UNL     1       1.876   0.233  12.066  1.00  0.00     0.148 A 
ATOM     70  C   UNL     1       3.483   2.035  10.627  1.00  0.00     0.002 A 
ATOM     71  C   UNL     1       3.004  -0.218  11.390  1.00  0.00     0.091 A 
ATOM     72  F   UNL     1       1.071  -0.606  12.733  1.00  0.00    -0.205 F 
ATOM     73  C   UNL     1       3.801   0.680  10.661  1.00  0.00     0.022 A 
BRANCH  71  74
ATOM     74  S   UNL     1       3.544  -1.931  11.437  1.00  0.00     0.127 S 
ATOM     75  O   UNL     1       3.263  -2.367  10.070  1.00  0.00    -0.237 OA
ATOM     76  O   UNL     1       4.966  -1.797  11.754  1.00  0.00    -0.237 OA
ATOM     77  O   UNL     1       2.749  -2.575  12.473  1.00  0.00    -0.744 OA
ENDBRANCH  71  74
ENDBRANCH  53  67
BRANCH  54  78
ATOM     78  C   UNL     1      -6.493   4.989  16.938  1.00  0.00     0.023 A 
ATOM     79  C   UNL     1      -6.417   6.159  17.718  1.00  0.00     0.012 A 
ATOM     80  C   UNL     1      -7.718   4.297  16.857  1.00  0.00     0.148 A 
ATOM     81  C   UNL     1      -7.529   6.613  18.429  1.00  0.00     0.002 A 
ATOM     82  C   UNL     1      -8.836   4.787  17.520  1.00  0.00     0.091 A 
ATOM     83  F   UNL     1      -7.766   3.175  16.125  1.00  0.00    -0.205 F 
ATOM     84  C   UNL     1      -8.739   5.935  18.322  1.00  0.00     0.022 A 
BRANCH  82  85
ATOM     85  S   UNL     1     -10.464   4.051  17.331  1.00  0.00     0.127 S 
ATOM     86  O   UNL     1     -10.653   3.408  18.628  1.00  0.00    -0.237 OA
ATOM     87  O   UNL     1     -11.303   5.228  17.099  1.00  0.00    -0.237 OA
ATOM     88  O   UNL     1     -10.359   3.156  16.187  1.00  0.00    -0.744 OA
ENDBRANCH  82  85
ENDBRANCH  54  78
BRANCH  66  89
ATOM     89  C   UNL     1      -0.249   2.620  18.965  1.00  0.00     0.023 A 
ATOM     90  C   UNL     1      -0.692   1.564  19.786  1.00  0.00     0.012 A 
ATOM     91  C   UNL     1       0.815   3.435  19.401  1.00  0.00     0.148 A 
ATOM     92  C   UNL     1      -0.112   1.346  21.035  1.00  0.00     0.002 A 
ATOM     93  C   UNL     1       1.421   3.181  20.625  1.00  0.00     0.091 A 
ATOM     94  F   UNL     1       1.210   4.447  18.615  1.00  0.00    -0.205 F 
ATOM     95  C   UNL     1       0.950   2.146  21.449  1.00  0.00     0.022 A 
BRANCH  93  96
ATOM     96  S   UNL     1       2.856   4.099  21.196  1.00  0.00     0.127 S 
ATOM     97  O   UNL     1       2.274   4.944  22.237  1.00  0.00    -0.237 OA
ATOM     98  O   UNL     1       3.729   3.034  21.692  1.00  0.00    -0.237 OA
ATOM     99  O   UNL     1       3.369   4.804  20.030  1.00  0.00    -0.744 OA
ENDBRANCH  93  96
ENDBRANCH  66  89
ENDBRANCH  40  41
ENDBRANCH  33  35
ENDBRANCH  32  33
ENDBRANCH  31  32
ENDBRANCH  30  31
ENDBRANCH  29  30
ENDBRANCH  27  29
ENDBRANCH   1  27
TORSDOF 23
