REMARK SMILES C[NH+]1CCC(C(=O)N2C[C@@H](C(=O)OCCOC(=O)c3ccc(-c4c5nc(c(-c6cccc(S(=O)(=O)[O-])c6F)c6ccc([nH]6)c(-c6cccc(S(=O)(=O)[O-])c6F)c6nc(c(-c7cccc(S(=O)(=O)[O-])c7F)c7ccc4[nH]7)C=C6)C=C5)cc3)[C@H](c3ccc4c(c3)OCO4)C2)CC1
REMARK SMILES IDX 15 1 14 2 13 3 11 4 12 5 10 6 8 7 9 8 92 9 82 10 6 11 7 12
REMARK SMILES IDX 5 13 1 14 2 15 3 16 94 17 4 19 93 20 83 21 84 22 88 23 85 24
REMARK SMILES IDX 87 25 86 26 89 27 91 28 90 29 16 30 17 31 18 32 19 33 20 34
REMARK SMILES IDX 81 35 21 36 80 37 22 38 23 39 24 40 74 41 25 42 79 43 73 44
REMARK SMILES IDX 75 45 26 46 78 47 72 48 71 49 27 51 59 52 39 53 58 54 40 55
REMARK SMILES IDX 43 56 57 57 76 58 41 59 42 60 56 62 77 63 44 64 28 65 29 66
REMARK SMILES IDX 37 67 30 68 32 69 38 70 31 71 33 72 34 73 35 74 36 75 60 76
REMARK SMILES IDX 61 77 69 78 62 79 64 80 70 81 63 82 65 83 66 84 67 85 68 86
REMARK SMILES IDX 45 87 46 88 54 89 47 90 49 91 55 92 48 93 50 94 51 95 52 96
REMARK SMILES IDX 53 97
REMARK H PARENT 2 18 75 50 43 61
REMARK Flexibility Score: inf
ROOT
ATOM      1  C   UNL     1       1.612  -2.608   7.165  1.00  0.00     0.275 C 
ENDROOT
BRANCH   1   2
ATOM      2  C   UNL     1       2.564  -1.416   7.179  1.00  0.00     0.274 C 
BRANCH   2   3
ATOM      3  O   UNL     1       2.415  -0.623   5.985  1.00  0.00    -0.462 OA
BRANCH   3   4
ATOM      4  C   UNL     1       3.438  -0.678   5.086  1.00  0.00     0.311 C 
ATOM      5  O   UNL     1       4.410  -1.409   5.171  1.00  0.00    -0.252 OA
BRANCH   4   6
ATOM      6  C   UNL     1       3.244   0.348   3.996  1.00  0.00     0.128 C 
ATOM      7  N   UNL     1       3.462   0.651   1.686  1.00  0.00    -0.341 N 
ATOM      8  C   UNL     1       2.931  -0.269   2.660  1.00  0.00     0.135 C 
ATOM      9  C   UNL     1       4.581   1.398   2.249  1.00  0.00     0.128 C 
ATOM     10  C   UNL     1       4.531   1.181   3.774  1.00  0.00     0.055 C 
BRANCH   7  11
ATOM     11  C   UNL     1       3.231   0.636   0.327  1.00  0.00     0.226 C 
ATOM     12  O   UNL     1       4.075   1.091  -0.452  1.00  0.00    -0.275 OA
BRANCH  11  13
ATOM     13  C   UNL     1       1.836   0.289  -0.211  1.00  0.00     0.090 C 
ATOM     14  C   UNL     1      -2.433  -0.226  -0.298  1.00  0.00     0.332 C 
ATOM     15  N   UNL     1      -1.032  -0.098   0.105  1.00  0.00    -0.337 N 
ATOM     16  C   UNL     1      -0.512   1.212  -0.298  1.00  0.00     0.262 C 
ATOM     17  C   UNL     1      -0.217  -1.180  -0.474  1.00  0.00     0.262 C 
ATOM     18  H   UNL     1      -0.979  -0.174   1.121  1.00  0.00     0.347 HD
ATOM     19  C   UNL     1       0.887   1.397   0.262  1.00  0.00     0.075 C 
ATOM     20  C   UNL     1       1.243  -1.107   0.008  1.00  0.00     0.075 C 
ENDBRANCH  11  13
ENDBRANCH   7  11
BRANCH  10  21
ATOM     21  C   UNL     1       4.408   2.363   4.729  1.00  0.00    -0.038 A 
ATOM     22  C   UNL     1       3.814   3.588   4.354  1.00  0.00     0.008 A 
ATOM     23  C   UNL     1       4.621   2.090   6.098  1.00  0.00     0.054 A 
ATOM     24  C   UNL     1       3.342   4.480   5.326  1.00  0.00     0.051 A 
ATOM     25  C   UNL     1       4.076   2.948   7.024  1.00  0.00     0.166 A 
ATOM     26  C   UNL     1       3.440   4.105   6.647  1.00  0.00     0.165 A 
ATOM     27  O   UNL     1       3.995   2.718   8.362  1.00  0.00    -0.454 OA
ATOM     28  O   UNL     1       2.885   4.751   7.709  1.00  0.00    -0.454 OA
ATOM     29  C   UNL     1       3.071   3.757   8.740  1.00  0.00     0.468 C 
ENDBRANCH  10  21
ENDBRANCH   4   6
ENDBRANCH   3   4
ENDBRANCH   2   3
ENDBRANCH   1   2
BRANCH   1  30
ATOM     30  O   UNL     1       1.996  -3.529   6.132  1.00  0.00    -0.458 OA
BRANCH  30  31
ATOM     31  C   UNL     1       1.194  -3.565   5.054  1.00  0.00     0.338 C 
ATOM     32  O   UNL     1       0.136  -2.946   4.887  1.00  0.00    -0.246 OA
BRANCH  31  33
ATOM     33  C   UNL     1       1.803  -4.374   3.999  1.00  0.00     0.060 A 
ATOM     34  C   UNL     1       2.837  -3.808   3.260  1.00  0.00     0.016 A 
ATOM     35  C   UNL     1       1.271  -5.603   3.627  1.00  0.00     0.016 A 
ATOM     36  C   UNL     1       3.261  -4.393   2.074  1.00  0.00     0.010 A 
ATOM     37  C   UNL     1       1.783  -6.253   2.497  1.00  0.00     0.010 A 
ATOM     38  C   UNL     1       2.747  -5.632   1.678  1.00  0.00    -0.014 A 
BRANCH  38  39
ATOM     39  C   UNL     1       3.182  -6.254   0.394  1.00  0.00     0.031 A 
ATOM     40  C   UNL     1       2.155  -6.622  -0.648  1.00  0.00     0.074 A 
ATOM     41  C   UNL     1       4.487  -6.500   0.157  1.00  0.00     0.049 A 
ATOM     42  N   UNL     1       2.300  -7.340  -1.731  1.00  0.00    -0.248 NA
ATOM     43  C   UNL     1       0.780  -6.138  -0.434  1.00  0.00     0.031 C 
ATOM     44  C   UNL     1       5.592  -6.179   1.062  1.00  0.00     0.029 A 
ATOM     45  N   UNL     1       5.107  -7.089  -0.919  1.00  0.00    -0.354 N 
ATOM     46  C   UNL     1       1.026  -7.482  -2.268  1.00  0.00     0.074 A 
ATOM     47  C   UNL     1       0.121  -6.748  -1.410  1.00  0.00     0.031 C 
ATOM     48  C   UNL     1       6.751  -6.549   0.497  1.00  0.00     0.029 A 
ATOM     49  C   UNL     1       6.471  -7.209  -0.772  1.00  0.00     0.049 A 
ATOM     50  H   UNL     1       4.622  -7.396  -1.719  1.00  0.00     0.167 HD
ATOM     51  C   UNL     1       0.646  -8.160  -3.375  1.00  0.00     0.034 A 
ATOM     52  C   UNL     1       7.391  -7.816  -1.548  1.00  0.00     0.034 A 
ATOM     53  C   UNL     1       1.559  -8.790  -4.290  1.00  0.00     0.049 A 
ATOM     54  C   UNL     1       6.944  -8.508  -2.806  1.00  0.00     0.074 A 
ATOM     55  C   UNL     1       1.271  -9.444  -5.476  1.00  0.00     0.029 A 
ATOM     56  N   UNL     1       2.935  -8.821  -4.139  1.00  0.00    -0.354 N 
ATOM     57  N   UNL     1       5.740  -8.591  -3.318  1.00  0.00    -0.248 NA
ATOM     58  C   UNL     1       7.982  -9.184  -3.597  1.00  0.00     0.031 C 
ATOM     59  C   UNL     1       2.477  -9.872  -6.042  1.00  0.00     0.029 A 
ATOM     60  C   UNL     1       3.513  -9.478  -5.211  1.00  0.00     0.049 A 
ATOM     61  H   UNL     1       3.429  -8.433  -3.381  1.00  0.00     0.167 HD
ATOM     62  C   UNL     1       5.880  -9.308  -4.500  1.00  0.00     0.074 A 
ATOM     63  C   UNL     1       7.289  -9.611  -4.644  1.00  0.00     0.031 C 
ATOM     64  C   UNL     1       4.924  -9.706  -5.374  1.00  0.00     0.034 A 
BRANCH  51  65
ATOM     65  C   UNL     1      -0.824  -8.244  -3.686  1.00  0.00     0.023 A 
ATOM     66  C   UNL     1      -1.485  -7.142  -4.261  1.00  0.00     0.012 A 
ATOM     67  C   UNL     1      -1.527  -9.449  -3.487  1.00  0.00     0.148 A 
ATOM     68  C   UNL     1      -2.831  -7.232  -4.617  1.00  0.00     0.002 A 
ATOM     69  C   UNL     1      -2.857  -9.543  -3.879  1.00  0.00     0.091 A 
ATOM     70  F   UNL     1      -0.884 -10.478  -2.916  1.00  0.00    -0.205 F 
ATOM     71  C   UNL     1      -3.512  -8.434  -4.438  1.00  0.00     0.022 A 
BRANCH  69  72
ATOM     72  S   UNL     1      -3.796 -11.071  -3.756  1.00  0.00     0.127 S 
ATOM     73  O   UNL     1      -4.698 -10.774  -2.644  1.00  0.00    -0.237 OA
ATOM     74  O   UNL     1      -4.444 -11.142  -5.066  1.00  0.00    -0.237 OA
ATOM     75  O   UNL     1      -2.819 -12.122  -3.506  1.00  0.00    -0.744 OA
ENDBRANCH  69  72
ENDBRANCH  51  65
BRANCH  52  76
ATOM     76  C   UNL     1       8.832  -7.779  -1.167  1.00  0.00     0.023 A 
ATOM     77  C   UNL     1       9.736  -7.041  -1.955  1.00  0.00     0.012 A 
ATOM     78  C   UNL     1       9.310  -8.442  -0.020  1.00  0.00     0.148 A 
ATOM     79  C   UNL     1      11.090  -6.982  -1.621  1.00  0.00     0.002 A 
ATOM     80  C   UNL     1      10.648  -8.328   0.342  1.00  0.00     0.091 A 
ATOM     81  F   UNL     1       8.448  -9.168   0.707  1.00  0.00    -0.205 F 
ATOM     82  C   UNL     1      11.544  -7.613  -0.465  1.00  0.00     0.022 A 
BRANCH  80  83
ATOM     83  S   UNL     1      11.249  -8.990   1.900  1.00  0.00     0.127 S 
ATOM     84  O   UNL     1      11.728 -10.311   1.505  1.00  0.00    -0.237 OA
ATOM     85  O   UNL     1      12.301  -8.039   2.265  1.00  0.00    -0.237 OA
ATOM     86  O   UNL     1      10.092  -8.959   2.787  1.00  0.00    -0.744 OA
ENDBRANCH  80  83
ENDBRANCH  52  76
BRANCH  64  87
ATOM     87  C   UNL     1       5.366 -10.483  -6.583  1.00  0.00     0.023 A 
ATOM     88  C   UNL     1       5.717 -11.840  -6.444  1.00  0.00     0.012 A 
ATOM     89  C   UNL     1       5.360  -9.895  -7.862  1.00  0.00     0.148 A 
ATOM     90  C   UNL     1       6.079 -12.595  -7.559  1.00  0.00     0.002 A 
ATOM     91  C   UNL     1       5.683 -10.664  -8.974  1.00  0.00     0.091 A 
ATOM     92  F   UNL     1       5.046  -8.595  -7.970  1.00  0.00    -0.205 F 
ATOM     93  C   UNL     1       6.050 -12.011  -8.824  1.00  0.00     0.022 A 
BRANCH  91  94
ATOM     94  S   UNL     1       5.583 -10.007 -10.643  1.00  0.00     0.127 S 
ATOM     95  O   UNL     1       6.982  -9.692 -10.925  1.00  0.00    -0.237 OA
ATOM     96  O   UNL     1       5.050 -11.142 -11.399  1.00  0.00    -0.237 OA
ATOM     97  O   UNL     1       4.681  -8.866 -10.563  1.00  0.00    -0.744 OA
ENDBRANCH  91  94
ENDBRANCH  64  87
ENDBRANCH  38  39
ENDBRANCH  31  33
ENDBRANCH  30  31
ENDBRANCH   1  30
TORSDOF 17
