REMARK SMILES CCc1nsc(NC[C@H](CC(C)C)C(=O)OCCOC(=O)c2ccc(-c3c4nc(c(-c5cccc(S(=O)(=O)[O-])c5F)c5ccc([nH]5)c(-c5cccc(S(=O)(=O)[O-])c5F)c5nc(c(-c6cccc(S(=O)(=O)[O-])c6F)c6ccc3[nH]6)C=C5)C=C4)cc2)n1
REMARK SMILES IDX 17 1 16 2 14 3 15 4 9 5 8 6 7 7 6 9 3 10 4 11 85 12 5 13
REMARK SMILES IDX 2 14 1 15 10 16 11 17 12 18 13 19 18 20 19 21 20 22 21 23
REMARK SMILES IDX 22 24 23 25 84 26 24 27 83 28 25 29 26 30 27 31 77 32 28 33
REMARK SMILES IDX 82 34 76 35 78 36 29 37 81 38 75 39 74 40 30 42 62 43 42 44
REMARK SMILES IDX 61 45 43 46 46 47 60 48 79 49 44 50 45 51 59 53 80 54 47 55
REMARK SMILES IDX 31 56 32 57 40 58 33 59 35 60 41 61 34 62 36 63 37 64 38 65
REMARK SMILES IDX 39 66 63 67 64 68 72 69 65 70 67 71 73 72 66 73 68 74 69 75
REMARK SMILES IDX 70 76 71 77 48 78 49 79 57 80 50 81 52 82 58 83 51 84 53 85
REMARK SMILES IDX 54 86 55 87 56 88
REMARK H PARENT 7 8 78 41 46 52
REMARK Flexibility Score: inf
ROOT
ATOM      1  C   UNL     1       2.841   5.037   9.407  1.00  0.00     0.274 C 
ENDROOT
BRANCH   1   2
ATOM      2  O   UNL     1       2.134   4.514   8.265  1.00  0.00    -0.462 OA
BRANCH   2   3
ATOM      3  C   UNL     1       2.728   4.696   7.059  1.00  0.00     0.310 C 
ATOM      4  O   UNL     1       3.780   5.302   6.891  1.00  0.00    -0.252 OA
BRANCH   3   5
ATOM      5  C   UNL     1       1.939   4.116   5.895  1.00  0.00     0.118 C 
BRANCH   5   6
ATOM      6  C   UNL     1       1.577   5.306   4.985  1.00  0.00     0.130 C 
BRANCH   6   7
ATOM      7  N   UNL     1       2.640   5.552   4.028  1.00  0.00    -0.359 N 
ATOM      8  H   UNL     1       3.562   5.564   4.374  1.00  0.00     0.162 HD
BRANCH   7   9
ATOM      9  C   UNL     1       2.475   5.766   2.705  1.00  0.00     0.202 A 
ATOM     10  C   UNL     1       2.998   6.282   0.621  1.00  0.00     0.144 A 
ATOM     11  N   UNL     1       1.714   6.035   0.352  1.00  0.00    -0.174 NA
ATOM     12  N   UNL     1       3.460   6.154   1.925  1.00  0.00    -0.204 NA
ATOM     13  S   UNL     1       1.015   5.581   1.793  1.00  0.00     0.004 S 
BRANCH  10  14
ATOM     14  C   UNL     1       3.920   6.734  -0.460  1.00  0.00     0.075 C 
ATOM     15  C   UNL     1       5.116   5.814  -0.640  1.00  0.00     0.012 C 
ENDBRANCH  10  14
ENDBRANCH   7   9
ENDBRANCH   6   7
ENDBRANCH   5   6
BRANCH   5  16
ATOM     16  C   UNL     1       0.678   3.308   6.277  1.00  0.00     0.020 C 
BRANCH  16  17
ATOM     17  C   UNL     1       0.998   1.868   6.750  1.00  0.00    -0.017 C 
ATOM     18  C   UNL     1       0.539   1.630   8.189  1.00  0.00     0.007 C 
ATOM     19  C   UNL     1       0.318   0.840   5.837  1.00  0.00     0.007 C 
ENDBRANCH  16  17
ENDBRANCH   5  16
ENDBRANCH   3   5
ENDBRANCH   2   3
ENDBRANCH   1   2
BRANCH   1  20
ATOM     20  C   UNL     1       3.699   3.963  10.073  1.00  0.00     0.275 C 
BRANCH  20  21
ATOM     21  O   UNL     1       4.709   3.488   9.168  1.00  0.00    -0.458 OA
BRANCH  21  22
ATOM     22  C   UNL     1       4.550   2.225   8.723  1.00  0.00     0.338 C 
ATOM     23  O   UNL     1       3.661   1.434   9.021  1.00  0.00    -0.246 OA
BRANCH  22  24
ATOM     24  C   UNL     1       5.631   1.888   7.795  1.00  0.00     0.060 A 
ATOM     25  C   UNL     1       5.566   2.304   6.463  1.00  0.00     0.016 A 
ATOM     26  C   UNL     1       6.672   1.073   8.241  1.00  0.00     0.016 A 
ATOM     27  C   UNL     1       6.539   1.883   5.559  1.00  0.00     0.010 A 
ATOM     28  C   UNL     1       7.665   0.683   7.343  1.00  0.00     0.010 A 
ATOM     29  C   UNL     1       7.597   1.071   5.994  1.00  0.00    -0.014 A 
BRANCH  29  30
ATOM     30  C   UNL     1       8.662   0.643   5.059  1.00  0.00     0.031 A 
ATOM     31  C   UNL     1       8.771  -0.795   4.643  1.00  0.00     0.074 A 
ATOM     32  C   UNL     1       9.575   1.545   4.654  1.00  0.00     0.049 A 
ATOM     33  N   UNL     1       9.712  -1.383   3.953  1.00  0.00    -0.248 NA
ATOM     34  C   UNL     1       7.683  -1.692   5.066  1.00  0.00     0.031 C 
ATOM     35  C   UNL     1       9.569   2.964   5.012  1.00  0.00     0.029 A 
ATOM     36  N   UNL     1      10.700   1.397   3.884  1.00  0.00    -0.354 N 
ATOM     37  C   UNL     1       9.354  -2.724   3.888  1.00  0.00     0.074 A 
ATOM     38  C   UNL     1       8.106  -2.864   4.608  1.00  0.00     0.031 C 
ATOM     39  C   UNL     1      10.652   3.553   4.482  1.00  0.00     0.029 A 
ATOM     40  C   UNL     1      11.445   2.548   3.781  1.00  0.00     0.049 A 
ATOM     41  H   UNL     1      10.949   0.550   3.448  1.00  0.00     0.167 HD
ATOM     42  C   UNL     1      10.002  -3.740   3.271  1.00  0.00     0.034 A 
ATOM     43  C   UNL     1      12.646   2.763   3.212  1.00  0.00     0.034 A 
ATOM     44  C   UNL     1      11.224  -3.583   2.527  1.00  0.00     0.049 A 
ATOM     45  C   UNL     1      13.341   1.619   2.531  1.00  0.00     0.074 A 
ATOM     46  C   UNL     1      11.936  -4.541   1.827  1.00  0.00     0.029 A 
ATOM     47  N   UNL     1      11.915  -2.389   2.387  1.00  0.00    -0.354 N 
ATOM     48  N   UNL     1      12.942   0.377   2.396  1.00  0.00    -0.248 NA
ATOM     49  C   UNL     1      14.639   1.906   1.905  1.00  0.00     0.031 C 
ATOM     50  C   UNL     1      13.060  -3.925   1.265  1.00  0.00     0.029 A 
ATOM     51  C   UNL     1      13.047  -2.584   1.615  1.00  0.00     0.049 A 
ATOM     52  H   UNL     1      11.640  -1.528   2.779  1.00  0.00     0.167 HD
ATOM     53  C   UNL     1      13.930  -0.263   1.658  1.00  0.00     0.074 A 
ATOM     54  C   UNL     1      14.935   0.736   1.352  1.00  0.00     0.031 C 
ATOM     55  C   UNL     1      14.010  -1.564   1.286  1.00  0.00     0.034 A 
BRANCH  42  56
ATOM     56  C   UNL     1       9.377  -5.108   3.330  1.00  0.00     0.023 A 
ATOM     57  C   UNL     1       8.285  -5.402   2.489  1.00  0.00     0.012 A 
ATOM     58  C   UNL     1       9.899  -6.116   4.163  1.00  0.00     0.148 A 
ATOM     59  C   UNL     1       7.712  -6.673   2.488  1.00  0.00     0.002 A 
ATOM     60  C   UNL     1       9.341  -7.390   4.135  1.00  0.00     0.091 A 
ATOM     61  F   UNL     1      10.919  -5.810   4.979  1.00  0.00    -0.205 F 
ATOM     62  C   UNL     1       8.245  -7.669   3.302  1.00  0.00     0.022 A 
BRANCH  60  63
ATOM     63  S   UNL     1      10.002  -8.749   5.108  1.00  0.00     0.127 S 
ATOM     64  O   UNL     1       9.057  -8.803   6.222  1.00  0.00    -0.237 OA
ATOM     65  O   UNL     1       9.911  -9.876   4.178  1.00  0.00    -0.237 OA
ATOM     66  O   UNL     1      11.363  -8.362   5.451  1.00  0.00    -0.744 OA
ENDBRANCH  60  63
ENDBRANCH  42  56
BRANCH  43  67
ATOM     67  C   UNL     1      13.225   4.134   3.226  1.00  0.00     0.023 A 
ATOM     68  C   UNL     1      13.246   4.883   2.035  1.00  0.00     0.012 A 
ATOM     69  C   UNL     1      13.670   4.732   4.421  1.00  0.00     0.148 A 
ATOM     70  C   UNL     1      13.707   6.200   2.032  1.00  0.00     0.002 A 
ATOM     71  C   UNL     1      14.076   6.063   4.422  1.00  0.00     0.091 A 
ATOM     72  F   UNL     1      13.668   3.998   5.543  1.00  0.00    -0.205 F 
ATOM     73  C   UNL     1      14.105   6.795   3.226  1.00  0.00     0.022 A 
BRANCH  71  74
ATOM     74  S   UNL     1      14.455   6.929   5.950  1.00  0.00     0.127 S 
ATOM     75  O   UNL     1      15.910   6.827   6.003  1.00  0.00    -0.237 OA
ATOM     76  O   UNL     1      13.942   8.275   5.685  1.00  0.00    -0.237 OA
ATOM     77  O   UNL     1      13.721   6.210   6.984  1.00  0.00    -0.744 OA
ENDBRANCH  71  74
ENDBRANCH  43  67
BRANCH  55  78
ATOM     78  C   UNL     1      15.227  -1.983   0.508  1.00  0.00     0.023 A 
ATOM     79  C   UNL     1      16.441  -2.186   1.192  1.00  0.00     0.012 A 
ATOM     80  C   UNL     1      15.155  -2.239  -0.874  1.00  0.00     0.148 A 
ATOM     81  C   UNL     1      17.575  -2.618   0.506  1.00  0.00     0.002 A 
ATOM     82  C   UNL     1      16.282  -2.703  -1.545  1.00  0.00     0.091 A 
ATOM     83  F   UNL     1      13.996  -2.016  -1.510  1.00  0.00    -0.205 F 
ATOM     84  C   UNL     1      17.493  -2.887  -0.859  1.00  0.00     0.022 A 
BRANCH  82  85
ATOM     85  S   UNL     1      16.233  -3.143  -3.286  1.00  0.00     0.127 S 
ATOM     86  O   UNL     1      16.787  -1.944  -3.913  1.00  0.00    -0.237 OA
ATOM     87  O   UNL     1      17.104  -4.318  -3.342  1.00  0.00    -0.237 OA
ATOM     88  O   UNL     1      14.834  -3.423  -3.580  1.00  0.00    -0.744 OA
ENDBRANCH  82  85
ENDBRANCH  55  78
ENDBRANCH  29  30
ENDBRANCH  22  24
ENDBRANCH  21  22
ENDBRANCH  20  21
ENDBRANCH   1  20
TORSDOF 20
