REMARK SMILES CC(C)C[C@H](C(=O)OCCOC(=O)c1ccc(-c2c3nc(c(-c4cccc(S(=O)(=O)[O-])c4F)c4ccc([nH]4)c(-c4cccc(S(=O)(=O)[O-])c4F)c4nc(c(-c5cccc(S(=O)(=O)[O-])c5F)c5ccc2[nH]5)C=C4)C=C3)cc1)[C@@H]1CCO[C@]2(CCOC2)C1
REMARK SMILES IDX 10 1 9 2 8 3 6 4 7 5 5 6 4 7 2 8 1 9 3 10 77 11 78 12 86 13
REMARK SMILES IDX 79 14 81 15 80 16 82 17 85 18 83 19 84 20 11 21 12 22 13 23
REMARK SMILES IDX 14 24 15 25 76 26 16 27 75 28 17 29 18 30 19 31 69 32 20 33
REMARK SMILES IDX 74 34 68 35 70 36 21 37 73 38 67 39 66 40 22 42 54 43 34 44
REMARK SMILES IDX 53 45 35 46 38 47 52 48 71 49 36 50 37 51 51 53 72 54 39 55
REMARK SMILES IDX 23 56 24 57 32 58 25 59 27 60 33 61 26 62 28 63 29 64 30 65
REMARK SMILES IDX 31 66 55 67 56 68 64 69 57 70 59 71 65 72 58 73 60 74 61 75
REMARK SMILES IDX 62 76 63 77 40 78 41 79 49 80 42 81 44 82 50 83 43 84 45 85
REMARK SMILES IDX 46 86 47 87 48 88
REMARK H PARENT 70 41 38 52
REMARK Flexibility Score: inf
ROOT
ATOM      1  C   UNL     1       0.564   3.502  -1.111  1.00  0.00     0.275 C 
ENDROOT
BRANCH   1   2
ATOM      2  C   UNL     1      -0.370   2.319  -1.349  1.00  0.00     0.274 C 
BRANCH   2   3
ATOM      3  O   UNL     1      -0.919   1.873  -0.084  1.00  0.00    -0.462 OA
BRANCH   3   4
ATOM      4  C   UNL     1      -1.288   0.574  -0.000  1.00  0.00     0.309 C 
ATOM      5  O   UNL     1      -1.102  -0.246  -0.891  1.00  0.00    -0.252 OA
BRANCH   4   6
ATOM      6  C   UNL     1      -2.042   0.231   1.292  1.00  0.00     0.103 C 
BRANCH   6   7
ATOM      7  C   UNL     1      -1.215   0.462   2.573  1.00  0.00     0.018 C 
BRANCH   7   8
ATOM      8  C   UNL     1      -1.727  -0.289   3.826  1.00  0.00    -0.017 C 
ATOM      9  C   UNL     1      -1.402  -1.784   3.762  1.00  0.00     0.007 C 
ATOM     10  C   UNL     1      -1.108   0.308   5.093  1.00  0.00     0.007 C 
ENDBRANCH   7   8
ENDBRANCH   6   7
BRANCH   6  11
ATOM     11  C   UNL     1      -3.530   0.697   1.363  1.00  0.00     0.008 C 
ATOM     12  C   UNL     1      -4.235   0.782   0.004  1.00  0.00     0.033 C 
ATOM     13  C   UNL     1      -3.900   1.928   2.223  1.00  0.00     0.042 C 
ATOM     14  C   UNL     1      -4.130   2.159  -0.633  1.00  0.00     0.161 C 
ATOM     15  C   UNL     1      -3.918   3.285   1.496  1.00  0.00     0.094 C 
ATOM     16  O   UNL     1      -4.576   3.190   0.233  1.00  0.00    -0.372 OA
ATOM     17  C   UNL     1      -2.562   3.975   1.471  1.00  0.00     0.066 C 
ATOM     18  C   UNL     1      -4.691   4.332   2.315  1.00  0.00     0.195 C 
ATOM     19  C   UNL     1      -2.464   4.659   2.824  1.00  0.00     0.163 C 
ATOM     20  O   UNL     1      -3.799   4.858   3.302  1.00  0.00    -0.378 OA
ENDBRANCH   6  11
ENDBRANCH   4   6
ENDBRANCH   3   4
ENDBRANCH   2   3
ENDBRANCH   1   2
BRANCH   1  21
ATOM     21  O   UNL     1       1.717   3.004  -0.421  1.00  0.00    -0.458 OA
BRANCH  21  22
ATOM     22  C   UNL     1       1.778   3.280   0.896  1.00  0.00     0.338 C 
ATOM     23  O   UNL     1       1.133   4.109   1.526  1.00  0.00    -0.246 OA
BRANCH  22  24
ATOM     24  C   UNL     1       2.650   2.277   1.508  1.00  0.00     0.060 A 
ATOM     25  C   UNL     1       2.197   0.957   1.548  1.00  0.00     0.016 A 
ATOM     26  C   UNL     1       3.860   2.632   2.089  1.00  0.00     0.016 A 
ATOM     27  C   UNL     1       2.905  -0.003   2.258  1.00  0.00     0.010 A 
ATOM     28  C   UNL     1       4.626   1.641   2.705  1.00  0.00     0.010 A 
ATOM     29  C   UNL     1       4.144   0.321   2.821  1.00  0.00    -0.014 A 
BRANCH  29  30
ATOM     30  C   UNL     1       4.954  -0.706   3.523  1.00  0.00     0.031 A 
ATOM     31  C   UNL     1       5.367  -0.475   4.950  1.00  0.00     0.074 A 
ATOM     32  C   UNL     1       5.372  -1.802   2.860  1.00  0.00     0.049 A 
ATOM     33  N   UNL     1       6.283  -1.085   5.653  1.00  0.00    -0.248 NA
ATOM     34  C   UNL     1       4.673   0.604   5.673  1.00  0.00     0.031 C 
ATOM     35  C   UNL     1       5.022  -2.144   1.480  1.00  0.00     0.029 A 
ATOM     36  N   UNL     1       6.215  -2.814   3.247  1.00  0.00    -0.354 N 
ATOM     37  C   UNL     1       6.337  -0.412   6.867  1.00  0.00     0.074 A 
ATOM     38  C   UNL     1       5.347   0.641   6.814  1.00  0.00     0.031 C 
ATOM     39  C   UNL     1       5.649  -3.276   1.131  1.00  0.00     0.029 A 
ATOM     40  C   UNL     1       6.508  -3.696   2.231  1.00  0.00     0.049 A 
ATOM     41  H   UNL     1       6.573  -2.901   4.160  1.00  0.00     0.167 HD
ATOM     42  C   UNL     1       7.142  -0.656   7.929  1.00  0.00     0.034 A 
ATOM     43  C   UNL     1       7.409  -4.694   2.169  1.00  0.00     0.034 A 
ATOM     44  C   UNL     1       8.070  -1.752   7.990  1.00  0.00     0.049 A 
ATOM     45  C   UNL     1       8.266  -4.966   3.371  1.00  0.00     0.074 A 
ATOM     46  C   UNL     1       8.908  -2.116   9.028  1.00  0.00     0.029 A 
ATOM     47  N   UNL     1       8.269  -2.674   6.972  1.00  0.00    -0.354 N 
ATOM     48  N   UNL     1       8.284  -4.343   4.525  1.00  0.00    -0.248 NA
ATOM     49  C   UNL     1       9.214  -6.083   3.273  1.00  0.00     0.031 C 
ATOM     50  C   UNL     1       9.614  -3.260   8.638  1.00  0.00     0.029 A 
ATOM     51  C   UNL     1       9.209  -3.613   7.360  1.00  0.00     0.049 A 
ATOM     52  H   UNL     1       7.809  -2.662   6.102  1.00  0.00     0.167 HD
ATOM     53  C   UNL     1       9.232  -5.000   5.298  1.00  0.00     0.074 A 
ATOM     54  C   UNL     1       9.745  -6.089   4.489  1.00  0.00     0.031 C 
ATOM     55  C   UNL     1       9.660  -4.718   6.553  1.00  0.00     0.034 A 
BRANCH  42  56
ATOM     56  C   UNL     1       7.033   0.262   9.118  1.00  0.00     0.023 A 
ATOM     57  C   UNL     1       5.923   0.162   9.979  1.00  0.00     0.012 A 
ATOM     58  C   UNL     1       8.051   1.193   9.409  1.00  0.00     0.148 A 
ATOM     59  C   UNL     1       5.811   0.993  11.094  1.00  0.00     0.002 A 
ATOM     60  C   UNL     1       7.952   1.991  10.543  1.00  0.00     0.091 A 
ATOM     61  F   UNL     1       9.087   1.294   8.564  1.00  0.00    -0.205 F 
ATOM     62  C   UNL     1       6.829   1.899  11.382  1.00  0.00     0.022 A 
BRANCH  60  63
ATOM     63  S   UNL     1       9.245   3.138  11.033  1.00  0.00     0.127 S 
ATOM     64  O   UNL     1       8.651   4.425  10.675  1.00  0.00    -0.237 OA
ATOM     65  O   UNL     1       9.348   2.895  12.473  1.00  0.00    -0.237 OA
ATOM     66  O   UNL     1      10.426   2.756  10.271  1.00  0.00    -0.744 OA
ENDBRANCH  60  63
ENDBRANCH  42  56
BRANCH  43  67
ATOM     67  C   UNL     1       7.523  -5.507   0.924  1.00  0.00     0.023 A 
ATOM     68  C   UNL     1       7.070  -6.839   0.927  1.00  0.00     0.012 A 
ATOM     69  C   UNL     1       8.000  -4.948  -0.278  1.00  0.00     0.148 A 
ATOM     70  C   UNL     1       7.101  -7.604  -0.240  1.00  0.00     0.002 A 
ATOM     71  C   UNL     1       7.972  -5.695  -1.451  1.00  0.00     0.091 A 
ATOM     72  F   UNL     1       8.449  -3.684  -0.260  1.00  0.00    -0.205 F 
ATOM     73  C   UNL     1       7.536  -7.028  -1.431  1.00  0.00     0.022 A 
BRANCH  71  74
ATOM     74  S   UNL     1       8.365  -4.971  -3.048  1.00  0.00     0.127 S 
ATOM     75  O   UNL     1       9.723  -5.457  -3.273  1.00  0.00    -0.237 OA
ATOM     76  O   UNL     1       7.346  -5.563  -3.916  1.00  0.00    -0.237 OA
ATOM     77  O   UNL     1       8.222  -3.532  -2.863  1.00  0.00    -0.744 OA
ENDBRANCH  71  74
ENDBRANCH  43  67
BRANCH  55  78
ATOM     78  C   UNL     1      10.717  -5.613   7.136  1.00  0.00     0.023 A 
ATOM     79  C   UNL     1      12.053  -5.472   6.715  1.00  0.00     0.012 A 
ATOM     80  C   UNL     1      10.398  -6.541   8.145  1.00  0.00     0.148 A 
ATOM     81  C   UNL     1      13.056  -6.262   7.275  1.00  0.00     0.002 A 
ATOM     82  C   UNL     1      11.409  -7.296   8.726  1.00  0.00     0.091 A 
ATOM     83  F   UNL     1       9.115  -6.675   8.511  1.00  0.00    -0.205 F 
ATOM     84  C   UNL     1      12.737  -7.164   8.287  1.00  0.00     0.022 A 
BRANCH  82  85
ATOM     85  S   UNL     1      11.094  -8.419  10.091  1.00  0.00     0.127 S 
ATOM     86  O   UNL     1      11.091  -9.716   9.417  1.00  0.00    -0.237 OA
ATOM     87  O   UNL     1      12.246  -8.187  10.963  1.00  0.00    -0.237 OA
ATOM     88  O   UNL     1       9.819  -8.002  10.660  1.00  0.00    -0.744 OA
ENDBRANCH  82  85
ENDBRANCH  55  78
ENDBRANCH  29  30
ENDBRANCH  22  24
ENDBRANCH  21  22
ENDBRANCH   1  21
TORSDOF 17
