REMARK SMILES O=C(OCCOC(=O)[C@@]1(Cc2ccnc3ccccc23)C[C@H]2CC[C@@H]1O2)c1ccc(-c2c3nc(c(-c4cccc(S(=O)(=O)[O-])c4F)c4ccc([nH]4)c(-c4cccc(S(=O)(=O)[O-])c4F)c4nc(c(-c5cccc(S(=O)(=O)[O-])c5F)c5ccc2[nH]5)C=C4)C=C3)cc1
REMARK SMILES IDX 4 1 3 2 2 3 1 4 27 5 28 6 89 7 29 8 88 9 30 10 31 11 32 12
REMARK SMILES IDX 82 13 33 14 87 15 81 16 83 17 34 18 86 19 80 20 79 21 35 23
REMARK SMILES IDX 67 24 47 25 66 26 48 27 51 28 65 29 84 30 49 31 50 32 64 34
REMARK SMILES IDX 85 35 52 36 36 37 37 38 45 39 38 40 40 41 46 42 39 43 41 44
REMARK SMILES IDX 42 45 43 46 44 47 68 48 69 49 77 50 70 51 72 52 78 53 71 54
REMARK SMILES IDX 73 55 74 56 75 57 76 58 53 59 54 60 62 61 55 62 57 63 63 64
REMARK SMILES IDX 56 65 58 66 59 67 60 68 61 69 5 70 6 71 7 72 8 73 9 74 21 75
REMARK SMILES IDX 25 76 22 77 24 78 26 79 23 80 10 81 11 82 12 83 20 84 13 85
REMARK SMILES IDX 15 86 19 87 14 88 16 89 18 90 17 91
REMARK H PARENT 83 22 51 33
REMARK Flexibility Score: inf
ROOT
ATOM      1  C   UNL     1       2.410   3.199   4.246  1.00  0.00     0.275 C 
ENDROOT
BRANCH   1   2
ATOM      2  O   UNL     1       1.549   2.139   3.758  1.00  0.00    -0.458 OA
BRANCH   2   3
ATOM      3  C   UNL     1       0.449   2.097   2.959  1.00  0.00     0.338 C 
ATOM      4  O   UNL     1      -0.160   1.028   2.893  1.00  0.00    -0.246 OA
BRANCH   3   5
ATOM      5  C   UNL     1       0.018   3.182   2.001  1.00  0.00     0.060 A 
ATOM      6  C   UNL     1       0.206   4.551   2.167  1.00  0.00     0.016 A 
ATOM      7  C   UNL     1      -0.532   2.758   0.764  1.00  0.00     0.016 A 
ATOM      8  C   UNL     1       0.009   5.440   1.081  1.00  0.00     0.010 A 
ATOM      9  C   UNL     1      -0.720   3.644  -0.325  1.00  0.00     0.010 A 
ATOM     10  C   UNL     1      -0.396   4.999  -0.202  1.00  0.00    -0.014 A 
BRANCH  10  11
ATOM     11  C   UNL     1      -0.684   6.030  -1.270  1.00  0.00     0.031 A 
ATOM     12  C   UNL     1      -2.008   6.701  -1.091  1.00  0.00     0.074 A 
ATOM     13  C   UNL     1       0.116   6.456  -2.288  1.00  0.00     0.049 A 
ATOM     14  N   UNL     1      -2.473   7.785  -1.640  1.00  0.00    -0.248 NA
ATOM     15  C   UNL     1      -2.943   6.020  -0.176  1.00  0.00     0.031 C 
ATOM     16  C   UNL     1       1.319   5.819  -2.799  1.00  0.00     0.029 A 
ATOM     17  N   UNL     1       0.067   7.596  -3.075  1.00  0.00    -0.354 N 
ATOM     18  C   UNL     1      -3.767   7.898  -1.165  1.00  0.00     0.074 A 
ATOM     19  C   UNL     1      -4.004   6.795  -0.262  1.00  0.00     0.031 C 
ATOM     20  C   UNL     1       2.037   6.662  -3.552  1.00  0.00     0.029 A 
ATOM     21  C   UNL     1       1.211   7.812  -3.836  1.00  0.00     0.049 A 
ATOM     22  H   UNL     1      -0.710   8.201  -3.093  1.00  0.00     0.167 HD
ATOM     23  C   UNL     1      -4.705   8.809  -1.491  1.00  0.00     0.034 A 
ATOM     24  C   UNL     1       1.546   8.756  -4.741  1.00  0.00     0.034 A 
ATOM     25  C   UNL     1      -4.529   9.798  -2.508  1.00  0.00     0.049 A 
ATOM     26  C   UNL     1       0.474   9.733  -5.112  1.00  0.00     0.074 A 
ATOM     27  C   UNL     1      -5.445  10.719  -2.974  1.00  0.00     0.029 A 
ATOM     28  N   UNL     1      -3.379   9.943  -3.272  1.00  0.00    -0.354 N 
ATOM     29  N   UNL     1      -0.720   9.864  -4.593  1.00  0.00    -0.248 NA
ATOM     30  C   UNL     1       0.769  10.661  -6.212  1.00  0.00     0.031 C 
ATOM     31  C   UNL     1      -4.866  11.386  -4.058  1.00  0.00     0.029 A 
ATOM     32  C   UNL     1      -3.564  10.935  -4.214  1.00  0.00     0.049 A 
ATOM     33  H   UNL     1      -2.555   9.416  -3.159  1.00  0.00     0.167 HD
ATOM     34  C   UNL     1      -1.320  10.898  -5.289  1.00  0.00     0.074 A 
ATOM     35  C   UNL     1      -0.347  11.374  -6.255  1.00  0.00     0.031 C 
ATOM     36  C   UNL     1      -2.567  11.402  -5.143  1.00  0.00     0.034 A 
BRANCH  23  37
ATOM     37  C   UNL     1      -6.024   8.631  -0.802  1.00  0.00     0.023 A 
ATOM     38  C   UNL     1      -6.134   8.878   0.584  1.00  0.00     0.012 A 
ATOM     39  C   UNL     1      -7.098   8.050  -1.497  1.00  0.00     0.148 A 
ATOM     40  C   UNL     1      -7.271   8.476   1.281  1.00  0.00     0.002 A 
ATOM     41  C   UNL     1      -8.247   7.702  -0.805  1.00  0.00     0.091 A 
ATOM     42  F   UNL     1      -6.945   7.782  -2.801  1.00  0.00    -0.205 F 
ATOM     43  C   UNL     1      -8.326   7.890   0.586  1.00  0.00     0.022 A 
BRANCH  41  44
ATOM     44  S   UNL     1      -9.674   6.980  -1.615  1.00  0.00     0.127 S 
ATOM     45  O   UNL     1      -9.717   5.650  -1.008  1.00  0.00    -0.237 OA
ATOM     46  O   UNL     1     -10.744   7.882  -1.189  1.00  0.00    -0.237 OA
ATOM     47  O   UNL     1      -9.386   7.003  -3.041  1.00  0.00    -0.744 OA
ENDBRANCH  41  44
ENDBRANCH  23  37
BRANCH  24  48
ATOM     48  C   UNL     1       2.895   8.822  -5.407  1.00  0.00     0.023 A 
ATOM     49  C   UNL     1       3.734   9.925  -5.133  1.00  0.00     0.012 A 
ATOM     50  C   UNL     1       3.348   7.851  -6.325  1.00  0.00     0.148 A 
ATOM     51  C   UNL     1       4.978  10.063  -5.760  1.00  0.00     0.002 A 
ATOM     52  C   UNL     1       4.608   7.973  -6.916  1.00  0.00     0.091 A 
ATOM     53  F   UNL     1       2.543   6.814  -6.598  1.00  0.00    -0.205 F 
ATOM     54  C   UNL     1       5.419   9.082  -6.641  1.00  0.00     0.022 A 
BRANCH  52  55
ATOM     55  S   UNL     1       5.317   6.730  -8.010  1.00  0.00     0.127 S 
ATOM     56  O   UNL     1       5.620   7.508  -9.209  1.00  0.00    -0.237 OA
ATOM     57  O   UNL     1       6.487   6.304  -7.242  1.00  0.00    -0.237 OA
ATOM     58  O   UNL     1       4.286   5.717  -8.175  1.00  0.00    -0.744 OA
ENDBRANCH  52  55
ENDBRANCH  24  48
BRANCH  36  59
ATOM     59  C   UNL     1      -2.913  12.596  -5.975  1.00  0.00     0.023 A 
ATOM     60  C   UNL     1      -3.160  12.476  -7.355  1.00  0.00     0.012 A 
ATOM     61  C   UNL     1      -3.050  13.844  -5.341  1.00  0.00     0.148 A 
ATOM     62  C   UNL     1      -3.512  13.599  -8.100  1.00  0.00     0.002 A 
ATOM     63  C   UNL     1      -3.463  14.941  -6.075  1.00  0.00     0.091 A 
ATOM     64  F   UNL     1      -2.772  13.928  -4.032  1.00  0.00    -0.205 F 
ATOM     65  C   UNL     1      -3.679  14.826  -7.458  1.00  0.00     0.022 A 
BRANCH  63  66
ATOM     66  S   UNL     1      -3.814  16.518  -5.299  1.00  0.00     0.127 S 
ATOM     67  O   UNL     1      -2.705  17.340  -5.780  1.00  0.00    -0.237 OA
ATOM     68  O   UNL     1      -5.119  16.855  -5.868  1.00  0.00    -0.237 OA
ATOM     69  O   UNL     1      -3.828  16.269  -3.864  1.00  0.00    -0.744 OA
ENDBRANCH  63  66
ENDBRANCH  36  59
ENDBRANCH  10  11
ENDBRANCH   3   5
ENDBRANCH   2   3
ENDBRANCH   1   2
BRANCH   1  70
ATOM     70  C   UNL     1       3.834   3.144   3.672  1.00  0.00     0.274 C 
BRANCH  70  71
ATOM     71  O   UNL     1       3.783   3.169   2.247  1.00  0.00    -0.462 OA
BRANCH  71  72
ATOM     72  C   UNL     1       4.394   2.226   1.460  1.00  0.00     0.315 C 
ATOM     73  O   UNL     1       5.118   1.341   1.867  1.00  0.00    -0.251 OA
BRANCH  72  74
ATOM     74  C   UNL     1       4.017   2.490  -0.005  1.00  0.00     0.101 C 
ATOM     75  C   UNL     1       2.565   2.938  -0.003  1.00  0.00     0.054 C 
ATOM     76  C   UNL     1       4.725   3.774  -0.518  1.00  0.00     0.136 C 
ATOM     77  C   UNL     1       2.667   4.328  -0.557  1.00  0.00     0.120 C 
ATOM     78  C   UNL     1       4.687   5.043   0.353  1.00  0.00     0.036 C 
ATOM     79  O   UNL     1       3.747   4.216  -1.480  1.00  0.00    -0.374 OA
ATOM     80  C   UNL     1       3.206   5.394   0.362  1.00  0.00     0.035 C 
BRANCH  74  81
ATOM     81  C   UNL     1       4.137   1.235  -0.967  1.00  0.00     0.058 C 
BRANCH  81  82
ATOM     82  C   UNL     1       3.417   1.310  -2.344  1.00  0.00    -0.036 A 
ATOM     83  C   UNL     1       2.155   0.707  -2.494  1.00  0.00     0.024 A 
ATOM     84  C   UNL     1       3.864   2.157  -3.392  1.00  0.00     0.003 A 
ATOM     85  C   UNL     1       1.357   1.064  -3.571  1.00  0.00     0.112 A 
ATOM     86  C   UNL     1       2.921   2.546  -4.379  1.00  0.00     0.070 A 
ATOM     87  C   UNL     1       5.161   2.709  -3.443  1.00  0.00     0.010 A 
ATOM     88  N   UNL     1       1.701   1.991  -4.479  1.00  0.00    -0.256 NA
ATOM     89  C   UNL     1       3.242   3.592  -5.227  1.00  0.00     0.029 A 
ATOM     90  C   UNL     1       5.452   3.776  -4.282  1.00  0.00     0.001 A 
ATOM     91  C   UNL     1       4.476   4.236  -5.146  1.00  0.00     0.002 A 
ENDBRANCH  81  82
ENDBRANCH  74  81
ENDBRANCH  72  74
ENDBRANCH  71  72
ENDBRANCH  70  71
ENDBRANCH   1  70
TORSDOF 16
