REMARK SMILES O=C(OCCOC(=O)c1ccc(-n2cc(CSc3nc4ccccc4c(=O)n3-c3ccc(Br)cc3)nn2)cc1)c1ccc(-c2c3nc(c(-c4cccc(S(=O)(=O)[O-])c4F)c4ccc([nH]4)c(-c4cccc(S(=O)(=O)[O-])c4F)c4nc(c(-c5cccc(S(=O)(=O)[O-])c5F)c5ccc2[nH]5)C=C4)C=C3)cc1
REMARK SMILES IDX 5 1 4 2 3 3 2 4 1 5 40 6 41 7 102 8 42 9 101 10 43 11 44 12
REMARK SMILES IDX 45 13 95 14 46 15 100 16 94 17 96 18 47 19 99 20 93 21 92 22
REMARK SMILES IDX 48 24 80 25 60 26 79 27 61 28 64 29 78 30 97 31 62 32 63 33
REMARK SMILES IDX 77 35 98 36 65 37 49 38 50 39 58 40 51 41 53 42 59 43 52 44
REMARK SMILES IDX 54 45 55 46 56 47 57 48 81 49 82 50 90 51 83 52 85 53 91 54
REMARK SMILES IDX 84 55 86 56 87 57 88 58 89 59 66 60 67 61 75 62 68 63 70 64
REMARK SMILES IDX 76 65 69 66 71 67 72 68 73 69 74 70 6 71 7 72 8 73 9 74
REMARK SMILES IDX 10 75 39 76 11 77 38 78 12 79 13 80 14 81 37 82 15 83 36 84
REMARK SMILES IDX 16 85 17 86 18 87 19 88 28 89 20 90 26 91 21 92 25 93 27 94
REMARK SMILES IDX 22 95 24 96 23 97 29 98 30 99 35 100 31 101 34 102 32 103
REMARK SMILES IDX 33 104
REMARK H PARENT 96 23 64 34
REMARK Flexibility Score: inf
ROOT
ATOM      1  C   UNL     1       4.523   0.690  -1.429  1.00  0.00     0.275 C 
ENDROOT
BRANCH   1   2
ATOM      2  C   UNL     1       4.697  -0.741  -0.921  1.00  0.00     0.275 C 
BRANCH   2   3
ATOM      3  O   UNL     1       3.502  -1.500  -0.650  1.00  0.00    -0.458 OA
BRANCH   3   4
ATOM      4  C   UNL     1       2.385  -0.851  -0.255  1.00  0.00     0.338 C 
ATOM      5  O   UNL     1       1.502  -0.500  -1.021  1.00  0.00    -0.246 OA
BRANCH   4   6
ATOM      6  C   UNL     1       2.238  -0.817   1.219  1.00  0.00     0.060 A 
ATOM      7  C   UNL     1       3.331  -0.910   2.089  1.00  0.00     0.016 A 
ATOM      8  C   UNL     1       0.942  -0.679   1.734  1.00  0.00     0.016 A 
ATOM      9  C   UNL     1       3.123  -0.957   3.456  1.00  0.00     0.010 A 
ATOM     10  C   UNL     1       0.736  -0.684   3.102  1.00  0.00     0.010 A 
ATOM     11  C   UNL     1       1.821  -0.892   3.952  1.00  0.00    -0.014 A 
BRANCH  11  12
ATOM     12  C   UNL     1       1.625  -1.013   5.389  1.00  0.00     0.031 A 
ATOM     13  C   UNL     1       2.236   0.076   6.198  1.00  0.00     0.074 A 
ATOM     14  C   UNL     1       0.845  -1.977   5.917  1.00  0.00     0.049 A 
ATOM     15  N   UNL     1       3.231  -0.002   7.022  1.00  0.00    -0.248 NA
ATOM     16  C   UNL     1       1.787   1.448   5.938  1.00  0.00     0.031 C 
ATOM     17  C   UNL     1      -0.025  -2.916   5.199  1.00  0.00     0.029 A 
ATOM     18  N   UNL     1       0.544  -2.223   7.221  1.00  0.00    -0.354 N 
ATOM     19  C   UNL     1       3.358   1.275   7.576  1.00  0.00     0.074 A 
ATOM     20  C   UNL     1       2.608   2.151   6.718  1.00  0.00     0.031 C 
ATOM     21  C   UNL     1      -0.941  -3.416   6.056  1.00  0.00     0.029 A 
ATOM     22  C   UNL     1      -0.625  -2.959   7.396  1.00  0.00     0.049 A 
ATOM     23  H   UNL     1       1.101  -1.910   7.971  1.00  0.00     0.167 HD
ATOM     24  C   UNL     1       3.839   1.449   8.841  1.00  0.00     0.034 A 
ATOM     25  C   UNL     1      -1.322  -3.108   8.549  1.00  0.00     0.034 A 
ATOM     26  C   UNL     1       4.508   0.253   9.303  1.00  0.00     0.049 A 
ATOM     27  C   UNL     1      -0.402  -2.788   9.663  1.00  0.00     0.074 A 
ATOM     28  C   UNL     1       5.579  -0.509   8.881  1.00  0.00     0.029 A 
ATOM     29  N   UNL     1       3.812  -0.534  10.188  1.00  0.00    -0.354 N 
ATOM     30  N   UNL     1       0.641  -3.510   9.962  1.00  0.00    -0.248 NA
ATOM     31  C   UNL     1      -0.387  -1.423  10.163  1.00  0.00     0.031 C 
ATOM     32  C   UNL     1       5.202  -1.857   9.163  1.00  0.00     0.029 A 
ATOM     33  C   UNL     1       3.961  -1.835   9.801  1.00  0.00     0.049 A 
ATOM     34  H   UNL     1       3.298  -0.217  10.965  1.00  0.00     0.167 HD
ATOM     35  C   UNL     1       1.626  -2.577  10.256  1.00  0.00     0.074 A 
ATOM     36  C   UNL     1       0.907  -1.323  10.478  1.00  0.00     0.031 C 
ATOM     37  C   UNL     1       2.941  -2.841   9.995  1.00  0.00     0.034 A 
BRANCH  24  38
ATOM     38  C   UNL     1       3.346   2.489   9.845  1.00  0.00     0.023 A 
ATOM     39  C   UNL     1       3.932   2.438  11.136  1.00  0.00     0.012 A 
ATOM     40  C   UNL     1       2.172   3.267   9.721  1.00  0.00     0.148 A 
ATOM     41  C   UNL     1       3.308   2.993  12.258  1.00  0.00     0.002 A 
ATOM     42  C   UNL     1       1.585   3.869  10.832  1.00  0.00     0.091 A 
ATOM     43  F   UNL     1       1.544   3.367   8.552  1.00  0.00    -0.205 F 
ATOM     44  C   UNL     1       2.124   3.696  12.107  1.00  0.00     0.022 A 
BRANCH  42  45
ATOM     45  S   UNL     1       0.075   4.841  10.707  1.00  0.00     0.127 S 
ATOM     46  O   UNL     1      -0.894   3.952  11.341  1.00  0.00    -0.237 OA
ATOM     47  O   UNL     1       0.426   6.031  11.484  1.00  0.00    -0.237 OA
ATOM     48  O   UNL     1      -0.119   5.098   9.287  1.00  0.00    -0.744 OA
ENDBRANCH  42  45
ENDBRANCH  24  38
BRANCH  25  49
ATOM     49  C   UNL     1      -2.784  -3.234   8.753  1.00  0.00     0.023 A 
ATOM     50  C   UNL     1      -3.277  -3.763   9.963  1.00  0.00     0.012 A 
ATOM     51  C   UNL     1      -3.696  -2.583   7.891  1.00  0.00     0.148 A 
ATOM     52  C   UNL     1      -4.624  -3.620  10.318  1.00  0.00     0.002 A 
ATOM     53  C   UNL     1      -5.035  -2.450   8.244  1.00  0.00     0.091 A 
ATOM     54  F   UNL     1      -3.231  -2.016   6.770  1.00  0.00    -0.205 F 
ATOM     55  C   UNL     1      -5.501  -2.956   9.464  1.00  0.00     0.022 A 
BRANCH  53  56
ATOM     56  S   UNL     1      -6.222  -1.589   7.203  1.00  0.00     0.127 S 
ATOM     57  O   UNL     1      -7.326  -2.548   7.146  1.00  0.00    -0.237 OA
ATOM     58  O   UNL     1      -6.497  -0.388   7.988  1.00  0.00    -0.237 OA
ATOM     59  O   UNL     1      -5.552  -1.373   5.928  1.00  0.00    -0.744 OA
ENDBRANCH  53  56
ENDBRANCH  25  49
BRANCH  37  60
ATOM     60  C   UNL     1       3.329  -4.251   9.636  1.00  0.00     0.023 A 
ATOM     61  C   UNL     1       2.875  -4.887   8.462  1.00  0.00     0.012 A 
ATOM     62  C   UNL     1       4.319  -4.877  10.410  1.00  0.00     0.148 A 
ATOM     63  C   UNL     1       3.387  -6.131   8.080  1.00  0.00     0.002 A 
ATOM     64  C   UNL     1       4.860  -6.088  10.002  1.00  0.00     0.091 A 
ATOM     65  F   UNL     1       4.742  -4.254  11.521  1.00  0.00    -0.205 F 
ATOM     66  C   UNL     1       4.390  -6.725   8.842  1.00  0.00     0.022 A 
BRANCH  64  67
ATOM     67  S   UNL     1       6.243  -6.832  10.869  1.00  0.00     0.127 S 
ATOM     68  O   UNL     1       5.600  -7.932  11.583  1.00  0.00    -0.237 OA
ATOM     69  O   UNL     1       7.119  -7.244   9.770  1.00  0.00    -0.237 OA
ATOM     70  O   UNL     1       6.802  -5.779  11.709  1.00  0.00    -0.744 OA
ENDBRANCH  64  67
ENDBRANCH  37  60
ENDBRANCH  11  12
ENDBRANCH   4   6
ENDBRANCH   3   4
ENDBRANCH   2   3
ENDBRANCH   1   2
BRANCH   1  71
ATOM     71  O   UNL     1       3.955   1.524  -0.406  1.00  0.00    -0.458 OA
BRANCH  71  72
ATOM     72  C   UNL     1       2.930   2.322  -0.809  1.00  0.00     0.338 C 
ATOM     73  O   UNL     1       2.503   2.482  -1.931  1.00  0.00    -0.246 OA
BRANCH  72  74
ATOM     74  C   UNL     1       2.374   2.970   0.389  1.00  0.00     0.060 A 
ATOM     75  C   UNL     1       1.150   2.523   0.893  1.00  0.00     0.018 A 
ATOM     76  C   UNL     1       3.052   4.037   0.986  1.00  0.00     0.018 A 
ATOM     77  C   UNL     1       0.631   3.084   2.055  1.00  0.00     0.029 A 
ATOM     78  C   UNL     1       2.484   4.672   2.091  1.00  0.00     0.029 A 
ATOM     79  C   UNL     1       1.287   4.174   2.630  1.00  0.00     0.066 A 
BRANCH  79  80
ATOM     80  N   UNL     1       0.612   4.875   3.641  1.00  0.00    -0.220 N 
ATOM     81  C   UNL     1       0.219   6.183   3.554  1.00  0.00     0.141 A 
ATOM     82  N   UNL     1       0.033   4.293   4.700  1.00  0.00    -0.062 NA
ATOM     83  C   UNL     1      -0.644   6.377   4.609  1.00  0.00     0.093 A 
ATOM     84  N   UNL     1      -0.674   5.218   5.340  1.00  0.00    -0.134 NA
BRANCH  83  85
ATOM     85  C   UNL     1      -1.269   7.623   5.111  1.00  0.00     0.138 C 
BRANCH  85  86
ATOM     86  S   UNL     1      -2.861   8.256   4.559  1.00  0.00    -0.081 SA
BRANCH  86  87
ATOM     87  C   UNL     1      -3.437   7.547   3.076  1.00  0.00     0.176 A 
ATOM     88  N   UNL     1      -4.732   7.399   3.057  1.00  0.00    -0.223 NA
ATOM     89  N   UNL     1      -2.663   7.202   1.980  1.00  0.00    -0.255 N 
ATOM     90  C   UNL     1      -5.310   6.714   1.982  1.00  0.00     0.079 A 
ATOM     91  C   UNL     1      -3.080   6.029   1.336  1.00  0.00     0.266 A 
ATOM     92  C   UNL     1      -6.680   6.783   1.725  1.00  0.00     0.029 A 
ATOM     93  C   UNL     1      -4.535   5.859   1.213  1.00  0.00     0.066 A 
ATOM     94  O   UNL     1      -2.348   5.172   0.844  1.00  0.00    -0.268 OA
ATOM     95  C   UNL     1      -7.261   5.952   0.758  1.00  0.00     0.002 A 
ATOM     96  C   UNL     1      -5.105   4.978   0.289  1.00  0.00     0.016 A 
ATOM     97  C   UNL     1      -6.480   5.021   0.070  1.00  0.00     0.001 A 
BRANCH  89  98
ATOM     98  C   UNL     1      -1.508   7.905   1.459  1.00  0.00     0.051 A 
ATOM     99  C   UNL     1      -0.950   7.517   0.222  1.00  0.00     0.028 A 
ATOM    100  C   UNL     1      -0.871   8.975   2.100  1.00  0.00     0.028 A 
ATOM    101  C   UNL     1       0.306   7.960  -0.202  1.00  0.00     0.018 A 
ATOM    102  C   UNL     1       0.418   9.384   1.721  1.00  0.00     0.018 A 
ATOM    103  C   UNL     1       1.021   8.834   0.598  1.00  0.00     0.018 A 
ATOM    104  Br  UNL     1       2.818   9.231   0.187  1.00  0.00    -0.051 Br
ENDBRANCH  89  98
ENDBRANCH  86  87
ENDBRANCH  85  86
ENDBRANCH  83  85
ENDBRANCH  79  80
ENDBRANCH  72  74
ENDBRANCH  71  72
ENDBRANCH   1  71
TORSDOF 19
