REMARK SMILES N#C/C(=C\c1ccc(-c2ccc(C(=O)OCCOC(=O)c3ccc(-c4c5nc(c(-c6cccc(S(=O)(=O)[O-])c6F)c6ccc([nH]6)c(-c6cccc(S(=O)(=O)[O-])c6F)c6nc(c(-c7cccc(S(=O)(=O)[O-])c7F)c7ccc4[nH]7)C=C6)C=C5)cc3)cc2)o1)[C@@H]1N=c2cc(Br)cnc2=N1
REMARK SMILES IDX 16 1 15 2 13 3 14 4 12 5 9 6 10 7 85 8 11 9 84 10 8 11 5 12
REMARK SMILES IDX 6 13 86 14 7 15 4 16 3 17 2 18 1 19 87 20 88 21 96 22 89 23
REMARK SMILES IDX 95 24 90 25 94 26 91 27 93 28 92 29 17 30 18 31 19 32 20 33
REMARK SMILES IDX 21 34 22 35 83 36 23 37 82 38 24 39 25 40 26 41 76 42 27 43
REMARK SMILES IDX 81 44 75 45 77 46 28 47 80 48 74 49 73 50 29 52 61 53 41 54
REMARK SMILES IDX 60 55 42 56 45 57 59 58 78 59 43 60 44 61 58 63 79 64 46 65
REMARK SMILES IDX 30 66 31 67 39 68 32 69 34 70 40 71 33 72 35 73 36 74 37 75
REMARK SMILES IDX 38 76 62 77 63 78 71 79 64 80 66 81 72 82 65 83 67 84 68 85
REMARK SMILES IDX 69 86 70 87 47 88 48 89 56 90 49 91 51 92 57 93 50 94 52 95
REMARK SMILES IDX 53 96 54 97 55 98
REMARK H PARENT 77 51 45 62
REMARK Flexibility Score: inf
ROOT
ATOM      1  C   UNL     1       2.433   5.674 -12.283  1.00  0.00     0.275 C 
ENDROOT
BRANCH   1   2
ATOM      2  O   UNL     1       2.283   4.824 -11.127  1.00  0.00    -0.458 OA
BRANCH   2   3
ATOM      3  C   UNL     1       3.409   4.174 -10.740  1.00  0.00     0.338 C 
ATOM      4  O   UNL     1       4.502   4.234 -11.276  1.00  0.00    -0.246 OA
BRANCH   3   5
ATOM      5  C   UNL     1       3.166   3.370  -9.520  1.00  0.00     0.060 A 
ATOM      6  C   UNL     1       2.888   1.662  -7.305  1.00  0.00     0.017 A 
ATOM      7  C   UNL     1       4.057   2.407  -7.477  1.00  0.00     0.013 A 
ATOM      8  C   UNL     1       1.842   1.810  -8.231  1.00  0.00     0.013 A 
ATOM      9  C   UNL     1       4.207   3.231  -8.593  1.00  0.00     0.016 A 
ATOM     10  C   UNL     1       1.971   2.674  -9.327  1.00  0.00     0.016 A 
BRANCH   6  11
ATOM     11  C   UNL     1       2.825   0.652  -6.264  1.00  0.00     0.134 A 
ATOM     12  C   UNL     1       3.203  -0.099  -4.206  1.00  0.00     0.128 A 
ATOM     13  C   UNL     1       2.738  -1.161  -4.978  1.00  0.00     0.051 A 
ATOM     14  O   UNL     1       3.224   1.018  -5.013  1.00  0.00    -0.457 OA
ATOM     15  C   UNL     1       2.496  -0.682  -6.283  1.00  0.00     0.051 A 
BRANCH  12  16
ATOM     16  C   UNL     1       3.574  -0.084  -2.829  1.00  0.00     0.066 C 
ATOM     17  C   UNL     1       4.458  -0.953  -2.293  1.00  0.00     0.080 C 
BRANCH  17  18
ATOM     18  C   UNL     1       5.218  -1.900  -3.208  1.00  0.00     0.099 C 
ATOM     19  N   UNL     1       5.849  -2.685  -3.967  1.00  0.00    -0.193 NA
ENDBRANCH  17  18
BRANCH  17  20
ATOM     20  C   UNL     1       4.694  -1.052  -0.812  1.00  0.00     0.265 C 
ATOM     21  N   UNL     1       6.120  -0.817  -0.471  1.00  0.00    -0.249 NA
ATOM     22  N   UNL     1       4.245  -2.385  -0.325  1.00  0.00    -0.232 NA
ATOM     23  C   UNL     1       6.423  -1.879   0.187  1.00  0.00     0.106 A 
ATOM     24  C   UNL     1       5.298  -2.838   0.265  1.00  0.00     0.175 A 
ATOM     25  C   UNL     1       7.678  -2.256   0.835  1.00  0.00     0.049 A 
ATOM     26  N   UNL     1       5.353  -4.059   0.867  1.00  0.00    -0.234 NA
ATOM     27  C   UNL     1       7.716  -3.455   1.432  1.00  0.00     0.038 A 
ATOM     28  C   UNL     1       6.502  -4.333   1.402  1.00  0.00     0.129 A 
ATOM     29  Br  UNL     1       9.219  -4.098   2.318  1.00  0.00    -0.049 Br
ENDBRANCH  17  20
ENDBRANCH  12  16
ENDBRANCH   6  11
ENDBRANCH   3   5
ENDBRANCH   2   3
ENDBRANCH   1   2
BRANCH   1  30
ATOM     30  C   UNL     1       2.665   7.128 -11.876  1.00  0.00     0.275 C 
BRANCH  30  31
ATOM     31  O   UNL     1       3.925   7.253 -11.196  1.00  0.00    -0.458 OA
BRANCH  31  32
ATOM     32  C   UNL     1       3.877   7.831  -9.974  1.00  0.00     0.338 C 
ATOM     33  O   UNL     1       2.899   8.296  -9.416  1.00  0.00    -0.246 OA
BRANCH  32  34
ATOM     34  C   UNL     1       5.218   7.829  -9.362  1.00  0.00     0.060 A 
ATOM     35  C   UNL     1       5.867   6.622  -9.114  1.00  0.00     0.016 A 
ATOM     36  C   UNL     1       5.764   9.023  -8.895  1.00  0.00     0.016 A 
ATOM     37  C   UNL     1       6.998   6.588  -8.299  1.00  0.00     0.010 A 
ATOM     38  C   UNL     1       6.954   8.997  -8.160  1.00  0.00     0.010 A 
ATOM     39  C   UNL     1       7.553   7.776  -7.800  1.00  0.00    -0.014 A 
BRANCH  39  40
ATOM     40  C   UNL     1       8.692   7.747  -6.835  1.00  0.00     0.031 A 
ATOM     41  C   UNL     1       8.535   8.381  -5.472  1.00  0.00     0.074 A 
ATOM     42  C   UNL     1       9.862   7.157  -7.152  1.00  0.00     0.049 A 
ATOM     43  N   UNL     1       9.443   8.624  -4.561  1.00  0.00    -0.248 NA
ATOM     44  C   UNL     1       7.180   8.816  -5.092  1.00  0.00     0.031 C 
ATOM     45  C   UNL     1      10.158   6.481  -8.415  1.00  0.00     0.029 A 
ATOM     46  N   UNL     1      11.026   7.031  -6.430  1.00  0.00    -0.354 N 
ATOM     47  C   UNL     1       8.790   9.318  -3.548  1.00  0.00     0.074 A 
ATOM     48  C   UNL     1       7.406   9.445  -3.947  1.00  0.00     0.031 C 
ATOM     49  C   UNL     1      11.401   5.977  -8.366  1.00  0.00     0.029 A 
ATOM     50  C   UNL     1      12.020   6.354  -7.098  1.00  0.00     0.049 A 
ATOM     51  H   UNL     1      11.137   7.392  -5.521  1.00  0.00     0.167 HD
ATOM     52  C   UNL     1       9.290   9.794  -2.382  1.00  0.00     0.034 A 
ATOM     53  C   UNL     1      13.292   6.083  -6.744  1.00  0.00     0.034 A 
ATOM     54  C   UNL     1      10.638   9.576  -1.930  1.00  0.00     0.049 A 
ATOM     55  C   UNL     1      13.810   6.575  -5.420  1.00  0.00     0.074 A 
ATOM     56  C   UNL     1      11.234  10.007  -0.757  1.00  0.00     0.029 A 
ATOM     57  N   UNL     1      11.588   8.833  -2.612  1.00  0.00    -0.354 N 
ATOM     58  N   UNL     1      13.175   7.227  -4.476  1.00  0.00    -0.248 NA
ATOM     59  C   UNL     1      15.218   6.287  -5.108  1.00  0.00     0.031 C 
ATOM     60  C   UNL     1      12.541   9.508  -0.722  1.00  0.00     0.029 A 
ATOM     61  C   UNL     1      12.759   8.772  -1.875  1.00  0.00     0.049 A 
ATOM     62  H   UNL     1      11.451   8.411  -3.490  1.00  0.00     0.167 HD
ATOM     63  C   UNL     1      14.099   7.413  -3.454  1.00  0.00     0.074 A 
ATOM     64  C   UNL     1      15.329   6.778  -3.881  1.00  0.00     0.031 C 
ATOM     65  C   UNL     1      13.951   8.076  -2.281  1.00  0.00     0.034 A 
BRANCH  52  66
ATOM     66  C   UNL     1       8.358  10.566  -1.488  1.00  0.00     0.023 A 
ATOM     67  C   UNL     1       7.403   9.876  -0.716  1.00  0.00     0.012 A 
ATOM     68  C   UNL     1       8.455  11.967  -1.376  1.00  0.00     0.148 A 
ATOM     69  C   UNL     1       6.539  10.570   0.131  1.00  0.00     0.002 A 
ATOM     70  C   UNL     1       7.615  12.649  -0.501  1.00  0.00     0.091 A 
ATOM     71  F   UNL     1       9.350  12.613  -2.139  1.00  0.00    -0.205 F 
ATOM     72  C   UNL     1       6.652  11.954   0.246  1.00  0.00     0.022 A 
BRANCH  70  73
ATOM     73  S   UNL     1       7.753  14.422  -0.245  1.00  0.00     0.127 S 
ATOM     74  O   UNL     1       6.731  14.936  -1.153  1.00  0.00    -0.237 OA
ATOM     75  O   UNL     1       7.432  14.565   1.176  1.00  0.00    -0.237 OA
ATOM     76  O   UNL     1       9.131  14.756  -0.581  1.00  0.00    -0.744 OA
ENDBRANCH  70  73
ENDBRANCH  52  66
BRANCH  53  77
ATOM     77  C   UNL     1      14.151   5.258  -7.641  1.00  0.00     0.023 A 
ATOM     78  C   UNL     1      14.493   3.950  -7.245  1.00  0.00     0.012 A 
ATOM     79  C   UNL     1      14.585   5.731  -8.894  1.00  0.00     0.148 A 
ATOM     80  C   UNL     1      15.262   3.134  -8.076  1.00  0.00     0.002 A 
ATOM     81  C   UNL     1      15.301   4.892  -9.741  1.00  0.00     0.091 A 
ATOM     82  F   UNL     1      14.279   6.989  -9.242  1.00  0.00    -0.205 F 
ATOM     83  C   UNL     1      15.652   3.598  -9.329  1.00  0.00     0.022 A 
BRANCH  81  84
ATOM     84  S   UNL     1      15.707   5.373 -11.424  1.00  0.00     0.127 S 
ATOM     85  O   UNL     1      17.096   5.799 -11.289  1.00  0.00    -0.237 OA
ATOM     86  O   UNL     1      15.515   4.122 -12.161  1.00  0.00    -0.237 OA
ATOM     87  O   UNL     1      14.745   6.414 -11.764  1.00  0.00    -0.744 OA
ENDBRANCH  81  84
ENDBRANCH  53  77
BRANCH  65  88
ATOM     88  C   UNL     1      15.138   8.133  -1.360  1.00  0.00     0.023 A 
ATOM     89  C   UNL     1      16.185   9.033  -1.638  1.00  0.00     0.012 A 
ATOM     90  C   UNL     1      15.186   7.354  -0.188  1.00  0.00     0.148 A 
ATOM     91  C   UNL     1      17.273   9.143  -0.773  1.00  0.00     0.002 A 
ATOM     92  C   UNL     1      16.259   7.493   0.687  1.00  0.00     0.091 A 
ATOM     93  F   UNL     1      14.193   6.484   0.048  1.00  0.00    -0.205 F 
ATOM     94  C   UNL     1      17.305   8.382   0.394  1.00  0.00     0.022 A 
BRANCH  92  95
ATOM     95  S   UNL     1      16.328   6.601   2.245  1.00  0.00     0.127 S 
ATOM     96  O   UNL     1      17.165   5.454   1.899  1.00  0.00    -0.237 OA
ATOM     97  O   UNL     1      16.963   7.569   3.141  1.00  0.00    -0.237 OA
ATOM     98  O   UNL     1      14.943   6.298   2.582  1.00  0.00    -0.744 OA
ENDBRANCH  92  95
ENDBRANCH  65  88
ENDBRANCH  39  40
ENDBRANCH  32  34
ENDBRANCH  31  32
ENDBRANCH  30  31
ENDBRANCH   1  30
TORSDOF 18
