REMARK SMILES CCOc1cc2c(cc1/C=C1/C(=O)N(c3cccc(C(=O)OCCOC(=O)c4ccc(-c5c6nc(c(-c7cccc(S(=O)(=O)[O-])c7F)c7ccc([nH]7)c(-c7cccc(S(=O)(=O)[O-])c7F)c7nc(c(-c8cccc(S(=O)(=O)[O-])c8F)c8ccc5[nH]8)C=C7)C=C6)cc4)c3)C(=S)N=C1O)OCO2
REMARK SMILES IDX 23 1 22 2 20 3 21 4 19 5 15 6 16 7 91 8 17 9 18 10 14 11
REMARK SMILES IDX 10 12 11 13 12 14 95 15 13 16 94 17 92 18 93 19 9 20 4 21
REMARK SMILES IDX 5 22 6 23 8 24 7 25 99 26 97 27 98 28 3 29 2 30 1 31 96 32
REMARK SMILES IDX 24 34 25 35 26 36 27 37 28 38 29 39 90 40 30 41 89 42 31 43
REMARK SMILES IDX 32 44 33 45 83 46 34 47 88 48 82 49 84 50 35 51 87 52 81 53
REMARK SMILES IDX 80 54 36 56 68 57 48 58 67 59 49 60 52 61 66 62 85 63 50 64
REMARK SMILES IDX 51 65 65 67 86 68 53 69 37 70 38 71 46 72 39 73 41 74 47 75
REMARK SMILES IDX 40 76 42 77 43 78 44 79 45 80 69 81 70 82 78 83 71 84 73 85
REMARK SMILES IDX 79 86 72 87 74 88 75 89 76 90 77 91 54 92 55 93 63 94 56 95
REMARK SMILES IDX 58 96 64 97 57 98 59 99 60 100 61 101 62 102
REMARK H PARENT 96 33 84 55 52 66
REMARK Flexibility Score: inf
ROOT
ATOM      1  C   UNL     1      -1.889  10.921  -1.377  1.00  0.00     0.275 C 
ENDROOT
BRANCH   1   2
ATOM      2  O   UNL     1      -1.159  10.189  -2.381  1.00  0.00    -0.458 OA
BRANCH   2   3
ATOM      3  C   UNL     1      -1.879   9.739  -3.444  1.00  0.00     0.338 C 
ATOM      4  O   UNL     1      -3.075   9.849  -3.613  1.00  0.00    -0.246 OA
BRANCH   3   5
ATOM      5  C   UNL     1      -0.958   9.180  -4.465  1.00  0.00     0.062 A 
ATOM      6  C   UNL     1       1.050   7.975  -5.064  1.00  0.00     0.052 A 
ATOM      7  C   UNL     1       0.789   8.216  -6.422  1.00  0.00     0.027 A 
ATOM      8  C   UNL     1       0.194   8.496  -4.087  1.00  0.00     0.042 A 
ATOM      9  C   UNL     1      -0.371   8.884  -6.801  1.00  0.00     0.003 A 
ATOM     10  C   UNL     1      -1.266   9.317  -5.825  1.00  0.00     0.016 A 
BRANCH   6  11
ATOM     11  N   UNL     1       2.082   7.055  -4.690  1.00  0.00    -0.251 N 
ATOM     12  C   UNL     1       2.425   4.003  -2.726  1.00  0.00     0.031 C 
ATOM     13  C   UNL     1       2.711   4.931  -3.667  1.00  0.00     0.103 C 
ATOM     14  C   UNL     1       1.654   5.941  -3.948  1.00  0.00     0.270 C 
ATOM     15  C   UNL     1       3.907   5.099  -4.486  1.00  0.00     0.226 C 
ATOM     16  O   UNL     1       0.503   5.750  -3.554  1.00  0.00    -0.268 OA
ATOM     17  N   UNL     1       4.241   6.136  -5.153  1.00  0.00    -0.184 NA
ATOM     18  C   UNL     1       3.408   7.230  -5.134  1.00  0.00     0.210 C 
ATOM     19  S   UNL     1       4.064   8.721  -5.617  1.00  0.00    -0.038 S 
BRANCH  12  20
ATOM     20  C   UNL     1       3.250   2.886  -2.227  1.00  0.00     0.021 A 
ATOM     21  C   UNL     1       2.680   1.615  -1.949  1.00  0.00     0.130 A 
ATOM     22  C   UNL     1       3.485   0.501  -1.690  1.00  0.00     0.097 A 
ATOM     23  C   UNL     1       4.841   0.700  -1.609  1.00  0.00     0.169 A 
ATOM     24  C   UNL     1       4.624   3.061  -2.007  1.00  0.00     0.062 A 
ATOM     25  C   UNL     1       5.392   1.949  -1.739  1.00  0.00     0.166 A 
ATOM     26  O   UNL     1       5.778  -0.262  -1.399  1.00  0.00    -0.453 OA
ATOM     27  O   UNL     1       6.746   1.935  -1.623  1.00  0.00    -0.454 OA
ATOM     28  C   UNL     1       6.986   0.517  -1.514  1.00  0.00     0.468 C 
BRANCH  21  29
ATOM     29  O   UNL     1       1.321   1.417  -2.004  1.00  0.00    -0.493 OA
BRANCH  29  30
ATOM     30  C   UNL     1       0.726   1.450  -0.693  1.00  0.00     0.226 C 
ATOM     31  C   UNL     1       0.719   0.081  -0.023  1.00  0.00     0.049 C 
ENDBRANCH  29  30
ENDBRANCH  21  29
ENDBRANCH  12  20
BRANCH  15  32
ATOM     32  O   UNL     1       4.719   4.049  -4.606  1.00  0.00    -0.493 OA
ATOM     33  H   UNL     1       4.532   3.256  -4.144  1.00  0.00     0.295 HD
ENDBRANCH  15  32
ENDBRANCH   6  11
ENDBRANCH   3   5
ENDBRANCH   2   3
ENDBRANCH   1   2
BRANCH   1  34
ATOM     34  C   UNL     1      -1.545  12.409  -1.437  1.00  0.00     0.275 C 
BRANCH  34  35
ATOM     35  O   UNL     1      -2.035  12.980  -2.662  1.00  0.00    -0.458 OA
BRANCH  35  36
ATOM     36  C   UNL     1      -1.094  13.298  -3.579  1.00  0.00     0.338 C 
ATOM     37  O   UNL     1       0.117  13.223  -3.461  1.00  0.00    -0.246 OA
BRANCH  36  38
ATOM     38  C   UNL     1      -1.754  13.669  -4.839  1.00  0.00     0.060 A 
ATOM     39  C   UNL     1      -2.277  12.646  -5.620  1.00  0.00     0.016 A 
ATOM     40  C   UNL     1      -1.753  14.976  -5.313  1.00  0.00     0.016 A 
ATOM     41  C   UNL     1      -2.712  12.892  -6.916  1.00  0.00     0.010 A 
ATOM     42  C   UNL     1      -2.305  15.244  -6.573  1.00  0.00     0.010 A 
ATOM     43  C   UNL     1      -2.766  14.203  -7.403  1.00  0.00    -0.014 A 
BRANCH  43  44
ATOM     44  C   UNL     1      -3.315  14.477  -8.762  1.00  0.00     0.031 A 
ATOM     45  C   UNL     1      -2.497  15.234  -9.775  1.00  0.00     0.074 A 
ATOM     46  C   UNL     1      -4.562  14.071  -9.083  1.00  0.00     0.049 A 
ATOM     47  N   UNL     1      -2.866  15.741 -10.923  1.00  0.00    -0.248 NA
ATOM     48  C   UNL     1      -1.080  15.466  -9.448  1.00  0.00     0.031 C 
ATOM     49  C   UNL     1      -5.459  13.309  -8.210  1.00  0.00     0.029 A 
ATOM     50  N   UNL     1      -5.304  14.261 -10.225  1.00  0.00    -0.354 N 
ATOM     51  C   UNL     1      -1.758  16.420 -11.415  1.00  0.00     0.074 A 
ATOM     52  C   UNL     1      -0.695  16.246 -10.449  1.00  0.00     0.031 C 
ATOM     53  C   UNL     1      -6.618  13.089  -8.846  1.00  0.00     0.029 A 
ATOM     54  C   UNL     1      -6.590  13.778 -10.129  1.00  0.00     0.049 A 
ATOM     55  H   UNL     1      -4.951  14.700 -11.033  1.00  0.00     0.167 HD
ATOM     56  C   UNL     1      -1.638  17.122 -12.568  1.00  0.00     0.034 A 
ATOM     57  C   UNL     1      -7.654  13.923 -10.943  1.00  0.00     0.034 A 
ATOM     58  C   UNL     1      -2.680  17.236 -13.554  1.00  0.00     0.049 A 
ATOM     59  C   UNL     1      -7.500  14.723 -12.204  1.00  0.00     0.074 A 
ATOM     60  C   UNL     1      -2.635  17.874 -14.781  1.00  0.00     0.029 A 
ATOM     61  N   UNL     1      -3.953  16.702 -13.428  1.00  0.00    -0.354 N 
ATOM     62  N   UNL     1      -6.429  15.308 -12.682  1.00  0.00    -0.248 NA
ATOM     63  C   UNL     1      -8.696  14.878 -13.043  1.00  0.00     0.031 C 
ATOM     64  C   UNL     1      -3.892  17.754 -15.382  1.00  0.00     0.029 A 
ATOM     65  C   UNL     1      -4.710  17.012 -14.546  1.00  0.00     0.049 A 
ATOM     66  H   UNL     1      -4.273  16.179 -12.657  1.00  0.00     0.167 HD
ATOM     67  C   UNL     1      -6.816  15.884 -13.886  1.00  0.00     0.074 A 
ATOM     68  C   UNL     1      -8.213  15.552 -14.078  1.00  0.00     0.031 C 
ATOM     69  C   UNL     1      -6.085  16.636 -14.745  1.00  0.00     0.034 A 
BRANCH  56  70
ATOM     70  C   UNL     1      -0.332  17.826 -12.836  1.00  0.00     0.023 A 
ATOM     71  C   UNL     1       0.813  17.085 -13.188  1.00  0.00     0.012 A 
ATOM     72  C   UNL     1      -0.260  19.234 -12.804  1.00  0.00     0.148 A 
ATOM     73  C   UNL     1       2.017  17.730 -13.471  1.00  0.00     0.002 A 
ATOM     74  C   UNL     1       0.930  19.872 -13.133  1.00  0.00     0.091 A 
ATOM     75  F   UNL     1      -1.355  19.922 -12.450  1.00  0.00    -0.205 F 
ATOM     76  C   UNL     1       2.073  19.122 -13.454  1.00  0.00     0.022 A 
BRANCH  74  77
ATOM     77  S   UNL     1       1.081  21.661 -13.219  1.00  0.00     0.127 S 
ATOM     78  O   UNL     1       1.935  21.941 -12.066  1.00  0.00    -0.237 OA
ATOM     79  O   UNL     1       1.729  21.852 -14.517  1.00  0.00    -0.237 OA
ATOM     80  O   UNL     1      -0.275  22.184 -13.133  1.00  0.00    -0.744 OA
ENDBRANCH  74  77
ENDBRANCH  56  70
BRANCH  57  81
ATOM     81  C   UNL     1      -8.963  13.313 -10.572  1.00  0.00     0.023 A 
ATOM     82  C   UNL     1      -9.476  12.248 -11.336  1.00  0.00     0.012 A 
ATOM     83  C   UNL     1      -9.684  13.758  -9.445  1.00  0.00     0.148 A 
ATOM     84  C   UNL     1     -10.691  11.651 -10.998  1.00  0.00     0.002 A 
ATOM     85  C   UNL     1     -10.861  13.117  -9.077  1.00  0.00     0.091 A 
ATOM     86  F   UNL     1      -9.192  14.787  -8.741  1.00  0.00    -0.205 F 
ATOM     87  C   UNL     1     -11.376  12.076  -9.863  1.00  0.00     0.022 A 
BRANCH  85  88
ATOM     88  S   UNL     1     -11.730  13.504  -7.553  1.00  0.00     0.127 S 
ATOM     89  O   UNL     1     -12.929  14.172  -8.053  1.00  0.00    -0.237 OA
ATOM     90  O   UNL     1     -11.958  12.173  -6.989  1.00  0.00    -0.237 OA
ATOM     91  O   UNL     1     -10.818  14.334  -6.779  1.00  0.00    -0.744 OA
ENDBRANCH  85  88
ENDBRANCH  57  81
BRANCH  69  92
ATOM     92  C   UNL     1      -6.769  17.129 -15.992  1.00  0.00     0.023 A 
ATOM     93  C   UNL     1      -7.712  18.173 -15.908  1.00  0.00     0.012 A 
ATOM     94  C   UNL     1      -6.417  16.613 -17.255  1.00  0.00     0.148 A 
ATOM     95  C   UNL     1      -8.314  18.677 -17.059  1.00  0.00     0.002 A 
ATOM     96  C   UNL     1      -6.984  17.154 -18.401  1.00  0.00     0.091 A 
ATOM     97  F   UNL     1      -5.530  15.608 -17.309  1.00  0.00    -0.205 F 
ATOM     98  C   UNL     1      -7.941  18.177 -18.305  1.00  0.00     0.022 A 
BRANCH  96  99
ATOM     99  S   UNL     1      -6.497  16.643 -20.053  1.00  0.00     0.127 S 
ATOM    100  O   UNL     1      -7.708  15.972 -20.526  1.00  0.00    -0.237 OA
ATOM    101  O   UNL     1      -6.216  17.924 -20.702  1.00  0.00    -0.237 OA
ATOM    102  O   UNL     1      -5.336  15.780 -19.884  1.00  0.00    -0.744 OA
ENDBRANCH  96  99
ENDBRANCH  69  92
ENDBRANCH  43  44
ENDBRANCH  36  38
ENDBRANCH  35  36
ENDBRANCH  34  35
ENDBRANCH   1  34
TORSDOF 19
