REMARK SMILES O=C(OCCOC(=O)c1ccc(S(=O)(=O)NCC[NH+]2CCCC2)c(F)c1)c1ccc(-c2c3nc(c(-c4cccc(S(=O)(=O)[O-])c4F)c4ccc([nH]4)c(-c4cccc(S(=O)(=O)[O-])c4F)c4nc(c(-c5cccc(S(=O)(=O)[O-])c5F)c5ccc2[nH]5)C=C4)C=C3)cc1
REMARK SMILES IDX 5 1 4 2 3 3 2 4 1 5 27 6 28 7 89 8 29 9 88 10 30 11 31 12
REMARK SMILES IDX 32 13 82 14 33 15 87 16 81 17 83 18 34 19 86 20 80 21 79 22
REMARK SMILES IDX 35 24 67 25 47 26 66 27 48 28 51 29 65 30 84 31 49 32 50 33
REMARK SMILES IDX 64 35 85 36 52 37 36 38 37 39 45 40 38 41 40 42 46 43 39 44
REMARK SMILES IDX 41 45 42 46 43 47 44 48 68 49 69 50 77 51 70 52 72 53 78 54
REMARK SMILES IDX 71 55 73 56 74 57 75 58 76 59 53 60 54 61 62 62 55 63 57 64
REMARK SMILES IDX 63 65 56 66 58 67 59 68 60 69 61 70 6 71 7 72 8 73 9 74
REMARK SMILES IDX 10 75 26 76 11 77 24 78 12 79 25 80 13 81 14 82 15 83 16 84
REMARK SMILES IDX 17 86 18 87 19 88 20 89 23 90 21 92 22 93
REMARK H PARENT 83 23 51 34 16 85 19 91
REMARK Flexibility Score: inf
ROOT
ATOM      1  C   UNL     1       4.183   0.518  -2.230  1.00  0.00     0.275 C 
ENDROOT
BRANCH   1   2
ATOM      2  C   UNL     1       4.177  -0.815  -1.470  1.00  0.00     0.275 C 
BRANCH   2   3
ATOM      3  O   UNL     1       2.980  -1.063  -0.709  1.00  0.00    -0.458 OA
BRANCH   3   4
ATOM      4  C   UNL     1       2.642  -0.697   0.550  1.00  0.00     0.338 C 
ATOM      5  O   UNL     1       1.604  -1.157   1.025  1.00  0.00    -0.246 OA
BRANCH   4   6
ATOM      6  C   UNL     1       3.389   0.313   1.373  1.00  0.00     0.060 A 
ATOM      7  C   UNL     1       4.696   0.750   1.148  1.00  0.00     0.016 A 
ATOM      8  C   UNL     1       2.691   0.884   2.458  1.00  0.00     0.016 A 
ATOM      9  C   UNL     1       5.280   1.731   1.941  1.00  0.00     0.010 A 
ATOM     10  C   UNL     1       3.267   1.882   3.252  1.00  0.00     0.010 A 
ATOM     11  C   UNL     1       4.577   2.293   3.004  1.00  0.00    -0.014 A 
BRANCH  11  12
ATOM     12  C   UNL     1       5.329   3.152   3.939  1.00  0.00     0.031 A 
ATOM     13  C   UNL     1       5.802   2.540   5.221  1.00  0.00     0.074 A 
ATOM     14  C   UNL     1       5.707   4.392   3.576  1.00  0.00     0.049 A 
ATOM     15  N   UNL     1       6.603   3.039   6.119  1.00  0.00    -0.248 NA
ATOM     16  C   UNL     1       5.352   1.165   5.511  1.00  0.00     0.031 C 
ATOM     17  C   UNL     1       5.372   5.030   2.305  1.00  0.00     0.029 A 
ATOM     18  N   UNL     1       6.463   5.331   4.226  1.00  0.00    -0.354 N 
ATOM     19  C   UNL     1       6.753   2.047   7.076  1.00  0.00     0.074 A 
ATOM     20  C   UNL     1       5.940   0.925   6.672  1.00  0.00     0.031 C 
ATOM     21  C   UNL     1       5.876   6.275   2.284  1.00  0.00     0.029 A 
ATOM     22  C   UNL     1       6.581   6.517   3.537  1.00  0.00     0.049 A 
ATOM     23  H   UNL     1       6.883   5.173   5.102  1.00  0.00     0.167 HD
ATOM     24  C   UNL     1       7.533   2.062   8.177  1.00  0.00     0.034 A 
ATOM     25  C   UNL     1       7.194   7.666   3.882  1.00  0.00     0.034 A 
ATOM     26  C   UNL     1       8.341   3.184   8.555  1.00  0.00     0.049 A 
ATOM     27  C   UNL     1       7.978   7.688   5.167  1.00  0.00     0.074 A 
ATOM     28  C   UNL     1       9.171   3.308   9.652  1.00  0.00     0.029 A 
ATOM     29  N   UNL     1       8.403   4.381   7.858  1.00  0.00    -0.354 N 
ATOM     30  N   UNL     1       8.188   6.708   6.014  1.00  0.00    -0.248 NA
ATOM     31  C   UNL     1       8.648   8.946   5.525  1.00  0.00     0.031 C 
ATOM     32  C   UNL     1       9.701   4.599   9.642  1.00  0.00     0.029 A 
ATOM     33  C   UNL     1       9.237   5.264   8.515  1.00  0.00     0.049 A 
ATOM     34  H   UNL     1       7.924   4.574   7.019  1.00  0.00     0.167 HD
ATOM     35  C   UNL     1       9.036   7.218   6.988  1.00  0.00     0.074 A 
ATOM     36  C   UNL     1       9.317   8.591   6.615  1.00  0.00     0.031 C 
ATOM     37  C   UNL     1       9.530   6.611   8.094  1.00  0.00     0.034 A 
BRANCH  24  38
ATOM     38  C   UNL     1       7.546   0.835   9.041  1.00  0.00     0.023 A 
ATOM     39  C   UNL     1       8.221  -0.324   8.607  1.00  0.00     0.012 A 
ATOM     40  C   UNL     1       6.933   0.851  10.307  1.00  0.00     0.148 A 
ATOM     41  C   UNL     1       8.269  -1.458   9.416  1.00  0.00     0.002 A 
ATOM     42  C   UNL     1       7.026  -0.266  11.126  1.00  0.00     0.091 A 
ATOM     43  F   UNL     1       6.273   1.956  10.682  1.00  0.00    -0.205 F 
ATOM     44  C   UNL     1       7.683  -1.424  10.679  1.00  0.00     0.022 A 
BRANCH  42  45
ATOM     45  S   UNL     1       6.371  -0.297  12.797  1.00  0.00     0.127 S 
ATOM     46  O   UNL     1       5.361  -1.350  12.698  1.00  0.00    -0.237 OA
ATOM     47  O   UNL     1       7.554  -0.657  13.578  1.00  0.00    -0.237 OA
ATOM     48  O   UNL     1       5.847   1.037  13.052  1.00  0.00    -0.744 OA
ENDBRANCH  42  45
ENDBRANCH  24  38
BRANCH  25  49
ATOM     49  C   UNL     1       7.129   8.852   2.979  1.00  0.00     0.023 A 
ATOM     50  C   UNL     1       8.290   9.304   2.323  1.00  0.00     0.012 A 
ATOM     51  C   UNL     1       5.907   9.513   2.739  1.00  0.00     0.148 A 
ATOM     52  C   UNL     1       8.240  10.405   1.466  1.00  0.00     0.002 A 
ATOM     53  C   UNL     1       5.855  10.577   1.846  1.00  0.00     0.091 A 
ATOM     54  F   UNL     1       4.814   9.076   3.380  1.00  0.00    -0.205 F 
ATOM     55  C   UNL     1       7.023  11.035   1.220  1.00  0.00     0.022 A 
BRANCH  53  56
ATOM     56  S   UNL     1       4.316  11.375   1.373  1.00  0.00     0.127 S 
ATOM     57  O   UNL     1       4.493  12.717   1.922  1.00  0.00    -0.237 OA
ATOM     58  O   UNL     1       4.376  11.293  -0.087  1.00  0.00    -0.237 OA
ATOM     59  O   UNL     1       3.256  10.582   1.978  1.00  0.00    -0.744 OA
ENDBRANCH  53  56
ENDBRANCH  25  49
BRANCH  37  60
ATOM     60  C   UNL     1      10.435   7.407   8.992  1.00  0.00     0.023 A 
ATOM     61  C   UNL     1       9.886   8.394   9.831  1.00  0.00     0.012 A 
ATOM     62  C   UNL     1      11.793   7.054   9.123  1.00  0.00     0.148 A 
ATOM     63  C   UNL     1      10.679   9.026  10.786  1.00  0.00     0.002 A 
ATOM     64  C   UNL     1      12.561   7.646  10.115  1.00  0.00     0.091 A 
ATOM     65  F   UNL     1      12.291   6.117   8.303  1.00  0.00    -0.205 F 
ATOM     66  C   UNL     1      12.009   8.639  10.941  1.00  0.00     0.022 A 
BRANCH  64  67
ATOM     67  S   UNL     1      14.243   7.128  10.471  1.00  0.00     0.127 S 
ATOM     68  O   UNL     1      15.004   8.324  10.115  1.00  0.00    -0.237 OA
ATOM     69  O   UNL     1      14.180   6.847  11.905  1.00  0.00    -0.237 OA
ATOM     70  O   UNL     1      14.495   5.963   9.633  1.00  0.00    -0.744 OA
ENDBRANCH  64  67
ENDBRANCH  37  60
ENDBRANCH  11  12
ENDBRANCH   4   6
ENDBRANCH   3   4
ENDBRANCH   2   3
ENDBRANCH   1   2
BRANCH   1  71
ATOM     71  O   UNL     1       3.678   1.622  -1.463  1.00  0.00    -0.458 OA
BRANCH  71  72
ATOM     72  C   UNL     1       2.346   1.859  -1.597  1.00  0.00     0.338 C 
ATOM     73  O   UNL     1       1.580   1.290  -2.355  1.00  0.00    -0.246 OA
BRANCH  72  74
ATOM     74  C   UNL     1       1.899   2.803  -0.550  1.00  0.00     0.063 A 
ATOM     75  C   UNL     1       2.596   3.979  -0.269  1.00  0.00     0.017 A 
ATOM     76  C   UNL     1       0.757   2.468   0.189  1.00  0.00     0.056 A 
ATOM     77  C   UNL     1       2.146   4.809   0.763  1.00  0.00     0.026 A 
ATOM     78  C   UNL     1       0.335   3.285   1.238  1.00  0.00     0.144 A 
ATOM     79  C   UNL     1       1.026   4.448   1.530  1.00  0.00     0.118 A 
ATOM     80  F   UNL     1      -0.731   2.890   1.944  1.00  0.00    -0.205 F 
BRANCH  79  81
ATOM     81  S   UNL     1       0.584   5.525   2.848  1.00  0.00     0.243 S 
ATOM     82  O   UNL     1       1.775   5.703   3.637  1.00  0.00    -0.207 OA
ATOM     83  O   UNL     1      -0.120   6.628   2.228  1.00  0.00    -0.207 OA
BRANCH  81  84
ATOM     84  N   UNL     1      -0.573   4.769   3.787  1.00  0.00    -0.205 NA
ATOM     85  H   UNL     1      -1.123   4.196   3.147  1.00  0.00     0.141 HD
BRANCH  84  86
ATOM     86  C   UNL     1      -0.242   3.898   4.925  1.00  0.00     0.160 C 
BRANCH  86  87
ATOM     87  C   UNL     1       0.424   4.604   6.129  1.00  0.00     0.278 C 
BRANCH  87  88
ATOM     88  N   UNL     1      -0.385   5.429   7.058  1.00  0.00    -0.334 N 
ATOM     89  C   UNL     1      -1.377   6.321   6.458  1.00  0.00     0.262 C 
ATOM     90  C   UNL     1       0.524   6.352   7.787  1.00  0.00     0.262 C 
ATOM     91  H   UNL     1      -0.879   4.734   7.619  1.00  0.00     0.348 HD
ATOM     92  C   UNL     1      -0.604   7.536   6.000  1.00  0.00     0.067 C 
ATOM     93  C   UNL     1       0.435   7.713   7.093  1.00  0.00     0.067 C 
ENDBRANCH  87  88
ENDBRANCH  86  87
ENDBRANCH  84  86
ENDBRANCH  81  84
ENDBRANCH  79  81
ENDBRANCH  72  74
ENDBRANCH  71  72
ENDBRANCH   1  71
TORSDOF 19
