REMARK SMILES COc1ccccc1CC(=O)NC[C@H]1CC[C@H](C(=O)OCCOC(=O)c2ccc(-c3c4nc(c(-c5cccc(S(=O)(=O)[O-])c5F)c5ccc([nH]5)c(-c5cccc(S(=O)(=O)[O-])c5F)c5nc(c(-c6cccc(S(=O)(=O)[O-])c6F)c6ccc3[nH]6)C=C5)C=C4)cc2)O1
REMARK SMILES IDX 21 1 20 2 18 3 19 4 17 5 14 6 15 7 89 8 16 9 13 10 12 11
REMARK SMILES IDX 10 12 11 13 9 15 8 16 3 17 4 18 5 19 7 20 6 21 2 22 1 23
REMARK SMILES IDX 22 24 23 25 24 26 25 27 26 28 27 29 88 30 28 31 87 32 29 33
REMARK SMILES IDX 30 34 31 35 81 36 32 37 86 38 80 39 82 40 33 41 85 42 79 43
REMARK SMILES IDX 78 44 34 46 66 47 46 48 65 49 47 50 50 51 64 52 83 53 48 54
REMARK SMILES IDX 49 55 63 57 84 58 51 59 35 60 36 61 44 62 37 63 39 64 45 65
REMARK SMILES IDX 38 66 40 67 41 68 42 69 43 70 67 71 68 72 76 73 69 74 71 75
REMARK SMILES IDX 77 76 70 77 72 78 73 79 74 80 75 81 52 82 53 83 61 84 54 85
REMARK SMILES IDX 56 86 62 87 55 88 57 89 58 90 59 91 60 92
REMARK H PARENT 12 14 82 45 50 56
REMARK Flexibility Score: inf
ROOT
ATOM      1  C   UNL     1       2.011   7.257  -1.244  1.00  0.00     0.274 C 
ENDROOT
BRANCH   1   2
ATOM      2  O   UNL     1       1.835   6.464  -0.055  1.00  0.00    -0.460 OA
BRANCH   2   3
ATOM      3  C   UNL     1       2.827   6.549   0.876  1.00  0.00     0.335 C 
ATOM      4  O   UNL     1       3.873   7.169   0.720  1.00  0.00    -0.249 OA
BRANCH   3   5
ATOM      5  C   UNL     1       2.492   5.779   2.162  1.00  0.00     0.228 C 
ATOM      6  C   UNL     1       1.910   3.531   2.434  1.00  0.00     0.138 C 
ATOM      7  C   UNL     1       0.647   4.295   2.080  1.00  0.00     0.037 C 
ATOM      8  O   UNL     1       2.991   4.434   2.148  1.00  0.00    -0.361 OA
ATOM      9  C   UNL     1       1.004   5.702   2.484  1.00  0.00     0.047 C 
BRANCH   6  10
ATOM     10  C   UNL     1       1.958   3.102   3.916  1.00  0.00     0.147 C 
BRANCH  10  11
ATOM     11  N   UNL     1       0.918   2.137   4.237  1.00  0.00    -0.353 N 
ATOM     12  C   UNL     1       0.978   0.775   4.186  1.00  0.00     0.224 C 
ATOM     13  O   UNL     1      -0.069   0.133   4.290  1.00  0.00    -0.275 OA
ATOM     14  H   UNL     1       0.058   2.516   4.529  1.00  0.00     0.163 HD
BRANCH  12  15
ATOM     15  C   UNL     1       2.321   0.081   4.069  1.00  0.00     0.139 C 
BRANCH  15  16
ATOM     16  C   UNL     1       2.967   0.173   2.708  1.00  0.00     0.003 A 
ATOM     17  C   UNL     1       4.239   0.738   2.517  1.00  0.00     0.122 A 
ATOM     18  C   UNL     1       4.755   0.911   1.231  1.00  0.00     0.047 A 
ATOM     19  C   UNL     1       4.035   0.474   0.121  1.00  0.00     0.004 A 
ATOM     20  C   UNL     1       2.266  -0.287   1.579  1.00  0.00     0.008 A 
ATOM     21  C   UNL     1       2.795  -0.133   0.295  1.00  0.00     0.001 A 
BRANCH  17  22
ATOM     22  O   UNL     1       4.967   1.286   3.538  1.00  0.00    -0.496 OA
ATOM     23  C   UNL     1       5.532   0.310   4.412  1.00  0.00     0.278 C 
ENDBRANCH  17  22
ENDBRANCH  15  16
ENDBRANCH  12  15
ENDBRANCH  10  11
ENDBRANCH   6  10
ENDBRANCH   3   5
ENDBRANCH   2   3
ENDBRANCH   1   2
BRANCH   1  24
ATOM     24  C   UNL     1       1.186   8.545  -1.177  1.00  0.00     0.275 C 
BRANCH  24  25
ATOM     25  O   UNL     1       1.665   9.425  -0.142  1.00  0.00    -0.458 OA
BRANCH  25  26
ATOM     26  C   UNL     1       0.967   9.381   1.016  1.00  0.00     0.338 C 
ATOM     27  O   UNL     1      -0.031   8.719   1.249  1.00  0.00    -0.246 OA
BRANCH  26  28
ATOM     28  C   UNL     1       1.648  10.166   2.056  1.00  0.00     0.060 A 
ATOM     29  C   UNL     1       2.130   9.487   3.178  1.00  0.00     0.016 A 
ATOM     30  C   UNL     1       1.693  11.560   1.995  1.00  0.00     0.016 A 
ATOM     31  C   UNL     1       2.637  10.199   4.260  1.00  0.00     0.010 A 
ATOM     32  C   UNL     1       2.201  12.275   3.086  1.00  0.00     0.010 A 
ATOM     33  C   UNL     1       2.647  11.599   4.235  1.00  0.00    -0.014 A 
BRANCH  33  34
ATOM     34  C   UNL     1       3.033  12.339   5.461  1.00  0.00     0.031 A 
ATOM     35  C   UNL     1       1.966  12.948   6.328  1.00  0.00     0.074 A 
ATOM     36  C   UNL     1       4.327  12.429   5.816  1.00  0.00     0.049 A 
ATOM     37  N   UNL     1       2.091  13.606   7.451  1.00  0.00    -0.248 NA
ATOM     38  C   UNL     1       0.574  12.797   5.872  1.00  0.00     0.031 C 
ATOM     39  C   UNL     1       5.450  11.879   5.058  1.00  0.00     0.029 A 
ATOM     40  N   UNL     1       4.914  13.022   6.905  1.00  0.00    -0.354 N 
ATOM     41  C   UNL     1       0.803  13.975   7.820  1.00  0.00     0.074 A 
ATOM     42  C   UNL     1      -0.090  13.473   6.798  1.00  0.00     0.031 C 
ATOM     43  C   UNL     1       6.594  12.168   5.701  1.00  0.00     0.029 A 
ATOM     44  C   UNL     1       6.286  12.933   6.907  1.00  0.00     0.049 A 
ATOM     45  H   UNL     1       4.402  13.469   7.617  1.00  0.00     0.167 HD
ATOM     46  C   UNL     1       0.398  14.651   8.921  1.00  0.00     0.034 A 
ATOM     47  C   UNL     1       7.190  13.416   7.782  1.00  0.00     0.034 A 
ATOM     48  C   UNL     1       1.279  15.114   9.958  1.00  0.00     0.049 A 
ATOM     49  C   UNL     1       6.709  14.143   9.010  1.00  0.00     0.074 A 
ATOM     50  C   UNL     1       0.959  15.783  11.127  1.00  0.00     0.029 A 
ATOM     51  N   UNL     1       2.656  14.954   9.954  1.00  0.00    -0.354 N 
ATOM     52  N   UNL     1       5.480  14.386   9.397  1.00  0.00    -0.248 NA
ATOM     53  C   UNL     1       7.739  14.630   9.940  1.00  0.00     0.031 C 
ATOM     54  C   UNL     1       2.144  16.027  11.830  1.00  0.00     0.029 A 
ATOM     55  C   UNL     1       3.201  15.507  11.100  1.00  0.00     0.049 A 
ATOM     56  H   UNL     1       3.171  14.512   9.241  1.00  0.00     0.167 HD
ATOM     57  C   UNL     1       5.587  15.029  10.625  1.00  0.00     0.074 A 
ATOM     58  C   UNL     1       7.001  15.113  10.930  1.00  0.00     0.031 C 
ATOM     59  C   UNL     1       4.606  15.528  11.418  1.00  0.00     0.034 A 
BRANCH  46  60
ATOM     60  C   UNL     1      -1.079  14.889   9.082  1.00  0.00     0.023 A 
ATOM     61  C   UNL     1      -1.907  13.829   9.502  1.00  0.00     0.012 A 
ATOM     62  C   UNL     1      -1.641  16.162   8.863  1.00  0.00     0.148 A 
ATOM     63  C   UNL     1      -3.276  14.025   9.678  1.00  0.00     0.002 A 
ATOM     64  C   UNL     1      -3.001  16.357   9.072  1.00  0.00     0.091 A 
ATOM     65  F   UNL     1      -0.842  17.150   8.434  1.00  0.00    -0.205 F 
ATOM     66  C   UNL     1      -3.821  15.290   9.473  1.00  0.00     0.022 A 
BRANCH  64  67
ATOM     67  S   UNL     1      -3.777  17.968   8.891  1.00  0.00     0.127 S 
ATOM     68  O   UNL     1      -4.424  17.839   7.587  1.00  0.00    -0.237 OA
ATOM     69  O   UNL     1      -4.699  18.002  10.027  1.00  0.00    -0.237 OA
ATOM     70  O   UNL     1      -2.693  18.938   8.967  1.00  0.00    -0.744 OA
ENDBRANCH  64  67
ENDBRANCH  46  60
BRANCH  47  71
ATOM     71  C   UNL     1       8.641  13.166   7.559  1.00  0.00     0.023 A 
ATOM     72  C   UNL     1       9.325  12.267   8.401  1.00  0.00     0.012 A 
ATOM     73  C   UNL     1       9.338  13.784   6.504  1.00  0.00     0.148 A 
ATOM     74  C   UNL     1      10.681  12.005   8.208  1.00  0.00     0.002 A 
ATOM     75  C   UNL     1      10.678  13.479   6.286  1.00  0.00     0.091 A 
ATOM     76  F   UNL     1       8.679  14.657   5.729  1.00  0.00    -0.205 F 
ATOM     77  C   UNL     1      11.354  12.600   7.145  1.00  0.00     0.022 A 
BRANCH  75  78
ATOM     78  S   UNL     1      11.573  14.107   4.861  1.00  0.00     0.127 S 
ATOM     79  O   UNL     1      12.333  15.209   5.445  1.00  0.00    -0.237 OA
ATOM     80  O   UNL     1      12.375  12.949   4.463  1.00  0.00    -0.237 OA
ATOM     81  O   UNL     1      10.546  14.477   3.896  1.00  0.00    -0.744 OA
ENDBRANCH  75  78
ENDBRANCH  47  71
BRANCH  59  82
ATOM     82  C   UNL     1       5.023  16.195  12.701  1.00  0.00     0.023 A 
ATOM     83  C   UNL     1       5.591  17.484  12.658  1.00  0.00     0.012 A 
ATOM     84  C   UNL     1       4.796  15.581  13.948  1.00  0.00     0.148 A 
ATOM     85  C   UNL     1       5.954  18.138  13.834  1.00  0.00     0.002 A 
ATOM     86  C   UNL     1       5.125  16.256  15.118  1.00  0.00     0.091 A 
ATOM     87  F   UNL     1       4.277  14.344  13.973  1.00  0.00    -0.205 F 
ATOM     88  C   UNL     1       5.712  17.530  15.064  1.00  0.00     0.022 A 
BRANCH  86  89
ATOM     89  S   UNL     1       4.760  15.562  16.735  1.00  0.00     0.127 S 
ATOM     90  O   UNL     1       6.011  14.883  17.062  1.00  0.00    -0.237 OA
ATOM     91  O   UNL     1       4.485  16.753  17.542  1.00  0.00    -0.237 OA
ATOM     92  O   UNL     1       3.601  14.703  16.530  1.00  0.00    -0.744 OA
ENDBRANCH  86  89
ENDBRANCH  59  82
ENDBRANCH  33  34
ENDBRANCH  26  28
ENDBRANCH  25  26
ENDBRANCH  24  25
ENDBRANCH   1  24
TORSDOF 19
