REMARK SMILES O=C(Nc1ccc(/C=C/C(=O)OCCOC(=O)c2ccc(-c3c4nc(c(-c5cccc(S(=O)(=O)[O-])c5F)c5ccc([nH]5)c(-c5cccc(S(=O)(=O)[O-])c5F)c5nc(c(-c6cccc(S(=O)(=O)[O-])c6F)c6ccc3[nH]6)C=C5)C=C4)cc2)cc1F)NC1CCCC1
REMARK SMILES IDX 13 1 12 2 10 3 11 4 9 5 8 6 7 7 4 8 5 9 82 10 6 11 81 12
REMARK SMILES IDX 83 13 3 14 1 15 2 16 84 17 85 20 86 21 89 22 87 23 88 24
REMARK SMILES IDX 14 25 15 26 16 27 17 28 18 29 19 30 80 31 20 32 79 33 21 34
REMARK SMILES IDX 22 35 23 36 73 37 24 38 78 39 72 40 74 41 25 42 77 43 71 44
REMARK SMILES IDX 70 45 26 47 58 48 38 49 57 50 39 51 42 52 56 53 75 54 40 55
REMARK SMILES IDX 41 56 55 58 76 59 43 60 27 61 28 62 36 63 29 64 31 65 37 66
REMARK SMILES IDX 30 67 32 68 33 69 34 70 35 71 59 72 60 73 68 74 61 75 63 76
REMARK SMILES IDX 69 77 62 78 64 79 65 80 66 81 67 82 44 83 45 84 53 85 46 86
REMARK SMILES IDX 48 87 54 88 47 89 49 90 50 91 51 92 52 93
REMARK H PARENT 3 18 84 19 74 46 42 57
REMARK Flexibility Score: inf
ROOT
ATOM      1  C   UNL     1      13.088   0.422   1.115  1.00  0.00     0.275 C 
ENDROOT
BRANCH   1   2
ATOM      2  O   UNL     1      11.658   0.410   0.955  1.00  0.00    -0.459 OA
BRANCH   2   3
ATOM      3  C   UNL     1      11.015  -0.636   1.523  1.00  0.00     0.330 C 
ATOM      4  O   UNL     1      11.538  -1.609   2.046  1.00  0.00    -0.247 OA
BRANCH   3   5
ATOM      5  C   UNL     1       9.547  -0.490   1.482  1.00  0.00     0.094 C 
ATOM      6  C   UNL     1       8.886   0.596   1.053  1.00  0.00     0.016 C 
BRANCH   6   7
ATOM      7  C   UNL     1       7.422   0.655   1.067  1.00  0.00    -0.022 A 
ATOM      8  C   UNL     1       4.603   0.585   0.979  1.00  0.00     0.078 A 
ATOM      9  C   UNL     1       5.274   0.328   2.175  1.00  0.00     0.030 A 
ATOM     10  C   UNL     1       5.356   0.990  -0.131  1.00  0.00     0.147 A 
ATOM     11  C   UNL     1       6.675   0.344   2.213  1.00  0.00     0.010 A 
ATOM     12  C   UNL     1       6.748   1.029  -0.095  1.00  0.00     0.049 A 
ATOM     13  F   UNL     1       4.756   1.357  -1.273  1.00  0.00    -0.205 F 
BRANCH   8  14
ATOM     14  N   UNL     1       3.204   0.415   0.965  1.00  0.00    -0.305 N 
ATOM     15  O   UNL     1       1.153   0.134   0.080  1.00  0.00    -0.248 OA
ATOM     16  C   UNL     1       2.370   0.042  -0.055  1.00  0.00     0.319 C 
ATOM     17  N   UNL     1       2.960  -0.545  -1.131  1.00  0.00    -0.335 N 
ATOM     18  H   UNL     1       2.755   0.592   1.824  1.00  0.00     0.171 HD
ATOM     19  H   UNL     1       3.941  -0.624  -1.123  1.00  0.00     0.165 HD
BRANCH  17  20
ATOM     20  C   UNL     1       2.263  -1.061  -2.283  1.00  0.00     0.083 C 
ATOM     21  C   UNL     1       2.701  -0.350  -3.559  1.00  0.00     0.025 C 
ATOM     22  C   UNL     1       2.645  -2.513  -2.558  1.00  0.00     0.025 C 
ATOM     23  C   UNL     1       2.315  -1.318  -4.666  1.00  0.00     0.002 C 
ATOM     24  C   UNL     1       2.415  -2.714  -4.053  1.00  0.00     0.002 C 
ENDBRANCH  17  20
ENDBRANCH   8  14
ENDBRANCH   6   7
ENDBRANCH   3   5
ENDBRANCH   2   3
ENDBRANCH   1   2
BRANCH   1  25
ATOM     25  C   UNL     1      13.515   1.408   2.207  1.00  0.00     0.275 C 
BRANCH  25  26
ATOM     26  O   UNL     1      13.062   1.000   3.511  1.00  0.00    -0.458 OA
BRANCH  26  27
ATOM     27  C   UNL     1      11.843   1.473   3.868  1.00  0.00     0.338 C 
ATOM     28  O   UNL     1      11.127   2.213   3.212  1.00  0.00    -0.246 OA
BRANCH  27  29
ATOM     29  C   UNL     1      11.412   0.880   5.147  1.00  0.00     0.060 A 
ATOM     30  C   UNL     1      10.120   0.349   5.214  1.00  0.00     0.016 A 
ATOM     31  C   UNL     1      12.219   0.920   6.287  1.00  0.00     0.016 A 
ATOM     32  C   UNL     1       9.620  -0.121   6.427  1.00  0.00     0.010 A 
ATOM     33  C   UNL     1      11.714   0.448   7.505  1.00  0.00     0.010 A 
ATOM     34  C   UNL     1      10.404  -0.053   7.587  1.00  0.00    -0.014 A 
BRANCH  34  35
ATOM     35  C   UNL     1       9.816  -0.460   8.888  1.00  0.00     0.031 A 
ATOM     36  C   UNL     1       9.384   0.586   9.879  1.00  0.00     0.074 A 
ATOM     37  C   UNL     1       9.646  -1.765   9.170  1.00  0.00     0.049 A 
ATOM     38  N   UNL     1       8.819   0.428  11.047  1.00  0.00    -0.248 NA
ATOM     39  C   UNL     1       9.613   1.992   9.508  1.00  0.00     0.031 C 
ATOM     40  C   UNL     1      10.034  -2.871   8.295  1.00  0.00     0.029 A 
ATOM     41  N   UNL     1       9.111  -2.382  10.274  1.00  0.00    -0.354 N 
ATOM     42  C   UNL     1       8.647   1.706  11.563  1.00  0.00     0.074 A 
ATOM     43  C   UNL     1       9.175   2.632  10.585  1.00  0.00     0.031 C 
ATOM     44  C   UNL     1       9.732  -4.032   8.899  1.00  0.00     0.029 A 
ATOM     45  C   UNL     1       9.150  -3.755  10.211  1.00  0.00     0.049 A 
ATOM     46  H   UNL     1       8.735  -1.888  11.038  1.00  0.00     0.167 HD
ATOM     47  C   UNL     1       8.080   2.075  12.736  1.00  0.00     0.034 A 
ATOM     48  C   UNL     1       8.770  -4.685  11.110  1.00  0.00     0.034 A 
ATOM     49  C   UNL     1       7.518   1.156  13.689  1.00  0.00     0.049 A 
ATOM     50  C   UNL     1       8.144  -4.246  12.408  1.00  0.00     0.074 A 
ATOM     51  C   UNL     1       6.865   1.447  14.874  1.00  0.00     0.029 A 
ATOM     52  N   UNL     1       7.546  -0.224  13.575  1.00  0.00    -0.354 N 
ATOM     53  N   UNL     1       7.869  -3.031  12.818  1.00  0.00    -0.248 NA
ATOM     54  C   UNL     1       7.750  -5.301  13.354  1.00  0.00     0.031 C 
ATOM     55  C   UNL     1       6.515   0.241  15.487  1.00  0.00     0.029 A 
ATOM     56  C   UNL     1       6.934  -0.800  14.674  1.00  0.00     0.049 A 
ATOM     57  H   UNL     1       7.942  -0.721  12.823  1.00  0.00     0.167 HD
ATOM     58  C   UNL     1       7.250  -3.176  14.055  1.00  0.00     0.074 A 
ATOM     59  C   UNL     1       7.169  -4.598  14.319  1.00  0.00     0.031 C 
ATOM     60  C   UNL     1       6.808  -2.216  14.903  1.00  0.00     0.034 A 
BRANCH  47  61
ATOM     61  C   UNL     1       7.983   3.543  13.049  1.00  0.00     0.023 A 
ATOM     62  C   UNL     1       6.993   4.319  12.415  1.00  0.00     0.012 A 
ATOM     63  C   UNL     1       8.784   4.123  14.052  1.00  0.00     0.148 A 
ATOM     64  C   UNL     1       6.807   5.655  12.767  1.00  0.00     0.002 A 
ATOM     65  C   UNL     1       8.569   5.445  14.423  1.00  0.00     0.091 A 
ATOM     66  F   UNL     1       9.730   3.369  14.629  1.00  0.00    -0.205 F 
ATOM     67  C   UNL     1       7.585   6.213  13.778  1.00  0.00     0.022 A 
BRANCH  65  68
ATOM     68  S   UNL     1       9.464   6.237  15.764  1.00  0.00     0.127 S 
ATOM     69  O   UNL     1      10.260   7.229  15.041  1.00  0.00    -0.237 OA
ATOM     70  O   UNL     1       8.379   6.796  16.570  1.00  0.00    -0.237 OA
ATOM     71  O   UNL     1      10.229   5.183  16.416  1.00  0.00    -0.744 OA
ENDBRANCH  65  68
ENDBRANCH  47  61
BRANCH  48  72
ATOM     72  C   UNL     1       8.927  -6.131  10.784  1.00  0.00     0.023 A 
ATOM     73  C   UNL     1       7.784  -6.916  10.537  1.00  0.00     0.012 A 
ATOM     74  C   UNL     1      10.202  -6.718  10.665  1.00  0.00     0.148 A 
ATOM     75  C   UNL     1       7.908  -8.263  10.193  1.00  0.00     0.002 A 
ATOM     76  C   UNL     1      10.320  -8.045  10.267  1.00  0.00     0.091 A 
ATOM     77  F   UNL     1      11.277  -5.962  10.929  1.00  0.00    -0.205 F 
ATOM     78  C   UNL     1       9.174  -8.823  10.044  1.00  0.00     0.022 A 
BRANCH  76  79
ATOM     79  S   UNL     1      11.911  -8.801   9.915  1.00  0.00     0.127 S 
ATOM     80  O   UNL     1      12.090  -9.675  11.071  1.00  0.00    -0.237 OA
ATOM     81  O   UNL     1      11.647  -9.494   8.653  1.00  0.00    -0.237 OA
ATOM     82  O   UNL     1      12.852  -7.694   9.802  1.00  0.00    -0.744 OA
ENDBRANCH  76  79
ENDBRANCH  48  72
BRANCH  60  83
ATOM     83  C   UNL     1       6.182  -2.644  16.204  1.00  0.00     0.023 A 
ATOM     84  C   UNL     1       7.007  -3.101  17.250  1.00  0.00     0.012 A 
ATOM     85  C   UNL     1       4.803  -2.463  16.438  1.00  0.00     0.148 A 
ATOM     86  C   UNL     1       6.470  -3.381  18.506  1.00  0.00     0.002 A 
ATOM     87  C   UNL     1       4.282  -2.702  17.704  1.00  0.00     0.091 A 
ATOM     88  F   UNL     1       4.034  -2.041  15.424  1.00  0.00    -0.205 F 
ATOM     89  C   UNL     1       5.112  -3.168  18.737  1.00  0.00     0.022 A 
BRANCH  87  90
ATOM     90  S   UNL     1       2.569  -2.361  18.125  1.00  0.00     0.127 S 
ATOM     91  O   UNL     1       2.029  -3.710  18.290  1.00  0.00    -0.237 OA
ATOM     92  O   UNL     1       2.700  -1.600  19.367  1.00  0.00    -0.237 OA
ATOM     93  O   UNL     1       2.022  -1.604  17.006  1.00  0.00    -0.744 OA
ENDBRANCH  87  90
ENDBRANCH  60  83
ENDBRANCH  34  35
ENDBRANCH  27  29
ENDBRANCH  26  27
ENDBRANCH  25  26
ENDBRANCH   1  25
TORSDOF 17
