REMARK SMILES COc1ccc(-c2nc(NCC(=O)OCCOC(=O)c3ccc(-c4c5nc(c(-c6cccc(S(=O)(=O)[O-])c6F)c6ccc([nH]6)c(-c6cccc(S(=O)(=O)[O-])c6F)c6nc(c(-c7cccc(S(=O)(=O)[O-])c7F)c7ccc4[nH]7)C=C6)C=C5)cc3)sc2-c2ccc(OC)cc2)cc1
REMARK SMILES IDX 15 1 14 2 12 3 13 4 11 5 10 6 9 8 7 9 8 10 84 11 83 12 6 13
REMARK SMILES IDX 3 14 4 15 94 16 5 17 93 18 2 19 1 20 85 21 86 22 92 23 87 24
REMARK SMILES IDX 91 25 88 26 89 27 90 28 16 29 17 30 18 31 19 32 20 33 21 34
REMARK SMILES IDX 82 35 22 36 81 37 23 38 24 39 25 40 75 41 26 42 80 43 74 44
REMARK SMILES IDX 76 45 27 46 79 47 73 48 72 49 28 51 60 52 40 53 59 54 41 55
REMARK SMILES IDX 44 56 58 57 77 58 42 59 43 60 57 62 78 63 45 64 29 65 30 66
REMARK SMILES IDX 38 67 31 68 33 69 39 70 32 71 34 72 35 73 36 74 37 75 61 76
REMARK SMILES IDX 62 77 70 78 63 79 65 80 71 81 64 82 66 83 67 84 68 85 69 86
REMARK SMILES IDX 46 87 47 88 55 89 48 90 50 91 56 92 49 93 51 94 52 95 53 96
REMARK SMILES IDX 54 97
REMARK H PARENT 10 7 76 50 44 61
REMARK Flexibility Score: inf
ROOT
ATOM      1  C   UNL     1       7.571   0.214  10.517  1.00  0.00     0.274 C 
ENDROOT
BRANCH   1   2
ATOM      2  O   UNL     1       6.210   0.469  10.132  1.00  0.00    -0.461 OA
BRANCH   2   3
ATOM      3  C   UNL     1       5.430   1.083  11.065  1.00  0.00     0.325 C 
ATOM      4  O   UNL     1       5.774   1.314  12.218  1.00  0.00    -0.250 OA
BRANCH   3   5
ATOM      5  C   UNL     1       4.040   1.407  10.536  1.00  0.00     0.238 C 
BRANCH   5   6
ATOM      6  N   UNL     1       4.008   1.674   9.102  1.00  0.00    -0.351 N 
ATOM      7  H   UNL     1       4.763   2.170   8.708  1.00  0.00     0.163 HD
BRANCH   6   8
ATOM      8  C   UNL     1       3.010   1.285   8.281  1.00  0.00     0.184 A 
ATOM      9  C   UNL     1       1.888   0.980   6.384  1.00  0.00     0.091 A 
ATOM     10  N   UNL     1       2.987   1.569   6.996  1.00  0.00    -0.220 NA
ATOM     11  C   UNL     1       1.123   0.170   7.209  1.00  0.00     0.064 A 
ATOM     12  S   UNL     1       1.673   0.335   8.815  1.00  0.00    -0.096 S 
BRANCH   9  13
ATOM     13  C   UNL     1       1.624   1.122   4.957  1.00  0.00     0.002 A 
ATOM     14  C   UNL     1       1.018   1.094   2.215  1.00  0.00     0.118 A 
ATOM     15  C   UNL     1       0.050   1.479   3.140  1.00  0.00     0.047 A 
ATOM     16  C   UNL     1       2.311   0.796   2.650  1.00  0.00     0.047 A 
ATOM     17  C   UNL     1       0.348   1.488   4.505  1.00  0.00     0.014 A 
ATOM     18  C   UNL     1       2.615   0.815   4.019  1.00  0.00     0.014 A 
BRANCH  14  19
ATOM     19  O   UNL     1       0.615   1.076   0.908  1.00  0.00    -0.497 OA
ATOM     20  C   UNL     1       1.158   0.006   0.141  1.00  0.00     0.278 C 
ENDBRANCH  14  19
ENDBRANCH   9  13
BRANCH  11  21
ATOM     21  C   UNL     1       0.063  -0.792   6.918  1.00  0.00    -0.006 A 
ATOM     22  C   UNL     1      -1.178  -0.734   7.560  1.00  0.00     0.013 A 
ATOM     23  C   UNL     1       0.309  -1.831   6.010  1.00  0.00     0.013 A 
ATOM     24  C   UNL     1      -2.147  -1.706   7.301  1.00  0.00     0.047 A 
ATOM     25  C   UNL     1      -0.663  -2.799   5.750  1.00  0.00     0.047 A 
ATOM     26  C   UNL     1      -1.897  -2.741   6.397  1.00  0.00     0.118 A 
BRANCH  26  27
ATOM     27  O   UNL     1      -2.924  -3.630   6.240  1.00  0.00    -0.497 OA
ATOM     28  C   UNL     1      -2.746  -4.635   5.251  1.00  0.00     0.278 C 
ENDBRANCH  26  27
ENDBRANCH  11  21
ENDBRANCH   6   8
ENDBRANCH   5   6
ENDBRANCH   3   5
ENDBRANCH   2   3
ENDBRANCH   1   2
BRANCH   1  29
ATOM     29  C   UNL     1       8.513   1.303   9.992  1.00  0.00     0.275 C 
BRANCH  29  30
ATOM     30  O   UNL     1       8.313   2.568  10.650  1.00  0.00    -0.458 OA
BRANCH  30  31
ATOM     31  C   UNL     1       7.357   3.358  10.102  1.00  0.00     0.338 C 
ATOM     32  O   UNL     1       6.681   3.105   9.117  1.00  0.00    -0.246 OA
BRANCH  31  33
ATOM     33  C   UNL     1       7.102   4.535  10.956  1.00  0.00     0.060 A 
ATOM     34  C   UNL     1       5.767   4.867  11.208  1.00  0.00     0.016 A 
ATOM     35  C   UNL     1       8.133   5.340  11.448  1.00  0.00     0.016 A 
ATOM     36  C   UNL     1       5.455   6.009  11.940  1.00  0.00     0.010 A 
ATOM     37  C   UNL     1       7.817   6.493  12.180  1.00  0.00     0.010 A 
ATOM     38  C   UNL     1       6.476   6.843  12.415  1.00  0.00    -0.014 A 
BRANCH  38  39
ATOM     39  C   UNL     1       6.107   8.100  13.111  1.00  0.00     0.031 A 
ATOM     40  C   UNL     1       6.212   9.417  12.393  1.00  0.00     0.074 A 
ATOM     41  C   UNL     1       5.635   8.052  14.371  1.00  0.00     0.049 A 
ATOM     42  N   UNL     1       5.881  10.611  12.812  1.00  0.00    -0.248 NA
ATOM     43  C   UNL     1       6.761   9.390  11.028  1.00  0.00     0.031 C 
ATOM     44  C   UNL     1       5.501   6.836  15.175  1.00  0.00     0.029 A 
ATOM     45  N   UNL     1       5.189   9.051  15.198  1.00  0.00    -0.354 N 
ATOM     46  C   UNL     1       6.210  11.482  11.780  1.00  0.00     0.074 A 
ATOM     47  C   UNL     1       6.769  10.679  10.713  1.00  0.00     0.031 C 
ATOM     48  C   UNL     1       5.012   7.163  16.383  1.00  0.00     0.029 A 
ATOM     49  C   UNL     1       4.814   8.609  16.445  1.00  0.00     0.049 A 
ATOM     50  H   UNL     1       5.140   9.996  14.925  1.00  0.00     0.167 HD
ATOM     51  C   UNL     1       6.045  12.824  11.721  1.00  0.00     0.034 A 
ATOM     52  C   UNL     1       4.368   9.293  17.518  1.00  0.00     0.034 A 
ATOM     53  C   UNL     1       5.445  13.615  12.763  1.00  0.00     0.049 A 
ATOM     54  C   UNL     1       4.166  10.781  17.406  1.00  0.00     0.074 A 
ATOM     55  C   UNL     1       5.178  14.973  12.764  1.00  0.00     0.029 A 
ATOM     56  N   UNL     1       5.022  13.124  13.987  1.00  0.00    -0.354 N 
ATOM     57  N   UNL     1       4.348  11.564  16.370  1.00  0.00    -0.248 NA
ATOM     58  C   UNL     1       3.660  11.474  18.599  1.00  0.00     0.031 C 
ATOM     59  C   UNL     1       4.606  15.306  13.997  1.00  0.00     0.029 A 
ATOM     60  C   UNL     1       4.504  14.152  14.756  1.00  0.00     0.049 A 
ATOM     61  H   UNL     1       5.082  12.182  14.269  1.00  0.00     0.167 HD
ATOM     62  C   UNL     1       3.952  12.833  16.778  1.00  0.00     0.074 A 
ATOM     63  C   UNL     1       3.489  12.708  18.144  1.00  0.00     0.031 C 
ATOM     64  C   UNL     1       3.991  14.003  16.093  1.00  0.00     0.034 A 
BRANCH  51  65
ATOM     65  C   UNL     1       6.485  13.536  10.470  1.00  0.00     0.023 A 
ATOM     66  C   UNL     1       5.688  13.461   9.311  1.00  0.00     0.012 A 
ATOM     67  C   UNL     1       7.634  14.352  10.471  1.00  0.00     0.148 A 
ATOM     68  C   UNL     1       6.034  14.177   8.166  1.00  0.00     0.002 A 
ATOM     69  C   UNL     1       7.952  15.091   9.338  1.00  0.00     0.091 A 
ATOM     70  F   UNL     1       8.388  14.391  11.579  1.00  0.00    -0.205 F 
ATOM     71  C   UNL     1       7.158  15.000   8.183  1.00  0.00     0.022 A 
BRANCH  69  72
ATOM     72  S   UNL     1       9.338  16.233   9.281  1.00  0.00     0.127 S 
ATOM     73  O   UNL     1      10.236  15.562   8.343  1.00  0.00    -0.237 OA
ATOM     74  O   UNL     1       8.712  17.450   8.762  1.00  0.00    -0.237 OA
ATOM     75  O   UNL     1       9.831  16.338  10.648  1.00  0.00    -0.744 OA
ENDBRANCH  69  72
ENDBRANCH  51  65
BRANCH  52  76
ATOM     76  C   UNL     1       4.035   8.573  18.780  1.00  0.00     0.023 A 
ATOM     77  C   UNL     1       2.695   8.493  19.204  1.00  0.00     0.012 A 
ATOM     78  C   UNL     1       5.038   7.969  19.562  1.00  0.00     0.148 A 
ATOM     79  C   UNL     1       2.364   7.857  20.401  1.00  0.00     0.002 A 
ATOM     80  C   UNL     1       4.694   7.287  20.724  1.00  0.00     0.091 A 
ATOM     81  F   UNL     1       6.313   8.076  19.161  1.00  0.00    -0.205 F 
ATOM     82  C   UNL     1       3.361   7.244  21.155  1.00  0.00     0.022 A 
BRANCH  80  83
ATOM     83  S   UNL     1       5.913   6.362  21.666  1.00  0.00     0.127 S 
ATOM     84  O   UNL     1       6.258   7.308  22.723  1.00  0.00    -0.237 OA
ATOM     85  O   UNL     1       5.146   5.197  22.110  1.00  0.00    -0.237 OA
ATOM     86  O   UNL     1       6.969   6.048  20.712  1.00  0.00    -0.744 OA
ENDBRANCH  80  83
ENDBRANCH  52  76
BRANCH  64  87
ATOM     87  C   UNL     1       3.498  15.238  16.799  1.00  0.00     0.023 A 
ATOM     88  C   UNL     1       4.278  15.810  17.825  1.00  0.00     0.012 A 
ATOM     89  C   UNL     1       2.296  15.863  16.416  1.00  0.00     0.148 A 
ATOM     90  C   UNL     1       3.850  16.962  18.484  1.00  0.00     0.002 A 
ATOM     91  C   UNL     1       1.897  17.037  17.047  1.00  0.00     0.091 A 
ATOM     92  F   UNL     1       1.554  15.296  15.454  1.00  0.00    -0.205 F 
ATOM     93  C   UNL     1       2.666  17.581  18.088  1.00  0.00     0.022 A 
BRANCH  91  94
ATOM     94  S   UNL     1       0.433  17.941  16.530  1.00  0.00     0.127 S 
ATOM     95  O   UNL     1      -0.560  17.485  17.500  1.00  0.00    -0.237 OA
ATOM     96  O   UNL     1       0.847  19.336  16.692  1.00  0.00    -0.237 OA
ATOM     97  O   UNL     1       0.199  17.545  15.147  1.00  0.00    -0.744 OA
ENDBRANCH  91  94
ENDBRANCH  64  87
ENDBRANCH  38  39
ENDBRANCH  31  33
ENDBRANCH  30  31
ENDBRANCH  29  30
ENDBRANCH   1  29
TORSDOF 20
