REMARK SMILES O=C(Cc1ccc(OC[C@H]2Cc3ccccc3S2)cc1)OCCOC(=O)c1ccc(-c2c3nc(c(-c4cccc(S(=O)(=O)[O-])c4F)c4ccc([nH]4)c(-c4cccc(S(=O)(=O)[O-])c4F)c4nc(c(-c5cccc(S(=O)(=O)[O-])c5F)c5ccc2[nH]5)C=C4)C=C3)cc1
REMARK SMILES IDX 22 1 21 2 2 3 1 4 3 5 4 6 5 7 20 8 6 9 19 10 7 11 8 12 9 13
REMARK SMILES IDX 10 14 11 15 18 16 12 17 17 18 13 19 16 20 14 21 15 22 23 23
REMARK SMILES IDX 24 24 25 25 26 26 27 27 28 28 89 29 29 30 88 31 30 32 31 33
REMARK SMILES IDX 32 34 82 35 33 36 87 37 81 38 83 39 34 40 86 41 80 42 79 43
REMARK SMILES IDX 35 45 67 46 47 47 66 48 48 49 51 50 65 51 84 52 49 53 50 54
REMARK SMILES IDX 64 56 85 57 52 58 36 59 37 60 45 61 38 62 40 63 46 64 39 65
REMARK SMILES IDX 41 66 42 67 43 68 44 69 68 70 69 71 77 72 70 73 72 74 78 75
REMARK SMILES IDX 71 76 73 77 74 78 75 79 76 80 53 81 54 82 62 83 55 84 57 85
REMARK SMILES IDX 63 86 56 87 58 88 59 89 60 90 61 91
REMARK H PARENT 83 44 51 55
REMARK Flexibility Score: inf
ROOT
ATOM      1  C   UNL     1       4.404  -0.684  -0.753  1.00  0.00     0.274 C 
ENDROOT
BRANCH   1   2
ATOM      2  O   UNL     1       3.055  -1.148  -0.521  1.00  0.00    -0.462 OA
BRANCH   2   3
ATOM      3  C   UNL     1       2.263  -0.843   0.534  1.00  0.00     0.310 C 
ATOM      4  O   UNL     1       1.268  -1.531   0.764  1.00  0.00    -0.252 OA
BRANCH   3   5
ATOM      5  C   UNL     1       2.557   0.380   1.365  1.00  0.00     0.158 C 
BRANCH   5   6
ATOM      6  C   UNL     1       3.766   0.358   2.258  1.00  0.00    -0.037 A 
ATOM      7  C   UNL     1       4.279  -0.821   2.815  1.00  0.00     0.008 A 
ATOM      8  C   UNL     1       4.413   1.579   2.514  1.00  0.00     0.008 A 
ATOM      9  C   UNL     1       5.481  -0.791   3.525  1.00  0.00     0.047 A 
ATOM     10  C   UNL     1       5.605   1.609   3.226  1.00  0.00     0.047 A 
ATOM     11  C   UNL     1       6.141   0.421   3.713  1.00  0.00     0.119 A 
BRANCH  11  12
ATOM     12  O   UNL     1       7.367   0.433   4.320  1.00  0.00    -0.492 OA
BRANCH  12  13
ATOM     13  C   UNL     1       7.253   0.958   5.651  1.00  0.00     0.244 C 
BRANCH  13  14
ATOM     14  C   UNL     1       8.554   1.699   6.030  1.00  0.00     0.094 C 
ATOM     15  C   UNL     1       8.520   3.198   5.644  1.00  0.00     0.055 C 
ATOM     16  S   UNL     1       8.636   1.724   7.855  1.00  0.00    -0.119 SA
ATOM     17  C   UNL     1       7.620   3.840   6.666  1.00  0.00    -0.033 A 
ATOM     18  C   UNL     1       7.551   3.124   7.872  1.00  0.00     0.011 A 
ATOM     19  C   UNL     1       6.838   4.968   6.468  1.00  0.00     0.005 A 
ATOM     20  C   UNL     1       6.614   3.431   8.836  1.00  0.00     0.015 A 
ATOM     21  C   UNL     1       5.904   5.298   7.449  1.00  0.00     0.000 A 
ATOM     22  C   UNL     1       5.773   4.517   8.606  1.00  0.00     0.001 A 
ENDBRANCH  13  14
ENDBRANCH  12  13
ENDBRANCH  11  12
ENDBRANCH   5   6
ENDBRANCH   3   5
ENDBRANCH   2   3
ENDBRANCH   1   2
BRANCH   1  23
ATOM     23  C   UNL     1       4.486   0.275  -1.938  1.00  0.00     0.275 C 
BRANCH  23  24
ATOM     24  O   UNL     1       3.986   1.569  -1.560  1.00  0.00    -0.458 OA
BRANCH  24  25
ATOM     25  C   UNL     1       2.712   1.841  -1.934  1.00  0.00     0.338 C 
ATOM     26  O   UNL     1       1.992   1.145  -2.630  1.00  0.00    -0.246 OA
BRANCH  25  27
ATOM     27  C   UNL     1       2.238   3.028  -1.185  1.00  0.00     0.060 A 
ATOM     28  C   UNL     1       0.940   2.986  -0.660  1.00  0.00     0.016 A 
ATOM     29  C   UNL     1       3.061   4.132  -0.940  1.00  0.00     0.016 A 
ATOM     30  C   UNL     1       0.459   4.051   0.100  1.00  0.00     0.010 A 
ATOM     31  C   UNL     1       2.572   5.204  -0.185  1.00  0.00     0.010 A 
ATOM     32  C   UNL     1       1.262   5.178   0.322  1.00  0.00    -0.014 A 
BRANCH  32  33
ATOM     33  C   UNL     1       0.675   6.373   0.977  1.00  0.00     0.031 A 
ATOM     34  C   UNL     1       0.188   7.510   0.118  1.00  0.00     0.074 A 
ATOM     35  C   UNL     1       0.545   6.438   2.316  1.00  0.00     0.049 A 
ATOM     36  N   UNL     1      -0.415   8.615   0.473  1.00  0.00    -0.248 NA
ATOM     37  C   UNL     1       0.407   7.383  -1.333  1.00  0.00     0.031 C 
ATOM     38  C   UNL     1       0.983   5.417   3.269  1.00  0.00     0.029 A 
ATOM     39  N   UNL     1       0.007   7.424   3.106  1.00  0.00    -0.354 N 
ATOM     40  C   UNL     1      -0.649   9.315  -0.705  1.00  0.00     0.074 A 
ATOM     41  C   UNL     1      -0.093   8.525  -1.783  1.00  0.00     0.031 C 
ATOM     42  C   UNL     1       0.705   5.836   4.518  1.00  0.00     0.029 A 
ATOM     43  C   UNL     1       0.076   7.153   4.452  1.00  0.00     0.049 A 
ATOM     44  H   UNL     1      -0.390   8.248   2.743  1.00  0.00     0.167 HD
ATOM     45  C   UNL     1      -1.293  10.492  -0.882  1.00  0.00     0.034 A 
ATOM     46  C   UNL     1      -0.324   7.890   5.507  1.00  0.00     0.034 A 
ATOM     47  C   UNL     1      -1.854  11.282   0.180  1.00  0.00     0.049 A 
ATOM     48  C   UNL     1      -0.987   9.225   5.279  1.00  0.00     0.074 A 
ATOM     49  C   UNL     1      -2.555  12.473   0.089  1.00  0.00     0.029 A 
ATOM     50  N   UNL     1      -1.769  10.973   1.527  1.00  0.00    -0.354 N 
ATOM     51  N   UNL     1      -1.316   9.807   4.152  1.00  0.00    -0.248 NA
ATOM     52  C   UNL     1      -1.365   9.988   6.480  1.00  0.00     0.031 C 
ATOM     53  C   UNL     1      -2.873  12.895   1.384  1.00  0.00     0.029 A 
ATOM     54  C   UNL     1      -2.394  11.954   2.278  1.00  0.00     0.049 A 
ATOM     55  H   UNL     1      -1.329  10.173   1.896  1.00  0.00     0.167 HD
ATOM     56  C   UNL     1      -1.972  10.982   4.510  1.00  0.00     0.074 A 
ATOM     57  C   UNL     1      -2.017  11.015   5.956  1.00  0.00     0.031 C 
ATOM     58  C   UNL     1      -2.481  11.954   3.714  1.00  0.00     0.034 A 
BRANCH  45  59
ATOM     59  C   UNL     1      -1.473  10.983  -2.293  1.00  0.00     0.023 A 
ATOM     60  C   UNL     1      -2.424  10.357  -3.124  1.00  0.00     0.012 A 
ATOM     61  C   UNL     1      -0.767  12.105  -2.768  1.00  0.00     0.148 A 
ATOM     62  C   UNL     1      -2.655  10.826  -4.416  1.00  0.00     0.002 A 
ATOM     63  C   UNL     1      -1.033  12.592  -4.042  1.00  0.00     0.091 A 
ATOM     64  F   UNL     1       0.146  12.671  -1.968  1.00  0.00    -0.205 F 
ATOM     65  C   UNL     1      -1.970  11.949  -4.870  1.00  0.00     0.022 A 
BRANCH  63  66
ATOM     66  S   UNL     1      -0.258  14.074  -4.696  1.00  0.00     0.127 S 
ATOM     67  O   UNL     1       0.574  13.523  -5.766  1.00  0.00    -0.237 OA
ATOM     68  O   UNL     1      -1.412  14.845  -5.157  1.00  0.00    -0.237 OA
ATOM     69  O   UNL     1       0.472  14.670  -3.587  1.00  0.00    -0.744 OA
ENDBRANCH  63  66
ENDBRANCH  45  59
BRANCH  46  70
ATOM     70  C   UNL     1      -0.143   7.405   6.903  1.00  0.00     0.023 A 
ATOM     71  C   UNL     1      -1.274   7.037   7.658  1.00  0.00     0.012 A 
ATOM     72  C   UNL     1       1.122   7.428   7.516  1.00  0.00     0.148 A 
ATOM     73  C   UNL     1      -1.156   6.752   9.019  1.00  0.00     0.002 A 
ATOM     74  C   UNL     1       1.233   7.126   8.868  1.00  0.00     0.091 A 
ATOM     75  F   UNL     1       2.185   7.758   6.769  1.00  0.00    -0.205 F 
ATOM     76  C   UNL     1       0.095   6.802   9.624  1.00  0.00     0.022 A 
BRANCH  74  77
ATOM     77  S   UNL     1       2.797   7.146   9.740  1.00  0.00     0.127 S 
ATOM     78  O   UNL     1       2.516   8.042  10.860  1.00  0.00    -0.237 OA
ATOM     79  O   UNL     1       2.941   5.738  10.101  1.00  0.00    -0.237 OA
ATOM     80  O   UNL     1       3.775   7.646   8.785  1.00  0.00    -0.744 OA
ENDBRANCH  74  77
ENDBRANCH  46  70
BRANCH  58  81
ATOM     81  C   UNL     1      -3.166  13.117   4.384  1.00  0.00     0.023 A 
ATOM     82  C   UNL     1      -2.405  14.068   5.095  1.00  0.00     0.012 A 
ATOM     83  C   UNL     1      -4.560  13.293   4.274  1.00  0.00     0.148 A 
ATOM     84  C   UNL     1      -3.025  15.148   5.721  1.00  0.00     0.002 A 
ATOM     85  C   UNL     1      -5.164  14.400   4.859  1.00  0.00     0.091 A 
ATOM     86  F   UNL     1      -5.272  12.369   3.612  1.00  0.00    -0.205 F 
ATOM     87  C   UNL     1      -4.401  15.320   5.595  1.00  0.00     0.022 A 
BRANCH  85  88
ATOM     88  S   UNL     1      -6.916  14.749   4.667  1.00  0.00     0.127 S 
ATOM     89  O   UNL     1      -7.442  14.373   5.978  1.00  0.00    -0.237 OA
ATOM     90  O   UNL     1      -6.920  16.188   4.399  1.00  0.00    -0.237 OA
ATOM     91  O   UNL     1      -7.366  13.929   3.550  1.00  0.00    -0.744 OA
ENDBRANCH  85  88
ENDBRANCH  58  81
ENDBRANCH  32  33
ENDBRANCH  25  27
ENDBRANCH  24  25
ENDBRANCH  23  24
ENDBRANCH   1  23
TORSDOF 18
