REMARK SMILES COc1ccc(-c2ccc(CCC(=O)OCCOC(=O)c3ccc(-c4c5nc(c(-c6cccc(S(=O)(=O)[O-])c6F)c6ccc([nH]6)c(-c6cccc(S(=O)(=O)[O-])c6F)c6nc(c(-c7cccc(S(=O)(=O)[O-])c7F)c7ccc4[nH]7)C=C6)C=C5)cc3)n2-c2ccc(C(C)=O)cc2)cc1
REMARK SMILES IDX 16 1 15 2 13 3 14 4 12 5 11 6 10 7 7 8 8 9 84 10 9 11 6 12
REMARK SMILES IDX 3 13 4 14 95 15 5 16 94 17 2 18 1 19 85 20 86 21 93 22 87 23
REMARK SMILES IDX 92 24 88 25 89 26 90 27 91 28 17 29 18 30 19 31 20 32 21 33
REMARK SMILES IDX 22 34 83 35 23 36 82 37 24 38 25 39 26 40 76 41 27 42 81 43
REMARK SMILES IDX 75 44 77 45 28 46 80 47 74 48 73 49 29 51 61 52 41 53 60 54
REMARK SMILES IDX 42 55 45 56 59 57 78 58 43 59 44 60 58 62 79 63 46 64 30 65
REMARK SMILES IDX 31 66 39 67 32 68 34 69 40 70 33 71 35 72 36 73 37 74 38 75
REMARK SMILES IDX 62 76 63 77 71 78 64 79 66 80 72 81 65 82 67 83 68 84 69 85
REMARK SMILES IDX 70 86 47 87 48 88 56 89 49 90 51 91 57 92 50 93 52 94 53 95
REMARK SMILES IDX 54 96 55 97
REMARK H PARENT 77 50 45 61
REMARK Flexibility Score: inf
ROOT
ATOM      1  C   UNL     1       5.675  -4.311  -9.427  1.00  0.00     0.274 C 
ENDROOT
BRANCH   1   2
ATOM      2  O   UNL     1       4.615  -3.398  -9.082  1.00  0.00    -0.462 OA
BRANCH   2   3
ATOM      3  C   UNL     1       4.172  -2.570 -10.061  1.00  0.00     0.306 C 
ATOM      4  O   UNL     1       4.679  -2.478 -11.175  1.00  0.00    -0.252 OA
BRANCH   3   5
ATOM      5  C   UNL     1       3.047  -1.669  -9.599  1.00  0.00     0.129 C 
BRANCH   5   6
ATOM      6  C   UNL     1       1.734  -2.340  -9.194  1.00  0.00     0.066 C 
BRANCH   6   7
ATOM      7  C   UNL     1       1.748  -2.901  -7.793  1.00  0.00     0.024 A 
ATOM      8  C   UNL     1       1.668  -2.882  -5.539  1.00  0.00     0.053 A 
ATOM      9  C   UNL     1       2.306  -4.043  -5.926  1.00  0.00     0.029 A 
ATOM     10  N   UNL     1       1.194  -2.260  -6.692  1.00  0.00    -0.314 N 
ATOM     11  C   UNL     1       2.307  -4.077  -7.327  1.00  0.00     0.024 A 
BRANCH   8  12
ATOM     12  C   UNL     1       1.377  -2.477  -4.174  1.00  0.00    -0.001 A 
ATOM     13  C   UNL     1       0.834  -1.679  -1.561  1.00  0.00     0.118 A 
ATOM     14  C   UNL     1      -0.179  -2.231  -2.343  1.00  0.00     0.047 A 
ATOM     15  C   UNL     1       2.133  -1.577  -2.061  1.00  0.00     0.047 A 
ATOM     16  C   UNL     1       0.089  -2.626  -3.652  1.00  0.00     0.014 A 
ATOM     17  C   UNL     1       2.404  -1.976  -3.369  1.00  0.00     0.014 A 
BRANCH  13  18
ATOM     18  O   UNL     1       0.488  -1.306  -0.291  1.00  0.00    -0.497 OA
ATOM     19  C   UNL     1       0.976  -0.012   0.052  1.00  0.00     0.278 C 
ENDBRANCH  13  18
ENDBRANCH   8  12
BRANCH  10  20
ATOM     20  C   UNL     1       0.257  -1.199  -6.749  1.00  0.00     0.046 A 
ATOM     21  C   UNL     1      -0.896  -1.361  -7.528  1.00  0.00     0.027 A 
ATOM     22  C   UNL     1       0.464  -0.025  -6.028  1.00  0.00     0.027 A 
ATOM     23  C   UNL     1      -1.844  -0.339  -7.597  1.00  0.00     0.014 A 
ATOM     24  C   UNL     1      -0.479   1.001  -6.117  1.00  0.00     0.014 A 
ATOM     25  C   UNL     1      -1.640   0.856  -6.898  1.00  0.00     0.017 A 
BRANCH  25  26
ATOM     26  C   UNL     1      -2.599   2.004  -6.938  1.00  0.00     0.159 C 
ATOM     27  C   UNL     1      -3.913   1.900  -7.670  1.00  0.00     0.093 C 
ATOM     28  O   UNL     1      -2.312   3.046  -6.345  1.00  0.00    -0.295 OA
ENDBRANCH  25  26
ENDBRANCH  10  20
ENDBRANCH   6   7
ENDBRANCH   5   6
ENDBRANCH   3   5
ENDBRANCH   2   3
ENDBRANCH   1   2
BRANCH   1  29
ATOM     29  C   UNL     1       5.176  -5.686  -9.887  1.00  0.00     0.275 C 
BRANCH  29  30
ATOM     30  O   UNL     1       4.542  -5.686 -11.174  1.00  0.00    -0.458 OA
BRANCH  30  31
ATOM     31  C   UNL     1       3.221  -5.423 -11.098  1.00  0.00     0.338 C 
ATOM     32  O   UNL     1       2.620  -5.006 -10.129  1.00  0.00    -0.246 OA
BRANCH  31  33
ATOM     33  C   UNL     1       2.448  -5.848 -12.249  1.00  0.00     0.060 A 
ATOM     34  C   UNL     1       1.400  -5.017 -12.668  1.00  0.00     0.016 A 
ATOM     35  C   UNL     1       2.537  -7.185 -12.628  1.00  0.00     0.016 A 
ATOM     36  C   UNL     1       0.411  -5.544 -13.478  1.00  0.00     0.010 A 
ATOM     37  C   UNL     1       1.524  -7.719 -13.403  1.00  0.00     0.010 A 
ATOM     38  C   UNL     1       0.474  -6.898 -13.835  1.00  0.00    -0.014 A 
BRANCH  38  39
ATOM     39  C   UNL     1      -0.471  -7.383 -14.857  1.00  0.00     0.031 A 
ATOM     40  C   UNL     1       0.066  -7.066 -16.269  1.00  0.00     0.074 A 
ATOM     41  C   UNL     1      -1.638  -7.942 -14.409  1.00  0.00     0.049 A 
ATOM     42  N   UNL     1      -0.581  -6.762 -17.354  1.00  0.00    -0.248 NA
ATOM     43  C   UNL     1       1.537  -6.930 -16.481  1.00  0.00     0.031 C 
ATOM     44  C   UNL     1      -1.969  -8.187 -12.985  1.00  0.00     0.029 A 
ATOM     45  N   UNL     1      -2.776  -8.419 -15.031  1.00  0.00    -0.354 N 
ATOM     46  C   UNL     1       0.378  -6.652 -18.392  1.00  0.00     0.074 A 
ATOM     47  C   UNL     1       1.658  -6.598 -17.767  1.00  0.00     0.031 C 
ATOM     48  C   UNL     1      -3.221  -8.681 -12.854  1.00  0.00     0.029 A 
ATOM     49  C   UNL     1      -3.821  -8.844 -14.167  1.00  0.00     0.049 A 
ATOM     50  H   UNL     1      -2.858  -8.461 -16.011  1.00  0.00     0.167 HD
ATOM     51  C   UNL     1       0.063  -6.785 -19.713  1.00  0.00     0.034 A 
ATOM     52  C   UNL     1      -5.087  -9.269 -14.483  1.00  0.00     0.034 A 
ATOM     53  C   UNL     1      -1.325  -7.082 -19.829  1.00  0.00     0.049 A 
ATOM     54  C   UNL     1      -5.105  -9.401 -15.944  1.00  0.00     0.074 A 
ATOM     55  C   UNL     1      -2.451  -6.317 -19.692  1.00  0.00     0.029 A 
ATOM     56  N   UNL     1      -1.647  -8.416 -19.747  1.00  0.00    -0.354 N 
ATOM     57  N   UNL     1      -4.522 -10.357 -16.605  1.00  0.00    -0.248 NA
ATOM     58  C   UNL     1      -5.736  -8.343 -16.744  1.00  0.00     0.031 C 
ATOM     59  C   UNL     1      -3.374  -7.205 -19.110  1.00  0.00     0.029 A 
ATOM     60  C   UNL     1      -2.851  -8.506 -19.101  1.00  0.00     0.049 A 
ATOM     61  H   UNL     1      -1.112  -9.168 -20.089  1.00  0.00     0.167 HD
ATOM     62  C   UNL     1      -4.404  -9.799 -17.853  1.00  0.00     0.074 A 
ATOM     63  C   UNL     1      -5.447  -8.804 -17.957  1.00  0.00     0.031 C 
ATOM     64  C   UNL     1      -3.181  -9.748 -18.443  1.00  0.00     0.034 A 
BRANCH  51  65
ATOM     65  C   UNL     1       0.870  -6.937 -20.979  1.00  0.00     0.023 A 
ATOM     66  C   UNL     1       0.153  -6.680 -22.184  1.00  0.00     0.012 A 
ATOM     67  C   UNL     1       2.114  -7.577 -21.093  1.00  0.00     0.148 A 
ATOM     68  C   UNL     1       0.577  -7.151 -23.423  1.00  0.00     0.002 A 
ATOM     69  C   UNL     1       2.561  -8.002 -22.349  1.00  0.00     0.091 A 
ATOM     70  F   UNL     1       2.817  -7.854 -19.990  1.00  0.00    -0.205 F 
ATOM     71  C   UNL     1       1.778  -7.828 -23.502  1.00  0.00     0.022 A 
BRANCH  69  72
ATOM     72  S   UNL     1       4.143  -8.817 -22.599  1.00  0.00     0.127 S 
ATOM     73  O   UNL     1       3.739 -10.201 -22.832  1.00  0.00    -0.237 OA
ATOM     74  O   UNL     1       4.653  -8.127 -23.787  1.00  0.00    -0.237 OA
ATOM     75  O   UNL     1       4.913  -8.560 -21.390  1.00  0.00    -0.744 OA
ENDBRANCH  69  72
ENDBRANCH  51  65
BRANCH  52  76
ATOM     76  C   UNL     1      -6.396  -9.548 -13.766  1.00  0.00     0.023 A 
ATOM     77  C   UNL     1      -6.515  -9.767 -12.388  1.00  0.00     0.012 A 
ATOM     78  C   UNL     1      -7.630  -9.538 -14.494  1.00  0.00     0.148 A 
ATOM     79  C   UNL     1      -7.782  -9.872 -11.769  1.00  0.00     0.002 A 
ATOM     80  C   UNL     1      -8.873  -9.515 -13.873  1.00  0.00     0.091 A 
ATOM     81  F   UNL     1      -7.619  -9.597 -15.828  1.00  0.00    -0.205 F 
ATOM     82  C   UNL     1      -8.957  -9.700 -12.500  1.00  0.00     0.022 A 
BRANCH  80  83
ATOM     83  S   UNL     1     -10.381  -9.112 -14.783  1.00  0.00     0.127 S 
ATOM     84  O   UNL     1     -11.261 -10.228 -14.443  1.00  0.00    -0.237 OA
ATOM     85  O   UNL     1     -10.750  -7.832 -14.178  1.00  0.00    -0.237 OA
ATOM     86  O   UNL     1     -10.007  -9.027 -16.189  1.00  0.00    -0.744 OA
ENDBRANCH  80  83
ENDBRANCH  52  76
BRANCH  64  87
ATOM     87  C   UNL     1      -2.228 -10.869 -18.033  1.00  0.00     0.023 A 
ATOM     88  C   UNL     1      -2.649 -12.189 -18.296  1.00  0.00     0.012 A 
ATOM     89  C   UNL     1      -1.022 -10.711 -17.311  1.00  0.00     0.148 A 
ATOM     90  C   UNL     1      -1.924 -13.299 -17.850  1.00  0.00     0.002 A 
ATOM     91  C   UNL     1      -0.301 -11.821 -16.852  1.00  0.00     0.091 A 
ATOM     92  F   UNL     1      -0.582  -9.479 -17.067  1.00  0.00    -0.205 F 
ATOM     93  C   UNL     1      -0.753 -13.116 -17.126  1.00  0.00     0.022 A 
BRANCH  91  94
ATOM     94  S   UNL     1       1.194 -11.710 -15.845  1.00  0.00     0.127 S 
ATOM     95  O   UNL     1       0.858 -12.537 -14.684  1.00  0.00    -0.237 OA
ATOM     96  O   UNL     1       2.204 -12.296 -16.723  1.00  0.00    -0.237 OA
ATOM     97  O   UNL     1       1.380 -10.298 -15.537  1.00  0.00    -0.744 OA
ENDBRANCH  91  94
ENDBRANCH  64  87
ENDBRANCH  38  39
ENDBRANCH  31  33
ENDBRANCH  30  31
ENDBRANCH  29  30
ENDBRANCH   1  29
TORSDOF 20
