REMARK SMILES Cc1ccc(C(=O)OCCOC(=O)c2ccc(-c3c4nc(c(-c5cccc(S(=O)(=O)[O-])c5F)c5ccc([nH]5)c(-c5cccc(S(=O)(=O)[O-])c5F)c5nc(c(-c6cccc(S(=O)(=O)[O-])c6F)c6ccc3[nH]6)C=C5)C=C4)cc2)c2c1N[C@H](c1ccccc1F)[C@H]1CC=C[C@@H]21
REMARK SMILES IDX 10 1 9 2 8 3 6 4 7 5 5 6 1 7 2 8 3 9 78 10 4 11 77 12 79 13
REMARK SMILES IDX 92 14 80 15 88 17 91 18 89 19 90 20 81 21 82 22 86 23 83 24
REMARK SMILES IDX 85 25 87 26 84 27 11 28 12 29 13 30 14 31 15 32 76 33 16 34
REMARK SMILES IDX 75 35 17 36 18 37 19 38 69 39 20 40 74 41 68 42 70 43 21 44
REMARK SMILES IDX 73 45 67 46 66 47 22 49 54 50 34 51 53 52 35 53 38 54 52 55
REMARK SMILES IDX 71 56 36 57 37 58 51 60 72 61 39 62 23 63 24 64 32 65 25 66
REMARK SMILES IDX 27 67 33 68 26 69 28 70 29 71 30 72 31 73 55 74 56 75 64 76
REMARK SMILES IDX 57 77 59 78 65 79 58 80 60 81 61 82 62 83 63 84 40 85 41 86
REMARK SMILES IDX 49 87 42 88 44 89 50 90 43 91 45 92 46 93 47 94 48 95
REMARK H PARENT 79 16 70 48 38 59
REMARK Flexibility Score: inf
ROOT
ATOM      1  C   UNL     1      -2.196   3.713  -6.730  1.00  0.00     0.275 C 
ENDROOT
BRANCH   1   2
ATOM      2  C   UNL     1      -0.819   3.053  -6.683  1.00  0.00     0.275 C 
BRANCH   2   3
ATOM      3  O   UNL     1      -0.620   2.367  -5.428  1.00  0.00    -0.458 OA
BRANCH   3   4
ATOM      4  C   UNL     1       0.235   2.964  -4.549  1.00  0.00     0.338 C 
ATOM      5  O   UNL     1       0.805   4.016  -4.739  1.00  0.00    -0.246 OA
BRANCH   4   6
ATOM      6  C   UNL     1       0.377   2.113  -3.321  1.00  0.00     0.065 A 
ATOM      7  C   UNL     1       0.804  -0.576   0.022  1.00  0.00     0.046 C 
ATOM      8  C   UNL     1       0.562   0.390  -1.108  1.00  0.00    -0.028 A 
ATOM      9  C   UNL     1       0.539  -0.123  -2.413  1.00  0.00     0.006 A 
ATOM     10  C   UNL     1       0.474   1.785  -0.894  1.00  0.00     0.042 A 
ATOM     11  C   UNL     1       0.411   0.725  -3.506  1.00  0.00     0.016 A 
ATOM     12  C   UNL     1       0.481   2.657  -2.011  1.00  0.00    -0.003 A 
ATOM     13  N   UNL     1       0.405   2.285   0.398  1.00  0.00    -0.377 N 
ATOM     14  C   UNL     1       0.507   4.151  -1.782  1.00  0.00     0.050 C 
ATOM     15  C   UNL     1       0.804   3.643   0.700  1.00  0.00     0.117 C 
ATOM     16  H   UNL     1       0.077   1.706   1.124  1.00  0.00     0.161 HD
ATOM     17  C   UNL     1       0.264   4.632  -0.339  1.00  0.00     0.031 C 
ATOM     18  C   UNL     1       1.787   4.863  -2.127  1.00  0.00    -0.023 C 
ATOM     19  C   UNL     1       1.023   5.969  -0.208  1.00  0.00     0.034 C 
ATOM     20  C   UNL     1       2.036   5.883  -1.298  1.00  0.00    -0.030 C 
BRANCH  15  21
ATOM     21  C   UNL     1       0.455   4.017   2.137  1.00  0.00     0.010 A 
ATOM     22  C   UNL     1       1.430   3.872   3.139  1.00  0.00     0.009 A 
ATOM     23  C   UNL     1      -0.760   4.616   2.501  1.00  0.00     0.128 A 
ATOM     24  C   UNL     1       1.225   4.393   4.421  1.00  0.00     0.001 A 
ATOM     25  C   UNL     1      -0.956   5.167   3.765  1.00  0.00     0.039 A 
ATOM     26  F   UNL     1      -1.772   4.694   1.630  1.00  0.00    -0.207 F 
ATOM     27  C   UNL     1       0.045   5.069   4.725  1.00  0.00     0.003 A 
ENDBRANCH  15  21
ENDBRANCH   4   6
ENDBRANCH   3   4
ENDBRANCH   2   3
ENDBRANCH   1   2
BRANCH   1  28
ATOM     28  O   UNL     1      -2.240   4.792  -5.783  1.00  0.00    -0.458 OA
BRANCH  28  29
ATOM     29  C   UNL     1      -3.219   4.742  -4.847  1.00  0.00     0.338 C 
ATOM     30  O   UNL     1      -4.124   3.925  -4.787  1.00  0.00    -0.246 OA
BRANCH  29  31
ATOM     31  C   UNL     1      -3.028   5.822  -3.847  1.00  0.00     0.060 A 
ATOM     32  C   UNL     1      -1.760   6.309  -3.559  1.00  0.00     0.016 A 
ATOM     33  C   UNL     1      -4.110   6.273  -3.088  1.00  0.00     0.016 A 
ATOM     34  C   UNL     1      -1.562   7.098  -2.421  1.00  0.00     0.010 A 
ATOM     35  C   UNL     1      -3.908   7.158  -2.012  1.00  0.00     0.010 A 
ATOM     36  C   UNL     1      -2.617   7.517  -1.590  1.00  0.00    -0.014 A 
BRANCH  36  37
ATOM     37  C   UNL     1      -2.373   8.207  -0.261  1.00  0.00     0.031 A 
ATOM     38  C   UNL     1      -3.131   7.784   0.996  1.00  0.00     0.074 A 
ATOM     39  C   UNL     1      -1.426   9.163  -0.097  1.00  0.00     0.049 A 
ATOM     40  N   UNL     1      -3.195   8.378   2.166  1.00  0.00    -0.248 NA
ATOM     41  C   UNL     1      -3.923   6.544   0.934  1.00  0.00     0.031 C 
ATOM     42  C   UNL     1      -0.539   9.681  -1.137  1.00  0.00     0.029 A 
ATOM     43  N   UNL     1      -1.025   9.850   1.033  1.00  0.00    -0.354 N 
ATOM     44  C   UNL     1      -4.092   7.638   2.933  1.00  0.00     0.074 A 
ATOM     45  C   UNL     1      -4.541   6.540   2.108  1.00  0.00     0.031 C 
ATOM     46  C   UNL     1       0.361  10.508  -0.588  1.00  0.00     0.029 A 
ATOM     47  C   UNL     1       0.028  10.712   0.817  1.00  0.00     0.049 A 
ATOM     48  H   UNL     1      -1.453   9.735   1.912  1.00  0.00     0.167 HD
ATOM     49  C   UNL     1      -4.490   7.822   4.215  1.00  0.00     0.034 A 
ATOM     50  C   UNL     1       0.634  11.618   1.615  1.00  0.00     0.034 A 
ATOM     51  C   UNL     1      -3.974   8.823   5.109  1.00  0.00     0.049 A 
ATOM     52  C   UNL     1       0.126  11.862   3.007  1.00  0.00     0.074 A 
ATOM     53  C   UNL     1      -4.342   9.066   6.423  1.00  0.00     0.029 A 
ATOM     54  N   UNL     1      -2.966   9.718   4.806  1.00  0.00    -0.354 N 
ATOM     55  N   UNL     1      -0.778  11.199   3.680  1.00  0.00    -0.248 NA
ATOM     56  C   UNL     1       0.702  13.004   3.737  1.00  0.00     0.031 C 
ATOM     57  C   UNL     1      -3.554  10.108   6.916  1.00  0.00     0.029 A 
ATOM     58  C   UNL     1      -2.695  10.510   5.909  1.00  0.00     0.049 A 
ATOM     59  H   UNL     1      -2.509   9.782   3.936  1.00  0.00     0.167 HD
ATOM     60  C   UNL     1      -0.880  11.841   4.910  1.00  0.00     0.074 A 
ATOM     61  C   UNL     1       0.073  12.929   4.903  1.00  0.00     0.031 C 
ATOM     62  C   UNL     1      -1.716  11.561   5.936  1.00  0.00     0.034 A 
BRANCH  49  63
ATOM     63  C   UNL     1      -5.530   6.893   4.784  1.00  0.00     0.023 A 
ATOM     64  C   UNL     1      -5.134   5.653   5.319  1.00  0.00     0.012 A 
ATOM     65  C   UNL     1      -6.865   7.321   4.928  1.00  0.00     0.148 A 
ATOM     66  C   UNL     1      -6.054   4.848   5.991  1.00  0.00     0.002 A 
ATOM     67  C   UNL     1      -7.769   6.527   5.624  1.00  0.00     0.091 A 
ATOM     68  F   UNL     1      -7.213   8.506   4.408  1.00  0.00    -0.205 F 
ATOM     69  C   UNL     1      -7.365   5.290   6.154  1.00  0.00     0.022 A 
BRANCH  67  70
ATOM     70  S   UNL     1      -9.462   7.033   5.947  1.00  0.00     0.127 S 
ATOM     71  O   UNL     1     -10.217   6.036   5.188  1.00  0.00    -0.237 OA
ATOM     72  O   UNL     1      -9.553   6.891   7.400  1.00  0.00    -0.237 OA
ATOM     73  O   UNL     1      -9.577   8.399   5.456  1.00  0.00    -0.744 OA
ENDBRANCH  67  70
ENDBRANCH  49  63
BRANCH  50  74
ATOM     74  C   UNL     1       1.783  12.412   1.090  1.00  0.00     0.023 A 
ATOM     75  C   UNL     1       3.075  12.185   1.602  1.00  0.00     0.012 A 
ATOM     76  C   UNL     1       1.606  13.354   0.058  1.00  0.00     0.148 A 
ATOM     77  C   UNL     1       4.171  12.879   1.087  1.00  0.00     0.002 A 
ATOM     78  C   UNL     1       2.708  13.993  -0.492  1.00  0.00     0.091 A 
ATOM     79  F   UNL     1       0.361  13.579  -0.385  1.00  0.00    -0.205 F 
ATOM     80  C   UNL     1       3.991  13.768   0.029  1.00  0.00     0.022 A 
BRANCH  78  81
ATOM     81  S   UNL     1       2.583  15.041  -1.945  1.00  0.00     0.127 S 
ATOM     82  O   UNL     1       2.916  16.353  -1.395  1.00  0.00    -0.237 OA
ATOM     83  O   UNL     1       3.602  14.462  -2.820  1.00  0.00    -0.237 OA
ATOM     84  O   UNL     1       1.218  14.887  -2.427  1.00  0.00    -0.744 OA
ENDBRANCH  78  81
ENDBRANCH  50  74
BRANCH  62  85
ATOM     85  C   UNL     1      -1.654  12.421   7.168  1.00  0.00     0.023 A 
ATOM     86  C   UNL     1      -2.300  13.672   7.167  1.00  0.00     0.012 A 
ATOM     87  C   UNL     1      -1.071  11.939   8.357  1.00  0.00     0.148 A 
ATOM     88  C   UNL     1      -2.361  14.436   8.332  1.00  0.00     0.002 A 
ATOM     89  C   UNL     1      -1.163  12.693   9.521  1.00  0.00     0.091 A 
ATOM     90  F   UNL     1      -0.458  10.747   8.328  1.00  0.00    -0.205 F 
ATOM     91  C   UNL     1      -1.804  13.943   9.510  1.00  0.00     0.022 A 
BRANCH  89  92
ATOM     92  S   UNL     1      -0.538  12.114  11.104  1.00  0.00     0.127 S 
ATOM     93  O   UNL     1       0.533  13.073  11.370  1.00  0.00    -0.237 OA
ATOM     94  O   UNL     1      -1.710  12.252  11.968  1.00  0.00    -0.237 OA
ATOM     95  O   UNL     1      -0.098  10.742  10.888  1.00  0.00    -0.744 OA
ENDBRANCH  89  92
ENDBRANCH  62  85
ENDBRANCH  36  37
ENDBRANCH  29  31
ENDBRANCH  28  29
ENDBRANCH   1  28
TORSDOF 15
