REMARK SMILES O=C(OCCOC(=O)c1ccc(-c2c3nc(c(-c4cccc(S(=O)(=O)[O-])c4F)c4ccc([nH]4)c(-c4cccc(S(=O)(=O)[O-])c4F)c4nc(c(-c5cccc(S(=O)(=O)[O-])c5F)c5ccc2[nH]5)C=C4)C=C3)cc1)C1=Cc2cc(Cl)cc(-c3ccc(CO)cc3)c2O[C@@H]1C(F)(F)F
REMARK SMILES IDX 4 1 3 2 2 3 1 4 72 5 73 6 90 7 74 8 89 9 75 10 88 11 76 12
REMARK SMILES IDX 79 13 77 14 78 15 91 16 92 17 93 18 94 19 80 20 81 21 87 22
REMARK SMILES IDX 82 23 86 24 83 25 84 26 85 27 5 29 6 30 7 31 8 32 9 33 10 34
REMARK SMILES IDX 71 35 11 36 70 37 12 38 13 39 14 40 64 41 15 42 69 43 63 44
REMARK SMILES IDX 65 45 16 46 68 47 62 48 61 49 17 51 49 52 29 53 48 54 30 55
REMARK SMILES IDX 33 56 47 57 66 58 31 59 32 60 46 62 67 63 34 64 18 65 19 66
REMARK SMILES IDX 27 67 20 68 22 69 28 70 21 71 23 72 24 73 25 74 26 75 50 76
REMARK SMILES IDX 51 77 59 78 52 79 54 80 60 81 53 82 55 83 56 84 57 85 58 86
REMARK SMILES IDX 35 87 36 88 44 89 37 90 39 91 45 92 38 93 40 94 41 95 42 96
REMARK SMILES IDX 43 97
REMARK H PARENT 85 28 65 50 33 61
REMARK Flexibility Score: inf
ROOT
ATOM      1  C   UNL     1       4.039   1.239   0.053  1.00  0.00     0.275 C 
ENDROOT
BRANCH   1   2
ATOM      2  O   UNL     1       3.217   2.288  -0.761  1.00  0.00    -0.459 OA
BRANCH   2   3
ATOM      3  C   UNL     1       3.432   2.221  -2.081  1.00  0.00     0.338 C 
ATOM      4  O   UNL     1       2.913   2.822  -2.985  1.00  0.00    -0.246 OA
BRANCH   3   5
ATOM      5  C   UNL     1       4.215   1.014  -2.017  1.00  0.00     0.087 C 
ATOM      6  C   UNL     1       5.584   1.297  -1.591  1.00  0.00     0.027 C 
ATOM      7  C   UNL     1       2.934  -0.039  -1.038  1.00  0.00     0.316 C 
ATOM      8  C   UNL     1       6.231   0.821   0.016  1.00  0.00     0.019 A 
ATOM      9  O   UNL     1       3.582  -0.491   0.732  1.00  0.00    -0.475 OA
ATOM     10  C   UNL     1       7.491   1.266   0.307  1.00  0.00     0.032 A 
ATOM     11  C   UNL     1       5.250   0.058   1.245  1.00  0.00     0.135 A 
ATOM     12  C   UNL     1       7.887   1.058   1.624  1.00  0.00     0.042 A 
ATOM     13  C   UNL     1       5.708  -0.035   2.541  1.00  0.00     0.026 A 
ATOM     14  Cl  UNL     1       9.462   1.624   2.076  1.00  0.00    -0.084 Cl
ATOM     15  C   UNL     1       7.059   0.461   2.651  1.00  0.00     0.033 A 
BRANCH   7  16
ATOM     16  C   UNL     1       2.498  -0.868  -2.316  1.00  0.00     0.430 C 
ATOM     17  F   UNL     1       1.383  -1.565  -2.122  1.00  0.00    -0.167 F 
ATOM     18  F   UNL     1       2.150   0.025  -3.294  1.00  0.00    -0.167 F 
ATOM     19  F   UNL     1       3.452  -1.625  -2.897  1.00  0.00    -0.167 F 
ENDBRANCH   7  16
BRANCH  13  20
ATOM     20  C   UNL     1       5.054  -0.394   3.793  1.00  0.00    -0.015 A 
ATOM     21  C   UNL     1       4.934   0.598   4.793  1.00  0.00     0.009 A 
ATOM     22  C   UNL     1       4.795  -1.717   4.151  1.00  0.00     0.009 A 
ATOM     23  C   UNL     1       4.613   0.275   6.112  1.00  0.00     0.007 A 
ATOM     24  C   UNL     1       4.470  -2.044   5.478  1.00  0.00     0.007 A 
ATOM     25  C   UNL     1       4.391  -1.055   6.471  1.00  0.00    -0.023 A 
BRANCH  25  26
ATOM     26  C   UNL     1       4.099  -1.401   7.907  1.00  0.00     0.191 C 
BRANCH  26  27
ATOM     27  O   UNL     1       5.226  -1.122   8.733  1.00  0.00    -0.392 OA
ATOM     28  H   UNL     1       5.982  -1.654   8.439  1.00  0.00     0.211 HD
ENDBRANCH  26  27
ENDBRANCH  25  26
ENDBRANCH  13  20
ENDBRANCH   3   5
ENDBRANCH   2   3
ENDBRANCH   1   2
BRANCH   1  29
ATOM     29  C   UNL     1       4.797  -0.649  -0.676  1.00  0.00     0.275 C 
BRANCH  29  30
ATOM     30  O   UNL     1       3.914  -2.132  -0.709  1.00  0.00    -0.458 OA
BRANCH  30  31
ATOM     31  C   UNL     1       3.099  -2.941   0.046  1.00  0.00     0.338 C 
ATOM     32  O   UNL     1       2.742  -2.823   1.202  1.00  0.00    -0.246 OA
BRANCH  31  33
ATOM     33  C   UNL     1       2.467  -3.889  -0.924  1.00  0.00     0.060 A 
ATOM     34  C   UNL     1       1.109  -3.746  -1.260  1.00  0.00     0.016 A 
ATOM     35  C   UNL     1       3.309  -4.631  -1.746  1.00  0.00     0.016 A 
ATOM     36  C   UNL     1       0.687  -4.067  -2.566  1.00  0.00     0.010 A 
ATOM     37  C   UNL     1       2.871  -4.996  -3.015  1.00  0.00     0.010 A 
ATOM     38  C   UNL     1       1.595  -4.627  -3.475  1.00  0.00    -0.014 A 
BRANCH  38  39
ATOM     39  C   UNL     1       1.206  -5.083  -4.834  1.00  0.00     0.031 A 
ATOM     40  C   UNL     1       0.679  -6.481  -4.908  1.00  0.00     0.074 A 
ATOM     41  C   UNL     1       1.513  -4.407  -5.961  1.00  0.00     0.049 A 
ATOM     42  N   UNL     1       0.529  -7.261  -5.940  1.00  0.00    -0.248 NA
ATOM     43  C   UNL     1       0.350  -7.101  -3.613  1.00  0.00     0.031 C 
ATOM     44  C   UNL     1       2.074  -3.057  -6.029  1.00  0.00     0.029 A 
ATOM     45  N   UNL     1       1.450  -4.801  -7.282  1.00  0.00    -0.354 N 
ATOM     46  C   UNL     1       0.161  -8.488  -5.410  1.00  0.00     0.074 A 
ATOM     47  C   UNL     1       0.134  -8.351  -3.972  1.00  0.00     0.031 C 
ATOM     48  C   UNL     1       2.343  -2.754  -7.315  1.00  0.00     0.029 A 
ATOM     49  C   UNL     1       2.001  -3.894  -8.165  1.00  0.00     0.049 A 
ATOM     50  H   UNL     1       1.047  -5.652  -7.569  1.00  0.00     0.167 HD
ATOM     51  C   UNL     1      -0.136  -9.636  -6.055  1.00  0.00     0.034 A 
ATOM     52  C   UNL     1       2.225  -3.993  -9.496  1.00  0.00     0.034 A 
ATOM     53  C   UNL     1      -0.106  -9.776  -7.477  1.00  0.00     0.049 A 
ATOM     54  C   UNL     1       1.834  -5.270 -10.214  1.00  0.00     0.074 A 
ATOM     55  C   UNL     1      -0.452 -10.872  -8.241  1.00  0.00     0.029 A 
ATOM     56  N   UNL     1       0.316  -8.785  -8.350  1.00  0.00    -0.354 N 
ATOM     57  N   UNL     1       1.326  -6.375  -9.718  1.00  0.00    -0.248 NA
ATOM     58  C   UNL     1       2.019  -5.310 -11.675  1.00  0.00     0.031 C 
ATOM     59  C   UNL     1      -0.216 -10.552  -9.581  1.00  0.00     0.029 A 
ATOM     60  C   UNL     1       0.240  -9.243  -9.650  1.00  0.00     0.049 A 
ATOM     61  H   UNL     1       0.624  -7.889  -8.082  1.00  0.00     0.167 HD
ATOM     62  C   UNL     1       1.091  -7.216 -10.804  1.00  0.00     0.074 A 
ATOM     63  C   UNL     1       1.507  -6.494 -11.988  1.00  0.00     0.031 C 
ATOM     64  C   UNL     1       0.587  -8.475 -10.819  1.00  0.00     0.034 A 
BRANCH  51  65
ATOM     65  C   UNL     1      -0.506 -10.803  -5.186  1.00  0.00     0.023 A 
ATOM     66  C   UNL     1      -1.704 -10.764  -4.440  1.00  0.00     0.012 A 
ATOM     67  C   UNL     1       0.376 -11.886  -5.029  1.00  0.00     0.148 A 
ATOM     68  C   UNL     1      -1.977 -11.742  -3.489  1.00  0.00     0.002 A 
ATOM     69  C   UNL     1       0.065 -12.890  -4.122  1.00  0.00     0.091 A 
ATOM     70  F   UNL     1       1.524 -11.887  -5.721  1.00  0.00    -0.205 F 
ATOM     71  C   UNL     1      -1.095 -12.808  -3.334  1.00  0.00     0.022 A 
BRANCH  69  72
ATOM     72  S   UNL     1       1.096 -14.342  -3.908  1.00  0.00     0.127 S 
ATOM     73  O   UNL     1       1.705 -14.083  -2.604  1.00  0.00    -0.237 OA
ATOM     74  O   UNL     1       0.107 -15.421  -3.916  1.00  0.00    -0.237 OA
ATOM     75  O   UNL     1       2.013 -14.353  -5.039  1.00  0.00    -0.744 OA
ENDBRANCH  69  72
ENDBRANCH  51  65
BRANCH  52  76
ATOM     76  C   UNL     1       2.806  -2.849 -10.271  1.00  0.00     0.023 A 
ATOM     77  C   UNL     1       1.990  -2.152 -11.188  1.00  0.00     0.012 A 
ATOM     78  C   UNL     1       4.154  -2.458 -10.133  1.00  0.00     0.148 A 
ATOM     79  C   UNL     1       2.509  -1.120 -11.974  1.00  0.00     0.002 A 
ATOM     80  C   UNL     1       4.654  -1.397 -10.886  1.00  0.00     0.091 A 
ATOM     81  F   UNL     1       4.924  -3.135  -9.270  1.00  0.00    -0.205 F 
ATOM     82  C   UNL     1       3.838  -0.738 -11.819  1.00  0.00     0.022 A 
BRANCH  80  83
ATOM     83  S   UNL     1       6.326  -0.763 -10.699  1.00  0.00     0.127 S 
ATOM     84  O   UNL     1       6.893  -1.011 -12.023  1.00  0.00    -0.237 OA
ATOM     85  O   UNL     1       6.079   0.645 -10.390  1.00  0.00    -0.237 OA
ATOM     86  O   UNL     1       6.922  -1.528  -9.612  1.00  0.00    -0.744 OA
ENDBRANCH  80  83
ENDBRANCH  52  76
BRANCH  64  87
ATOM     87  C   UNL     1       0.372  -9.156 -12.145  1.00  0.00     0.023 A 
ATOM     88  C   UNL     1       1.465  -9.691 -12.851  1.00  0.00     0.012 A 
ATOM     89  C   UNL     1      -0.940  -9.423 -12.589  1.00  0.00     0.148 A 
ATOM     90  C   UNL     1       1.255 -10.481 -13.983  1.00  0.00     0.002 A 
ATOM     91  C   UNL     1      -1.143 -10.253 -13.683  1.00  0.00     0.091 A 
ATOM     92  F   UNL     1      -1.965  -8.889 -11.907  1.00  0.00    -0.205 F 
ATOM     93  C   UNL     1      -0.046 -10.777 -14.386  1.00  0.00     0.022 A 
BRANCH  91  94
ATOM     94  S   UNL     1      -2.780 -10.788 -14.196  1.00  0.00     0.127 S 
ATOM     95  O   UNL     1      -2.937 -10.088 -15.470  1.00  0.00    -0.237 OA
ATOM     96  O   UNL     1      -2.610 -12.236 -14.312  1.00  0.00    -0.237 OA
ATOM     97  O   UNL     1      -3.692 -10.369 -13.140  1.00  0.00    -0.744 OA
ENDBRANCH  91  94
ENDBRANCH  64  87
ENDBRANCH  38  39
ENDBRANCH  31  33
ENDBRANCH  30  31
ENDBRANCH  29  30
ENDBRANCH   1  29
TORSDOF 18
