REMARK SMILES Cc1ccnc(C(=O)c2[nH]c3ccc(F)cc3c2CC(=O)OCCOC(=O)c2ccc(-c3c4nc(c(-c5cccc(S(=O)(=O)[O-])c5F)c5ccc([nH]5)c(-c5cccc(S(=O)(=O)[O-])c5F)c5nc(c(-c6cccc(S(=O)(=O)[O-])c6F)c6ccc3[nH]6)C=C5)C=C4)cc2)c1
REMARK SMILES IDX 23 1 22 2 20 3 21 4 19 5 18 6 9 7 10 8 11 9 17 11 12 12
REMARK SMILES IDX 16 13 13 14 14 15 15 16 7 17 8 18 6 19 1 20 2 21 3 22 91 23
REMARK SMILES IDX 4 24 5 25 24 26 25 27 26 28 27 29 28 30 29 31 90 32 30 33
REMARK SMILES IDX 89 34 31 35 32 36 33 37 83 38 34 39 88 40 82 41 84 42 35 43
REMARK SMILES IDX 87 44 81 45 80 46 36 48 68 49 48 50 67 51 49 52 52 53 66 54
REMARK SMILES IDX 85 55 50 56 51 57 65 59 86 60 53 61 37 62 38 63 46 64 39 65
REMARK SMILES IDX 41 66 47 67 40 68 42 69 43 70 44 71 45 72 69 73 70 74 78 75
REMARK SMILES IDX 71 76 73 77 79 78 72 79 74 80 75 81 76 82 77 83 54 84 55 85
REMARK SMILES IDX 63 86 56 87 58 88 64 89 57 90 59 91 60 92 61 93 62 94
REMARK H PARENT 10 10 84 47 52 58
REMARK Flexibility Score: inf
ROOT
ATOM      1  C   UNL     1      -2.929  -1.898  -2.121  1.00  0.00     0.274 C 
ENDROOT
BRANCH   1   2
ATOM      2  O   UNL     1      -1.998  -2.837  -1.540  1.00  0.00    -0.462 OA
BRANCH   2   3
ATOM      3  C   UNL     1      -1.135  -3.425  -2.410  1.00  0.00     0.310 C 
ATOM      4  O   UNL     1      -1.285  -3.411  -3.630  1.00  0.00    -0.252 OA
BRANCH   3   5
ATOM      5  C   UNL     1       0.124  -3.976  -1.776  1.00  0.00     0.161 C 
BRANCH   5   6
ATOM      6  C   UNL     1       0.072  -4.383  -0.333  1.00  0.00     0.000 A 
ATOM      7  C   UNL     1       0.760  -3.829   0.753  1.00  0.00     0.093 A 
ATOM      8  N   UNL     1       0.667  -4.745   1.780  1.00  0.00    -0.352 N 
ATOM      9  C   UNL     1      -0.030  -5.863   1.391  1.00  0.00     0.046 A 
ATOM     10  H   UNL     1       1.051  -4.614   2.677  1.00  0.00     0.167 HD
ATOM     11  C   UNL     1      -0.494  -5.627   0.101  1.00  0.00     0.007 A 
ATOM     12  C   UNL     1      -0.225  -7.082   2.054  1.00  0.00     0.030 A 
ATOM     13  C   UNL     1      -1.240  -6.633  -0.548  1.00  0.00     0.049 A 
ATOM     14  C   UNL     1      -0.942  -8.075   1.381  1.00  0.00     0.041 A 
ATOM     15  C   UNL     1      -1.452  -7.841   0.111  1.00  0.00     0.123 A 
ATOM     16  F   UNL     1      -2.134  -8.813  -0.510  1.00  0.00    -0.207 F 
BRANCH   7  17
ATOM     17  C   UNL     1       1.732  -2.740   0.832  1.00  0.00     0.227 C 
ATOM     18  O   UNL     1       2.922  -2.998   0.654  1.00  0.00    -0.285 OA
BRANCH  17  19
ATOM     19  C   UNL     1       1.343  -1.329   1.236  1.00  0.00     0.113 A 
ATOM     20  C   UNL     1      -1.654   0.949   1.761  1.00  0.00     0.044 C 
ATOM     21  C   UNL     1      -0.247   0.435   1.665  1.00  0.00    -0.047 A 
ATOM     22  C   UNL     1       0.802   1.352   1.567  1.00  0.00     0.023 A 
ATOM     23  C   UNL     1       0.034  -0.937   1.531  1.00  0.00     0.036 A 
ATOM     24  C   UNL     1       2.081   0.873   1.354  1.00  0.00     0.112 A 
ATOM     25  N   UNL     1       2.370  -0.433   1.195  1.00  0.00    -0.253 NA
ENDBRANCH  17  19
ENDBRANCH   7  17
ENDBRANCH   5   6
ENDBRANCH   3   5
ENDBRANCH   2   3
ENDBRANCH   1   2
BRANCH   1  26
ATOM     26  C   UNL     1      -2.455  -0.448  -1.924  1.00  0.00     0.275 C 
BRANCH  26  27
ATOM     27  O   UNL     1      -1.294  -0.103  -2.717  1.00  0.00    -0.458 OA
BRANCH  27  28
ATOM     28  C   UNL     1      -0.136  -0.484  -2.138  1.00  0.00     0.338 C 
ATOM     29  O   UNL     1      -0.049  -1.117  -1.104  1.00  0.00    -0.246 OA
BRANCH  28  30
ATOM     30  C   UNL     1       1.090  -0.190  -2.867  1.00  0.00     0.060 A 
ATOM     31  C   UNL     1       1.613  -1.191  -3.687  1.00  0.00     0.016 A 
ATOM     32  C   UNL     1       1.869   0.902  -2.476  1.00  0.00     0.016 A 
ATOM     33  C   UNL     1       2.930  -1.100  -4.122  1.00  0.00     0.010 A 
ATOM     34  C   UNL     1       3.172   1.022  -2.963  1.00  0.00     0.010 A 
ATOM     35  C   UNL     1       3.707   0.025  -3.793  1.00  0.00    -0.014 A 
BRANCH  35  36
ATOM     36  C   UNL     1       4.966   0.261  -4.535  1.00  0.00     0.031 A 
ATOM     37  C   UNL     1       6.321   0.134  -3.913  1.00  0.00     0.074 A 
ATOM     38  C   UNL     1       4.829   0.639  -5.820  1.00  0.00     0.049 A 
ATOM     39  N   UNL     1       7.490   0.299  -4.478  1.00  0.00    -0.248 NA
ATOM     40  C   UNL     1       6.385  -0.209  -2.485  1.00  0.00     0.031 C 
ATOM     41  C   UNL     1       3.542   0.841  -6.495  1.00  0.00     0.029 A 
ATOM     42  N   UNL     1       5.758   0.928  -6.781  1.00  0.00    -0.354 N 
ATOM     43  C   UNL     1       8.434   0.102  -3.479  1.00  0.00     0.074 A 
ATOM     44  C   UNL     1       7.697  -0.190  -2.264  1.00  0.00     0.031 C 
ATOM     45  C   UNL     1       3.764   1.213  -7.761  1.00  0.00     0.029 A 
ATOM     46  C   UNL     1       5.201   1.312  -7.976  1.00  0.00     0.049 A 
ATOM     47  H   UNL     1       6.730   0.868  -6.631  1.00  0.00     0.167 HD
ATOM     48  C   UNL     1       9.785   0.146  -3.580  1.00  0.00     0.034 A 
ATOM     49  C   UNL     1       5.777   1.711  -9.124  1.00  0.00     0.034 A 
ATOM     50  C   UNL     1      10.497   0.407  -4.809  1.00  0.00     0.049 A 
ATOM     51  C   UNL     1       7.271   1.712  -9.213  1.00  0.00     0.074 A 
ATOM     52  C   UNL     1      11.864   0.393  -5.031  1.00  0.00     0.029 A 
ATOM     53  N   UNL     1       9.903   0.737  -6.019  1.00  0.00    -0.354 N 
ATOM     54  N   UNL     1       8.146   1.380  -8.296  1.00  0.00    -0.248 NA
ATOM     55  C   UNL     1       7.857   2.109 -10.498  1.00  0.00     0.031 C 
ATOM     56  C   UNL     1      12.096   0.729  -6.370  1.00  0.00     0.029 A 
ATOM     57  C   UNL     1      10.874   0.943  -6.987  1.00  0.00     0.049 A 
ATOM     58  H   UNL     1       8.933   0.813  -6.168  1.00  0.00     0.167 HD
ATOM     59  C   UNL     1       9.390   1.511  -8.894  1.00  0.00     0.074 A 
ATOM     60  C   UNL     1       9.151   1.926 -10.264  1.00  0.00     0.031 C 
ATOM     61  C   UNL     1      10.619   1.325  -8.353  1.00  0.00     0.034 A 
BRANCH  48  62
ATOM     62  C   UNL     1      10.604  -0.150  -2.348  1.00  0.00     0.023 A 
ATOM     63  C   UNL     1      10.736  -1.484  -1.913  1.00  0.00     0.012 A 
ATOM     64  C   UNL     1      11.331   0.864  -1.691  1.00  0.00     0.148 A 
ATOM     65  C   UNL     1      11.565  -1.803  -0.837  1.00  0.00     0.002 A 
ATOM     66  C   UNL     1      12.180   0.533  -0.639  1.00  0.00     0.091 A 
ATOM     67  F   UNL     1      11.179   2.131  -2.103  1.00  0.00    -0.205 F 
ATOM     68  C   UNL     1      12.295  -0.798  -0.208  1.00  0.00     0.022 A 
BRANCH  66  69
ATOM     69  S   UNL     1      13.217   1.754   0.180  1.00  0.00     0.127 S 
ATOM     70  O   UNL     1      12.474   1.994   1.416  1.00  0.00    -0.237 OA
ATOM     71  O   UNL     1      14.476   1.030   0.359  1.00  0.00    -0.237 OA
ATOM     72  O   UNL     1      13.298   2.883  -0.736  1.00  0.00    -0.744 OA
ENDBRANCH  66  69
ENDBRANCH  48  62
BRANCH  49  73
ATOM     73  C   UNL     1       4.907   2.059 -10.278  1.00  0.00     0.023 A 
ATOM     74  C   UNL     1       4.812   1.167 -11.361  1.00  0.00     0.012 A 
ATOM     75  C   UNL     1       4.077   3.197 -10.244  1.00  0.00     0.148 A 
ATOM     76  C   UNL     1       3.907   1.407 -12.396  1.00  0.00     0.002 A 
ATOM     77  C   UNL     1       3.136   3.397 -11.246  1.00  0.00     0.091 A 
ATOM     78  F   UNL     1       4.194   4.040  -9.207  1.00  0.00    -0.205 F 
ATOM     79  C   UNL     1       3.058   2.510 -12.330  1.00  0.00     0.022 A 
BRANCH  77  80
ATOM     80  S   UNL     1       1.899   4.695 -11.132  1.00  0.00     0.127 S 
ATOM     81  O   UNL     1       2.463   5.725 -11.999  1.00  0.00    -0.237 OA
ATOM     82  O   UNL     1       0.703   4.034 -11.658  1.00  0.00    -0.237 OA
ATOM     83  O   UNL     1       1.818   5.024  -9.714  1.00  0.00    -0.744 OA
ENDBRANCH  77  80
ENDBRANCH  49  73
BRANCH  61  84
ATOM     84  C   UNL     1      11.800   1.582  -9.248  1.00  0.00     0.023 A 
ATOM     85  C   UNL     1      12.159   2.912  -9.547  1.00  0.00     0.012 A 
ATOM     86  C   UNL     1      12.570   0.523  -9.763  1.00  0.00     0.148 A 
ATOM     87  C   UNL     1      13.251   3.183 -10.370  1.00  0.00     0.002 A 
ATOM     88  C   UNL     1      13.681   0.802 -10.553  1.00  0.00     0.091 A 
ATOM     89  F   UNL     1      12.196  -0.736  -9.490  1.00  0.00    -0.205 F 
ATOM     90  C   UNL     1      14.017   2.130 -10.864  1.00  0.00     0.022 A 
BRANCH  88  91
ATOM     91  S   UNL     1      14.763  -0.492 -11.171  1.00  0.00     0.127 S 
ATOM     92  O   UNL     1      14.327  -0.607 -12.561  1.00  0.00    -0.237 OA
ATOM     93  O   UNL     1      16.091   0.098 -10.996  1.00  0.00    -0.237 OA
ATOM     94  O   UNL     1      14.508  -1.655 -10.331  1.00  0.00    -0.744 OA
ENDBRANCH  88  91
ENDBRANCH  61  84
ENDBRANCH  35  36
ENDBRANCH  28  30
ENDBRANCH  27  28
ENDBRANCH  26  27
ENDBRANCH   1  26
TORSDOF 17
