REMARK SMILES O=C(C[C@@H]1C=CCC1)NCc1ccc(C(=O)OCCOC(=O)c2ccc(-c3c4nc(c(-c5cccc(S(=O)(=O)[O-])c5F)c5ccc([nH]5)c(-c5cccc(S(=O)(=O)[O-])c5F)c5nc(c(-c6cccc(S(=O)(=O)[O-])c6F)c6ccc3[nH]6)C=C5)C=C4)cc2)o1
REMARK SMILES IDX 18 1 17 2 15 3 16 4 14 5 11 6 12 7 86 8 13 9 10 10 9 11 1 12
REMARK SMILES IDX 2 13 3 15 4 16 5 17 8 18 6 19 7 20 19 21 20 22 21 23 22 24
REMARK SMILES IDX 23 25 24 26 85 27 25 28 84 29 26 30 27 31 28 32 78 33 29 34
REMARK SMILES IDX 83 35 77 36 79 37 30 38 82 39 76 40 75 41 31 43 63 44 43 45
REMARK SMILES IDX 62 46 44 47 47 48 61 49 80 50 45 51 46 52 60 54 81 55 48 56
REMARK SMILES IDX 32 57 33 58 41 59 34 60 36 61 42 62 35 63 37 64 38 65 39 66
REMARK SMILES IDX 40 67 64 68 65 69 73 70 66 71 68 72 74 73 67 74 69 75 70 76
REMARK SMILES IDX 71 77 72 78 49 79 50 80 58 81 51 82 53 83 59 84 52 85 54 86
REMARK SMILES IDX 55 87 56 88 57 89
REMARK H PARENT 9 14 79 42 47 53
REMARK Flexibility Score: inf
ROOT
ATOM      1  C   UNL     1       7.143   2.686  -8.201  1.00  0.00     0.275 C 
ENDROOT
BRANCH   1   2
ATOM      2  O   UNL     1       7.349   2.419  -6.801  1.00  0.00    -0.456 OA
BRANCH   2   3
ATOM      3  C   UNL     1       6.741   3.294  -5.940  1.00  0.00     0.374 C 
ATOM      4  O   UNL     1       6.156   4.305  -6.288  1.00  0.00    -0.242 OA
BRANCH   3   5
ATOM      5  C   UNL     1       6.830   2.796  -4.584  1.00  0.00     0.211 A 
ATOM      6  C   UNL     1       6.121   2.637  -2.493  1.00  0.00     0.124 A 
ATOM      7  C   UNL     1       7.144   1.720  -2.632  1.00  0.00     0.048 A 
ATOM      8  O   UNL     1       5.972   3.330  -3.657  1.00  0.00    -0.452 OA
ATOM      9  C   UNL     1       7.586   1.810  -3.977  1.00  0.00     0.058 A 
BRANCH   6  10
ATOM     10  C   UNL     1       5.174   2.995  -1.401  1.00  0.00     0.191 C 
BRANCH  10  11
ATOM     11  N   UNL     1       5.016   1.857  -0.519  1.00  0.00    -0.349 N 
ATOM     12  O   UNL     1       5.937   2.856   1.331  1.00  0.00    -0.275 OA
ATOM     13  C   UNL     1       5.435   1.877   0.789  1.00  0.00     0.220 C 
ATOM     14  H   UNL     1       4.592   1.040  -0.870  1.00  0.00     0.163 HD
BRANCH  13  15
ATOM     15  C   UNL     1       5.304   0.544   1.499  1.00  0.00     0.107 C 
BRANCH  15  16
ATOM     16  C   UNL     1       3.844   0.160   1.763  1.00  0.00     0.021 C 
ATOM     17  C   UNL     1       3.444   0.421   3.187  1.00  0.00    -0.027 C 
ATOM     18  C   UNL     1       3.605  -1.358   1.647  1.00  0.00     0.012 C 
ATOM     19  C   UNL     1       3.321  -0.707   3.895  1.00  0.00    -0.031 C 
ATOM     20  C   UNL     1       3.614  -1.914   3.071  1.00  0.00     0.027 C 
ENDBRANCH  15  16
ENDBRANCH  13  15
ENDBRANCH  10  11
ENDBRANCH   6  10
ENDBRANCH   3   5
ENDBRANCH   2   3
ENDBRANCH   1   2
BRANCH   1  21
ATOM     21  C   UNL     1       6.000   1.842  -8.780  1.00  0.00     0.275 C 
BRANCH  21  22
ATOM     22  O   UNL     1       4.712   2.266  -8.297  1.00  0.00    -0.458 OA
BRANCH  22  23
ATOM     23  C   UNL     1       4.258   1.606  -7.205  1.00  0.00     0.338 C 
ATOM     24  O   UNL     1       4.815   0.687  -6.626  1.00  0.00    -0.246 OA
BRANCH  23  25
ATOM     25  C   UNL     1       3.035   2.251  -6.691  1.00  0.00     0.060 A 
ATOM     26  C   UNL     1       3.046   2.675  -5.361  1.00  0.00     0.016 A 
ATOM     27  C   UNL     1       1.878   2.385  -7.463  1.00  0.00     0.016 A 
ATOM     28  C   UNL     1       1.908   3.235  -4.790  1.00  0.00     0.010 A 
ATOM     29  C   UNL     1       0.728   2.941  -6.885  1.00  0.00     0.010 A 
ATOM     30  C   UNL     1       0.733   3.358  -5.542  1.00  0.00    -0.014 A 
BRANCH  30  31
ATOM     31  C   UNL     1      -0.485   3.884  -4.880  1.00  0.00     0.031 A 
ATOM     32  C   UNL     1      -1.571   2.944  -4.443  1.00  0.00     0.074 A 
ATOM     33  C   UNL     1      -0.588   5.201  -4.621  1.00  0.00     0.049 A 
ATOM     34  N   UNL     1      -2.672   3.204  -3.786  1.00  0.00    -0.248 NA
ATOM     35  C   UNL     1      -1.397   1.523  -4.787  1.00  0.00     0.031 C 
ATOM     36  C   UNL     1       0.399   6.213  -4.997  1.00  0.00     0.029 A 
ATOM     37  N   UNL     1      -1.572   5.912  -3.981  1.00  0.00    -0.354 N 
ATOM     38  C   UNL     1      -3.333   1.990  -3.656  1.00  0.00     0.074 A 
ATOM     39  C   UNL     1      -2.515   0.992  -4.312  1.00  0.00     0.031 C 
ATOM     40  C   UNL     1      -0.031   7.417  -4.585  1.00  0.00     0.029 A 
ATOM     41  C   UNL     1      -1.328   7.264  -3.929  1.00  0.00     0.049 A 
ATOM     42  H   UNL     1      -2.376   5.495  -3.596  1.00  0.00     0.167 HD
ATOM     43  C   UNL     1      -4.505   1.726  -3.029  1.00  0.00     0.034 A 
ATOM     44  C   UNL     1      -2.066   8.266  -3.412  1.00  0.00     0.034 A 
ATOM     45  C   UNL     1      -5.303   2.711  -2.350  1.00  0.00     0.049 A 
ATOM     46  C   UNL     1      -3.361   7.942  -2.716  1.00  0.00     0.074 A 
ATOM     47  C   UNL     1      -6.483   2.528  -1.649  1.00  0.00     0.029 A 
ATOM     48  N   UNL     1      -5.009   4.064  -2.289  1.00  0.00    -0.354 N 
ATOM     49  N   UNL     1      -3.908   6.772  -2.493  1.00  0.00    -0.248 NA
ATOM     50  C   UNL     1      -4.124   9.075  -2.171  1.00  0.00     0.031 C 
ATOM     51  C   UNL     1      -6.907   3.774  -1.172  1.00  0.00     0.029 A 
ATOM     52  C   UNL     1      -5.987   4.731  -1.570  1.00  0.00     0.049 A 
ATOM     53  H   UNL     1      -4.220   4.489  -2.697  1.00  0.00     0.167 HD
ATOM     54  C   UNL     1      -5.067   7.024  -1.767  1.00  0.00     0.074 A 
ATOM     55  C   UNL     1      -5.126   8.457  -1.559  1.00  0.00     0.031 C 
ATOM     56  C   UNL     1      -6.009   6.152  -1.331  1.00  0.00     0.034 A 
BRANCH  43  57
ATOM     57  C   UNL     1      -4.974   0.296  -3.012  1.00  0.00     0.023 A 
ATOM     58  C   UNL     1      -4.363  -0.620  -2.132  1.00  0.00     0.012 A 
ATOM     59  C   UNL     1      -6.043  -0.129  -3.823  1.00  0.00     0.148 A 
ATOM     60  C   UNL     1      -4.793  -1.945  -2.078  1.00  0.00     0.002 A 
ATOM     61  C   UNL     1      -6.488  -1.444  -3.739  1.00  0.00     0.091 A 
ATOM     62  F   UNL     1      -6.592   0.750  -4.674  1.00  0.00    -0.205 F 
ATOM     63  C   UNL     1      -5.860  -2.354  -2.873  1.00  0.00     0.022 A 
BRANCH  61  64
ATOM     64  S   UNL     1      -7.894  -2.045  -4.682  1.00  0.00     0.127 S 
ATOM     65  O   UNL     1      -7.236  -2.804  -5.743  1.00  0.00    -0.237 OA
ATOM     66  O   UNL     1      -8.604  -2.864  -3.698  1.00  0.00    -0.237 OA
ATOM     67  O   UNL     1      -8.620  -0.857  -5.112  1.00  0.00    -0.744 OA
ENDBRANCH  61  64
ENDBRANCH  43  57
BRANCH  44  68
ATOM     68  C   UNL     1      -1.566   9.668  -3.486  1.00  0.00     0.023 A 
ATOM     69  C   UNL     1      -1.136  10.314  -2.311  1.00  0.00     0.012 A 
ATOM     70  C   UNL     1      -1.484  10.351  -4.715  1.00  0.00     0.148 A 
ATOM     71  C   UNL     1      -0.653  11.622  -2.356  1.00  0.00     0.002 A 
ATOM     72  C   UNL     1      -0.953  11.634  -4.760  1.00  0.00     0.091 A 
ATOM     73  F   UNL     1      -1.924   9.730  -5.819  1.00  0.00    -0.205 F 
ATOM     74  C   UNL     1      -0.549  12.277  -3.580  1.00  0.00     0.022 A 
BRANCH  72  75
ATOM     75  S   UNL     1      -0.670  12.492  -6.313  1.00  0.00     0.127 S 
ATOM     76  O   UNL     1      -1.793  13.424  -6.351  1.00  0.00    -0.237 OA
ATOM     77  O   UNL     1       0.637  13.112  -6.090  1.00  0.00    -0.237 OA
ATOM     78  O   UNL     1      -0.668  11.451  -7.333  1.00  0.00    -0.744 OA
ENDBRANCH  72  75
ENDBRANCH  44  68
BRANCH  56  79
ATOM     79  C   UNL     1      -7.190   6.719  -0.588  1.00  0.00     0.023 A 
ATOM     80  C   UNL     1      -8.188   7.412  -1.302  1.00  0.00     0.012 A 
ATOM     81  C   UNL     1      -7.346   6.518   0.797  1.00  0.00     0.148 A 
ATOM     82  C   UNL     1      -9.308   7.920  -0.646  1.00  0.00     0.002 A 
ATOM     83  C   UNL     1      -8.486   6.993   1.438  1.00  0.00     0.091 A 
ATOM     84  F   UNL     1      -6.377   5.878   1.468  1.00  0.00    -0.205 F 
ATOM     85  C   UNL     1      -9.463   7.702   0.721  1.00  0.00     0.022 A 
BRANCH  83  86
ATOM     86  S   UNL     1      -8.797   6.673   3.179  1.00  0.00     0.127 S 
ATOM     87  O   UNL     1      -8.337   7.913   3.800  1.00  0.00    -0.237 OA
ATOM     88  O   UNL     1     -10.248   6.477   3.213  1.00  0.00    -0.237 OA
ATOM     89  O   UNL     1      -8.027   5.478   3.499  1.00  0.00    -0.744 OA
ENDBRANCH  83  86
ENDBRANCH  56  79
ENDBRANCH  30  31
ENDBRANCH  23  25
ENDBRANCH  22  23
ENDBRANCH  21  22
ENDBRANCH   1  21
TORSDOF 18
