REMARK SMILES O=C(C[C@H]1CN(S(=O)(=O)N2CCCCC2)CCO1)OCCOC(=O)c1ccc(-c2c3nc(c(-c4cccc(S(=O)(=O)[O-])c4F)c4ccc([nH]4)c(-c4cccc(S(=O)(=O)[O-])c4F)c4nc(c(-c5cccc(S(=O)(=O)[O-])c5F)c5ccc2[nH]5)C=C4)C=C3)cc1
REMARK SMILES IDX 20 1 19 2 2 3 1 4 3 5 4 6 5 7 18 8 6 9 17 10 16 11 7 12 8 13
REMARK SMILES IDX 9 14 10 15 11 16 15 17 12 18 14 19 13 20 21 21 22 22 23 23
REMARK SMILES IDX 24 24 25 25 26 26 87 27 27 28 86 29 28 30 29 31 30 32 80 33
REMARK SMILES IDX 31 34 85 35 79 36 81 37 32 38 84 39 78 40 77 41 33 43 65 44
REMARK SMILES IDX 45 45 64 46 46 47 49 48 63 49 82 50 47 51 48 52 62 54 83 55
REMARK SMILES IDX 50 56 34 57 35 58 43 59 36 60 38 61 44 62 37 63 39 64 40 65
REMARK SMILES IDX 41 66 42 67 66 68 67 69 75 70 68 71 70 72 76 73 69 74 71 75
REMARK SMILES IDX 72 76 73 77 74 78 51 79 52 80 60 81 53 82 55 83 61 84 54 85
REMARK SMILES IDX 56 86 57 87 58 88 59 89
REMARK H PARENT 81 42 49 53
REMARK Flexibility Score: inf
ROOT
ATOM      1  C   UNL     1       6.460   4.608  -0.537  1.00  0.00     0.274 C 
ENDROOT
BRANCH   1   2
ATOM      2  O   UNL     1       5.200   3.946  -0.774  1.00  0.00    -0.462 OA
BRANCH   2   3
ATOM      3  C   UNL     1       5.205   2.587  -0.725  1.00  0.00     0.308 C 
ATOM      4  O   UNL     1       6.201   1.897  -0.548  1.00  0.00    -0.252 OA
BRANCH   3   5
ATOM      5  C   UNL     1       3.831   2.002  -0.955  1.00  0.00     0.156 C 
BRANCH   5   6
ATOM      6  C   UNL     1       2.904   1.911   0.267  1.00  0.00     0.144 C 
ATOM      7  C   UNL     1       3.546   1.421   1.570  1.00  0.00     0.136 C 
ATOM      8  O   UNL     1       2.166   3.112   0.532  1.00  0.00    -0.375 OA
ATOM      9  N   UNL     1       4.609   2.389   1.954  1.00  0.00    -0.184 NA
ATOM     10  C   UNL     1       2.933   4.149   1.142  1.00  0.00     0.177 C 
ATOM     11  C   UNL     1       3.913   3.706   2.249  1.00  0.00     0.132 C 
BRANCH   9  12
ATOM     12  S   UNL     1       5.658   1.956   3.204  1.00  0.00     0.282 S 
ATOM     13  O   UNL     1       6.557   3.074   3.411  1.00  0.00    -0.195 OA
ATOM     14  O   UNL     1       4.820   1.509   4.297  1.00  0.00    -0.195 OA
BRANCH  12  15
ATOM     15  N   UNL     1       6.637   0.646   2.733  1.00  0.00    -0.189 NA
ATOM     16  C   UNL     1       7.265   0.023   3.949  1.00  0.00     0.103 C 
ATOM     17  C   UNL     1       6.125  -0.385   1.807  1.00  0.00     0.103 C 
ATOM     18  C   UNL     1       8.311  -1.030   3.601  1.00  0.00     0.017 C 
ATOM     19  C   UNL     1       7.214  -1.380   1.413  1.00  0.00     0.017 C 
ATOM     20  C   UNL     1       7.759  -2.077   2.647  1.00  0.00     0.003 C 
ENDBRANCH  12  15
ENDBRANCH   9  12
ENDBRANCH   5   6
ENDBRANCH   3   5
ENDBRANCH   2   3
ENDBRANCH   1   2
BRANCH   1  21
ATOM     21  C   UNL     1       6.976   5.221  -1.839  1.00  0.00     0.275 C 
BRANCH  21  22
ATOM     22  O   UNL     1       6.802   4.314  -2.934  1.00  0.00    -0.458 OA
BRANCH  22  23
ATOM     23  C   UNL     1       7.604   3.218  -2.918  1.00  0.00     0.338 C 
ATOM     24  O   UNL     1       8.639   3.095  -2.299  1.00  0.00    -0.246 OA
BRANCH  23  25
ATOM     25  C   UNL     1       6.891   2.131  -3.642  1.00  0.00     0.060 A 
ATOM     26  C   UNL     1       7.121   0.803  -3.255  1.00  0.00     0.016 A 
ATOM     27  C   UNL     1       5.950   2.414  -4.639  1.00  0.00     0.016 A 
ATOM     28  C   UNL     1       6.441  -0.242  -3.885  1.00  0.00     0.010 A 
ATOM     29  C   UNL     1       5.275   1.373  -5.271  1.00  0.00     0.010 A 
ATOM     30  C   UNL     1       5.542   0.040  -4.920  1.00  0.00    -0.014 A 
BRANCH  30  31
ATOM     31  C   UNL     1       5.024  -1.028  -5.804  1.00  0.00     0.031 A 
ATOM     32  C   UNL     1       5.768  -1.292  -7.083  1.00  0.00     0.074 A 
ATOM     33  C   UNL     1       3.862  -1.653  -5.543  1.00  0.00     0.049 A 
ATOM     34  N   UNL     1       5.434  -2.046  -8.094  1.00  0.00    -0.248 NA
ATOM     35  C   UNL     1       7.055  -0.591  -7.250  1.00  0.00     0.031 C 
ATOM     36  C   UNL     1       3.045  -1.460  -4.347  1.00  0.00     0.029 A 
ATOM     37  N   UNL     1       3.141  -2.538  -6.306  1.00  0.00    -0.354 N 
ATOM     38  C   UNL     1       6.443  -1.879  -9.034  1.00  0.00     0.074 A 
ATOM     39  C   UNL     1       7.407  -0.961  -8.473  1.00  0.00     0.031 C 
ATOM     40  C   UNL     1       1.905  -2.162  -4.481  1.00  0.00     0.029 A 
ATOM     41  C   UNL     1       1.901  -2.828  -5.784  1.00  0.00     0.049 A 
ATOM     42  H   UNL     1       3.478  -2.928  -7.145  1.00  0.00     0.167 HD
ATOM     43  C   UNL     1       6.556  -2.442 -10.257  1.00  0.00     0.034 A 
ATOM     44  C   UNL     1       0.870  -3.513  -6.319  1.00  0.00     0.034 A 
ATOM     45  C   UNL     1       5.608  -3.369 -10.805  1.00  0.00     0.049 A 
ATOM     46  C   UNL     1       1.020  -4.117  -7.695  1.00  0.00     0.074 A 
ATOM     47  C   UNL     1       5.683  -4.068 -11.996  1.00  0.00     0.029 A 
ATOM     48  N   UNL     1       4.402  -3.703 -10.214  1.00  0.00    -0.354 N 
ATOM     49  N   UNL     1       2.058  -4.100  -8.497  1.00  0.00    -0.248 NA
ATOM     50  C   UNL     1      -0.137  -4.849  -8.233  1.00  0.00     0.031 C 
ATOM     51  C   UNL     1       4.503  -4.803 -12.140  1.00  0.00     0.029 A 
ATOM     52  C   UNL     1       3.706  -4.576 -11.030  1.00  0.00     0.049 A 
ATOM     53  H   UNL     1       4.087  -3.369  -9.343  1.00  0.00     0.167 HD
ATOM     54  C   UNL     1       1.688  -4.840  -9.617  1.00  0.00     0.074 A 
ATOM     55  C   UNL     1       0.342  -5.314  -9.380  1.00  0.00     0.031 C 
ATOM     56  C   UNL     1       2.390  -5.087 -10.751  1.00  0.00     0.034 A 
BRANCH  43  57
ATOM     57  C   UNL     1       7.759  -2.090 -11.084  1.00  0.00     0.023 A 
ATOM     58  C   UNL     1       9.008  -2.662 -10.775  1.00  0.00     0.012 A 
ATOM     59  C   UNL     1       7.634  -1.255 -12.211  1.00  0.00     0.148 A 
ATOM     60  C   UNL     1      10.122  -2.398 -11.570  1.00  0.00     0.002 A 
ATOM     61  C   UNL     1       8.739  -1.026 -13.020  1.00  0.00     0.091 A 
ATOM     62  F   UNL     1       6.439  -0.702 -12.466  1.00  0.00    -0.205 F 
ATOM     63  C   UNL     1       9.985  -1.591 -12.697  1.00  0.00     0.022 A 
BRANCH  61  64
ATOM     64  S   UNL     1       8.653  -0.058 -14.529  1.00  0.00     0.127 S 
ATOM     65  O   UNL     1       9.477   1.100 -14.184  1.00  0.00    -0.237 OA
ATOM     66  O   UNL     1       9.254  -0.965 -15.508  1.00  0.00    -0.237 OA
ATOM     67  O   UNL     1       7.242   0.228 -14.746  1.00  0.00    -0.744 OA
ENDBRANCH  61  64
ENDBRANCH  43  57
BRANCH  44  68
ATOM     68  C   UNL     1      -0.406  -3.672  -5.564  1.00  0.00     0.023 A 
ATOM     69  C   UNL     1      -0.790  -4.950  -5.112  1.00  0.00     0.012 A 
ATOM     70  C   UNL     1      -1.250  -2.574  -5.308  1.00  0.00     0.148 A 
ATOM     71  C   UNL     1      -2.008  -5.138  -4.455  1.00  0.00     0.002 A 
ATOM     72  C   UNL     1      -2.435  -2.759  -4.604  1.00  0.00     0.091 A 
ATOM     73  F   UNL     1      -0.885  -1.369  -5.767  1.00  0.00    -0.205 F 
ATOM     74  C   UNL     1      -2.825  -4.042  -4.193  1.00  0.00     0.022 A 
BRANCH  72  75
ATOM     75  S   UNL     1      -3.473  -1.378  -4.111  1.00  0.00     0.127 S 
ATOM     76  O   UNL     1      -4.555  -1.451  -5.088  1.00  0.00    -0.237 OA
ATOM     77  O   UNL     1      -3.849  -1.749  -2.745  1.00  0.00    -0.237 OA
ATOM     78  O   UNL     1      -2.613  -0.204  -4.191  1.00  0.00    -0.744 OA
ENDBRANCH  72  75
ENDBRANCH  44  68
BRANCH  56  79
ATOM     79  C   UNL     1       1.737  -5.923 -11.820  1.00  0.00     0.023 A 
ATOM     80  C   UNL     1       0.722  -5.359 -12.618  1.00  0.00     0.012 A 
ATOM     81  C   UNL     1       2.203  -7.221 -12.105  1.00  0.00     0.148 A 
ATOM     82  C   UNL     1       0.166  -6.084 -13.671  1.00  0.00     0.002 A 
ATOM     83  C   UNL     1       1.677  -7.920 -13.185  1.00  0.00     0.091 A 
ATOM     84  F   UNL     1       3.160  -7.743 -11.324  1.00  0.00    -0.205 F 
ATOM     85  C   UNL     1       0.652  -7.357 -13.963  1.00  0.00     0.022 A 
BRANCH  83  86
ATOM     86  S   UNL     1       2.308  -9.522 -13.697  1.00  0.00     0.127 S 
ATOM     87  O   UNL     1       1.211 -10.410 -13.315  1.00  0.00    -0.237 OA
ATOM     88  O   UNL     1       2.475  -9.344 -15.140  1.00  0.00    -0.237 OA
ATOM     89  O   UNL     1       3.552  -9.717 -12.965  1.00  0.00    -0.744 OA
ENDBRANCH  83  86
ENDBRANCH  56  79
ENDBRANCH  30  31
ENDBRANCH  23  25
ENDBRANCH  22  23
ENDBRANCH  21  22
ENDBRANCH   1  21
TORSDOF 17
