REMARK SMILES O=C(C[C@@H]1C(=O)O[C@H]2[C@@H]3OC(=O)c4cc(O)c(O)c(O)c4-c4ccccc4C(=O)OC[C@H]2O[C@@H](OC(=O)c2cc(O)c(O)c(O)c2)[C@@H]3OC(=O)c2cc(O)c(O)c3c2[C@H]1[C@H](O)C(=O)O3)OCCOC(=O)c1ccc(-c2c3nc(c(-c4cccc(S(=O)(=O)[O-])c4F)c4ccc([nH]4)c(-c4cccc(S(=O)(=O)[O-])c4F)c4nc(c(-c5cccc(S(=O)(=O)[O-])c5F)c5ccc2[nH]5)C=C4)C=C3)cc1
REMARK SMILES IDX 4 1 3 3 2 4 1 5 65 6 66 7 67 8 68 9 69 10 70 11 71 12 72 13
REMARK SMILES IDX 133 14 73 15 132 16 74 17 75 18 76 19 126 20 77 21 131 22
REMARK SMILES IDX 125 23 127 24 78 25 130 26 124 27 123 28 79 30 111 31 91 32
REMARK SMILES IDX 110 33 92 34 95 35 109 36 128 37 93 38 94 39 108 41 129 42
REMARK SMILES IDX 96 43 80 44 81 45 89 46 82 47 84 48 90 49 83 50 85 51 86 52
REMARK SMILES IDX 87 53 88 54 112 55 113 56 121 57 114 58 116 59 122 60 115 61
REMARK SMILES IDX 117 62 118 63 119 64 120 65 97 66 98 67 106 68 99 69 101 70
REMARK SMILES IDX 107 71 100 72 102 73 103 74 104 75 105 76 59 77 58 78 60 79
REMARK SMILES IDX 51 80 57 81 62 82 52 83 55 84 64 85 63 86 53 87 61 88 49 90
REMARK SMILES IDX 50 91 48 92 47 93 9 94 34 95 8 96 33 97 32 98 10 100 11 101
REMARK SMILES IDX 12 102 13 103 14 104 21 105 15 106 19 107 17 108 22 109
REMARK SMILES IDX 23 110 27 111 24 112 26 113 25 114 28 115 29 116 30 117
REMARK SMILES IDX 31 118 16 120 20 122 18 124 35 126 36 127 37 128 38 129
REMARK SMILES IDX 39 130 46 131 40 132 44 133 42 134 41 135 45 137 43 139
REMARK SMILES IDX 7 141 5 142 6 143 56 145 54 147
REMARK H PARENT 127 29 95 40 61 89 16 121 20 123 18 125 41 136 45 138 43 140
REMARK H PARENT 56 146 54 148
REMARK Flexibility Score: 170.00
ROOT
ATOM      1  C   UNL     1       3.791   1.664   2.193  1.00  0.00     0.121 CG0
ATOM      2  G   UNL     1       3.208   0.978   0.939  1.00  0.00     0.000 G0
ENDROOT
BRANCH   1   3
ATOM      3  C   UNL     1       3.232   1.537   3.565  1.00  0.00     0.138 C 
BRANCH   3   4
ATOM      4  C   UNL     1       3.760   0.653   4.626  1.00  0.00     0.306 C 
ATOM      5  O   UNL     1       4.640   1.048   5.383  1.00  0.00    -0.252 OA
BRANCH   4   6
ATOM      6  O   UNL     1       3.117  -0.520   4.807  1.00  0.00    -0.462 OA
BRANCH   6   7
ATOM      7  C   UNL     1       2.346  -1.129   3.747  1.00  0.00     0.274 C 
BRANCH   7   8
ATOM      8  C   UNL     1       0.823  -0.803   3.764  1.00  0.00     0.275 C 
BRANCH   8   9
ATOM      9  O   UNL     1       0.385   0.450   3.121  1.00  0.00    -0.458 OA
BRANCH   9  10
ATOM     10  C   UNL     1       0.171   1.567   3.901  1.00  0.00     0.338 C 
ATOM     11  O   UNL     1       0.249   1.567   5.121  1.00  0.00    -0.246 OA
BRANCH  10  12
ATOM     12  C   UNL     1       0.192   2.847   3.069  1.00  0.00     0.060 A 
ATOM     13  C   UNL     1      -0.294   2.909   1.763  1.00  0.00     0.016 A 
ATOM     14  C   UNL     1       0.778   4.020   3.589  1.00  0.00     0.016 A 
ATOM     15  C   UNL     1      -0.201   4.110   1.001  1.00  0.00     0.010 A 
ATOM     16  C   UNL     1       0.886   5.216   2.816  1.00  0.00     0.010 A 
ATOM     17  C   UNL     1       0.405   5.292   1.492  1.00  0.00    -0.014 A 
BRANCH  17  18
ATOM     18  C   UNL     1       0.211   6.612   0.753  1.00  0.00     0.031 A 
ATOM     19  C   UNL     1       1.142   7.318  -0.237  1.00  0.00     0.074 A 
ATOM     20  C   UNL     1      -0.940   7.257   1.007  1.00  0.00     0.049 A 
ATOM     21  N   UNL     1       0.906   8.191  -1.196  1.00  0.00    -0.248 NA
ATOM     22  C   UNL     1       2.556   7.045  -0.122  1.00  0.00     0.031 C 
ATOM     23  C   UNL     1      -1.969   6.800   1.937  1.00  0.00     0.029 A 
ATOM     24  N   UNL     1      -1.421   8.439   0.510  1.00  0.00    -0.354 N 
ATOM     25  C   UNL     1       2.138   8.446  -1.828  1.00  0.00     0.074 A 
ATOM     26  C   UNL     1       3.122   7.644  -1.158  1.00  0.00     0.031 C 
ATOM     27  C   UNL     1      -2.967   7.692   1.945  1.00  0.00     0.029 A 
ATOM     28  C   UNL     1      -2.633   8.790   1.040  1.00  0.00     0.049 A 
ATOM     29  H   UNL     1      -0.944   8.980  -0.160  1.00  0.00     0.167 HD
ATOM     30  C   UNL     1       2.483   9.336  -2.794  1.00  0.00     0.034 A 
ATOM     31  C   UNL     1      -3.395   9.877   0.834  1.00  0.00     0.034 A 
ATOM     32  C   UNL     1       1.643  10.421  -3.206  1.00  0.00     0.049 A 
ATOM     33  C   UNL     1      -2.979  10.922  -0.154  1.00  0.00     0.074 A 
ATOM     34  C   UNL     1       1.911  11.416  -4.130  1.00  0.00     0.029 A 
ATOM     35  N   UNL     1       0.441  10.739  -2.603  1.00  0.00    -0.354 N 
ATOM     36  N   UNL     1      -1.939  10.939  -0.950  1.00  0.00    -0.248 NA
ATOM     37  C   UNL     1      -3.864  12.087  -0.291  1.00  0.00     0.031 C 
ATOM     38  C   UNL     1       0.909  12.384  -4.021  1.00  0.00     0.029 A 
ATOM     39  C   UNL     1      -0.015  11.949  -3.084  1.00  0.00     0.049 A 
ATOM     40  H   UNL     1      -0.020  10.186  -1.932  1.00  0.00     0.167 HD
ATOM     41  C   UNL     1      -2.053  12.108  -1.694  1.00  0.00     0.074 A 
ATOM     42  C   UNL     1      -3.268  12.765  -1.263  1.00  0.00     0.031 C 
ATOM     43  C   UNL     1      -1.224  12.591  -2.650  1.00  0.00     0.034 A 
BRANCH  30  44
ATOM     44  C   UNL     1       3.848   9.237  -3.451  1.00  0.00     0.023 A 
ATOM     45  C   UNL     1       4.014   8.313  -4.504  1.00  0.00     0.012 A 
ATOM     46  C   UNL     1       4.894  10.142  -3.164  1.00  0.00     0.148 A 
ATOM     47  C   UNL     1       5.193   8.287  -5.255  1.00  0.00     0.002 A 
ATOM     48  C   UNL     1       6.059  10.124  -3.932  1.00  0.00     0.091 A 
ATOM     49  F   UNL     1       4.713  11.026  -2.174  1.00  0.00    -0.205 F 
ATOM     50  C   UNL     1       6.211   9.194  -4.972  1.00  0.00     0.022 A 
BRANCH  48  51
ATOM     51  S   UNL     1       7.401  11.306  -3.710  1.00  0.00     0.127 S 
ATOM     52  O   UNL     1       8.567  10.434  -3.588  1.00  0.00    -0.237 OA
ATOM     53  O   UNL     1       7.345  12.066  -4.957  1.00  0.00    -0.237 OA
ATOM     54  O   UNL     1       7.078  12.053  -2.502  1.00  0.00    -0.744 OA
ENDBRANCH  48  51
ENDBRANCH  30  44
BRANCH  31  55
ATOM     55  C   UNL     1      -4.667   9.976   1.587  1.00  0.00     0.023 A 
ATOM     56  C   UNL     1      -5.878   9.690   0.934  1.00  0.00     0.012 A 
ATOM     57  C   UNL     1      -4.656  10.224   2.973  1.00  0.00     0.148 A 
ATOM     58  C   UNL     1      -7.068   9.648   1.657  1.00  0.00     0.002 A 
ATOM     59  C   UNL     1      -5.838  10.140   3.692  1.00  0.00     0.091 A 
ATOM     60  F   UNL     1      -3.478  10.480   3.560  1.00  0.00    -0.205 F 
ATOM     61  C   UNL     1      -7.046   9.860   3.035  1.00  0.00     0.022 A 
BRANCH  59  62
ATOM     62  S   UNL     1      -5.888  10.287   5.479  1.00  0.00     0.127 S 
ATOM     63  O   UNL     1      -6.655  11.518   5.652  1.00  0.00    -0.237 OA
ATOM     64  O   UNL     1      -6.590   9.062   5.860  1.00  0.00    -0.237 OA
ATOM     65  O   UNL     1      -4.499  10.348   5.913  1.00  0.00    -0.744 OA
ENDBRANCH  59  62
ENDBRANCH  31  55
BRANCH  43  66
ATOM     66  C   UNL     1      -1.571  13.892  -3.313  1.00  0.00     0.023 A 
ATOM     67  C   UNL     1      -1.346  15.105  -2.637  1.00  0.00     0.012 A 
ATOM     68  C   UNL     1      -1.976  13.906  -4.661  1.00  0.00     0.148 A 
ATOM     69  C   UNL     1      -1.523  16.320  -3.297  1.00  0.00     0.002 A 
ATOM     70  C   UNL     1      -2.115  15.118  -5.323  1.00  0.00     0.091 A 
ATOM     71  F   UNL     1      -2.185  12.732  -5.276  1.00  0.00    -0.205 F 
ATOM     72  C   UNL     1      -1.893  16.326  -4.641  1.00  0.00     0.022 A 
BRANCH  70  73
ATOM     73  S   UNL     1      -2.516  15.220  -7.069  1.00  0.00     0.127 S 
ATOM     74  O   UNL     1      -3.843  15.833  -7.032  1.00  0.00    -0.237 OA
ATOM     75  O   UNL     1      -1.455  16.087  -7.580  1.00  0.00    -0.237 OA
ATOM     76  O   UNL     1      -2.482  13.853  -7.574  1.00  0.00    -0.744 OA
ENDBRANCH  70  73
ENDBRANCH  43  66
ENDBRANCH  17  18
ENDBRANCH  10  12
ENDBRANCH   9  10
ENDBRANCH   8   9
ENDBRANCH   7   8
ENDBRANCH   6   7
ENDBRANCH   4   6
ENDBRANCH   3   4
ENDBRANCH   1   3
BRANCH   1  77
ATOM     77  C   UNL     1       5.256   2.055   2.072  1.00  0.00     0.079 C 
ATOM     78  C   UNL     1       5.396   3.490   2.491  1.00  0.00     0.021 A 
ATOM     79  C   UNL     1       6.423   1.169   2.458  1.00  0.00     0.232 C 
ATOM     80  C   UNL     1       4.715   4.586   1.882  1.00  0.00     0.071 A 
ATOM     81  C   UNL     1       6.025   3.686   3.716  1.00  0.00     0.180 A 
ATOM     82  C   UNL     1       6.936   1.384   3.863  1.00  0.00     0.341 C 
ATOM     83  C   UNL     1       4.528   5.757   2.624  1.00  0.00     0.066 A 
ATOM     84  C   UNL     1       5.894   4.885   4.396  1.00  0.00     0.201 A 
ATOM     85  O   UNL     1       6.774   2.675   4.358  1.00  0.00    -0.420 OA
ATOM     86  O   UNL     1       7.570   0.525   4.469  1.00  0.00    -0.249 OA
ATOM     87  C   UNL     1       5.112   5.894   3.869  1.00  0.00     0.162 A 
BRANCH  79  88
ATOM     88  O   UNL     1       6.143  -0.166   2.066  1.00  0.00    -0.381 OA
ATOM     89  H   UNL     1       5.358  -0.484   2.540  1.00  0.00     0.211 HD
ENDBRANCH  79  88
BRANCH  80  90
ATOM     90  C   UNL     1       4.025   4.491   0.559  1.00  0.00     0.339 C 
ATOM     91  O   UNL     1       2.839   4.254   0.446  1.00  0.00    -0.246 OA
BRANCH  90  92
ATOM     92  O   UNL     1       4.848   4.772  -0.473  1.00  0.00    -0.448 OA
BRANCH  92  93
ATOM     93  C   UNL     1       4.941   3.864  -1.636  1.00  0.00     0.290 C 
ATOM     94  C   UNL     1       3.677   3.159  -2.145  1.00  0.00     0.267 C 
ATOM     95  C   UNL     1       5.845   2.733  -1.171  1.00  0.00     0.357 C 
ATOM     96  C   UNL     1       3.296   1.776  -1.437  1.00  0.00     0.254 C 
ATOM     97  O   UNL     1       5.747   1.417  -1.821  1.00  0.00    -0.329 OA
ATOM     98  C   UNL     1       4.410   0.761  -1.717  1.00  0.00     0.205 CG1
ATOM     99  G   UNL     1       3.906  -0.187  -2.879  1.00  0.00     0.000 G1
BRANCH  94 100
ATOM    100  O   UNL     1       3.824   2.935  -3.586  1.00  0.00    -0.450 OA
BRANCH 100 101
ATOM    101  C   UNL     1       4.864   2.550  -4.356  1.00  0.00     0.339 C 
ATOM    102  O   UNL     1       6.048   2.554  -4.056  1.00  0.00    -0.246 OA
BRANCH 101 103
ATOM    103  C   UNL     1       4.354   2.029  -5.665  1.00  0.00     0.075 A 
ATOM    104  C   UNL     1       5.159   1.131  -6.394  1.00  0.00     0.066 A 
ATOM    105  C   UNL     1       3.049   2.338  -6.128  1.00  0.00     0.043 A 
ATOM    106  C   UNL     1       4.734   0.698  -7.642  1.00  0.00     0.162 A 
ATOM    107  C   UNL     1       2.733   2.025  -7.452  1.00  0.00     0.170 A 
ATOM    108  C   UNL     1       3.572   1.211  -8.200  1.00  0.00     0.200 A 
BRANCH 105 109
ATOM    109  C   UNL     1       1.997   2.832  -5.226  1.00  0.00     0.001 A 
ATOM    110  C   UNL     1       1.823   4.229  -5.099  1.00  0.00     0.010 A 
ATOM    111  C   UNL     1       1.292   1.961  -4.341  1.00  0.00     0.068 A 
ATOM    112  C   UNL     1       0.941   4.757  -4.159  1.00  0.00     0.001 A 
ATOM    113  C   UNL     1       0.311   2.512  -3.494  1.00  0.00     0.016 A 
ATOM    114  C   UNL     1       0.150   3.901  -3.396  1.00  0.00     0.001 A 
BRANCH 111 115
ATOM    115  C   UNL     1       1.747   0.546  -3.972  1.00  0.00     0.338 C 
ATOM    116  O   UNL     1       1.004  -0.308  -3.518  1.00  0.00    -0.246 OA
BRANCH 115 117
ATOM    117  O   UNL     1       3.109   0.524  -3.890  1.00  0.00    -0.459 OA
BRANCH 117 118
ATOM    118  C   UNL     1       3.906  -0.187  -2.879  1.00  0.00     0.269 CG1
ATOM    119  G   UNL     1       4.410   0.761  -1.717  1.00  0.00     0.000 G1
ENDBRANCH 117 118
ENDBRANCH 115 117
ENDBRANCH 111 115
ENDBRANCH 105 109
BRANCH 106 120
ATOM    120  O   UNL     1       5.464  -0.223  -8.335  1.00  0.00    -0.504 OA
ATOM    121  H   UNL     1       6.250  -0.573  -7.963  1.00  0.00     0.293 HD
ENDBRANCH 106 120
BRANCH 107 122
ATOM    122  O   UNL     1       1.597   2.479  -8.072  1.00  0.00    -0.504 OA
ATOM    123  H   UNL     1       1.424   2.244  -8.963  1.00  0.00     0.293 HD
ENDBRANCH 107 122
BRANCH 108 124
ATOM    124  O   UNL     1       3.244   0.892  -9.489  1.00  0.00    -0.502 OA
ATOM    125  H   UNL     1       3.811   0.343  -9.994  1.00  0.00     0.293 HD
ENDBRANCH 108 124
ENDBRANCH 101 103
ENDBRANCH 100 101
ENDBRANCH  94 100
BRANCH  95 126
ATOM    126  O   UNL     1       6.932   3.161  -0.267  1.00  0.00    -0.428 OA
BRANCH 126 127
ATOM    127  C   UNL     1       7.868   4.007  -0.748  1.00  0.00     0.340 C 
ATOM    128  O   UNL     1       8.547   3.736  -1.723  1.00  0.00    -0.246 OA
BRANCH 127 129
ATOM    129  C   UNL     1       8.017   5.328  -0.017  1.00  0.00     0.067 A 
ATOM    130  C   UNL     1       8.277   6.430  -0.843  1.00  0.00     0.066 A 
ATOM    131  C   UNL     1       8.034   5.535   1.380  1.00  0.00     0.066 A 
ATOM    132  C   UNL     1       8.579   7.681  -0.306  1.00  0.00     0.162 A 
ATOM    133  C   UNL     1       8.306   6.819   1.904  1.00  0.00     0.162 A 
ATOM    134  C   UNL     1       8.599   7.884   1.060  1.00  0.00     0.200 A 
BRANCH 132 135
ATOM    135  O   UNL     1       8.902   8.669  -1.179  1.00  0.00    -0.504 OA
ATOM    136  H   UNL     1       8.880   8.504  -2.101  1.00  0.00     0.293 HD
ENDBRANCH 132 135
BRANCH 133 137
ATOM    137  O   UNL     1       8.364   7.083   3.249  1.00  0.00    -0.504 OA
ATOM    138  H   UNL     1       8.549   7.952   3.548  1.00  0.00     0.293 HD
ENDBRANCH 133 137
BRANCH 134 139
ATOM    139  O   UNL     1       8.939   9.111   1.559  1.00  0.00    -0.502 OA
ATOM    140  H   UNL     1       9.133   9.817   0.974  1.00  0.00     0.293 HD
ENDBRANCH 134 139
ENDBRANCH 127 129
ENDBRANCH 126 127
ENDBRANCH  95 126
BRANCH  96 141
ATOM    141  O   UNL     1       3.156   1.955  -0.013  1.00  0.00    -0.455 OA
BRANCH 141 142
ATOM    142  C   UNL     1       3.208   0.978   0.939  1.00  0.00     0.310 CG0
ATOM    143  O   UNL     1       2.944  -0.193   0.751  1.00  0.00    -0.252 OA
ATOM    144  G   UNL     1       3.791   1.664   2.193  1.00  0.00     0.000 G0
ENDBRANCH 141 142
ENDBRANCH  96 141
ENDBRANCH  92  93
ENDBRANCH  90  92
ENDBRANCH  80  90
BRANCH  84 145
ATOM    145  O   UNL     1       6.515   5.098   5.589  1.00  0.00    -0.502 OA
ATOM    146  H   UNL     1       6.412   5.917   6.031  1.00  0.00     0.293 HD
ENDBRANCH  84 145
BRANCH  87 147
ATOM    147  O   UNL     1       4.903   7.051   4.551  1.00  0.00    -0.504 OA
ATOM    148  H   UNL     1       4.369   7.725   4.178  1.00  0.00     0.293 HD
ENDBRANCH  87 147
ENDBRANCH   1  77
TORSDOF 27
