REMARK SMILES Cc1cc(C(=O)OCCOC(=O)c2ccc(-c3c4nc(c(-c5cccc(S(=O)(=O)[O-])c5F)c5ccc([nH]5)c(-c5cccc(S(=O)(=O)[O-])c5F)c5nc(c(-c6cccc(S(=O)(=O)[O-])c6F)c6ccc3[nH]6)C=C5)C=C4)cc2)ccc1NC(=O)c1ccc(=O)n(CCOc2ccccc2)n1
REMARK SMILES IDX 7 1 5 2 6 3 4 4 1 5 2 6 3 7 78 8 77 9 76 10 79 11 80 12
REMARK SMILES IDX 81 14 82 15 83 16 97 17 84 18 87 19 85 20 86 21 88 22 89 23
REMARK SMILES IDX 90 24 91 25 92 26 96 27 93 28 95 29 94 30 8 31 9 32 10 33
REMARK SMILES IDX 11 34 12 35 13 36 14 37 75 38 15 39 74 40 16 41 17 42 18 43
REMARK SMILES IDX 68 44 19 45 73 46 67 47 69 48 20 49 72 50 66 51 65 52 21 54
REMARK SMILES IDX 53 55 33 56 52 57 34 58 37 59 51 60 70 61 35 62 36 63 50 65
REMARK SMILES IDX 71 66 38 67 22 68 23 69 31 70 24 71 26 72 32 73 25 74 27 75
REMARK SMILES IDX 28 76 29 77 30 78 54 79 55 80 63 81 56 82 58 83 64 84 57 85
REMARK SMILES IDX 59 86 60 87 61 88 62 89 39 90 40 91 48 92 41 93 43 94 49 95
REMARK SMILES IDX 42 96 44 97 45 98 46 99 47 100
REMARK H PARENT 79 13 69 53 37 64
REMARK Flexibility Score: inf
ROOT
ATOM      1  O   UNL     1      -3.174  -1.999  -1.617  1.00  0.00    -0.458 OA
ENDROOT
BRANCH   1   2
ATOM      2  C   UNL     1      -2.184  -1.463  -2.376  1.00  0.00     0.338 C 
ATOM      3  O   UNL     1      -2.006  -1.633  -3.552  1.00  0.00    -0.246 OA
BRANCH   2   4
ATOM      4  C   UNL     1      -1.335  -0.629  -1.480  1.00  0.00     0.060 A 
ATOM      5  C   UNL     1       2.333   0.296  -1.067  1.00  0.00     0.046 C 
ATOM      6  C   UNL     1       0.840   0.328  -0.915  1.00  0.00    -0.027 A 
ATOM      7  C   UNL     1       0.044  -0.536  -1.700  1.00  0.00     0.021 A 
ATOM      8  C   UNL     1       0.207   1.180   0.002  1.00  0.00     0.044 A 
ATOM      9  C   UNL     1      -1.106   0.897   0.366  1.00  0.00     0.027 A 
ATOM     10  C   UNL     1      -1.890   0.031  -0.388  1.00  0.00     0.018 A 
BRANCH   8  11
ATOM     11  N   UNL     1       0.859   2.351   0.464  1.00  0.00    -0.320 N 
ATOM     12  C   UNL     1       0.289   3.617   0.618  1.00  0.00     0.276 C 
ATOM     13  H   UNL     1       1.811   2.263   0.699  1.00  0.00     0.170 HD
ATOM     14  O   UNL     1       0.943   4.619   0.882  1.00  0.00    -0.267 OA
BRANCH  12  15
ATOM     15  C   UNL     1      -1.170   3.773   0.206  1.00  0.00     0.149 A 
ATOM     16  C   UNL     1      -1.396   3.873  -1.249  1.00  0.00     0.042 A 
ATOM     17  N   UNL     1      -2.105   3.673   1.103  1.00  0.00    -0.164 NA
ATOM     18  C   UNL     1      -2.573   3.411  -1.669  1.00  0.00     0.076 A 
ATOM     19  N   UNL     1      -3.370   3.313   0.628  1.00  0.00    -0.226 N 
ATOM     20  C   UNL     1      -3.555   2.890  -0.691  1.00  0.00     0.266 A 
ATOM     21  O   UNL     1      -4.449   2.156  -1.103  1.00  0.00    -0.268 OA
BRANCH  19  22
ATOM     22  C   UNL     1      -4.369   2.984   1.660  1.00  0.00     0.190 C 
BRANCH  22  23
ATOM     23  C   UNL     1      -5.145   4.199   2.186  1.00  0.00     0.253 C 
BRANCH  23  24
ATOM     24  O   UNL     1      -6.319   4.474   1.394  1.00  0.00    -0.492 OA
BRANCH  24  25
ATOM     25  C   UNL     1      -6.086   5.425   0.446  1.00  0.00     0.119 A 
ATOM     26  C   UNL     1      -6.173   6.779   0.745  1.00  0.00     0.046 A 
ATOM     27  C   UNL     1      -5.832   5.012  -0.854  1.00  0.00     0.046 A 
ATOM     28  C   UNL     1      -5.884   7.716  -0.249  1.00  0.00     0.004 A 
ATOM     29  C   UNL     1      -5.471   5.936  -1.828  1.00  0.00     0.004 A 
ATOM     30  C   UNL     1      -5.492   7.294  -1.522  1.00  0.00     0.000 A 
ENDBRANCH  24  25
ENDBRANCH  23  24
ENDBRANCH  22  23
ENDBRANCH  19  22
ENDBRANCH  12  15
ENDBRANCH   8  11
ENDBRANCH   2   4
ENDBRANCH   1   2
BRANCH   1  31
ATOM     31  C   UNL     1      -4.155  -2.811  -2.247  1.00  0.00     0.275 C 
BRANCH  31  32
ATOM     32  C   UNL     1      -3.709  -4.115  -2.937  1.00  0.00     0.275 C 
BRANCH  32  33
ATOM     33  O   UNL     1      -2.311  -4.511  -3.017  1.00  0.00    -0.458 OA
BRANCH  33  34
ATOM     34  C   UNL     1      -1.388  -4.738  -2.048  1.00  0.00     0.338 C 
ATOM     35  O   UNL     1      -0.290  -5.221  -2.293  1.00  0.00    -0.246 OA
BRANCH  34  36
ATOM     36  C   UNL     1      -1.726  -4.319  -0.686  1.00  0.00     0.060 A 
ATOM     37  C   UNL     1      -0.855  -3.478   0.028  1.00  0.00     0.016 A 
ATOM     38  C   UNL     1      -2.958  -4.691  -0.169  1.00  0.00     0.016 A 
ATOM     39  C   UNL     1      -1.258  -2.947   1.250  1.00  0.00     0.010 A 
ATOM     40  C   UNL     1      -3.423  -4.048   0.948  1.00  0.00     0.010 A 
ATOM     41  C   UNL     1      -2.543  -3.250   1.702  1.00  0.00    -0.014 A 
BRANCH  41  42
ATOM     42  C   UNL     1      -2.902  -3.267   3.112  1.00  0.00     0.031 A 
ATOM     43  C   UNL     1      -3.537  -2.157   3.822  1.00  0.00     0.074 A 
ATOM     44  C   UNL     1      -2.831  -4.526   3.602  1.00  0.00     0.049 A 
ATOM     45  N   UNL     1      -3.692  -2.148   5.099  1.00  0.00    -0.248 NA
ATOM     46  C   UNL     1      -4.019  -0.947   3.172  1.00  0.00     0.031 C 
ATOM     47  C   UNL     1      -3.490  -5.139   4.735  1.00  0.00     0.029 A 
ATOM     48  N   UNL     1      -1.983  -5.534   3.116  1.00  0.00    -0.354 N 
ATOM     49  C   UNL     1      -4.517  -1.090   5.420  1.00  0.00     0.074 A 
ATOM     50  C   UNL     1      -4.590  -0.312   4.205  1.00  0.00     0.031 C 
ATOM     51  C   UNL     1      -2.841  -6.285   5.024  1.00  0.00     0.029 A 
ATOM     52  C   UNL     1      -1.631  -6.318   4.205  1.00  0.00     0.049 A 
ATOM     53  H   UNL     1      -1.694  -5.660   2.183  1.00  0.00     0.167 HD
ATOM     54  C   UNL     1      -5.138  -1.108   6.636  1.00  0.00     0.034 A 
ATOM     55  C   UNL     1      -0.338  -6.340   4.648  1.00  0.00     0.034 A 
ATOM     56  C   UNL     1      -4.627  -2.236   7.439  1.00  0.00     0.049 A 
ATOM     57  C   UNL     1      -0.250  -5.790   6.057  1.00  0.00     0.074 A 
ATOM     58  C   UNL     1      -5.098  -3.522   7.644  1.00  0.00     0.029 A 
ATOM     59  N   UNL     1      -3.307  -2.226   7.884  1.00  0.00    -0.354 N 
ATOM     60  N   UNL     1      -1.202  -5.111   6.637  1.00  0.00    -0.248 NA
ATOM     61  C   UNL     1       0.919  -5.951   6.911  1.00  0.00     0.031 C 
ATOM     62  C   UNL     1      -4.001  -4.321   8.075  1.00  0.00     0.029 A 
ATOM     63  C   UNL     1      -2.880  -3.513   8.186  1.00  0.00     0.049 A 
ATOM     64  H   UNL     1      -2.753  -1.417   7.973  1.00  0.00     0.167 HD
ATOM     65  C   UNL     1      -0.774  -4.656   7.849  1.00  0.00     0.074 A 
ATOM     66  C   UNL     1       0.536  -5.271   8.005  1.00  0.00     0.031 C 
ATOM     67  C   UNL     1      -1.495  -3.760   8.591  1.00  0.00     0.034 A 
BRANCH  54  68
ATOM     68  C   UNL     1      -6.380  -0.319   7.053  1.00  0.00     0.023 A 
ATOM     69  C   UNL     1      -7.014  -0.717   8.256  1.00  0.00     0.012 A 
ATOM     70  C   UNL     1      -7.033   0.714   6.338  1.00  0.00     0.148 A 
ATOM     71  C   UNL     1      -8.237  -0.183   8.687  1.00  0.00     0.002 A 
ATOM     72  C   UNL     1      -8.256   1.251   6.766  1.00  0.00     0.091 A 
ATOM     73  F   UNL     1      -6.492   1.204   5.226  1.00  0.00    -0.205 F 
ATOM     74  C   UNL     1      -8.867   0.795   7.936  1.00  0.00     0.022 A 
BRANCH  72  75
ATOM     75  S   UNL     1      -9.132   2.534   5.847  1.00  0.00     0.127 S 
ATOM     76  O   UNL     1     -10.348   1.834   5.433  1.00  0.00    -0.237 OA
ATOM     77  O   UNL     1      -9.340   3.564   6.865  1.00  0.00    -0.237 OA
ATOM     78  O   UNL     1      -8.249   2.929   4.756  1.00  0.00    -0.744 OA
ENDBRANCH  72  75
ENDBRANCH  54  68
BRANCH  55  79
ATOM     79  C   UNL     1       0.703  -6.125   3.573  1.00  0.00     0.023 A 
ATOM     80  C   UNL     1       0.671  -6.991   2.448  1.00  0.00     0.012 A 
ATOM     81  C   UNL     1       1.459  -4.942   3.468  1.00  0.00     0.148 A 
ATOM     82  C   UNL     1       1.270  -6.638   1.234  1.00  0.00     0.002 A 
ATOM     83  C   UNL     1       2.061  -4.598   2.250  1.00  0.00     0.091 A 
ATOM     84  F   UNL     1       1.542  -4.127   4.527  1.00  0.00    -0.205 F 
ATOM     85  C   UNL     1       1.949  -5.431   1.129  1.00  0.00     0.022 A 
BRANCH  83  86
ATOM     86  S   UNL     1       2.858  -2.995   2.047  1.00  0.00     0.127 S 
ATOM     87  O   UNL     1       2.868  -2.804   0.595  1.00  0.00    -0.237 OA
ATOM     88  O   UNL     1       1.975  -2.073   2.749  1.00  0.00    -0.237 OA
ATOM     89  O   UNL     1       4.170  -3.231   2.640  1.00  0.00    -0.744 OA
ENDBRANCH  83  86
ENDBRANCH  55  79
BRANCH  67  90
ATOM     90  C   UNL     1      -0.923  -3.021   9.776  1.00  0.00     0.023 A 
ATOM     91  C   UNL     1       0.456  -2.755   9.891  1.00  0.00     0.012 A 
ATOM     92  C   UNL     1      -1.774  -2.422  10.734  1.00  0.00     0.148 A 
ATOM     93  C   UNL     1       0.979  -2.012  10.951  1.00  0.00     0.002 A 
ATOM     94  C   UNL     1      -1.260  -1.577  11.712  1.00  0.00     0.091 A 
ATOM     95  F   UNL     1      -3.092  -2.672  10.710  1.00  0.00    -0.205 F 
ATOM     96  C   UNL     1       0.118  -1.402  11.851  1.00  0.00     0.022 A 
BRANCH  94  97
ATOM     97  S   UNL     1      -2.366  -0.550  12.687  1.00  0.00     0.127 S 
ATOM     98  O   UNL     1      -2.700  -1.429  13.804  1.00  0.00    -0.237 OA
ATOM     99  O   UNL     1      -1.518   0.589  13.041  1.00  0.00    -0.237 OA
ATOM    100  O   UNL     1      -3.453  -0.219  11.773  1.00  0.00    -0.744 OA
ENDBRANCH  94  97
ENDBRANCH  67  90
ENDBRANCH  41  42
ENDBRANCH  34  36
ENDBRANCH  33  34
ENDBRANCH  32  33
ENDBRANCH  31  32
ENDBRANCH   1  31
TORSDOF 20
