REMARK SMILES Cc1ccnc(C(=O)c2[nH]c3cc(Cl)c(F)cc3c2CC(=O)OCCOC(=O)c2ccc(-c3c4nc(c(-c5cccc(S(=O)(=O)[O-])c5F)c5ccc([nH]5)c(-c5cccc(S(=O)(=O)[O-])c5F)c5nc(c(-c6cccc(S(=O)(=O)[O-])c6F)c6ccc3[nH]6)C=C5)C=C4)cc2)c1
REMARK SMILES IDX 24 1 23 2 21 3 22 4 20 5 19 6 9 7 10 8 11 9 18 11 12 12
REMARK SMILES IDX 17 13 13 14 15 15 14 16 16 17 7 18 8 19 6 20 1 21 2 22 3 23
REMARK SMILES IDX 92 24 4 25 5 26 25 27 26 28 27 29 28 30 29 31 30 32 91 33
REMARK SMILES IDX 31 34 90 35 32 36 33 37 34 38 84 39 35 40 89 41 83 42 85 43
REMARK SMILES IDX 36 44 88 45 82 46 81 47 37 49 69 50 49 51 68 52 50 53 53 54
REMARK SMILES IDX 67 55 86 56 51 57 52 58 66 60 87 61 54 62 38 63 39 64 47 65
REMARK SMILES IDX 40 66 42 67 48 68 41 69 43 70 44 71 45 72 46 73 70 74 71 75
REMARK SMILES IDX 79 76 72 77 74 78 80 79 73 80 75 81 76 82 77 83 78 84 55 85
REMARK SMILES IDX 56 86 64 87 57 88 59 89 65 90 58 91 60 92 61 93 62 94 63 95
REMARK H PARENT 10 10 85 48 53 59
REMARK Flexibility Score: inf
ROOT
ATOM      1  C   UNL     1      -2.681  -0.599  -1.652  1.00  0.00     0.274 C 
ENDROOT
BRANCH   1   2
ATOM      2  O   UNL     1      -1.946  -1.774  -1.208  1.00  0.00    -0.462 OA
BRANCH   2   3
ATOM      3  C   UNL     1      -1.454  -2.516  -2.229  1.00  0.00     0.310 C 
ATOM      4  O   UNL     1      -1.639  -2.205  -3.407  1.00  0.00    -0.252 OA
BRANCH   3   5
ATOM      5  C   UNL     1      -0.778  -3.820  -1.918  1.00  0.00     0.161 C 
BRANCH   5   6
ATOM      6  C   UNL     1      -0.315  -4.353  -0.580  1.00  0.00     0.000 A 
ATOM      7  C   UNL     1       0.663  -3.955   0.346  1.00  0.00     0.093 A 
ATOM      8  N   UNL     1       0.899  -5.029   1.178  1.00  0.00    -0.351 N 
ATOM      9  C   UNL     1       0.072  -6.077   0.906  1.00  0.00     0.048 A 
ATOM     10  H   UNL     1       1.584  -5.038   1.885  1.00  0.00     0.167 HD
ATOM     11  C   UNL     1      -0.682  -5.711  -0.202  1.00  0.00     0.007 A 
ATOM     12  C   UNL     1      -0.012  -7.331   1.520  1.00  0.00     0.050 A 
ATOM     13  C   UNL     1      -1.536  -6.687  -0.766  1.00  0.00     0.051 A 
ATOM     14  C   UNL     1      -0.902  -8.256   0.971  1.00  0.00     0.078 A 
ATOM     15  C   UNL     1      -1.641  -7.941  -0.162  1.00  0.00     0.142 A 
ATOM     16  Cl  UNL     1      -1.070  -9.794   1.728  1.00  0.00    -0.081 Cl
ATOM     17  F   UNL     1      -2.484  -8.836  -0.698  1.00  0.00    -0.205 F 
BRANCH   7  18
ATOM     18  C   UNL     1       1.532  -2.800   0.555  1.00  0.00     0.227 C 
ATOM     19  O   UNL     1       2.732  -2.874   0.297  1.00  0.00    -0.285 OA
BRANCH  18  20
ATOM     20  C   UNL     1       0.994  -1.604   1.299  1.00  0.00     0.113 A 
ATOM     21  C   UNL     1      -2.397  -0.196   2.139  1.00  0.00     0.044 C 
ATOM     22  C   UNL     1      -0.914  -0.314   1.967  1.00  0.00    -0.047 A 
ATOM     23  C   UNL     1      -0.093   0.816   1.956  1.00  0.00     0.023 A 
ATOM     24  C   UNL     1      -0.351  -1.552   1.655  1.00  0.00     0.036 A 
ATOM     25  C   UNL     1       1.262   0.653   1.696  1.00  0.00     0.112 A 
ATOM     26  N   UNL     1       1.838  -0.538   1.423  1.00  0.00    -0.253 NA
ENDBRANCH  18  20
ENDBRANCH   7  18
ENDBRANCH   5   6
ENDBRANCH   3   5
ENDBRANCH   2   3
ENDBRANCH   1   2
BRANCH   1  27
ATOM     27  C   UNL     1      -1.881   0.716  -1.610  1.00  0.00     0.275 C 
BRANCH  27  28
ATOM     28  O   UNL     1      -0.759   0.739  -2.499  1.00  0.00    -0.458 OA
BRANCH  28  29
ATOM     29  C   UNL     1       0.342   0.110  -2.023  1.00  0.00     0.338 C 
ATOM     30  O   UNL     1       0.460  -0.306  -0.889  1.00  0.00    -0.246 OA
BRANCH  29  31
ATOM     31  C   UNL     1       1.198  -0.372  -3.107  1.00  0.00     0.060 A 
ATOM     32  C   UNL     1       0.957   0.159  -4.359  1.00  0.00     0.016 A 
ATOM     33  C   UNL     1       1.702  -1.672  -2.933  1.00  0.00     0.016 A 
ATOM     34  C   UNL     1       0.793  -0.744  -5.378  1.00  0.00     0.010 A 
ATOM     35  C   UNL     1       1.595  -2.565  -3.978  1.00  0.00     0.010 A 
ATOM     36  C   UNL     1       1.001  -2.120  -5.148  1.00  0.00    -0.014 A 
BRANCH  36  37
ATOM     37  C   UNL     1       0.932  -2.974  -6.313  1.00  0.00     0.031 A 
ATOM     38  C   UNL     1       2.103  -2.675  -7.149  1.00  0.00     0.074 A 
ATOM     39  C   UNL     1      -0.038  -3.809  -6.719  1.00  0.00     0.049 A 
ATOM     40  N   UNL     1       2.115  -1.771  -8.068  1.00  0.00    -0.248 NA
ATOM     41  C   UNL     1       3.421  -3.136  -6.708  1.00  0.00     0.031 C 
ATOM     42  C   UNL     1      -1.158  -4.416  -6.006  1.00  0.00     0.029 A 
ATOM     43  N   UNL     1      -0.159  -4.326  -7.972  1.00  0.00    -0.354 N 
ATOM     44  C   UNL     1       3.431  -1.679  -8.466  1.00  0.00     0.074 A 
ATOM     45  C   UNL     1       4.205  -2.371  -7.468  1.00  0.00     0.031 C 
ATOM     46  C   UNL     1      -1.710  -5.384  -6.786  1.00  0.00     0.029 A 
ATOM     47  C   UNL     1      -1.099  -5.333  -8.104  1.00  0.00     0.049 A 
ATOM     48  H   UNL     1       0.383  -4.007  -8.729  1.00  0.00     0.167 HD
ATOM     49  C   UNL     1       3.715  -1.256  -9.722  1.00  0.00     0.034 A 
ATOM     50  C   UNL     1      -1.314  -6.060  -9.229  1.00  0.00     0.034 A 
ATOM     51  C   UNL     1       2.596  -0.538 -10.296  1.00  0.00     0.049 A 
ATOM     52  C   UNL     1      -0.876  -5.220 -10.372  1.00  0.00     0.074 A 
ATOM     53  C   UNL     1       1.903   0.610  -9.960  1.00  0.00     0.029 A 
ATOM     54  N   UNL     1       1.767  -1.246 -11.135  1.00  0.00    -0.354 N 
ATOM     55  N   UNL     1      -1.494  -4.131 -10.736  1.00  0.00    -0.248 NA
ATOM     56  C   UNL     1       0.491  -5.356 -10.846  1.00  0.00     0.031 C 
ATOM     57  C   UNL     1       0.535   0.323 -10.252  1.00  0.00     0.029 A 
ATOM     58  C   UNL     1       0.470  -0.961 -10.796  1.00  0.00     0.049 A 
ATOM     59  H   UNL     1       2.056  -1.852 -11.855  1.00  0.00     0.167 HD
ATOM     60  C   UNL     1      -0.472  -3.253 -11.071  1.00  0.00     0.074 A 
ATOM     61  C   UNL     1       0.716  -4.093 -11.219  1.00  0.00     0.031 C 
ATOM     62  C   UNL     1      -0.624  -1.903 -10.927  1.00  0.00     0.034 A 
BRANCH  49  63
ATOM     63  C   UNL     1       4.805  -1.872 -10.557  1.00  0.00     0.023 A 
ATOM     64  C   UNL     1       4.992  -1.338 -11.847  1.00  0.00     0.012 A 
ATOM     65  C   UNL     1       5.452  -3.098 -10.268  1.00  0.00     0.148 A 
ATOM     66  C   UNL     1       5.721  -2.026 -12.821  1.00  0.00     0.002 A 
ATOM     67  C   UNL     1       6.239  -3.738 -11.212  1.00  0.00     0.091 A 
ATOM     68  F   UNL     1       5.215  -3.744  -9.126  1.00  0.00    -0.205 F 
ATOM     69  C   UNL     1       6.347  -3.225 -12.503  1.00  0.00     0.022 A 
BRANCH  67  70
ATOM     70  S   UNL     1       7.103  -5.267 -10.828  1.00  0.00     0.127 S 
ATOM     71  O   UNL     1       6.331  -6.238 -11.596  1.00  0.00    -0.237 OA
ATOM     72  O   UNL     1       8.442  -4.985 -11.346  1.00  0.00    -0.237 OA
ATOM     73  O   UNL     1       7.044  -5.405  -9.378  1.00  0.00    -0.744 OA
ENDBRANCH  67  70
ENDBRANCH  49  63
BRANCH  50  74
ATOM     74  C   UNL     1      -1.532  -7.517  -9.396  1.00  0.00     0.023 A 
ATOM     75  C   UNL     1      -1.965  -8.007 -10.648  1.00  0.00     0.012 A 
ATOM     76  C   UNL     1      -0.991  -8.435  -8.472  1.00  0.00     0.148 A 
ATOM     77  C   UNL     1      -1.808  -9.354 -10.992  1.00  0.00     0.002 A 
ATOM     78  C   UNL     1      -0.829  -9.774  -8.822  1.00  0.00     0.091 A 
ATOM     79  F   UNL     1      -0.550  -7.978  -7.293  1.00  0.00    -0.205 F 
ATOM     80  C   UNL     1      -1.224 -10.234 -10.086  1.00  0.00     0.022 A 
BRANCH  78  81
ATOM     81  S   UNL     1      -0.029 -10.963  -7.736  1.00  0.00     0.127 S 
ATOM     82  O   UNL     1      -1.005 -12.053  -7.716  1.00  0.00    -0.237 OA
ATOM     83  O   UNL     1       1.201 -11.257  -8.466  1.00  0.00    -0.237 OA
ATOM     84  O   UNL     1       0.142 -10.285  -6.459  1.00  0.00    -0.744 OA
ENDBRANCH  78  81
ENDBRANCH  50  74
BRANCH  62  85
ATOM     85  C   UNL     1      -2.010  -1.371 -10.641  1.00  0.00     0.023 A 
ATOM     86  C   UNL     1      -2.729  -1.708  -9.474  1.00  0.00     0.012 A 
ATOM     87  C   UNL     1      -2.525  -0.375 -11.489  1.00  0.00     0.148 A 
ATOM     88  C   UNL     1      -3.941  -1.077  -9.171  1.00  0.00     0.002 A 
ATOM     89  C   UNL     1      -3.700   0.288 -11.157  1.00  0.00     0.091 A 
ATOM     90  F   UNL     1      -1.835  -0.069 -12.598  1.00  0.00    -0.205 F 
ATOM     91  C   UNL     1      -4.418  -0.068 -10.004  1.00  0.00     0.022 A 
BRANCH  89  92
ATOM     92  S   UNL     1      -4.291   1.690 -12.108  1.00  0.00     0.127 S 
ATOM     93  O   UNL     1      -5.461   1.133 -12.783  1.00  0.00    -0.237 OA
ATOM     94  O   UNL     1      -4.597   2.670 -11.064  1.00  0.00    -0.237 OA
ATOM     95  O   UNL     1      -3.190   2.078 -12.982  1.00  0.00    -0.744 OA
ENDBRANCH  89  92
ENDBRANCH  62  85
ENDBRANCH  36  37
ENDBRANCH  29  31
ENDBRANCH  28  29
ENDBRANCH  27  28
ENDBRANCH   1  27
TORSDOF 17
