REMARK SMILES NS(=O)(=O)c1ccc(/N=C/c2ccc(O)c(C(=O)OCCOC(=O)c3ccc(-c4c5nc(c(-c6cccc(S(=O)(=O)[O-])c6F)c6ccc([nH]6)c(-c6cccc(S(=O)(=O)[O-])c6F)c6nc(c(-c7cccc(S(=O)(=O)[O-])c7F)c7ccc4[nH]7)C=C6)C=C5)cc3)c2)cc1
REMARK SMILES IDX 20 1 19 2 17 3 18 4 16 5 11 6 12 7 88 8 13 9 14 10 10 11
REMARK SMILES IDX 9 12 8 13 5 14 6 15 90 16 7 17 89 18 2 19 3 20 4 21 1 22
REMARK SMILES IDX 15 25 21 27 22 28 23 29 24 30 25 31 26 32 87 33 27 34 86 35
REMARK SMILES IDX 28 36 29 37 30 38 80 39 31 40 85 41 79 42 81 43 32 44 84 45
REMARK SMILES IDX 78 46 77 47 33 49 65 50 45 51 64 52 46 53 49 54 63 55 82 56
REMARK SMILES IDX 47 57 48 58 62 60 83 61 50 62 34 63 35 64 43 65 36 66 38 67
REMARK SMILES IDX 44 68 37 69 39 70 40 71 41 72 42 73 66 74 67 75 75 76 68 77
REMARK SMILES IDX 70 78 76 79 69 80 71 81 72 82 73 83 74 84 51 85 52 86 60 87
REMARK SMILES IDX 53 88 55 89 61 90 54 91 56 92 57 93 58 94 59 95
REMARK H PARENT 1 23 1 24 15 26 81 48 49 59
REMARK Flexibility Score: inf
ROOT
ATOM      1  C   UNL     1       7.454  10.331   0.151  1.00  0.00     0.275 C 
ENDROOT
BRANCH   1   2
ATOM      2  O   UNL     1       6.056   9.980   0.093  1.00  0.00    -0.458 OA
BRANCH   2   3
ATOM      3  C   UNL     1       5.229  10.672   0.912  1.00  0.00     0.342 C 
ATOM      4  O   UNL     1       5.552  11.530   1.721  1.00  0.00    -0.246 OA
BRANCH   3   5
ATOM      5  C   UNL     1       3.806  10.363   0.637  1.00  0.00     0.102 A 
ATOM      6  C   UNL     1       2.057   8.929  -0.224  1.00  0.00    -0.006 A 
ATOM      7  C   UNL     1       1.112   9.941  -0.034  1.00  0.00     0.013 A 
ATOM      8  C   UNL     1       3.410   9.143   0.077  1.00  0.00     0.029 A 
ATOM      9  C   UNL     1       1.501  11.139   0.560  1.00  0.00     0.048 A 
ATOM     10  C   UNL     1       2.830  11.327   0.935  1.00  0.00     0.130 A 
BRANCH   6  11
ATOM     11  C   UNL     1       1.567   7.596  -0.629  1.00  0.00     0.119 C 
ATOM     12  N   UNL     1       2.290   6.545  -0.430  1.00  0.00    -0.256 NA
BRANCH  12  13
ATOM     13  C   UNL     1       1.785   5.258  -0.666  1.00  0.00     0.063 A 
ATOM     14  C   UNL     1       1.005   2.588  -1.051  1.00  0.00     0.082 A 
ATOM     15  C   UNL     1       1.937   2.898  -0.062  1.00  0.00     0.024 A 
ATOM     16  C   UNL     1       0.438   3.601  -1.830  1.00  0.00     0.024 A 
ATOM     17  C   UNL     1       2.317   4.229   0.122  1.00  0.00     0.030 A 
ATOM     18  C   UNL     1       0.837   4.930  -1.642  1.00  0.00     0.030 A 
BRANCH  14  19
ATOM     19  S   UNL     1       0.540   0.917  -1.385  1.00  0.00     0.238 S 
ATOM     20  O   UNL     1       1.222   0.485  -2.581  1.00  0.00    -0.207 OA
ATOM     21  O   UNL     1      -0.888   0.791  -1.211  1.00  0.00    -0.207 OA
BRANCH  19  22
ATOM     22  N   UNL     1       1.218   0.019  -0.135  1.00  0.00    -0.225 NA
ATOM     23  H   UNL     1       0.989  -0.967  -0.262  1.00  0.00     0.137 HD
ATOM     24  H   UNL     1       0.844   0.342   0.758  1.00  0.00     0.137 HD
ENDBRANCH  19  22
ENDBRANCH  14  19
ENDBRANCH  12  13
ENDBRANCH   6  11
BRANCH  10  25
ATOM     25  O   UNL     1       3.104  12.508   1.570  1.00  0.00    -0.507 OA
ATOM     26  H   UNL     1       2.414  13.118   1.744  1.00  0.00     0.293 HD
ENDBRANCH  10  25
ENDBRANCH   3   5
ENDBRANCH   2   3
ENDBRANCH   1   2
BRANCH   1  27
ATOM     27  C   UNL     1       7.896  11.053  -1.125  1.00  0.00     0.275 C 
BRANCH  27  28
ATOM     28  O   UNL     1       7.316  12.368  -1.199  1.00  0.00    -0.458 OA
BRANCH  28  29
ATOM     29  C   UNL     1       6.229  12.485  -1.998  1.00  0.00     0.338 C 
ATOM     30  O   UNL     1       5.740  11.623  -2.709  1.00  0.00    -0.246 OA
BRANCH  29  31
ATOM     31  C   UNL     1       5.580  13.779  -1.726  1.00  0.00     0.060 A 
ATOM     32  C   UNL     1       4.280  13.740  -1.220  1.00  0.00     0.016 A 
ATOM     33  C   UNL     1       6.212  15.002  -1.954  1.00  0.00     0.016 A 
ATOM     34  C   UNL     1       3.620  14.916  -0.878  1.00  0.00     0.010 A 
ATOM     35  C   UNL     1       5.533  16.188  -1.648  1.00  0.00     0.010 A 
ATOM     36  C   UNL     1       4.239  16.151  -1.099  1.00  0.00    -0.014 A 
BRANCH  36  37
ATOM     37  C   UNL     1       3.499  17.402  -0.814  1.00  0.00     0.031 A 
ATOM     38  C   UNL     1       2.807  18.120  -1.934  1.00  0.00     0.074 A 
ATOM     39  C   UNL     1       3.439  17.885   0.440  1.00  0.00     0.049 A 
ATOM     40  N   UNL     1       2.160  19.256  -1.913  1.00  0.00    -0.248 NA
ATOM     41  C   UNL     1       2.843  17.468  -3.253  1.00  0.00     0.031 C 
ATOM     42  C   UNL     1       4.024  17.247   1.619  1.00  0.00     0.029 A 
ATOM     43  N   UNL     1       2.872  19.037   0.926  1.00  0.00    -0.354 N 
ATOM     44  C   UNL     1       1.738  19.474  -3.217  1.00  0.00     0.074 A 
ATOM     45  C   UNL     1       2.198  18.350  -4.005  1.00  0.00     0.031 C 
ATOM     46  C   UNL     1       3.806  18.029   2.690  1.00  0.00     0.029 A 
ATOM     47  C   UNL     1       3.101  19.237   2.267  1.00  0.00     0.049 A 
ATOM     48  H   UNL     1       2.351  19.659   0.369  1.00  0.00     0.167 HD
ATOM     49  C   UNL     1       1.025  20.513  -3.712  1.00  0.00     0.034 A 
ATOM     50  C   UNL     1       2.802  20.290   3.054  1.00  0.00     0.034 A 
ATOM     51  C   UNL     1       0.558  21.622  -2.924  1.00  0.00     0.049 A 
ATOM     52  C   UNL     1       2.081  21.472   2.458  1.00  0.00     0.074 A 
ATOM     53  C   UNL     1      -0.200  22.706  -3.330  1.00  0.00     0.029 A 
ATOM     54  N   UNL     1       0.818  21.799  -1.574  1.00  0.00    -0.354 N 
ATOM     55  N   UNL     1       1.604  21.624   1.246  1.00  0.00    -0.248 NA
ATOM     56  C   UNL     1       1.846  22.623   3.343  1.00  0.00     0.031 C 
ATOM     57  C   UNL     1      -0.373  23.554  -2.231  1.00  0.00     0.029 A 
ATOM     58  C   UNL     1       0.258  22.986  -1.135  1.00  0.00     0.049 A 
ATOM     59  H   UNL     1       1.326  21.172  -1.010  1.00  0.00     0.167 HD
ATOM     60  C   UNL     1       0.987  22.871   1.231  1.00  0.00     0.074 A 
ATOM     61  C   UNL     1       1.135  23.425   2.561  1.00  0.00     0.031 C 
ATOM     62  C   UNL     1       0.367  23.505   0.205  1.00  0.00     0.034 A 
BRANCH  49  63
ATOM     63  C   UNL     1       0.705  20.493  -5.181  1.00  0.00     0.023 A 
ATOM     64  C   UNL     1      -0.288  19.619  -5.668  1.00  0.00     0.012 A 
ATOM     65  C   UNL     1       1.364  21.359  -6.074  1.00  0.00     0.148 A 
ATOM     66  C   UNL     1      -0.597  19.585  -7.027  1.00  0.00     0.002 A 
ATOM     67  C   UNL     1       1.024  21.346  -7.421  1.00  0.00     0.091 A 
ATOM     68  F   UNL     1       2.326  22.161  -5.596  1.00  0.00    -0.205 F 
ATOM     69  C   UNL     1       0.051  20.454  -7.901  1.00  0.00     0.022 A 
BRANCH  67  70
ATOM     70  S   UNL     1       1.761  22.476  -8.607  1.00  0.00     0.127 S 
ATOM     71  O   UNL     1       2.699  21.599  -9.306  1.00  0.00    -0.237 OA
ATOM     72  O   UNL     1       0.605  22.889  -9.404  1.00  0.00    -0.237 OA
ATOM     73  O   UNL     1       2.362  23.542  -7.819  1.00  0.00    -0.744 OA
ENDBRANCH  67  70
ENDBRANCH  49  63
BRANCH  50  74
ATOM     74  C   UNL     1       3.165  20.272   4.500  1.00  0.00     0.023 A 
ATOM     75  C   UNL     1       2.144  20.211   5.467  1.00  0.00     0.012 A 
ATOM     76  C   UNL     1       4.509  20.308   4.922  1.00  0.00     0.148 A 
ATOM     77  C   UNL     1       2.452  20.209   6.828  1.00  0.00     0.002 A 
ATOM     78  C   UNL     1       4.811  20.253   6.277  1.00  0.00     0.091 A 
ATOM     79  F   UNL     1       5.466  20.391   3.987  1.00  0.00    -0.205 F 
ATOM     80  C   UNL     1       3.784  20.219   7.233  1.00  0.00     0.022 A 
BRANCH  78  81
ATOM     81  S   UNL     1       6.498  20.147   6.887  1.00  0.00     0.127 S 
ATOM     82  O   UNL     1       6.675  21.457   7.508  1.00  0.00    -0.237 OA
ATOM     83  O   UNL     1       6.410  19.027   7.825  1.00  0.00    -0.237 OA
ATOM     84  O   UNL     1       7.324  19.886   5.716  1.00  0.00    -0.744 OA
ENDBRANCH  78  81
ENDBRANCH  50  74
BRANCH  62  85
ATOM     85  C   UNL     1      -0.224  24.865   0.473  1.00  0.00     0.023 A 
ATOM     86  C   UNL     1       0.626  25.980   0.607  1.00  0.00     0.012 A 
ATOM     87  C   UNL     1      -1.621  25.053   0.499  1.00  0.00     0.148 A 
ATOM     88  C   UNL     1       0.098  27.258   0.784  1.00  0.00     0.002 A 
ATOM     89  C   UNL     1      -2.141  26.336   0.629  1.00  0.00     0.091 A 
ATOM     90  F   UNL     1      -2.413  23.977   0.386  1.00  0.00    -0.205 F 
ATOM     91  C   UNL     1      -1.284  27.438   0.782  1.00  0.00     0.022 A 
BRANCH  89  92
ATOM     92  S   UNL     1      -3.903  26.678   0.543  1.00  0.00     0.127 S 
ATOM     93  O   UNL     1      -4.205  27.042   1.926  1.00  0.00    -0.237 OA
ATOM     94  O   UNL     1      -3.957  27.790  -0.407  1.00  0.00    -0.237 OA
ATOM     95  O   UNL     1      -4.529  25.450   0.071  1.00  0.00    -0.744 OA
ENDBRANCH  89  92
ENDBRANCH  62  85
ENDBRANCH  36  37
ENDBRANCH  29  31
ENDBRANCH  28  29
ENDBRANCH  27  28
ENDBRANCH   1  27
TORSDOF 19
