REMARK SMILES Cc1c(Cl)ccc2c1C=C(C(=O)OCCOC(=O)c1ccc(-c3c4nc(c(-c5cccc(S(=O)(=O)[O-])c5F)c5ccc([nH]5)c(-c5cccc(S(=O)(=O)[O-])c5F)c5nc(c(-c6cccc(S(=O)(=O)[O-])c6F)c6ccc3[nH]6)C=C5)C=C4)cc1)[C@@H](C(F)(F)F)O2
REMARK SMILES IDX 15 1 14 2 13 3 11 4 12 5 10 6 1 7 2 8 3 9 8 10 4 11 5 12
REMARK SMILES IDX 7 13 9 14 6 15 87 16 82 17 83 18 84 19 85 20 86 21 16 22
REMARK SMILES IDX 17 23 18 24 19 25 20 26 81 27 21 28 80 29 22 30 23 31 24 32
REMARK SMILES IDX 74 33 25 34 79 35 73 36 75 37 26 38 78 39 72 40 71 41 27 43
REMARK SMILES IDX 59 44 39 45 58 46 40 47 43 48 57 49 76 50 41 51 42 52 56 54
REMARK SMILES IDX 77 55 44 56 28 57 29 58 37 59 30 60 32 61 38 62 31 63 33 64
REMARK SMILES IDX 34 65 35 66 36 67 60 68 61 69 69 70 62 71 64 72 70 73 63 74
REMARK SMILES IDX 65 75 66 76 67 77 68 78 45 79 46 80 54 81 47 82 49 83 55 84
REMARK SMILES IDX 48 85 50 86 51 87 52 88 53 89
REMARK H PARENT 75 42 43 53
REMARK Flexibility Score: inf
ROOT
ATOM      1  C   UNL     1       0.818   7.120   1.937  1.00  0.00     0.275 C 
ENDROOT
BRANCH   1   2
ATOM      2  C   UNL     1      -0.617   6.620   2.142  1.00  0.00     0.275 C 
BRANCH   2   3
ATOM      3  O   UNL     1      -0.647   5.268   2.650  1.00  0.00    -0.459 OA
BRANCH   3   4
ATOM      4  C   UNL     1      -1.111   4.314   1.805  1.00  0.00     0.338 C 
ATOM      5  O   UNL     1      -1.502   4.490   0.662  1.00  0.00    -0.246 OA
BRANCH   4   6
ATOM      6  C   UNL     1      -1.010   2.976   2.438  1.00  0.00     0.087 C 
ATOM      7  C   UNL     1       0.385  -0.362   0.012  1.00  0.00     0.047 C 
ATOM      8  C   UNL     1       0.019  -0.480   1.472  1.00  0.00    -0.021 A 
ATOM      9  C   UNL     1       0.279  -1.693   2.146  1.00  0.00     0.044 A 
ATOM     10  C   UNL     1      -0.457   0.625   2.228  1.00  0.00     0.022 A 
ATOM     11  Cl  UNL     1       0.911  -3.087   1.337  1.00  0.00    -0.084 Cl
ATOM     12  C   UNL     1       0.058  -1.817   3.518  1.00  0.00     0.024 A 
ATOM     13  C   UNL     1      -0.618   0.496   3.615  1.00  0.00     0.128 A 
ATOM     14  C   UNL     1      -0.748   1.932   1.639  1.00  0.00     0.027 C 
ATOM     15  C   UNL     1      -0.382  -0.722   4.251  1.00  0.00     0.048 A 
ATOM     16  O   UNL     1      -0.976   1.513   4.454  1.00  0.00    -0.475 OA
ATOM     17  C   UNL     1      -1.200   2.843   3.920  1.00  0.00     0.316 C 
BRANCH  17  18
ATOM     18  C   UNL     1      -2.619   3.268   4.332  1.00  0.00     0.430 C 
ATOM     19  F   UNL     1      -2.808   3.127   5.667  1.00  0.00    -0.167 F 
ATOM     20  F   UNL     1      -2.874   4.566   4.044  1.00  0.00    -0.167 F 
ATOM     21  F   UNL     1      -3.571   2.528   3.714  1.00  0.00    -0.167 F 
ENDBRANCH  17  18
ENDBRANCH   4   6
ENDBRANCH   3   4
ENDBRANCH   2   3
ENDBRANCH   1   2
BRANCH   1  22
ATOM     22  O   UNL     1       1.462   6.446   0.842  1.00  0.00    -0.458 OA
BRANCH  22  23
ATOM     23  C   UNL     1       2.191   5.361   1.192  1.00  0.00     0.338 C 
ATOM     24  O   UNL     1       2.374   4.931   2.319  1.00  0.00    -0.246 OA
BRANCH  23  25
ATOM     25  C   UNL     1       2.576   4.621  -0.019  1.00  0.00     0.060 A 
ATOM     26  C   UNL     1       1.939   3.400  -0.220  1.00  0.00     0.016 A 
ATOM     27  C   UNL     1       3.575   5.046  -0.892  1.00  0.00     0.016 A 
ATOM     28  C   UNL     1       2.285   2.587  -1.288  1.00  0.00     0.010 A 
ATOM     29  C   UNL     1       3.950   4.211  -1.954  1.00  0.00     0.010 A 
ATOM     30  C   UNL     1       3.317   2.970  -2.143  1.00  0.00    -0.014 A 
BRANCH  30  31
ATOM     31  C   UNL     1       3.781   2.002  -3.160  1.00  0.00     0.031 A 
ATOM     32  C   UNL     1       5.003   1.178  -2.884  1.00  0.00     0.074 A 
ATOM     33  C   UNL     1       3.065   1.800  -4.280  1.00  0.00     0.049 A 
ATOM     34  N   UNL     1       5.645   0.367  -3.680  1.00  0.00    -0.248 NA
ATOM     35  C   UNL     1       5.566   1.259  -1.524  1.00  0.00     0.031 C 
ATOM     36  C   UNL     1       1.791   2.445  -4.597  1.00  0.00     0.029 A 
ATOM     37  N   UNL     1       3.315   0.997  -5.363  1.00  0.00    -0.354 N 
ATOM     38  C   UNL     1       6.712  -0.124  -2.939  1.00  0.00     0.074 A 
ATOM     39  C   UNL     1       6.616   0.454  -1.617  1.00  0.00     0.031 C 
ATOM     40  C   UNL     1       1.387   2.038  -5.811  1.00  0.00     0.029 A 
ATOM     41  C   UNL     1       2.400   1.150  -6.376  1.00  0.00     0.049 A 
ATOM     42  H   UNL     1       4.075   0.373  -5.410  1.00  0.00     0.167 HD
ATOM     43  C   UNL     1       7.684  -0.976  -3.335  1.00  0.00     0.034 A 
ATOM     44  C   UNL     1       2.405   0.669  -7.635  1.00  0.00     0.034 A 
ATOM     45  C   UNL     1       7.756  -1.563  -4.644  1.00  0.00     0.049 A 
ATOM     46  C   UNL     1       3.542  -0.206  -8.081  1.00  0.00     0.074 A 
ATOM     47  C   UNL     1       8.724  -2.412  -5.151  1.00  0.00     0.029 A 
ATOM     48  N   UNL     1       6.825  -1.366  -5.650  1.00  0.00    -0.354 N 
ATOM     49  N   UNL     1       4.569  -0.635  -7.387  1.00  0.00    -0.248 NA
ATOM     50  C   UNL     1       3.521  -0.673  -9.474  1.00  0.00     0.031 C 
ATOM     51  C   UNL     1       8.383  -2.720  -6.471  1.00  0.00     0.029 A 
ATOM     52  C   UNL     1       7.192  -2.080  -6.776  1.00  0.00     0.049 A 
ATOM     53  H   UNL     1       6.022  -0.802  -5.575  1.00  0.00     0.167 HD
ATOM     54  C   UNL     1       5.299  -1.445  -8.247  1.00  0.00     0.074 A 
ATOM     55  C   UNL     1       4.596  -1.451  -9.514  1.00  0.00     0.031 C 
ATOM     56  C   UNL     1       6.452  -2.116  -8.010  1.00  0.00     0.034 A 
BRANCH  43  57
ATOM     57  C   UNL     1       8.762  -1.328  -2.352  1.00  0.00     0.023 A 
ATOM     58  C   UNL     1       8.530  -2.326  -1.387  1.00  0.00     0.012 A 
ATOM     59  C   UNL     1      10.040  -0.745  -2.460  1.00  0.00     0.148 A 
ATOM     60  C   UNL     1       9.559  -2.743  -0.543  1.00  0.00     0.002 A 
ATOM     61  C   UNL     1      11.067  -1.186  -1.637  1.00  0.00     0.091 A 
ATOM     62  F   UNL     1      10.226   0.215  -3.377  1.00  0.00    -0.205 F 
ATOM     63  C   UNL     1      10.828  -2.183  -0.676  1.00  0.00     0.022 A 
BRANCH  61  64
ATOM     64  S   UNL     1      12.749  -0.569  -1.766  1.00  0.00     0.127 S 
ATOM     65  O   UNL     1      12.932   0.064  -0.460  1.00  0.00    -0.237 OA
ATOM     66  O   UNL     1      13.512  -1.802  -1.960  1.00  0.00    -0.237 OA
ATOM     67  O   UNL     1      12.760   0.345  -2.899  1.00  0.00    -0.744 OA
ENDBRANCH  61  64
ENDBRANCH  43  57
BRANCH  44  68
ATOM     68  C   UNL     1       1.294   1.027  -8.558  1.00  0.00     0.023 A 
ATOM     69  C   UNL     1       0.331   0.059  -8.895  1.00  0.00     0.012 A 
ATOM     70  C   UNL     1       1.158   2.340  -9.049  1.00  0.00     0.148 A 
ATOM     71  C   UNL     1      -0.751   0.393  -9.710  1.00  0.00     0.002 A 
ATOM     72  C   UNL     1       0.056   2.677  -9.824  1.00  0.00     0.091 A 
ATOM     73  F   UNL     1       2.098   3.239  -8.723  1.00  0.00    -0.205 F 
ATOM     74  C   UNL     1      -0.895   1.702 -10.164  1.00  0.00     0.022 A 
BRANCH  72  75
ATOM     75  S   UNL     1      -0.270   4.358 -10.367  1.00  0.00     0.127 S 
ATOM     76  O   UNL     1      -0.169   4.227 -11.819  1.00  0.00    -0.237 OA
ATOM     77  O   UNL     1      -1.624   4.578  -9.861  1.00  0.00    -0.237 OA
ATOM     78  O   UNL     1       0.753   5.184  -9.741  1.00  0.00    -0.744 OA
ENDBRANCH  72  75
ENDBRANCH  44  68
BRANCH  56  79
ATOM     79  C   UNL     1       7.019  -2.957  -9.118  1.00  0.00     0.023 A 
ATOM     80  C   UNL     1       7.732  -2.345 -10.166  1.00  0.00     0.012 A 
ATOM     81  C   UNL     1       6.945  -4.363  -9.053  1.00  0.00     0.148 A 
ATOM     82  C   UNL     1       8.354  -3.121 -11.142  1.00  0.00     0.002 A 
ATOM     83  C   UNL     1       7.597  -5.130 -10.008  1.00  0.00     0.091 A 
ATOM     84  F   UNL     1       6.251  -4.918  -8.049  1.00  0.00    -0.205 F 
ATOM     85  C   UNL     1       8.298  -4.511 -11.057  1.00  0.00     0.022 A 
BRANCH  83  86
ATOM     86  S   UNL     1       7.644  -6.924  -9.937  1.00  0.00     0.127 S 
ATOM     87  O   UNL     1       6.802  -7.288 -11.075  1.00  0.00    -0.237 OA
ATOM     88  O   UNL     1       9.069  -7.204 -10.118  1.00  0.00    -0.237 OA
ATOM     89  O   UNL     1       7.116  -7.290  -8.630  1.00  0.00    -0.744 OA
ENDBRANCH  83  86
ENDBRANCH  56  79
ENDBRANCH  30  31
ENDBRANCH  23  25
ENDBRANCH  22  23
ENDBRANCH   1  22
TORSDOF 15
