REMARK SMILES CCCC[C@@H](C(=O)OCCOC(=O)c1ccc(-c2c3nc(c(-c4cccc(S(=O)(=O)[O-])c4F)c4ccc([nH]4)c(-c4cccc(S(=O)(=O)[O-])c4F)c4nc(c(-c5cccc(S(=O)(=O)[O-])c5F)c5ccc2[nH]5)C=C4)C=C3)cc1)[C@@]1(O)CCC[C@H](CC)C1
REMARK SMILES IDX 9 1 8 2 6 3 7 4 5 5 4 6 3 7 2 8 1 9 77 10 79 11 85 12 80 13
REMARK SMILES IDX 82 14 81 15 78 16 83 18 84 19 10 20 11 21 12 22 13 23 14 24
REMARK SMILES IDX 15 25 76 26 16 27 75 28 17 29 18 30 19 31 69 32 20 33 74 34
REMARK SMILES IDX 68 35 70 36 21 37 73 38 67 39 66 40 22 42 54 43 34 44 53 45
REMARK SMILES IDX 35 46 38 47 52 48 71 49 36 50 37 51 51 53 72 54 39 55 23 56
REMARK SMILES IDX 24 57 32 58 25 59 27 60 33 61 26 62 28 63 29 64 30 65 31 66
REMARK SMILES IDX 55 67 56 68 64 69 57 70 59 71 65 72 58 73 60 74 61 75 62 76
REMARK SMILES IDX 63 77 40 78 41 79 49 80 42 81 44 82 50 83 43 84 45 85 46 86
REMARK SMILES IDX 47 87 48 88
REMARK H PARENT 78 17 70 41 38 52
REMARK Flexibility Score: inf
ROOT
ATOM      1  C   UNL     1      -1.489   0.636  -5.300  1.00  0.00     0.274 C 
ENDROOT
BRANCH   1   2
ATOM      2  O   UNL     1      -0.907   0.015  -4.132  1.00  0.00    -0.462 OA
BRANCH   2   3
ATOM      3  C   UNL     1      -1.739  -0.763  -3.393  1.00  0.00     0.311 C 
ATOM      4  O   UNL     1      -2.905  -0.975  -3.708  1.00  0.00    -0.252 OA
BRANCH   3   5
ATOM      5  C   UNL     1      -1.124  -1.239  -2.062  1.00  0.00     0.131 C 
BRANCH   5   6
ATOM      6  C   UNL     1       0.404  -1.460  -2.135  1.00  0.00     0.018 C 
BRANCH   6   7
ATOM      7  C   UNL     1       1.295  -0.207  -2.200  1.00  0.00     0.001 C 
BRANCH   7   8
ATOM      8  C   UNL     1       1.032   0.860  -1.138  1.00  0.00    -0.003 C 
ATOM      9  C   UNL     1       1.239   0.355   0.280  1.00  0.00     0.004 C 
ENDBRANCH   7   8
ENDBRANCH   6   7
ENDBRANCH   5   6
BRANCH   5  10
ATOM     10  C   UNL     1      -1.880  -2.514  -1.498  1.00  0.00     0.078 C 
ATOM     11  C   UNL     1      -1.550  -3.811  -2.260  1.00  0.00     0.036 C 
ATOM     12  C   UNL     1      -1.756  -2.641   0.048  1.00  0.00     0.039 C 
ATOM     13  C   UNL     1      -0.544  -4.746  -1.611  1.00  0.00     0.003 C 
ATOM     14  C   UNL     1      -0.901  -3.771   0.655  1.00  0.00    -0.009 C 
ATOM     15  C   UNL     1      -0.951  -5.047  -0.181  1.00  0.00     0.004 C 
BRANCH  10  16
ATOM     16  O   UNL     1      -3.307  -2.300  -1.639  1.00  0.00    -0.389 OA
ATOM     17  H   UNL     1      -3.527  -2.201  -2.579  1.00  0.00     0.211 HD
ENDBRANCH  10  16
BRANCH  14  18
ATOM     18  C   UNL     1      -1.361  -4.000   2.115  1.00  0.00     0.000 C 
ATOM     19  C   UNL     1      -0.765  -5.217   2.803  1.00  0.00     0.004 C 
ENDBRANCH  14  18
ENDBRANCH   5  10
ENDBRANCH   3   5
ENDBRANCH   2   3
ENDBRANCH   1   2
BRANCH   1  20
ATOM     20  C   UNL     1      -1.191  -0.166  -6.565  1.00  0.00     0.275 C 
BRANCH  20  21
ATOM     21  O   UNL     1      -1.838  -1.446  -6.486  1.00  0.00    -0.458 OA
BRANCH  21  22
ATOM     22  C   UNL     1      -1.086  -2.519  -6.827  1.00  0.00     0.338 C 
ATOM     23  O   UNL     1       0.054  -2.499  -7.260  1.00  0.00    -0.246 OA
BRANCH  22  24
ATOM     24  C   UNL     1      -1.830  -3.772  -6.558  1.00  0.00     0.060 A 
ATOM     25  C   UNL     1      -2.672  -3.875  -5.455  1.00  0.00     0.016 A 
ATOM     26  C   UNL     1      -1.587  -4.904  -7.336  1.00  0.00     0.016 A 
ATOM     27  C   UNL     1      -3.145  -5.123  -5.047  1.00  0.00     0.010 A 
ATOM     28  C   UNL     1      -2.170  -6.132  -6.989  1.00  0.00     0.010 A 
ATOM     29  C   UNL     1      -2.907  -6.279  -5.800  1.00  0.00    -0.014 A 
BRANCH  29  30
ATOM     30  C   UNL     1      -3.352  -7.626  -5.314  1.00  0.00     0.031 A 
ATOM     31  C   UNL     1      -2.382  -8.787  -5.302  1.00  0.00     0.074 A 
ATOM     32  C   UNL     1      -4.603  -7.841  -4.851  1.00  0.00     0.049 A 
ATOM     33  N   UNL     1      -2.626 -10.068  -5.196  1.00  0.00    -0.248 NA
ATOM     34  C   UNL     1      -0.952  -8.468  -5.456  1.00  0.00     0.031 C 
ATOM     35  C   UNL     1      -5.658  -6.834  -4.738  1.00  0.00     0.029 A 
ATOM     36  N   UNL     1      -5.199  -8.988  -4.374  1.00  0.00    -0.354 N 
ATOM     37  C   UNL     1      -1.409 -10.708  -5.401  1.00  0.00     0.074 A 
ATOM     38  C   UNL     1      -0.416  -9.673  -5.593  1.00  0.00     0.031 C 
ATOM     39  C   UNL     1      -6.736  -7.381  -4.159  1.00  0.00     0.029 A 
ATOM     40  C   UNL     1      -6.506  -8.809  -3.981  1.00  0.00     0.049 A 
ATOM     41  H   UNL     1      -4.734  -9.854  -4.320  1.00  0.00     0.167 HD
ATOM     42  C   UNL     1      -1.141 -12.036  -5.427  1.00  0.00     0.034 A 
ATOM     43  C   UNL     1      -7.443  -9.691  -3.576  1.00  0.00     0.034 A 
ATOM     44  C   UNL     1      -2.095 -13.061  -5.094  1.00  0.00     0.049 A 
ATOM     45  C   UNL     1      -7.111 -11.156  -3.555  1.00  0.00     0.074 A 
ATOM     46  C   UNL     1      -1.913 -14.433  -5.078  1.00  0.00     0.029 A 
ATOM     47  N   UNL     1      -3.393 -12.825  -4.671  1.00  0.00    -0.354 N 
ATOM     48  N   UNL     1      -5.972 -11.748  -3.817  1.00  0.00    -0.248 NA
ATOM     49  C   UNL     1      -8.201 -12.078  -3.200  1.00  0.00     0.031 C 
ATOM     50  C   UNL     1      -3.099 -15.027  -4.631  1.00  0.00     0.029 A 
ATOM     51  C   UNL     1      -4.018 -14.024  -4.371  1.00  0.00     0.049 A 
ATOM     52  H   UNL     1      -3.810 -11.937  -4.594  1.00  0.00     0.167 HD
ATOM     53  C   UNL     1      -6.208 -13.109  -3.667  1.00  0.00     0.074 A 
ATOM     54  C   UNL     1      -7.585 -13.253  -3.244  1.00  0.00     0.031 C 
ATOM     55  C   UNL     1      -5.371 -14.150  -3.899  1.00  0.00     0.034 A 
BRANCH  42  56
ATOM     56  C   UNL     1       0.248 -12.469  -5.814  1.00  0.00     0.023 A 
ATOM     57  C   UNL     1       1.300 -12.379  -4.884  1.00  0.00     0.012 A 
ATOM     58  C   UNL     1       0.490 -13.036  -7.082  1.00  0.00     0.148 A 
ATOM     59  C   UNL     1       2.579 -12.826  -5.218  1.00  0.00     0.002 A 
ATOM     60  C   UNL     1       1.758 -13.515  -7.393  1.00  0.00     0.091 A 
ATOM     61  F   UNL     1      -0.519 -13.089  -7.964  1.00  0.00    -0.205 F 
ATOM     62  C   UNL     1       2.805 -13.404  -6.465  1.00  0.00     0.022 A 
BRANCH  60  63
ATOM     63  S   UNL     1       2.114 -14.345  -8.947  1.00  0.00     0.127 S 
ATOM     64  O   UNL     1       2.792 -13.291  -9.698  1.00  0.00    -0.237 OA
ATOM     65  O   UNL     1       2.981 -15.445  -8.523  1.00  0.00    -0.237 OA
ATOM     66  O   UNL     1       0.823 -14.767  -9.474  1.00  0.00    -0.744 OA
ENDBRANCH  60  63
ENDBRANCH  42  56
BRANCH  43  67
ATOM     67  C   UNL     1      -8.794  -9.204  -3.171  1.00  0.00     0.023 A 
ATOM     68  C   UNL     1      -9.189  -9.306  -1.823  1.00  0.00     0.012 A 
ATOM     69  C   UNL     1      -9.660  -8.583  -4.091  1.00  0.00     0.148 A 
ATOM     70  C   UNL     1     -10.421  -8.801  -1.403  1.00  0.00     0.002 A 
ATOM     71  C   UNL     1     -10.850  -8.014  -3.651  1.00  0.00     0.091 A 
ATOM     72  F   UNL     1      -9.294  -8.531  -5.380  1.00  0.00    -0.205 F 
ATOM     73  C   UNL     1     -11.242  -8.136  -2.311  1.00  0.00     0.022 A 
BRANCH  71  74
ATOM     74  S   UNL     1     -11.845  -6.986  -4.738  1.00  0.00     0.127 S 
ATOM     75  O   UNL     1     -12.837  -7.936  -5.232  1.00  0.00    -0.237 OA
ATOM     76  O   UNL     1     -12.367  -5.971  -3.821  1.00  0.00    -0.237 OA
ATOM     77  O   UNL     1     -10.904  -6.463  -5.721  1.00  0.00    -0.744 OA
ENDBRANCH  71  74
ENDBRANCH  43  67
BRANCH  55  78
ATOM     78  C   UNL     1      -5.918 -15.536  -3.700  1.00  0.00     0.023 A 
ATOM     79  C   UNL     1      -6.766 -16.087  -4.681  1.00  0.00     0.012 A 
ATOM     80  C   UNL     1      -5.548 -16.313  -2.586  1.00  0.00     0.148 A 
ATOM     81  C   UNL     1      -7.258 -17.384  -4.544  1.00  0.00     0.002 A 
ATOM     82  C   UNL     1      -6.015 -17.618  -2.474  1.00  0.00     0.091 A 
ATOM     83  F   UNL     1      -4.759 -15.762  -1.653  1.00  0.00    -0.205 F 
ATOM     84  C   UNL     1      -6.875 -18.152  -3.447  1.00  0.00     0.022 A 
BRANCH  82  85
ATOM     85  S   UNL     1      -5.510 -18.699  -1.131  1.00  0.00     0.127 S 
ATOM     86  O   UNL     1      -6.670 -18.636  -0.244  1.00  0.00    -0.237 OA
ATOM     87  O   UNL     1      -5.330 -19.984  -1.809  1.00  0.00    -0.237 OA
ATOM     88  O   UNL     1      -4.280 -18.123  -0.603  1.00  0.00    -0.744 OA
ENDBRANCH  82  85
ENDBRANCH  55  78
ENDBRANCH  29  30
ENDBRANCH  22  24
ENDBRANCH  21  22
ENDBRANCH  20  21
ENDBRANCH   1  20
TORSDOF 20
