REMARK SMILES COc1ccc(-n2c(SCc3cn(-c4ccc(C(=O)OCCOC(=O)c5ccc(-c6c7nc(c(-c8cccc(S(=O)(=O)[O-])c8F)c8ccc([nH]8)c(-c8cccc(S(=O)(=O)[O-])c8F)c8nc(c(-c9cccc(S(=O)(=O)[O-])c9F)c9ccc6[nH]9)C=C8)C=C7)cc5)cc4)nn3)nc3ccccc3c2=O)cc1
REMARK SMILES IDX 20 1 18 2 19 3 17 4 14 5 15 6 90 7 16 8 89 9 13 10 11 11
REMARK SMILES IDX 12 12 92 13 91 14 10 15 9 16 8 17 7 18 100 19 93 20 99 21
REMARK SMILES IDX 101 22 94 23 98 24 95 25 97 26 96 27 6 28 3 29 4 30 103 31
REMARK SMILES IDX 5 32 102 33 2 34 1 35 21 36 22 37 23 38 24 39 25 40 26 41
REMARK SMILES IDX 27 42 88 43 28 44 87 45 29 46 30 47 31 48 81 49 32 50 86 51
REMARK SMILES IDX 80 52 82 53 33 54 85 55 79 56 78 57 34 59 66 60 46 61 65 62
REMARK SMILES IDX 47 63 50 64 64 65 83 66 48 67 49 68 63 70 84 71 51 72 35 73
REMARK SMILES IDX 36 74 44 75 37 76 39 77 45 78 38 79 40 80 41 81 42 82 43 83
REMARK SMILES IDX 67 84 68 85 76 86 69 87 71 88 77 89 70 90 72 91 73 92 74 93
REMARK SMILES IDX 75 94 52 95 53 96 61 97 54 98 56 99 62 100 55 101 57 102
REMARK SMILES IDX 58 103 59 104 60 105
REMARK H PARENT 82 58 50 69
REMARK Flexibility Score: inf
ROOT
ATOM      1  O   UNL     1      -4.234   1.625   1.875  1.00  0.00    -0.458 OA
ENDROOT
BRANCH   1   2
ATOM      2  C   UNL     1      -4.276   1.950   0.558  1.00  0.00     0.338 C 
ATOM      3  O   UNL     1      -5.279   2.051  -0.134  1.00  0.00    -0.246 OA
BRANCH   2   4
ATOM      4  C   UNL     1      -2.916   2.290   0.079  1.00  0.00     0.060 A 
ATOM      5  C   UNL     1      -0.395   3.022  -0.845  1.00  0.00     0.066 A 
ATOM      6  C   UNL     1      -1.536   3.465  -1.525  1.00  0.00     0.029 A 
ATOM      7  C   UNL     1      -0.511   2.257   0.321  1.00  0.00     0.029 A 
ATOM      8  C   UNL     1      -2.795   3.084  -1.070  1.00  0.00     0.018 A 
ATOM      9  C   UNL     1      -1.772   1.897   0.784  1.00  0.00     0.018 A 
BRANCH   5  10
ATOM     10  N   UNL     1       0.875   3.299  -1.382  1.00  0.00    -0.220 N 
ATOM     11  C   UNL     1       2.903   3.089  -2.117  1.00  0.00     0.093 A 
ATOM     12  C   UNL     1       2.042   2.609  -1.161  1.00  0.00     0.141 A 
ATOM     13  N   UNL     1       2.313   4.139  -2.758  1.00  0.00    -0.134 NA
ATOM     14  N   UNL     1       1.065   4.228  -2.341  1.00  0.00    -0.062 NA
BRANCH  11  15
ATOM     15  C   UNL     1       4.210   2.545  -2.513  1.00  0.00     0.138 C 
BRANCH  15  16
ATOM     16  S   UNL     1       4.818   3.129  -4.084  1.00  0.00    -0.081 SA
BRANCH  16  17
ATOM     17  C   UNL     1       3.374   3.061  -5.179  1.00  0.00     0.176 A 
ATOM     18  N   UNL     1       3.136   1.781  -5.647  1.00  0.00    -0.255 N 
ATOM     19  C   UNL     1       3.773   1.428  -6.832  1.00  0.00     0.266 A 
ATOM     20  N   UNL     1       3.291   4.051  -6.016  1.00  0.00    -0.223 NA
ATOM     21  C   UNL     1       4.550   2.548  -7.456  1.00  0.00     0.066 A 
ATOM     22  O   UNL     1       3.792   0.312  -7.343  1.00  0.00    -0.268 OA
ATOM     23  C   UNL     1       4.205   3.857  -7.068  1.00  0.00     0.079 A 
ATOM     24  C   UNL     1       5.715   2.314  -8.182  1.00  0.00     0.016 A 
ATOM     25  C   UNL     1       4.982   4.938  -7.474  1.00  0.00     0.029 A 
ATOM     26  C   UNL     1       6.538   3.397  -8.507  1.00  0.00     0.001 A 
ATOM     27  C   UNL     1       6.164   4.704  -8.173  1.00  0.00     0.002 A 
BRANCH  18  28
ATOM     28  C   UNL     1       2.350   0.887  -4.883  1.00  0.00     0.052 A 
ATOM     29  C   UNL     1       0.959  -0.597  -2.963  1.00  0.00     0.119 A 
ATOM     30  C   UNL     1       0.316   0.446  -3.624  1.00  0.00     0.048 A 
ATOM     31  C   UNL     1       2.251  -0.970  -3.336  1.00  0.00     0.048 A 
ATOM     32  C   UNL     1       1.024   1.213  -4.557  1.00  0.00     0.030 A 
ATOM     33  C   UNL     1       2.935  -0.249  -4.319  1.00  0.00     0.030 A 
BRANCH  29  34
ATOM     34  O   UNL     1       0.263  -1.279  -2.002  1.00  0.00    -0.497 OA
ATOM     35  C   UNL     1       0.879  -1.187  -0.716  1.00  0.00     0.278 C 
ENDBRANCH  29  34
ENDBRANCH  18  28
ENDBRANCH  16  17
ENDBRANCH  15  16
ENDBRANCH  11  15
ENDBRANCH   5  10
ENDBRANCH   2   4
ENDBRANCH   1   2
BRANCH   1  36
ATOM     36  C   UNL     1      -5.486   1.692   2.572  1.00  0.00     0.275 C 
BRANCH  36  37
ATOM     37  C   UNL     1      -5.691   3.074   3.176  1.00  0.00     0.275 C 
BRANCH  37  38
ATOM     38  O   UNL     1      -5.905   4.060   2.168  1.00  0.00    -0.458 OA
BRANCH  38  39
ATOM     39  C   UNL     1      -4.802   4.763   1.824  1.00  0.00     0.338 C 
ATOM     40  O   UNL     1      -3.638   4.446   2.001  1.00  0.00    -0.246 OA
BRANCH  39  41
ATOM     41  C   UNL     1      -5.200   6.106   1.401  1.00  0.00     0.060 A 
ATOM     42  C   UNL     1      -4.245   6.898   0.756  1.00  0.00     0.016 A 
ATOM     43  C   UNL     1      -6.400   6.640   1.893  1.00  0.00     0.016 A 
ATOM     44  C   UNL     1      -4.439   8.263   0.721  1.00  0.00     0.010 A 
ATOM     45  C   UNL     1      -6.583   8.001   1.870  1.00  0.00     0.010 A 
ATOM     46  C   UNL     1      -5.574   8.801   1.339  1.00  0.00    -0.014 A 
BRANCH  46  47
ATOM     47  C   UNL     1      -5.765  10.236   1.296  1.00  0.00     0.031 A 
ATOM     48  C   UNL     1      -6.101  10.728  -0.062  1.00  0.00     0.074 A 
ATOM     49  C   UNL     1      -5.787  10.991   2.411  1.00  0.00     0.049 A 
ATOM     50  N   UNL     1      -5.419  11.536  -0.803  1.00  0.00    -0.248 NA
ATOM     51  C   UNL     1      -7.246  10.105  -0.748  1.00  0.00     0.031 C 
ATOM     52  C   UNL     1      -5.768  10.525   3.801  1.00  0.00     0.029 A 
ATOM     53  N   UNL     1      -5.995  12.330   2.536  1.00  0.00    -0.354 N 
ATOM     54  C   UNL     1      -6.185  11.709  -1.954  1.00  0.00     0.074 A 
ATOM     55  C   UNL     1      -7.159  10.653  -1.959  1.00  0.00     0.031 C 
ATOM     56  C   UNL     1      -6.219  11.516   4.603  1.00  0.00     0.029 A 
ATOM     57  C   UNL     1      -6.435  12.708   3.802  1.00  0.00     0.049 A 
ATOM     58  H   UNL     1      -5.849  12.970   1.802  1.00  0.00     0.167 HD
ATOM     59  C   UNL     1      -6.143  12.873  -2.654  1.00  0.00     0.034 A 
ATOM     60  C   UNL     1      -7.028  13.882   4.131  1.00  0.00     0.034 A 
ATOM     61  C   UNL     1      -4.965  13.636  -2.326  1.00  0.00     0.049 A 
ATOM     62  C   UNL     1      -6.722  14.851   3.053  1.00  0.00     0.074 A 
ATOM     63  C   UNL     1      -3.605  13.414  -2.389  1.00  0.00     0.029 A 
ATOM     64  N   UNL     1      -5.140  14.707  -1.484  1.00  0.00    -0.354 N 
ATOM     65  N   UNL     1      -5.528  15.314   2.815  1.00  0.00    -0.248 NA
ATOM     66  C   UNL     1      -7.677  14.987   1.965  1.00  0.00     0.031 C 
ATOM     67  C   UNL     1      -3.071  14.065  -1.239  1.00  0.00     0.029 A 
ATOM     68  C   UNL     1      -4.122  14.696  -0.571  1.00  0.00     0.049 A 
ATOM     69  H   UNL     1      -5.870  15.366  -1.529  1.00  0.00     0.167 HD
ATOM     70  C   UNL     1      -5.451  15.363   1.429  1.00  0.00     0.074 A 
ATOM     71  C   UNL     1      -6.834  15.270   0.968  1.00  0.00     0.031 C 
ATOM     72  C   UNL     1      -4.261  15.171   0.788  1.00  0.00     0.034 A 
BRANCH  59  73
ATOM     73  C   UNL     1      -7.347  13.524  -3.304  1.00  0.00     0.023 A 
ATOM     74  C   UNL     1      -7.108  14.700  -4.050  1.00  0.00     0.012 A 
ATOM     75  C   UNL     1      -8.695  13.234  -2.986  1.00  0.00     0.148 A 
ATOM     76  C   UNL     1      -8.142  15.580  -4.386  1.00  0.00     0.002 A 
ATOM     77  C   UNL     1      -9.728  14.071  -3.390  1.00  0.00     0.091 A 
ATOM     78  F   UNL     1      -8.997  12.218  -2.175  1.00  0.00    -0.205 F 
ATOM     79  C   UNL     1      -9.454  15.265  -4.058  1.00  0.00     0.022 A 
BRANCH  77  80
ATOM     80  S   UNL     1     -11.448  13.688  -3.030  1.00  0.00     0.127 S 
ATOM     81  O   UNL     1     -11.752  14.667  -1.991  1.00  0.00    -0.237 OA
ATOM     82  O   UNL     1     -12.084  13.936  -4.323  1.00  0.00    -0.237 OA
ATOM     83  O   UNL     1     -11.462  12.290  -2.617  1.00  0.00    -0.744 OA
ENDBRANCH  77  80
ENDBRANCH  59  73
BRANCH  60  84
ATOM     84  C   UNL     1      -8.065  14.164   5.152  1.00  0.00     0.023 A 
ATOM     85  C   UNL     1      -8.269  15.489   5.588  1.00  0.00     0.012 A 
ATOM     86  C   UNL     1      -9.036  13.196   5.493  1.00  0.00     0.148 A 
ATOM     87  C   UNL     1      -9.417  15.845   6.307  1.00  0.00     0.002 A 
ATOM     88  C   UNL     1     -10.169  13.551   6.218  1.00  0.00     0.091 A 
ATOM     89  F   UNL     1      -8.897  11.948   5.026  1.00  0.00    -0.205 F 
ATOM     90  C   UNL     1     -10.370  14.879   6.615  1.00  0.00     0.022 A 
BRANCH  88  91
ATOM     91  S   UNL     1     -11.451  12.361   6.633  1.00  0.00     0.127 S 
ATOM     92  O   UNL     1     -11.654  12.619   8.060  1.00  0.00    -0.237 OA
ATOM     93  O   UNL     1     -12.551  12.787   5.772  1.00  0.00    -0.237 OA
ATOM     94  O   UNL     1     -10.888  11.049   6.338  1.00  0.00    -0.744 OA
ENDBRANCH  88  91
ENDBRANCH  60  84
BRANCH  72  95
ATOM     95  C   UNL     1      -2.998  15.206   1.610  1.00  0.00     0.023 A 
ATOM     96  C   UNL     1      -2.724  14.265   2.624  1.00  0.00     0.012 A 
ATOM     97  C   UNL     1      -1.991  16.107   1.227  1.00  0.00     0.148 A 
ATOM     98  C   UNL     1      -1.479  14.240   3.258  1.00  0.00     0.002 A 
ATOM     99  C   UNL     1      -0.739  16.047   1.824  1.00  0.00     0.091 A 
ATOM    100  F   UNL     1      -2.268  16.994   0.259  1.00  0.00    -0.205 F 
ATOM    101  C   UNL     1      -0.481  15.121   2.847  1.00  0.00     0.022 A 
BRANCH  99 102
ATOM    102  S   UNL     1       0.619  17.067   1.247  1.00  0.00     0.127 S 
ATOM    103  O   UNL     1       0.700  18.086   2.291  1.00  0.00    -0.237 OA
ATOM    104  O   UNL     1       1.737  16.122   1.226  1.00  0.00    -0.237 OA
ATOM    105  O   UNL     1       0.225  17.548  -0.072  1.00  0.00    -0.744 OA
ENDBRANCH  99 102
ENDBRANCH  72  95
ENDBRANCH  46  47
ENDBRANCH  39  41
ENDBRANCH  38  39
ENDBRANCH  37  38
ENDBRANCH  36  37
ENDBRANCH   1  36
TORSDOF 20
