REMARK SMILES Cc1ccccc1/[NH+]=C1\S[C@@H](CC(=O)Nc2ccc(C(=O)OCCOC(=O)c3ccc(-c4c5nc(c(-c6cccc(S(=O)(=O)[O-])c6F)c6ccc([nH]6)c(-c6cccc(S(=O)(=O)[O-])c6F)c6nc(c(-c7cccc(S(=O)(=O)[O-])c7F)c7ccc4[nH]7)C=C6)C=C5)cc3)cc2)C(=O)N1C
REMARK SMILES IDX 23 1 22 2 20 3 21 4 19 5 16 6 17 7 92 8 18 9 91 10 15 11
REMARK SMILES IDX 13 12 14 13 12 15 11 16 8 17 9 18 10 20 95 21 93 22 96 23
REMARK SMILES IDX 94 24 7 25 1 26 2 27 3 28 4 29 6 30 5 31 24 32 25 33 26 34
REMARK SMILES IDX 27 35 28 36 29 37 90 38 30 39 89 40 31 41 32 42 33 43 83 44
REMARK SMILES IDX 34 45 88 46 82 47 84 48 35 49 87 50 81 51 80 52 36 54 68 55
REMARK SMILES IDX 48 56 67 57 49 58 52 59 66 60 85 61 50 62 51 63 65 65 86 66
REMARK SMILES IDX 53 67 37 68 38 69 46 70 39 71 41 72 47 73 40 74 42 75 43 76
REMARK SMILES IDX 44 77 45 78 69 79 70 80 78 81 71 82 73 83 79 84 72 85 74 86
REMARK SMILES IDX 75 87 76 88 77 89 54 90 55 91 63 92 56 93 58 94 64 95 57 96
REMARK SMILES IDX 59 97 60 98 61 99 62 100
REMARK H PARENT 15 14 8 19 84 53 52 64
REMARK Flexibility Score: inf
ROOT
ATOM      1  C   UNL     1       2.853   7.862  -2.418  1.00  0.00     0.275 C 
ENDROOT
BRANCH   1   2
ATOM      2  O   UNL     1       3.838   7.071  -1.758  1.00  0.00    -0.458 OA
BRANCH   2   3
ATOM      3  C   UNL     1       4.761   7.663  -0.956  1.00  0.00     0.338 C 
ATOM      4  O   UNL     1       4.830   8.827  -0.651  1.00  0.00    -0.246 OA
BRANCH   3   5
ATOM      5  C   UNL     1       5.616   6.574  -0.439  1.00  0.00     0.060 A 
ATOM      6  C   UNL     1       6.993   4.456   0.798  1.00  0.00     0.041 A 
ATOM      7  C   UNL     1       5.626   4.589   0.815  1.00  0.00     0.027 A 
ATOM      8  C   UNL     1       7.712   5.489   0.215  1.00  0.00     0.027 A 
ATOM      9  C   UNL     1       4.920   5.528   0.113  1.00  0.00     0.018 A 
ATOM     10  C   UNL     1       7.016   6.582  -0.369  1.00  0.00     0.018 A 
BRANCH   6  11
ATOM     11  N   UNL     1       7.534   3.360   1.500  1.00  0.00    -0.326 N 
ATOM     12  C   UNL     1       6.859   2.190   1.847  1.00  0.00     0.226 C 
ATOM     13  O   UNL     1       7.180   1.566   2.861  1.00  0.00    -0.275 OA
ATOM     14  H   UNL     1       8.479   3.427   1.771  1.00  0.00     0.169 HD
BRANCH  12  15
ATOM     15  C   UNL     1       5.863   1.595   0.838  1.00  0.00     0.128 C 
BRANCH  15  16
ATOM     16  C   UNL     1       4.370   1.470   1.163  1.00  0.00     0.183 C 
ATOM     17  N   UNL     1       0.856   1.828   0.275  1.00  0.00    -0.234 N 
ATOM     18  C   UNL     1       2.111   2.054   0.201  1.00  0.00     0.319 C 
ATOM     19  H   UNL     1       0.322   2.612   0.538  1.00  0.00     0.313 HD
ATOM     20  S   UNL     1       3.464   1.200  -0.426  1.00  0.00    -0.022 SA
ATOM     21  N   UNL     1       2.586   3.088   0.932  1.00  0.00    -0.193 N 
ATOM     22  C   UNL     1       3.562   2.624   1.783  1.00  0.00     0.324 C 
ATOM     23  C   UNL     1       1.792   4.280   1.176  1.00  0.00     0.301 C 
ATOM     24  O   UNL     1       3.732   3.040   2.926  1.00  0.00    -0.245 OA
BRANCH  17  25
ATOM     25  C   UNL     1       0.104   0.675   0.051  1.00  0.00     0.128 A 
ATOM     26  C   UNL     1       1.845  -1.203   0.506  1.00  0.00     0.049 C 
ATOM     27  C   UNL     1       0.462  -0.666   0.297  1.00  0.00    -0.004 A 
ATOM     28  C   UNL     1      -0.551  -1.639   0.347  1.00  0.00     0.008 A 
ATOM     29  C   UNL     1      -1.893  -1.310   0.202  1.00  0.00     0.001 A 
ATOM     30  C   UNL     1      -1.261   0.974  -0.129  1.00  0.00     0.052 A 
ATOM     31  C   UNL     1      -2.253   0.001  -0.046  1.00  0.00     0.004 A 
ENDBRANCH  17  25
ENDBRANCH  15  16
ENDBRANCH  12  15
ENDBRANCH   6  11
ENDBRANCH   3   5
ENDBRANCH   2   3
ENDBRANCH   1   2
BRANCH   1  32
ATOM     32  C   UNL     1       3.333   9.121  -3.160  1.00  0.00     0.275 C 
BRANCH  32  33
ATOM     33  O   UNL     1       4.749   9.353  -3.444  1.00  0.00    -0.458 OA
BRANCH  33  34
ATOM     34  C   UNL     1       5.757   8.486  -3.722  1.00  0.00     0.338 C 
ATOM     35  O   UNL     1       6.934   8.799  -3.620  1.00  0.00    -0.246 OA
BRANCH  34  36
ATOM     36  C   UNL     1       5.361   7.144  -4.157  1.00  0.00     0.060 A 
ATOM     37  C   UNL     1       6.019   5.999  -3.672  1.00  0.00     0.016 A 
ATOM     38  C   UNL     1       4.252   7.050  -4.986  1.00  0.00     0.016 A 
ATOM     39  C   UNL     1       5.531   4.740  -3.991  1.00  0.00     0.010 A 
ATOM     40  C   UNL     1       3.665   5.829  -5.160  1.00  0.00     0.010 A 
ATOM     41  C   UNL     1       4.373   4.683  -4.763  1.00  0.00    -0.014 A 
BRANCH  41  42
ATOM     42  C   UNL     1       4.099   3.571  -5.653  1.00  0.00     0.031 A 
ATOM     43  C   UNL     1       3.380   2.388  -5.182  1.00  0.00     0.074 A 
ATOM     44  C   UNL     1       4.442   3.884  -6.928  1.00  0.00     0.049 A 
ATOM     45  N   UNL     1       3.664   1.194  -5.563  1.00  0.00    -0.248 NA
ATOM     46  C   UNL     1       2.315   2.437  -4.176  1.00  0.00     0.031 C 
ATOM     47  C   UNL     1       4.007   3.355  -8.201  1.00  0.00     0.029 A 
ATOM     48  N   UNL     1       5.397   4.856  -7.288  1.00  0.00    -0.354 N 
ATOM     49  C   UNL     1       2.585   0.417  -5.189  1.00  0.00     0.074 A 
ATOM     50  C   UNL     1       1.898   1.162  -4.161  1.00  0.00     0.031 C 
ATOM     51  C   UNL     1       4.853   3.793  -9.159  1.00  0.00     0.029 A 
ATOM     52  C   UNL     1       5.959   4.487  -8.501  1.00  0.00     0.049 A 
ATOM     53  H   UNL     1       5.625   5.660  -6.767  1.00  0.00     0.167 HD
ATOM     54  C   UNL     1       2.174  -0.582  -6.019  1.00  0.00     0.034 A 
ATOM     55  C   UNL     1       7.294   4.205  -8.590  1.00  0.00     0.034 A 
ATOM     56  C   UNL     1       2.942  -0.510  -7.271  1.00  0.00     0.049 A 
ATOM     57  C   UNL     1       7.474   2.731  -8.887  1.00  0.00     0.074 A 
ATOM     58  C   UNL     1       2.652   0.129  -8.467  1.00  0.00     0.029 A 
ATOM     59  N   UNL     1       4.301  -0.791  -7.295  1.00  0.00    -0.354 N 
ATOM     60  N   UNL     1       6.544   1.838  -8.699  1.00  0.00    -0.248 NA
ATOM     61  C   UNL     1       8.712   2.151  -9.387  1.00  0.00     0.031 C 
ATOM     62  C   UNL     1       3.847   0.236  -9.213  1.00  0.00     0.029 A 
ATOM     63  C   UNL     1       4.872  -0.317  -8.467  1.00  0.00     0.049 A 
ATOM     64  H   UNL     1       4.790  -1.260  -6.581  1.00  0.00     0.167 HD
ATOM     65  C   UNL     1       7.031   0.592  -8.970  1.00  0.00     0.074 A 
ATOM     66  C   UNL     1       8.383   0.849  -9.443  1.00  0.00     0.031 C 
ATOM     67  C   UNL     1       6.286  -0.534  -8.745  1.00  0.00     0.034 A 
BRANCH  54  68
ATOM     68  C   UNL     1       0.839  -1.306  -5.939  1.00  0.00     0.023 A 
ATOM     69  C   UNL     1       0.263  -1.702  -7.171  1.00  0.00     0.012 A 
ATOM     70  C   UNL     1       0.118  -1.656  -4.774  1.00  0.00     0.148 A 
ATOM     71  C   UNL     1      -0.978  -2.327  -7.272  1.00  0.00     0.002 A 
ATOM     72  C   UNL     1      -1.133  -2.294  -4.875  1.00  0.00     0.091 A 
ATOM     73  F   UNL     1       0.640  -1.381  -3.570  1.00  0.00    -0.205 F 
ATOM     74  C   UNL     1      -1.684  -2.613  -6.122  1.00  0.00     0.022 A 
BRANCH  72  75
ATOM     75  S   UNL     1      -2.110  -2.807  -3.454  1.00  0.00     0.127 S 
ATOM     76  O   UNL     1      -3.115  -1.747  -3.370  1.00  0.00    -0.237 OA
ATOM     77  O   UNL     1      -2.648  -4.105  -3.869  1.00  0.00    -0.237 OA
ATOM     78  O   UNL     1      -1.170  -2.891  -2.348  1.00  0.00    -0.744 OA
ENDBRANCH  72  75
ENDBRANCH  54  68
BRANCH  55  79
ATOM     79  C   UNL     1       8.171   4.971  -7.629  1.00  0.00     0.023 A 
ATOM     80  C   UNL     1       8.083   6.388  -7.622  1.00  0.00     0.012 A 
ATOM     81  C   UNL     1       8.787   4.346  -6.530  1.00  0.00     0.148 A 
ATOM     82  C   UNL     1       8.466   7.135  -6.502  1.00  0.00     0.002 A 
ATOM     83  C   UNL     1       9.147   5.096  -5.408  1.00  0.00     0.091 A 
ATOM     84  F   UNL     1       8.968   3.020  -6.550  1.00  0.00    -0.205 F 
ATOM     85  C   UNL     1       8.969   6.484  -5.381  1.00  0.00     0.022 A 
BRANCH  83  86
ATOM     86  S   UNL     1       9.655   4.244  -3.906  1.00  0.00     0.127 S 
ATOM     87  O   UNL     1       9.511   5.268  -2.869  1.00  0.00    -0.237 OA
ATOM     88  O   UNL     1       8.690   3.159  -3.791  1.00  0.00    -0.237 OA
ATOM     89  O   UNL     1      11.032   3.876  -4.213  1.00  0.00    -0.744 OA
ENDBRANCH  83  86
ENDBRANCH  55  79
BRANCH  67  90
ATOM     90  C   UNL     1       6.792  -1.958  -8.808  1.00  0.00     0.023 A 
ATOM     91  C   UNL     1       8.158  -2.274  -8.726  1.00  0.00     0.012 A 
ATOM     92  C   UNL     1       5.885  -3.052  -8.820  1.00  0.00     0.148 A 
ATOM     93  C   UNL     1       8.612  -3.595  -8.746  1.00  0.00     0.002 A 
ATOM     94  C   UNL     1       6.335  -4.359  -8.696  1.00  0.00     0.091 A 
ATOM     95  F   UNL     1       4.571  -2.841  -8.984  1.00  0.00    -0.205 F 
ATOM     96  C   UNL     1       7.700  -4.639  -8.706  1.00  0.00     0.022 A 
BRANCH  94  97
ATOM     97  S   UNL     1       5.194  -5.708  -8.362  1.00  0.00     0.127 S 
ATOM     98  O   UNL     1       5.014  -6.284  -9.692  1.00  0.00    -0.237 OA
ATOM     99  O   UNL     1       5.965  -6.540  -7.435  1.00  0.00    -0.237 OA
ATOM    100  O   UNL     1       4.021  -5.083  -7.767  1.00  0.00    -0.744 OA
ENDBRANCH  94  97
ENDBRANCH  67  90
ENDBRANCH  41  42
ENDBRANCH  34  36
ENDBRANCH  33  34
ENDBRANCH  32  33
ENDBRANCH   1  32
TORSDOF 18
