REMARK SMILES Cn1cc(-c2cc(C(F)(F)F)c3c(C4CC4)nn(CC(=O)OCCOC(=O)c4ccc(-c5c6nc(c(-c7cccc(S(=O)(=O)[O-])c7F)c7ccc([nH]7)c(-c7cccc(S(=O)(=O)[O-])c7F)c7nc(c(-c8cccc(S(=O)(=O)[O-])c8F)c8ccc5[nH]8)C=C7)C=C6)cc4)c3n2)cn1
REMARK SMILES IDX 24 1 23 2 22 3 20 4 21 5 19 6 18 7 5 8 6 9 92 10 7 11 91 12
REMARK SMILES IDX 12 13 13 14 17 15 4 16 1 17 2 18 3 19 94 20 93 21 8 22 9 23
REMARK SMILES IDX 10 24 11 25 14 26 15 27 16 28 25 29 26 30 27 31 28 32 29 33
REMARK SMILES IDX 90 34 30 35 89 36 31 37 32 38 33 39 83 40 34 41 88 42 82 43
REMARK SMILES IDX 84 44 35 45 87 46 81 47 80 48 36 50 68 51 48 52 67 53 49 54
REMARK SMILES IDX 52 55 66 56 85 57 50 58 51 59 65 61 86 62 53 63 37 64 38 65
REMARK SMILES IDX 46 66 39 67 41 68 47 69 40 70 42 71 43 72 44 73 45 74 69 75
REMARK SMILES IDX 70 76 78 77 71 78 73 79 79 80 72 81 74 82 75 83 76 84 77 85
REMARK SMILES IDX 54 86 55 87 63 88 56 89 58 90 64 91 57 92 59 93 60 94 61 95
REMARK SMILES IDX 62 96
REMARK H PARENT 84 49 52 60
REMARK Flexibility Score: inf
ROOT
ATOM      1  C   UNL     1      -5.858  -2.121  -1.851  1.00  0.00     0.275 C 
ENDROOT
BRANCH   1   2
ATOM      2  C   UNL     1      -5.107  -1.579  -3.060  1.00  0.00     0.274 C 
BRANCH   2   3
ATOM      3  O   UNL     1      -3.695  -1.759  -2.849  1.00  0.00    -0.461 OA
BRANCH   3   4
ATOM      4  C   UNL     1      -2.990  -0.628  -2.620  1.00  0.00     0.327 C 
ATOM      5  O   UNL     1      -3.406   0.503  -2.877  1.00  0.00    -0.250 OA
BRANCH   4   6
ATOM      6  C   UNL     1      -1.604  -0.839  -2.122  1.00  0.00     0.269 C 
BRANCH   6   7
ATOM      7  N   UNL     1      -1.164  -2.112  -1.551  1.00  0.00    -0.236 N 
ATOM      8  C   UNL     1       2.100  -1.464  -0.601  1.00  0.00     0.077 A 
ATOM      9  C   UNL     1       2.513  -2.695  -0.110  1.00  0.00     0.043 A 
ATOM     10  N   UNL     1       1.139  -1.396  -1.549  1.00  0.00    -0.228 NA
ATOM     11  C   UNL     1       1.649  -3.807  -0.250  1.00  0.00     0.071 A 
ATOM     12  C   UNL     1       0.172  -2.300  -1.297  1.00  0.00     0.159 A 
ATOM     13  C   UNL     1       0.313  -3.446  -0.535  1.00  0.00     0.055 A 
ATOM     14  C   UNL     1      -1.027  -3.691  -0.118  1.00  0.00     0.076 A 
ATOM     15  N   UNL     1      -1.925  -2.961  -0.817  1.00  0.00    -0.174 NA
BRANCH   8  16
ATOM     16  C   UNL     1       1.911  -0.334   0.324  1.00  0.00     0.038 A 
ATOM     17  C   UNL     1      -1.100   0.883   1.692  1.00  0.00     0.173 C 
ATOM     18  N   UNL     1       0.305   0.746   1.371  1.00  0.00    -0.275 N 
ATOM     19  C   UNL     1       0.973  -0.450   1.343  1.00  0.00     0.118 A 
ATOM     20  N   UNL     1       0.959   1.722   0.711  1.00  0.00    -0.181 NA
ATOM     21  C   UNL     1       1.877   1.048   0.006  1.00  0.00     0.145 A 
ENDBRANCH   8  16
BRANCH  11  22
ATOM     22  C   UNL     1       2.208  -5.198  -0.355  1.00  0.00     0.417 C 
ATOM     23  F   UNL     1       1.848  -6.064   0.619  1.00  0.00    -0.166 F 
ATOM     24  F   UNL     1       1.851  -5.791  -1.532  1.00  0.00    -0.166 F 
ATOM     25  F   UNL     1       3.575  -5.211  -0.359  1.00  0.00    -0.166 F 
ENDBRANCH  11  22
BRANCH  14  26
ATOM     26  C   UNL     1      -1.516  -4.394   1.164  1.00  0.00     0.041 C 
ATOM     27  C   UNL     1      -0.715  -5.334   2.027  1.00  0.00     0.011 C 
ATOM     28  C   UNL     1      -0.907  -3.936   2.490  1.00  0.00     0.011 C 
ENDBRANCH  14  26
ENDBRANCH   6   7
ENDBRANCH   4   6
ENDBRANCH   3   4
ENDBRANCH   2   3
ENDBRANCH   1   2
BRANCH   1  29
ATOM     29  O   UNL     1      -6.169  -1.108  -0.881  1.00  0.00    -0.458 OA
BRANCH  29  30
ATOM     30  C   UNL     1      -5.173  -0.823  -0.015  1.00  0.00     0.338 C 
ATOM     31  O   UNL     1      -4.040  -0.474  -0.285  1.00  0.00    -0.246 OA
BRANCH  30  32
ATOM     32  C   UNL     1      -5.571  -1.125   1.363  1.00  0.00     0.060 A 
ATOM     33  C   UNL     1      -4.632  -0.820   2.356  1.00  0.00     0.016 A 
ATOM     34  C   UNL     1      -6.732  -1.850   1.651  1.00  0.00     0.016 A 
ATOM     35  C   UNL     1      -4.793  -1.337   3.619  1.00  0.00     0.010 A 
ATOM     36  C   UNL     1      -6.902  -2.359   2.922  1.00  0.00     0.010 A 
ATOM     37  C   UNL     1      -5.907  -2.136   3.878  1.00  0.00    -0.014 A 
BRANCH  37  38
ATOM     38  C   UNL     1      -6.066  -2.610   5.238  1.00  0.00     0.031 A 
ATOM     39  C   UNL     1      -6.376  -1.535   6.219  1.00  0.00     0.074 A 
ATOM     40  C   UNL     1      -6.073  -3.919   5.540  1.00  0.00     0.049 A 
ATOM     41  N   UNL     1      -5.726  -1.209   7.290  1.00  0.00    -0.248 NA
ATOM     42  C   UNL     1      -7.486  -0.627   5.881  1.00  0.00     0.031 C 
ATOM     43  C   UNL     1      -6.083  -5.051   4.610  1.00  0.00     0.029 A 
ATOM     44  N   UNL     1      -6.256  -4.505   6.754  1.00  0.00    -0.354 N 
ATOM     45  C   UNL     1      -6.472  -0.183   7.867  1.00  0.00     0.074 A 
ATOM     46  C   UNL     1      -7.439   0.241   6.889  1.00  0.00     0.031 C 
ATOM     47  C   UNL     1      -6.539  -6.142   5.263  1.00  0.00     0.029 A 
ATOM     48  C   UNL     1      -6.739  -5.805   6.661  1.00  0.00     0.049 A 
ATOM     49  H   UNL     1      -6.066  -4.055   7.609  1.00  0.00     0.167 HD
ATOM     50  C   UNL     1      -6.421   0.108   9.193  1.00  0.00     0.034 A 
ATOM     51  C   UNL     1      -7.377  -6.481   7.646  1.00  0.00     0.034 A 
ATOM     52  C   UNL     1      -5.276  -0.446   9.848  1.00  0.00     0.049 A 
ATOM     53  C   UNL     1      -7.048  -5.803   8.925  1.00  0.00     0.074 A 
ATOM     54  C   UNL     1      -3.910  -0.300   9.722  1.00  0.00     0.029 A 
ATOM     55  N   UNL     1      -5.473  -1.580  10.594  1.00  0.00    -0.354 N 
ATOM     56  N   UNL     1      -5.855  -5.765   9.451  1.00  0.00    -0.248 NA
ATOM     57  C   UNL     1      -7.995  -4.835   9.457  1.00  0.00     0.031 C 
ATOM     58  C   UNL     1      -3.374  -1.589  10.005  1.00  0.00     0.029 A 
ATOM     59  C   UNL     1      -4.445  -2.436  10.302  1.00  0.00     0.049 A 
ATOM     60  H   UNL     1      -6.214  -1.748  11.220  1.00  0.00     0.167 HD
ATOM     61  C   UNL     1      -5.781  -4.524  10.069  1.00  0.00     0.074 A 
ATOM     62  C   UNL     1      -7.160  -4.055  10.147  1.00  0.00     0.031 C 
ATOM     63  C   UNL     1      -4.590  -3.871  10.200  1.00  0.00     0.034 A 
BRANCH  50  64
ATOM     64  C   UNL     1      -7.610   0.618   9.954  1.00  0.00     0.023 A 
ATOM     65  C   UNL     1      -7.402   1.272  11.182  1.00  0.00     0.012 A 
ATOM     66  C   UNL     1      -8.937   0.264   9.618  1.00  0.00     0.148 A 
ATOM     67  C   UNL     1      -8.473   1.575  12.030  1.00  0.00     0.002 A 
ATOM     68  C   UNL     1     -10.003   0.646  10.418  1.00  0.00     0.091 A 
ATOM     69  F   UNL     1      -9.162  -0.558   8.584  1.00  0.00    -0.205 F 
ATOM     70  C   UNL     1      -9.777   1.283  11.638  1.00  0.00     0.022 A 
BRANCH  68  71
ATOM     71  S   UNL     1     -11.694   0.349   9.895  1.00  0.00     0.127 S 
ATOM     72  O   UNL     1     -12.020  -0.868  10.630  1.00  0.00    -0.237 OA
ATOM     73  O   UNL     1     -12.374   1.558  10.361  1.00  0.00    -0.237 OA
ATOM     74  O   UNL     1     -11.621   0.234   8.443  1.00  0.00    -0.744 OA
ENDBRANCH  68  71
ENDBRANCH  50  64
BRANCH  51  75
ATOM     75  C   UNL     1      -8.472  -7.479   7.552  1.00  0.00     0.023 A 
ATOM     76  C   UNL     1      -8.801  -8.233   8.697  1.00  0.00     0.012 A 
ATOM     77  C   UNL     1      -9.369  -7.516   6.459  1.00  0.00     0.148 A 
ATOM     78  C   UNL     1      -9.998  -8.954   8.773  1.00  0.00     0.002 A 
ATOM     79  C   UNL     1     -10.546  -8.257   6.529  1.00  0.00     0.091 A 
ATOM     80  F   UNL     1      -9.130  -6.750   5.387  1.00  0.00    -0.205 F 
ATOM     81  C   UNL     1     -10.873  -8.963   7.692  1.00  0.00     0.022 A 
BRANCH  79  82
ATOM     82  S   UNL     1     -11.707  -8.315   5.156  1.00  0.00     0.127 S 
ATOM     83  O   UNL     1     -12.139  -9.713   5.173  1.00  0.00    -0.237 OA
ATOM     84  O   UNL     1     -12.724  -7.355   5.575  1.00  0.00    -0.237 OA
ATOM     85  O   UNL     1     -10.931  -7.949   3.977  1.00  0.00    -0.744 OA
ENDBRANCH  79  82
ENDBRANCH  51  75
BRANCH  63  86
ATOM     86  C   UNL     1      -3.326  -4.635   9.905  1.00  0.00     0.023 A 
ATOM     87  C   UNL     1      -3.007  -5.054   8.596  1.00  0.00     0.012 A 
ATOM     88  C   UNL     1      -2.354  -4.738  10.913  1.00  0.00     0.148 A 
ATOM     89  C   UNL     1      -1.745  -5.576   8.302  1.00  0.00     0.002 A 
ATOM     90  C   UNL     1      -1.087  -5.219  10.608  1.00  0.00     0.091 A 
ATOM     91  F   UNL     1      -2.675  -4.315  12.146  1.00  0.00    -0.205 F 
ATOM     92  C   UNL     1      -0.781  -5.645   9.305  1.00  0.00     0.022 A 
BRANCH  90  93
ATOM     93  S   UNL     1       0.244  -5.221  11.811  1.00  0.00     0.127 S 
ATOM     94  O   UNL     1       0.455  -6.650  12.031  1.00  0.00    -0.237 OA
ATOM     95  O   UNL     1       1.321  -4.549  11.081  1.00  0.00    -0.237 OA
ATOM     96  O   UNL     1      -0.250  -4.480  12.964  1.00  0.00    -0.744 OA
ENDBRANCH  90  93
ENDBRANCH  63  86
ENDBRANCH  37  38
ENDBRANCH  30  32
ENDBRANCH  29  30
ENDBRANCH   1  29
TORSDOF 18
