REMARK SMILES COC(=O)c1ccc([C@H]2CC(=O)Nc3c(C(=O)OCCOC(=O)c4ccc(-c5c6nc(c(-c7cccc(S(=O)(=O)[O-])c7F)c7ccc([nH]7)c(-c7cccc(S(=O)(=O)[O-])c7F)c7nc(c(-c8cccc(S(=O)(=O)[O-])c8F)c8ccc5[nH]8)C=C7)C=C6)cc4)cn(-c4ccccc4)c32)cc1
REMARK SMILES IDX 19 1 18 2 16 3 17 4 15 5 9 6 10 7 95 8 11 9 14 10 88 11
REMARK SMILES IDX 12 12 13 13 87 14 8 16 5 17 6 18 97 19 7 20 96 21 3 22 4 23
REMARK SMILES IDX 2 24 1 25 89 26 90 27 94 28 91 29 93 30 92 31 20 32 21 33
REMARK SMILES IDX 22 34 23 35 24 36 25 37 86 38 26 39 85 40 27 41 28 42 29 43
REMARK SMILES IDX 79 44 30 45 84 46 78 47 80 48 31 49 83 50 77 51 76 52 32 54
REMARK SMILES IDX 64 55 44 56 63 57 45 58 48 59 62 60 81 61 46 62 47 63 61 65
REMARK SMILES IDX 82 66 49 67 33 68 34 69 42 70 35 71 37 72 43 73 36 74 38 75
REMARK SMILES IDX 39 76 40 77 41 78 65 79 66 80 74 81 67 82 69 83 75 84 68 85
REMARK SMILES IDX 70 86 71 87 72 88 73 89 50 90 51 91 59 92 52 93 54 94 60 95
REMARK SMILES IDX 53 96 55 97 56 98 57 99 58 100
REMARK H PARENT 13 15 80 53 48 64
REMARK Flexibility Score: inf
ROOT
ATOM      1  C   UNL     1      -6.104   3.777  -8.199  1.00  0.00     0.275 C 
ENDROOT
BRANCH   1   2
ATOM      2  O   UNL     1      -4.942   4.077  -7.407  1.00  0.00    -0.458 OA
BRANCH   2   3
ATOM      3  C   UNL     1      -3.826   3.326  -7.665  1.00  0.00     0.341 C 
ATOM      4  O   UNL     1      -3.820   2.303  -8.344  1.00  0.00    -0.246 OA
BRANCH   3   5
ATOM      5  C   UNL     1      -2.622   3.903  -7.084  1.00  0.00     0.102 A 
ATOM      6  C   UNL     1      -0.674   6.154  -4.848  1.00  0.00     0.078 C 
ATOM      7  C   UNL     1      -1.828   7.093  -4.445  1.00  0.00     0.115 C 
ATOM      8  C   UNL     1      -1.165   5.137  -5.846  1.00  0.00     0.055 A 
ATOM      9  C   UNL     1      -3.204   6.455  -4.402  1.00  0.00     0.225 C 
ATOM     10  C   UNL     1      -2.498   4.878  -6.071  1.00  0.00     0.078 A 
ATOM     11  N   UNL     1      -0.436   4.275  -6.651  1.00  0.00    -0.317 N 
ATOM     12  O   UNL     1      -4.079   6.857  -3.634  1.00  0.00    -0.275 OA
ATOM     13  N   UNL     1      -3.478   5.492  -5.332  1.00  0.00    -0.324 N 
ATOM     14  C   UNL     1      -1.323   3.614  -7.478  1.00  0.00     0.109 A 
ATOM     15  H   UNL     1      -4.415   5.229  -5.478  1.00  0.00     0.170 HD
BRANCH   6  16
ATOM     16  C   UNL     1       0.528   7.018  -5.237  1.00  0.00    -0.038 A 
ATOM     17  C   UNL     1       2.880   8.474  -5.830  1.00  0.00     0.060 A 
ATOM     18  C   UNL     1       2.452   8.332  -4.506  1.00  0.00     0.016 A 
ATOM     19  C   UNL     1       2.095   7.948  -6.860  1.00  0.00     0.016 A 
ATOM     20  C   UNL     1       1.293   7.607  -4.214  1.00  0.00     0.005 A 
ATOM     21  C   UNL     1       0.909   7.264  -6.565  1.00  0.00     0.005 A 
BRANCH  17  22
ATOM     22  C   UNL     1       4.172   9.164  -6.084  1.00  0.00     0.337 C 
ATOM     23  O   UNL     1       4.977   9.432  -5.205  1.00  0.00    -0.246 OA
BRANCH  22  24
ATOM     24  O   UNL     1       4.303   9.453  -7.402  1.00  0.00    -0.465 OA
ATOM     25  C   UNL     1       5.508  10.138  -7.743  1.00  0.00     0.282 C 
ENDBRANCH  22  24
ENDBRANCH  17  22
ENDBRANCH   6  16
BRANCH  11  26
ATOM     26  C   UNL     1       0.966   4.082  -6.662  1.00  0.00     0.045 A 
ATOM     27  C   UNL     1       1.647   3.889  -5.456  1.00  0.00     0.026 A 
ATOM     28  C   UNL     1       1.667   4.178  -7.870  1.00  0.00     0.026 A 
ATOM     29  C   UNL     1       3.039   3.839  -5.452  1.00  0.00     0.002 A 
ATOM     30  C   UNL     1       3.063   4.169  -7.849  1.00  0.00     0.002 A 
ATOM     31  C   UNL     1       3.747   4.003  -6.643  1.00  0.00     0.000 A 
ENDBRANCH  11  26
ENDBRANCH   3   5
ENDBRANCH   2   3
ENDBRANCH   1   2
BRANCH   1  32
ATOM     32  C   UNL     1      -6.094   4.528  -9.524  1.00  0.00     0.275 C 
BRANCH  32  33
ATOM     33  O   UNL     1      -5.088   4.023 -10.397  1.00  0.00    -0.458 OA
BRANCH  33  34
ATOM     34  C   UNL     1      -3.925   4.712 -10.383  1.00  0.00     0.338 C 
ATOM     35  O   UNL     1      -3.537   5.484  -9.522  1.00  0.00    -0.246 OA
BRANCH  34  36
ATOM     36  C   UNL     1      -3.268   4.566 -11.681  1.00  0.00     0.060 A 
ATOM     37  C   UNL     1      -1.966   5.058 -11.806  1.00  0.00     0.016 A 
ATOM     38  C   UNL     1      -4.046   4.218 -12.794  1.00  0.00     0.016 A 
ATOM     39  C   UNL     1      -1.497   5.351 -13.069  1.00  0.00     0.010 A 
ATOM     40  C   UNL     1      -3.586   4.530 -14.048  1.00  0.00     0.010 A 
ATOM     41  C   UNL     1      -2.347   5.154 -14.162  1.00  0.00    -0.014 A 
BRANCH  41  42
ATOM     42  C   UNL     1      -1.860   5.492 -15.482  1.00  0.00     0.031 A 
ATOM     43  C   UNL     1      -0.849   4.526 -15.970  1.00  0.00     0.074 A 
ATOM     44  C   UNL     1      -2.404   6.489 -16.205  1.00  0.00     0.049 A 
ATOM     45  N   UNL     1       0.403   4.746 -16.197  1.00  0.00    -0.248 NA
ATOM     46  C   UNL     1      -1.224   3.101 -16.015  1.00  0.00     0.031 C 
ATOM     47  C   UNL     1      -3.603   7.272 -15.889  1.00  0.00     0.029 A 
ATOM     48  N   UNL     1      -2.091   6.904 -17.462  1.00  0.00    -0.354 N 
ATOM     49  C   UNL     1       0.903   3.535 -16.668  1.00  0.00     0.074 A 
ATOM     50  C   UNL     1      -0.057   2.529 -16.306  1.00  0.00     0.031 C 
ATOM     51  C   UNL     1      -4.061   7.852 -17.021  1.00  0.00     0.029 A 
ATOM     52  C   UNL     1      -3.129   7.578 -18.101  1.00  0.00     0.049 A 
ATOM     53  H   UNL     1      -1.215   6.744 -17.880  1.00  0.00     0.167 HD
ATOM     54  C   UNL     1       1.912   3.504 -17.578  1.00  0.00     0.034 A 
ATOM     55  C   UNL     1      -3.252   7.782 -19.438  1.00  0.00     0.034 A 
ATOM     56  C   UNL     1       2.592   4.771 -17.648  1.00  0.00     0.049 A 
ATOM     57  C   UNL     1      -1.913   7.580 -20.041  1.00  0.00     0.074 A 
ATOM     58  C   UNL     1       3.265   5.569 -16.744  1.00  0.00     0.029 A 
ATOM     59  N   UNL     1       2.279   5.579 -18.714  1.00  0.00    -0.354 N 
ATOM     60  N   UNL     1      -0.899   8.368 -19.821  1.00  0.00    -0.248 NA
ATOM     61  C   UNL     1      -1.580   6.249 -20.524  1.00  0.00     0.031 C 
ATOM     62  C   UNL     1       2.915   6.903 -17.101  1.00  0.00     0.029 A 
ATOM     63  C   UNL     1       2.111   6.851 -18.241  1.00  0.00     0.049 A 
ATOM     64  H   UNL     1       2.191   5.293 -19.652  1.00  0.00     0.167 HD
ATOM     65  C   UNL     1       0.177   7.502 -19.671  1.00  0.00     0.074 A 
ATOM     66  C   UNL     1      -0.279   6.227 -20.222  1.00  0.00     0.031 C 
ATOM     67  C   UNL     1       1.214   7.814 -18.840  1.00  0.00     0.034 A 
BRANCH  54  68
ATOM     68  C   UNL     1       2.026   2.489 -18.693  1.00  0.00     0.023 A 
ATOM     69  C   UNL     1       3.205   2.523 -19.469  1.00  0.00     0.012 A 
ATOM     70  C   UNL     1       0.950   1.719 -19.197  1.00  0.00     0.148 A 
ATOM     71  C   UNL     1       3.287   1.882 -20.708  1.00  0.00     0.002 A 
ATOM     72  C   UNL     1       1.065   1.016 -20.389  1.00  0.00     0.091 A 
ATOM     73  F   UNL     1      -0.246   1.763 -18.607  1.00  0.00    -0.205 F 
ATOM     74  C   UNL     1       2.218   1.122 -21.167  1.00  0.00     0.022 A 
BRANCH  72  75
ATOM     75  S   UNL     1      -0.271  -0.018 -21.006  1.00  0.00     0.127 S 
ATOM     76  O   UNL     1      -0.742   0.764 -22.145  1.00  0.00    -0.237 OA
ATOM     77  O   UNL     1       0.443  -1.248 -21.349  1.00  0.00    -0.237 OA
ATOM     78  O   UNL     1      -1.205  -0.159 -19.897  1.00  0.00    -0.744 OA
ENDBRANCH  72  75
ENDBRANCH  54  68
BRANCH  55  79
ATOM     79  C   UNL     1      -4.476   7.819 -20.278  1.00  0.00     0.023 A 
ATOM     80  C   UNL     1      -4.412   8.364 -21.577  1.00  0.00     0.012 A 
ATOM     81  C   UNL     1      -5.619   7.066 -19.932  1.00  0.00     0.148 A 
ATOM     82  C   UNL     1      -5.432   8.136 -22.509  1.00  0.00     0.002 A 
ATOM     83  C   UNL     1      -6.635   6.849 -20.858  1.00  0.00     0.091 A 
ATOM     84  F   UNL     1      -5.668   6.478 -18.730  1.00  0.00    -0.205 F 
ATOM     85  C   UNL     1      -6.540   7.371 -22.153  1.00  0.00     0.022 A 
BRANCH  83  86
ATOM     86  S   UNL     1      -8.077   5.844 -20.473  1.00  0.00     0.127 S 
ATOM     87  O   UNL     1      -9.172   6.689 -20.952  1.00  0.00    -0.237 OA
ATOM     88  O   UNL     1      -7.832   4.646 -21.271  1.00  0.00    -0.237 OA
ATOM     89  O   UNL     1      -8.056   5.657 -19.028  1.00  0.00    -0.744 OA
ENDBRANCH  83  86
ENDBRANCH  55  79
BRANCH  67  90
ATOM     90  C   UNL     1       1.304   9.223 -18.315  1.00  0.00     0.023 A 
ATOM     91  C   UNL     1       0.322   9.796 -17.480  1.00  0.00     0.012 A 
ATOM     92  C   UNL     1       2.498   9.926 -18.541  1.00  0.00     0.148 A 
ATOM     93  C   UNL     1       0.520  11.055 -16.904  1.00  0.00     0.002 A 
ATOM     94  C   UNL     1       2.712  11.152 -17.928  1.00  0.00     0.091 A 
ATOM     95  F   UNL     1       3.421   9.366 -19.338  1.00  0.00    -0.205 F 
ATOM     96  C   UNL     1       1.721  11.727 -17.117  1.00  0.00     0.022 A 
BRANCH  94  97
ATOM     97  S   UNL     1       4.289  11.993 -18.066  1.00  0.00     0.127 S 
ATOM     98  O   UNL     1       3.992  13.041 -19.040  1.00  0.00    -0.237 OA
ATOM     99  O   UNL     1       4.513  12.471 -16.701  1.00  0.00    -0.237 OA
ATOM    100  O   UNL     1       5.244  10.981 -18.502  1.00  0.00    -0.744 OA
ENDBRANCH  94  97
ENDBRANCH  67  90
ENDBRANCH  41  42
ENDBRANCH  34  36
ENDBRANCH  33  34
ENDBRANCH  32  33
ENDBRANCH   1  32
TORSDOF 18
