REMARK SMILES O=C(OCCOC(=O)[C@@H](CCOC(F)(F)F)Cc1ccccc1Cl)c1ccc(-c2c3nc(c(-c4cccc(S(=O)(=O)[O-])c4F)c4ccc([nH]4)c(-c4cccc(S(=O)(=O)[O-])c4F)c4nc(c(-c5cccc(S(=O)(=O)[O-])c5F)c5ccc2[nH]5)C=C4)C=C3)cc1
REMARK SMILES IDX 5 1 4 2 3 3 2 4 1 5 25 6 26 7 87 8 27 9 86 10 28 11 29 12
REMARK SMILES IDX 30 13 80 14 31 15 85 16 79 17 81 18 32 19 84 20 78 21 77 22
REMARK SMILES IDX 33 24 65 25 45 26 64 27 46 28 49 29 63 30 82 31 47 32 48 33
REMARK SMILES IDX 62 35 83 36 50 37 34 38 35 39 43 40 36 41 38 42 44 43 37 44
REMARK SMILES IDX 39 45 40 46 41 47 42 48 66 49 67 50 75 51 68 52 70 53 76 54
REMARK SMILES IDX 69 55 71 56 72 57 73 58 74 59 51 60 52 61 60 62 53 63 55 64
REMARK SMILES IDX 61 65 54 66 56 67 57 68 58 69 59 70 6 71 7 72 8 73 9 74
REMARK SMILES IDX 10 75 11 76 12 77 13 78 14 79 15 80 16 81 17 82 18 83 19 84
REMARK SMILES IDX 23 85 20 86 22 87 24 88 21 89
REMARK H PARENT 81 23 49 34
REMARK Flexibility Score: inf
ROOT
ATOM      1  C   UNL     1       3.567  -2.312  -0.963  1.00  0.00     0.274 C 
ENDROOT
BRANCH   1   2
ATOM      2  C   UNL     1       4.335  -1.943   0.314  1.00  0.00     0.275 C 
BRANCH   2   3
ATOM      3  O   UNL     1       3.446  -1.398   1.280  1.00  0.00    -0.458 OA
BRANCH   3   4
ATOM      4  C   UNL     1       2.896  -0.184   1.155  1.00  0.00     0.338 C 
ATOM      5  O   UNL     1       1.860   0.068   1.769  1.00  0.00    -0.246 OA
BRANCH   4   6
ATOM      6  C   UNL     1       3.492   0.940   0.373  1.00  0.00     0.060 A 
ATOM      7  C   UNL     1       4.321   0.996  -1.262  1.00  0.00     0.016 A 
ATOM      8  C   UNL     1       2.905   2.469   1.089  1.00  0.00     0.016 A 
ATOM      9  C   UNL     1       4.420   2.584  -2.156  1.00  0.00     0.010 A 
ATOM     10  C   UNL     1       3.022   3.992   0.206  1.00  0.00     0.010 A 
ATOM     11  C   UNL     1       3.850   4.110  -1.349  1.00  0.00    -0.014 A 
BRANCH  11  12
ATOM     12  C   UNL     1       4.518   5.424  -1.667  1.00  0.00     0.031 A 
ATOM     13  C   UNL     1       5.291   6.213  -0.592  1.00  0.00     0.074 A 
ATOM     14  C   UNL     1       4.656   5.732  -2.966  1.00  0.00     0.049 A 
ATOM     15  N   UNL     1       6.108   7.233  -0.739  1.00  0.00    -0.248 NA
ATOM     16  C   UNL     1       5.182   5.811   0.822  1.00  0.00     0.031 C 
ATOM     17  C   UNL     1       4.016   5.011  -4.064  1.00  0.00     0.029 A 
ATOM     18  N   UNL     1       5.419   6.681  -3.586  1.00  0.00    -0.354 N 
ATOM     19  C   UNL     1       6.552   7.575   0.544  1.00  0.00     0.074 A 
ATOM     20  C   UNL     1       5.974   6.646   1.462  1.00  0.00     0.031 C 
ATOM     21  C   UNL     1       4.499   5.466  -5.227  1.00  0.00     0.029 A 
ATOM     22  C   UNL     1       5.357   6.613  -4.957  1.00  0.00     0.049 A 
ATOM     23  H   UNL     1       5.959   7.346  -3.100  1.00  0.00     0.167 HD
ATOM     24  C   UNL     1       7.329   8.602   0.958  1.00  0.00     0.034 A 
ATOM     25  C   UNL     1       5.874   7.433  -5.890  1.00  0.00     0.034 A 
ATOM     26  C   UNL     1       7.843   9.579   0.054  1.00  0.00     0.049 A 
ATOM     27  C   UNL     1       6.654   8.621  -5.415  1.00  0.00     0.074 A 
ATOM     28  C   UNL     1       8.544  10.734   0.333  1.00  0.00     0.029 A 
ATOM     29  N   UNL     1       7.663   9.523  -1.319  1.00  0.00    -0.354 N 
ATOM     30  N   UNL     1       7.006   8.939  -4.191  1.00  0.00    -0.248 NA
ATOM     31  C   UNL     1       7.085   9.578  -6.438  1.00  0.00     0.031 C 
ATOM     32  C   UNL     1       8.722  11.418  -0.873  1.00  0.00     0.029 A 
ATOM     33  C   UNL     1       8.209  10.643  -1.905  1.00  0.00     0.049 A 
ATOM     34  H   UNL     1       7.212   8.794  -1.802  1.00  0.00     0.167 HD
ATOM     35  C   UNL     1       7.700  10.135  -4.294  1.00  0.00     0.074 A 
ATOM     36  C   UNL     1       7.746  10.465  -5.706  1.00  0.00     0.031 C 
ATOM     37  C   UNL     1       8.239  10.906  -3.318  1.00  0.00     0.034 A 
BRANCH  24  38
ATOM     38  C   UNL     1       7.531   8.783   2.448  1.00  0.00     0.023 A 
ATOM     39  C   UNL     1       8.348   7.903   3.190  1.00  0.00     0.012 A 
ATOM     40  C   UNL     1       6.858   9.822   3.124  1.00  0.00     0.148 A 
ATOM     41  C   UNL     1       8.456   8.030   4.578  1.00  0.00     0.002 A 
ATOM     42  C   UNL     1       7.009   9.973   4.498  1.00  0.00     0.091 A 
ATOM     43  F   UNL     1       6.055  10.627   2.414  1.00  0.00    -0.205 F 
ATOM     44  C   UNL     1       7.793   9.068   5.230  1.00  0.00     0.022 A 
BRANCH  42  45
ATOM     45  S   UNL     1       6.242  11.312   5.418  1.00  0.00     0.127 S 
ATOM     46  O   UNL     1       5.305  10.586   6.274  1.00  0.00    -0.237 OA
ATOM     47  O   UNL     1       7.387  11.892   6.120  1.00  0.00    -0.237 OA
ATOM     48  O   UNL     1       5.627  12.184   4.427  1.00  0.00    -0.744 OA
ENDBRANCH  42  45
ENDBRANCH  24  38
BRANCH  25  49
ATOM     49  C   UNL     1       5.569   7.193  -7.330  1.00  0.00     0.023 A 
ATOM     50  C   UNL     1       6.591   6.876  -8.242  1.00  0.00     0.012 A 
ATOM     51  C   UNL     1       4.231   7.194  -7.776  1.00  0.00     0.148 A 
ATOM     52  C   UNL     1       6.282   6.560  -9.568  1.00  0.00     0.002 A 
ATOM     53  C   UNL     1       3.924   6.788  -9.066  1.00  0.00     0.091 A 
ATOM     54  F   UNL     1       3.272   7.549  -6.909  1.00  0.00    -0.205 F 
ATOM     55  C   UNL     1       4.949   6.490  -9.973  1.00  0.00     0.022 A 
BRANCH  53  56
ATOM     56  S   UNL     1       2.231   6.475  -9.578  1.00  0.00     0.127 S 
ATOM     57  O   UNL     1       1.970   7.606 -10.463  1.00  0.00    -0.237 OA
ATOM     58  O   UNL     1       2.351   5.179 -10.247  1.00  0.00    -0.237 OA
ATOM     59  O   UNL     1       1.451   6.435  -8.347  1.00  0.00    -0.744 OA
ENDBRANCH  53  56
ENDBRANCH  25  49
BRANCH  37  60
ATOM     60  C   UNL     1       8.966  12.142  -3.748  1.00  0.00     0.023 A 
ATOM     61  C   UNL     1       8.254  13.264  -4.208  1.00  0.00     0.012 A 
ATOM     62  C   UNL     1      10.364  12.205  -3.599  1.00  0.00     0.148 A 
ATOM     63  C   UNL     1       8.935  14.428  -4.553  1.00  0.00     0.002 A 
ATOM     64  C   UNL     1      11.026  13.386  -3.883  1.00  0.00     0.091 A 
ATOM     65  F   UNL     1      11.011  11.112  -3.167  1.00  0.00    -0.205 F 
ATOM     66  C   UNL     1      10.317  14.493  -4.377  1.00  0.00     0.022 A 
BRANCH  64  67
ATOM     67  S   UNL     1      12.780  13.591  -3.574  1.00  0.00     0.127 S 
ATOM     68  O   UNL     1      13.312  13.667  -4.934  1.00  0.00    -0.237 OA
ATOM     69  O   UNL     1      12.815  14.850  -2.831  1.00  0.00    -0.237 OA
ATOM     70  O   UNL     1      13.197  12.424  -2.808  1.00  0.00    -0.744 OA
ENDBRANCH  64  67
ENDBRANCH  37  60
ENDBRANCH  11  12
ENDBRANCH   4   6
ENDBRANCH   3   4
ENDBRANCH   2   3
ENDBRANCH   1   2
BRANCH   1  71
ATOM     71  O   UNL     1       3.206  -1.094  -1.647  1.00  0.00    -0.462 OA
BRANCH  71  72
ATOM     72  C   UNL     1       1.984  -0.548  -1.815  1.00  0.00     0.309 C 
ATOM     73  O   UNL     1       0.944  -1.169  -1.650  1.00  0.00    -0.252 OA
BRANCH  72  74
ATOM     74  C   UNL     1       2.078   0.977  -2.226  1.00  0.00     0.106 C 
BRANCH  74  75
ATOM     75  C   UNL     1       2.746   2.260  -1.064  1.00  0.00     0.044 C 
BRANCH  75  76
ATOM     76  C   UNL     1       4.698   2.600  -0.135  1.00  0.00     0.171 C 
BRANCH  76  77
ATOM     77  O   UNL     1       6.008   3.343  -0.662  1.00  0.00    -0.292 OA
BRANCH  77  78
ATOM     78  C   UNL     1       6.986   2.756  -1.530  1.00  0.00     0.522 C 
ATOM     79  F   UNL     1       6.877   1.413  -1.617  1.00  0.00    -0.144 F 
ATOM     80  F   UNL     1       6.897   3.278  -2.777  1.00  0.00    -0.144 F 
ATOM     81  F   UNL     1       8.224   3.037  -1.075  1.00  0.00    -0.144 F 
ENDBRANCH  77  78
ENDBRANCH  76  77
ENDBRANCH  75  76
ENDBRANCH  74  75
BRANCH  74  82
ATOM     82  C   UNL     1       2.303   1.308  -3.742  1.00  0.00     0.052 C 
BRANCH  82  83
ATOM     83  C   UNL     1       2.012   0.327  -4.860  1.00  0.00    -0.028 A 
ATOM     84  C   UNL     1       1.132   0.726  -5.885  1.00  0.00     0.005 A 
ATOM     85  C   UNL     1       2.726  -0.864  -5.075  1.00  0.00     0.044 A 
ATOM     86  C   UNL     1       0.895  -0.084  -7.001  1.00  0.00     0.000 A 
ATOM     87  C   UNL     1       2.400  -1.730  -6.124  1.00  0.00     0.021 A 
ATOM     88  Cl  UNL     1       4.216  -1.218  -4.278  1.00  0.00    -0.084 Cl
ATOM     89  C   UNL     1       1.484  -1.339  -7.091  1.00  0.00     0.002 A 
ENDBRANCH  82  83
ENDBRANCH  74  82
ENDBRANCH  72  74
ENDBRANCH  71  72
ENDBRANCH   1  71
TORSDOF 20
