REMARK SMILES CC[C@H](C(=O)OCCOC(=O)c1ccc(-c2c3nc(c(-c4cccc(S(=O)(=O)[O-])c4F)c4ccc([nH]4)c(-c4cccc(S(=O)(=O)[O-])c4F)c4nc(c(-c5cccc(S(=O)(=O)[O-])c5F)c5ccc2[nH]5)C=C4)C=C3)cc1)N1C(=O)/C(=C/c2ccc(-c3ccc(C)cc3Br)o2)SC1=S
REMARK SMILES IDX 7 1 6 2 4 3 5 4 3 5 2 6 1 7 75 8 76 9 94 10 77 11 78 12
REMARK SMILES IDX 93 13 95 14 79 15 80 16 81 17 92 18 82 19 83 20 84 21 85 22
REMARK SMILES IDX 90 23 86 24 89 25 91 26 87 27 88 28 8 29 9 30 10 31 11 32
REMARK SMILES IDX 12 33 13 34 74 35 14 36 73 37 15 38 16 39 17 40 67 41 18 42
REMARK SMILES IDX 72 43 66 44 68 45 19 46 71 47 65 48 64 49 20 51 52 52 32 53
REMARK SMILES IDX 51 54 33 55 36 56 50 57 69 58 34 59 35 60 49 62 70 63 37 64
REMARK SMILES IDX 21 65 22 66 30 67 23 68 25 69 31 70 24 71 26 72 27 73 28 74
REMARK SMILES IDX 29 75 53 76 54 77 62 78 55 79 57 80 63 81 56 82 58 83 59 84
REMARK SMILES IDX 60 85 61 86 38 87 39 88 47 89 40 90 42 91 48 92 41 93 43 94
REMARK SMILES IDX 44 95 45 96 46 97
REMARK H PARENT 68 50 36 61
REMARK Flexibility Score: inf
ROOT
ATOM      1  C   UNL     1      -1.593  -0.750   0.181  1.00  0.00     0.274 C 
ENDROOT
BRANCH   1   2
ATOM      2  O   UNL     1      -0.813   0.450   0.325  1.00  0.00    -0.461 OA
BRANCH   2   3
ATOM      3  C   UNL     1      -0.785   1.058   1.540  1.00  0.00     0.329 C 
ATOM      4  O   UNL     1      -1.564   0.783   2.445  1.00  0.00    -0.250 OA
BRANCH   3   5
ATOM      5  C   UNL     1       0.374   2.112   1.623  1.00  0.00     0.201 C 
BRANCH   5   6
ATOM      6  C   UNL     1       0.315   2.983   0.349  1.00  0.00     0.034 C 
ATOM      7  C   UNL     1       1.015   2.390  -0.874  1.00  0.00     0.007 C 
ENDBRANCH   5   6
BRANCH   5   8
ATOM      8  N   UNL     1       0.233   2.802   2.954  1.00  0.00    -0.278 N 
ATOM      9  C   UNL     1       0.282   1.968   4.074  1.00  0.00     0.267 C 
ATOM     10  C   UNL     1       0.253   4.137   3.294  1.00  0.00     0.149 C 
ATOM     11  O   UNL     1       0.745   0.836   4.096  1.00  0.00    -0.268 OA
ATOM     12  C   UNL     1      -0.262   2.664   5.268  1.00  0.00     0.084 C 
ATOM     13  S   UNL     1      -0.320   4.344   4.947  1.00  0.00    -0.054 SA
ATOM     14  S   UNL     1       0.750   5.494   2.463  1.00  0.00    -0.052 S 
ATOM     15  C   UNL     1      -0.641   2.010   6.373  1.00  0.00     0.068 C 
BRANCH  15  16
ATOM     16  C   UNL     1      -1.216   2.642   7.512  1.00  0.00     0.128 A 
ATOM     17  C   UNL     1      -2.214   3.607   7.613  1.00  0.00     0.051 A 
ATOM     18  O   UNL     1      -0.825   2.326   8.792  1.00  0.00    -0.457 OA
ATOM     19  C   UNL     1      -2.378   3.926   8.980  1.00  0.00     0.051 A 
ATOM     20  C   UNL     1      -1.485   3.134   9.664  1.00  0.00     0.135 A 
BRANCH  20  21
ATOM     21  C   UNL     1      -1.151   2.997  11.072  1.00  0.00     0.031 A 
ATOM     22  C   UNL     1      -2.202   2.809  11.986  1.00  0.00     0.013 A 
ATOM     23  C   UNL     1       0.156   3.110  11.573  1.00  0.00     0.029 A 
ATOM     24  C   UNL     1      -1.962   2.758  13.361  1.00  0.00     0.004 A 
ATOM     25  C   UNL     1       0.394   3.060  12.954  1.00  0.00     0.019 A 
ATOM     26  Br  UNL     1       1.671   3.424  10.461  1.00  0.00    -0.050 Br
ATOM     27  C   UNL     1      -0.663   2.898  13.857  1.00  0.00    -0.050 A 
ATOM     28  C   UNL     1      -0.418   2.869  15.335  1.00  0.00     0.044 C 
ENDBRANCH  20  21
ENDBRANCH  15  16
ENDBRANCH   5   8
ENDBRANCH   3   5
ENDBRANCH   2   3
ENDBRANCH   1   2
BRANCH   1  29
ATOM     29  C   UNL     1      -0.667  -1.897  -0.234  1.00  0.00     0.275 C 
BRANCH  29  30
ATOM     30  O   UNL     1       0.270  -2.235   0.809  1.00  0.00    -0.458 OA
BRANCH  30  31
ATOM     31  C   UNL     1       1.425  -1.525   0.804  1.00  0.00     0.338 C 
ATOM     32  O   UNL     1       1.729  -0.641   0.013  1.00  0.00    -0.246 OA
BRANCH  31  33
ATOM     33  C   UNL     1       2.284  -1.882   1.949  1.00  0.00     0.060 A 
ATOM     34  C   UNL     1       2.989  -0.848   2.576  1.00  0.00     0.016 A 
ATOM     35  C   UNL     1       2.467  -3.203   2.364  1.00  0.00     0.016 A 
ATOM     36  C   UNL     1       3.869  -1.124   3.617  1.00  0.00     0.010 A 
ATOM     37  C   UNL     1       3.362  -3.481   3.406  1.00  0.00     0.010 A 
ATOM     38  C   UNL     1       4.076  -2.444   4.030  1.00  0.00    -0.014 A 
BRANCH  38  39
ATOM     39  C   UNL     1       5.084  -2.713   5.082  1.00  0.00     0.031 A 
ATOM     40  C   UNL     1       6.424  -3.280   4.710  1.00  0.00     0.074 A 
ATOM     41  C   UNL     1       4.813  -2.403   6.364  1.00  0.00     0.049 A 
ATOM     42  N   UNL     1       7.451  -3.543   5.476  1.00  0.00    -0.248 NA
ATOM     43  C   UNL     1       6.640  -3.590   3.288  1.00  0.00     0.031 C 
ATOM     44  C   UNL     1       3.554  -1.836   6.847  1.00  0.00     0.029 A 
ATOM     45  N   UNL     1       5.580  -2.529   7.495  1.00  0.00    -0.354 N 
ATOM     46  C   UNL     1       8.426  -4.070   4.638  1.00  0.00     0.074 A 
ATOM     47  C   UNL     1       7.862  -4.103   3.305  1.00  0.00     0.031 C 
ATOM     48  C   UNL     1       3.629  -1.677   8.178  1.00  0.00     0.029 A 
ATOM     49  C   UNL     1       4.929  -2.151   8.645  1.00  0.00     0.049 A 
ATOM     50  H   UNL     1       6.508  -2.859   7.483  1.00  0.00     0.167 HD
ATOM     51  C   UNL     1       9.682  -4.473   4.948  1.00  0.00     0.034 A 
ATOM     52  C   UNL     1       5.332  -2.195   9.930  1.00  0.00     0.034 A 
ATOM     53  C   UNL     1      10.246  -4.423   6.271  1.00  0.00     0.049 A 
ATOM     54  C   UNL     1       6.726  -2.670  10.247  1.00  0.00     0.074 A 
ATOM     55  C   UNL     1      11.523  -4.771   6.676  1.00  0.00     0.029 A 
ATOM     56  N   UNL     1       9.567  -4.013   7.409  1.00  0.00    -0.354 N 
ATOM     57  N   UNL     1       7.675  -3.057   9.430  1.00  0.00    -0.248 NA
ATOM     58  C   UNL     1       7.117  -2.677  11.665  1.00  0.00     0.031 C 
ATOM     59  C   UNL     1      11.605  -4.602   8.062  1.00  0.00     0.029 A 
ATOM     60  C   UNL     1      10.392  -4.112   8.517  1.00  0.00     0.049 A 
ATOM     61  H   UNL     1       8.634  -3.697   7.426  1.00  0.00     0.167 HD
ATOM     62  C   UNL     1       8.785  -3.318  10.227  1.00  0.00     0.074 A 
ATOM     63  C   UNL     1       8.395  -3.023  11.591  1.00  0.00     0.031 C 
ATOM     64  C   UNL     1      10.011  -3.772   9.865  1.00  0.00     0.034 A 
BRANCH  51  65
ATOM     65  C   UNL     1      10.546  -4.991   3.826  1.00  0.00     0.023 A 
ATOM     66  C   UNL     1      11.058  -4.094   2.867  1.00  0.00     0.012 A 
ATOM     67  C   UNL     1      10.895  -6.354   3.755  1.00  0.00     0.148 A 
ATOM     68  C   UNL     1      11.878  -4.550   1.835  1.00  0.00     0.002 A 
ATOM     69  C   UNL     1      11.749  -6.793   2.750  1.00  0.00     0.091 A 
ATOM     70  F   UNL     1      10.382  -7.194   4.664  1.00  0.00    -0.205 F 
ATOM     71  C   UNL     1      12.232  -5.896   1.783  1.00  0.00     0.022 A 
BRANCH  69  72
ATOM     72  S   UNL     1      12.326  -8.491   2.642  1.00  0.00     0.127 S 
ATOM     73  O   UNL     1      11.622  -8.966   1.452  1.00  0.00    -0.237 OA
ATOM     74  O   UNL     1      13.768  -8.316   2.468  1.00  0.00    -0.237 OA
ATOM     75  O   UNL     1      11.938  -9.128   3.893  1.00  0.00    -0.744 OA
ENDBRANCH  69  72
ENDBRANCH  51  65
BRANCH  52  76
ATOM     76  C   UNL     1       4.413  -1.742  11.013  1.00  0.00     0.023 A 
ATOM     77  C   UNL     1       4.701  -0.562  11.725  1.00  0.00     0.012 A 
ATOM     78  C   UNL     1       3.251  -2.472  11.334  1.00  0.00     0.148 A 
ATOM     79  C   UNL     1       3.865  -0.133  12.757  1.00  0.00     0.002 A 
ATOM     80  C   UNL     1       2.397  -2.013  12.330  1.00  0.00     0.091 A 
ATOM     81  F   UNL     1       3.005  -3.603  10.658  1.00  0.00    -0.205 F 
ATOM     82  C   UNL     1       2.709  -0.851  13.053  1.00  0.00     0.022 A 
BRANCH  80  83
ATOM     83  S   UNL     1       0.842  -2.825  12.715  1.00  0.00     0.127 S 
ATOM     84  O   UNL     1       1.128  -3.413  14.022  1.00  0.00    -0.237 OA
ATOM     85  O   UNL     1      -0.094  -1.700  12.742  1.00  0.00    -0.237 OA
ATOM     86  O   UNL     1       0.613  -3.773  11.634  1.00  0.00    -0.744 OA
ENDBRANCH  80  83
ENDBRANCH  52  76
BRANCH  64  87
ATOM     87  C   UNL     1      11.043  -3.944  10.952  1.00  0.00     0.023 A 
ATOM     88  C   UNL     1      10.906  -4.983  11.895  1.00  0.00     0.012 A 
ATOM     89  C   UNL     1      12.180  -3.112  11.004  1.00  0.00     0.148 A 
ATOM     90  C   UNL     1      11.861  -5.164  12.896  1.00  0.00     0.002 A 
ATOM     91  C   UNL     1      13.153  -3.331  11.973  1.00  0.00     0.091 A 
ATOM     92  F   UNL     1      12.287  -2.118  10.111  1.00  0.00    -0.205 F 
ATOM     93  C   UNL     1      12.988  -4.346  12.928  1.00  0.00     0.022 A 
BRANCH  91  94
ATOM     94  S   UNL     1      14.683  -2.391  12.030  1.00  0.00     0.127 S 
ATOM     95  O   UNL     1      14.462  -1.531  13.190  1.00  0.00    -0.237 OA
ATOM     96  O   UNL     1      15.685  -3.439  12.231  1.00  0.00    -0.237 OA
ATOM     97  O   UNL     1      14.780  -1.704  10.749  1.00  0.00    -0.744 OA
ENDBRANCH  91  94
ENDBRANCH  64  87
ENDBRANCH  38  39
ENDBRANCH  31  33
ENDBRANCH  30  31
ENDBRANCH  29  30
ENDBRANCH   1  29
TORSDOF 18
