REMARK SMILES COc1ncccc1COc1cc(C)sc1C(=O)OCCOC(=O)c1ccc(-c2c3nc(c(-c4cccc(S(=O)(=O)[O-])c4F)c4ccc([nH]4)c(-c4cccc(S(=O)(=O)[O-])c4F)c4nc(c(-c5cccc(S(=O)(=O)[O-])c5F)c5ccc2[nH]5)C=C4)C=C3)cc1
REMARK SMILES IDX 20 1 19 2 17 3 18 4 16 5 11 6 12 7 13 8 15 9 14 10 10 11
REMARK SMILES IDX 9 12 8 13 3 14 4 15 5 16 7 17 6 18 2 19 1 20 21 21 22 22
REMARK SMILES IDX 23 23 24 24 25 25 26 26 87 27 27 28 86 29 28 30 29 31 30 32
REMARK SMILES IDX 80 33 31 34 85 35 79 36 81 37 32 38 84 39 78 40 77 41 33 43
REMARK SMILES IDX 65 44 45 45 64 46 46 47 49 48 63 49 82 50 47 51 48 52 62 54
REMARK SMILES IDX 83 55 50 56 34 57 35 58 43 59 36 60 38 61 44 62 37 63 39 64
REMARK SMILES IDX 40 65 41 66 42 67 66 68 67 69 75 70 68 71 70 72 76 73 69 74
REMARK SMILES IDX 71 75 72 76 73 77 74 78 51 79 52 80 60 81 53 82 55 83 61 84
REMARK SMILES IDX 54 85 56 86 57 87 58 88 59 89
REMARK H PARENT 81 42 49 53
REMARK Flexibility Score: inf
ROOT
ATOM      1  C   UNL     1       4.374   3.372   1.021  1.00  0.00     0.275 C 
ENDROOT
BRANCH   1   2
ATOM      2  O   UNL     1       3.755   2.586  -0.012  1.00  0.00    -0.458 OA
BRANCH   2   3
ATOM      3  C   UNL     1       2.588   3.058  -0.547  1.00  0.00     0.352 C 
ATOM      4  O   UNL     1       1.988   4.032  -0.125  1.00  0.00    -0.245 OA
BRANCH   3   5
ATOM      5  C   UNL     1       2.252   2.300  -1.741  1.00  0.00     0.155 A 
ATOM      6  C   UNL     1       2.652   1.041  -2.155  1.00  0.00     0.145 A 
ATOM      7  C   UNL     1       2.368   0.845  -3.539  1.00  0.00     0.062 A 
ATOM      8  C   UNL     1       1.555   1.830  -4.062  1.00  0.00     0.006 A 
ATOM      9  S   UNL     1       1.167   2.995  -2.881  1.00  0.00    -0.130 S 
ATOM     10  C   UNL     1       1.019   1.946  -5.449  1.00  0.00     0.056 C 
BRANCH   6  11
ATOM     11  O   UNL     1       3.248   0.207  -1.261  1.00  0.00    -0.487 OA
BRANCH  11  12
ATOM     12  C   UNL     1       3.462  -1.160  -1.625  1.00  0.00     0.271 C 
BRANCH  12  13
ATOM     13  C   UNL     1       2.296  -1.922  -2.201  1.00  0.00     0.052 A 
ATOM     14  C   UNL     1       1.075  -2.045  -1.547  1.00  0.00     0.219 A 
ATOM     15  N   UNL     1      -0.017  -2.634  -2.088  1.00  0.00    -0.222 NA
ATOM     16  C   UNL     1       0.115  -3.122  -3.342  1.00  0.00     0.115 A 
ATOM     17  C   UNL     1       2.407  -2.511  -3.468  1.00  0.00     0.014 A 
ATOM     18  C   UNL     1       1.299  -3.106  -4.057  1.00  0.00     0.021 A 
BRANCH  14  19
ATOM     19  O   UNL     1       0.985  -1.719  -0.218  1.00  0.00    -0.481 OA
ATOM     20  C   UNL     1       0.376  -0.444  -0.043  1.00  0.00     0.280 C 
ENDBRANCH  14  19
ENDBRANCH  12  13
ENDBRANCH  11  12
ENDBRANCH   6  11
ENDBRANCH   3   5
ENDBRANCH   2   3
ENDBRANCH   1   2
BRANCH   1  21
ATOM     21  C   UNL     1       5.706   3.928   0.518  1.00  0.00     0.275 C 
BRANCH  21  22
ATOM     22  O   UNL     1       5.475   4.907  -0.510  1.00  0.00    -0.458 OA
BRANCH  22  23
ATOM     23  C   UNL     1       5.760   4.519  -1.775  1.00  0.00     0.338 C 
ATOM     24  O   UNL     1       6.240   3.462  -2.144  1.00  0.00    -0.246 OA
BRANCH  23  25
ATOM     25  C   UNL     1       5.294   5.565  -2.696  1.00  0.00     0.060 A 
ATOM     26  C   UNL     1       3.983   5.488  -3.161  1.00  0.00     0.016 A 
ATOM     27  C   UNL     1       6.141   6.578  -3.137  1.00  0.00     0.016 A 
ATOM     28  C   UNL     1       3.507   6.412  -4.087  1.00  0.00     0.010 A 
ATOM     29  C   UNL     1       5.649   7.537  -4.031  1.00  0.00     0.010 A 
ATOM     30  C   UNL     1       4.329   7.460  -4.516  1.00  0.00    -0.014 A 
BRANCH  30  31
ATOM     31  C   UNL     1       3.803   8.490  -5.450  1.00  0.00     0.031 A 
ATOM     32  C   UNL     1       4.389   8.638  -6.825  1.00  0.00     0.074 A 
ATOM     33  C   UNL     1       2.816   9.313  -5.043  1.00  0.00     0.049 A 
ATOM     34  N   UNL     1       4.175   9.570  -7.717  1.00  0.00    -0.248 NA
ATOM     35  C   UNL     1       5.345   7.605  -7.254  1.00  0.00     0.031 C 
ATOM     36  C   UNL     1       2.149   9.255  -3.741  1.00  0.00     0.029 A 
ATOM     37  N   UNL     1       2.219  10.378  -5.673  1.00  0.00    -0.354 N 
ATOM     38  C   UNL     1       5.004   9.269  -8.790  1.00  0.00     0.074 A 
ATOM     39  C   UNL     1       5.721   8.060  -8.442  1.00  0.00     0.031 C 
ATOM     40  C   UNL     1       1.246  10.244  -3.663  1.00  0.00     0.029 A 
ATOM     41  C   UNL     1       1.317  11.048  -4.877  1.00  0.00     0.049 A 
ATOM     42  H   UNL     1       2.416  10.637  -6.602  1.00  0.00     0.167 HD
ATOM     43  C   UNL     1       5.147   9.935  -9.961  1.00  0.00     0.034 A 
ATOM     44  C   UNL     1       0.660  12.207  -5.079  1.00  0.00     0.034 A 
ATOM     45  C   UNL     1       4.400  11.113 -10.315  1.00  0.00     0.049 A 
ATOM     46  C   UNL     1       0.874  12.951  -6.368  1.00  0.00     0.074 A 
ATOM     47  C   UNL     1       4.441  11.834 -11.496  1.00  0.00     0.029 A 
ATOM     48  N   UNL     1       3.483  11.748  -9.492  1.00  0.00    -0.354 N 
ATOM     49  N   UNL     1       1.602  12.612  -7.404  1.00  0.00    -0.248 NA
ATOM     50  C   UNL     1       0.172  14.233  -6.519  1.00  0.00     0.031 C 
ATOM     51  C   UNL     1       3.566  12.919 -11.377  1.00  0.00     0.029 A 
ATOM     52  C   UNL     1       2.965  12.863 -10.129  1.00  0.00     0.049 A 
ATOM     53  H   UNL     1       3.236  11.450  -8.586  1.00  0.00     0.167 HD
ATOM     54  C   UNL     1       1.434  13.629  -8.336  1.00  0.00     0.074 A 
ATOM     55  C   UNL     1       0.509  14.580  -7.754  1.00  0.00     0.031 C 
ATOM     56  C   UNL     1       2.013  13.777  -9.553  1.00  0.00     0.034 A 
BRANCH  43  57
ATOM     57  C   UNL     1       6.136   9.399 -10.962  1.00  0.00     0.023 A 
ATOM     58  C   UNL     1       5.819   8.246 -11.707  1.00  0.00     0.012 A 
ATOM     59  C   UNL     1       7.345  10.077 -11.216  1.00  0.00     0.148 A 
ATOM     60  C   UNL     1       6.701   7.763 -12.674  1.00  0.00     0.002 A 
ATOM     61  C   UNL     1       8.201   9.611 -12.207  1.00  0.00     0.091 A 
ATOM     62  F   UNL     1       7.636  11.161 -10.482  1.00  0.00    -0.205 F 
ATOM     63  C   UNL     1       7.885   8.450 -12.931  1.00  0.00     0.022 A 
BRANCH  61  64
ATOM     64  S   UNL     1       9.716  10.463 -12.662  1.00  0.00     0.127 S 
ATOM     65  O   UNL     1      10.734   9.535 -12.171  1.00  0.00    -0.237 OA
ATOM     66  O   UNL     1       9.606  10.529 -14.120  1.00  0.00    -0.237 OA
ATOM     67  O   UNL     1       9.671  11.753 -11.989  1.00  0.00    -0.744 OA
ENDBRANCH  61  64
ENDBRANCH  43  57
BRANCH  44  68
ATOM     68  C   UNL     1      -0.254  12.739  -4.027  1.00  0.00     0.023 A 
ATOM     69  C   UNL     1      -1.639  12.787  -4.271  1.00  0.00     0.012 A 
ATOM     70  C   UNL     1       0.238  13.176  -2.781  1.00  0.00     0.148 A 
ATOM     71  C   UNL     1      -2.515  13.279  -3.303  1.00  0.00     0.002 A 
ATOM     72  C   UNL     1      -0.645  13.610  -1.799  1.00  0.00     0.091 A 
ATOM     73  F   UNL     1       1.563  13.151  -2.575  1.00  0.00    -0.205 F 
ATOM     74  C   UNL     1      -2.021  13.678  -2.064  1.00  0.00     0.022 A 
BRANCH  72  75
ATOM     75  S   UNL     1      -0.102  14.011  -0.134  1.00  0.00     0.127 S 
ATOM     76  O   UNL     1      -0.177  15.469  -0.138  1.00  0.00    -0.237 OA
ATOM     77  O   UNL     1      -1.115  13.345   0.686  1.00  0.00    -0.237 OA
ATOM     78  O   UNL     1       1.233  13.442  -0.012  1.00  0.00    -0.744 OA
ENDBRANCH  72  75
ENDBRANCH  44  68
BRANCH  56  79
ATOM     79  C   UNL     1       1.659  15.007 -10.345  1.00  0.00     0.023 A 
ATOM     80  C   UNL     1       2.192  16.254  -9.963  1.00  0.00     0.012 A 
ATOM     81  C   UNL     1       0.864  14.919 -11.505  1.00  0.00     0.148 A 
ATOM     82  C   UNL     1       1.919  17.399 -10.708  1.00  0.00     0.002 A 
ATOM     83  C   UNL     1       0.633  16.056 -12.268  1.00  0.00     0.091 A 
ATOM     84  F   UNL     1       0.354  13.725 -11.840  1.00  0.00    -0.205 F 
ATOM     85  C   UNL     1       1.150  17.299 -11.866  1.00  0.00     0.022 A 
BRANCH  83  86
ATOM     86  S   UNL     1      -0.268  16.013 -13.821  1.00  0.00     0.127 S 
ATOM     87  O   UNL     1      -1.494  16.732 -13.475  1.00  0.00    -0.237 OA
ATOM     88  O   UNL     1       0.630  16.737 -14.721  1.00  0.00    -0.237 OA
ATOM     89  O   UNL     1      -0.445  14.604 -14.146  1.00  0.00    -0.744 OA
ENDBRANCH  83  86
ENDBRANCH  56  79
ENDBRANCH  30  31
ENDBRANCH  23  25
ENDBRANCH  22  23
ENDBRANCH  21  22
ENDBRANCH   1  21
TORSDOF 18
