REMARK SMILES Cc1ccc2oc(CCCC(=O)OCCOC(=O)c3ccc(-c4c5nc(c(-c6cccc(S(=O)(=O)[O-])c6F)c6ccc([nH]6)c(-c6cccc(S(=O)(=O)[O-])c6F)c6nc(c(-c7cccc(S(=O)(=O)[O-])c7F)c7ccc4[nH]7)C=C6)C=C5)cc3)cc(=O)c2c1
REMARK SMILES IDX 14 1 13 2 11 3 12 4 10 5 9 6 8 7 7 8 1 9 2 10 3 11 86 12
REMARK SMILES IDX 4 13 85 14 5 15 83 16 6 17 82 18 84 19 15 20 16 21 17 22
REMARK SMILES IDX 18 23 19 24 20 25 81 26 21 27 80 28 22 29 23 30 24 31 74 32
REMARK SMILES IDX 25 33 79 34 73 35 75 36 26 37 78 38 72 39 71 40 27 42 59 43
REMARK SMILES IDX 39 44 58 45 40 46 43 47 57 48 76 49 41 50 42 51 56 53 77 54
REMARK SMILES IDX 44 55 28 56 29 57 37 58 30 59 32 60 38 61 31 62 33 63 34 64
REMARK SMILES IDX 35 65 36 66 60 67 61 68 69 69 62 70 64 71 70 72 63 73 65 74
REMARK SMILES IDX 66 75 67 76 68 77 45 78 46 79 54 80 47 81 49 82 55 83 48 84
REMARK SMILES IDX 50 85 51 86 52 87 53 88
REMARK H PARENT 75 41 43 52
REMARK Flexibility Score: inf
ROOT
ATOM      1  C   UNL     1       2.735  -4.948  -2.077  1.00  0.00     0.274 C 
ENDROOT
BRANCH   1   2
ATOM      2  O   UNL     1       2.889  -4.026  -0.981  1.00  0.00    -0.462 OA
BRANCH   2   3
ATOM      3  C   UNL     1       2.071  -4.180   0.086  1.00  0.00     0.305 C 
ATOM      4  O   UNL     1       1.170  -5.007   0.161  1.00  0.00    -0.252 OA
BRANCH   3   5
ATOM      5  C   UNL     1       2.359  -3.206   1.212  1.00  0.00     0.123 C 
BRANCH   5   6
ATOM      6  C   UNL     1       3.620  -2.341   1.109  1.00  0.00     0.020 C 
BRANCH   6   7
ATOM      7  C   UNL     1       3.701  -1.333  -0.052  1.00  0.00     0.076 C 
BRANCH   7   8
ATOM      8  C   UNL     1       2.468  -0.487  -0.221  1.00  0.00     0.108 A 
ATOM      9  C   UNL     1      -3.801   1.039   0.076  1.00  0.00     0.044 C 
ATOM     10  C   UNL     1      -2.432   0.452  -0.102  1.00  0.00    -0.050 A 
ATOM     11  C   UNL     1      -2.263  -0.928  -0.286  1.00  0.00     0.007 A 
ATOM     12  C   UNL     1      -1.306   1.288  -0.091  1.00  0.00     0.019 A 
ATOM     13  C   UNL     1      -0.989  -1.467  -0.466  1.00  0.00     0.048 A 
ATOM     14  C   UNL     1      -0.032   0.739  -0.248  1.00  0.00     0.065 A 
ATOM     15  C   UNL     1       0.123  -0.628  -0.446  1.00  0.00     0.138 A 
ATOM     16  C   UNL     1       1.180   1.570  -0.154  1.00  0.00     0.192 A 
ATOM     17  O   UNL     1       1.351  -1.208  -0.615  1.00  0.00    -0.461 OA
ATOM     18  C   UNL     1       2.457   0.840  -0.031  1.00  0.00     0.095 A 
ATOM     19  O   UNL     1       1.141   2.793  -0.124  1.00  0.00    -0.289 OA
ENDBRANCH   7   8
ENDBRANCH   6   7
ENDBRANCH   5   6
ENDBRANCH   3   5
ENDBRANCH   2   3
ENDBRANCH   1   2
BRANCH   1  20
ATOM     20  C   UNL     1       3.994  -5.803  -2.226  1.00  0.00     0.275 C 
BRANCH  20  21
ATOM     21  O   UNL     1       4.153  -6.674  -1.093  1.00  0.00    -0.458 OA
BRANCH  21  22
ATOM     22  C   UNL     1       4.916  -6.176  -0.092  1.00  0.00     0.338 C 
ATOM     23  O   UNL     1       5.535  -5.126  -0.081  1.00  0.00    -0.246 OA
BRANCH  22  24
ATOM     24  C   UNL     1       4.775  -7.035   1.091  1.00  0.00     0.060 A 
ATOM     25  C   UNL     1       4.050  -6.540   2.175  1.00  0.00     0.016 A 
ATOM     26  C   UNL     1       5.410  -8.274   1.166  1.00  0.00     0.016 A 
ATOM     27  C   UNL     1       3.967  -7.269   3.355  1.00  0.00     0.010 A 
ATOM     28  C   UNL     1       5.316  -9.014   2.348  1.00  0.00     0.010 A 
ATOM     29  C   UNL     1       4.610  -8.508   3.455  1.00  0.00    -0.014 A 
BRANCH  29  30
ATOM     30  C   UNL     1       4.580  -9.245   4.740  1.00  0.00     0.031 A 
ATOM     31  C   UNL     1       5.825  -9.338   5.575  1.00  0.00     0.074 A 
ATOM     32  C   UNL     1       3.436  -9.821   5.153  1.00  0.00     0.049 A 
ATOM     33  N   UNL     1       6.021  -9.987   6.692  1.00  0.00    -0.248 NA
ATOM     34  C   UNL     1       7.007  -8.609   5.086  1.00  0.00     0.031 C 
ATOM     35  C   UNL     1       2.165  -9.785   4.430  1.00  0.00     0.029 A 
ATOM     36  N   UNL     1       3.163 -10.563   6.274  1.00  0.00    -0.354 N 
ATOM     37  C   UNL     1       7.356  -9.786   7.018  1.00  0.00     0.074 A 
ATOM     38  C   UNL     1       7.925  -8.952   5.980  1.00  0.00     0.031 C 
ATOM     39  C   UNL     1       1.249 -10.485   5.119  1.00  0.00     0.029 A 
ATOM     40  C   UNL     1       1.877 -11.047   6.311  1.00  0.00     0.049 A 
ATOM     41  H   UNL     1       3.824 -10.732   6.984  1.00  0.00     0.167 HD
ATOM     42  C   UNL     1       8.043 -10.243   8.092  1.00  0.00     0.034 A 
ATOM     43  C   UNL     1       1.279 -11.869   7.196  1.00  0.00     0.034 A 
ATOM     44  C   UNL     1       7.460 -11.032   9.143  1.00  0.00     0.049 A 
ATOM     45  C   UNL     1       2.063 -12.354   8.385  1.00  0.00     0.074 A 
ATOM     46  C   UNL     1       8.062 -11.512  10.293  1.00  0.00     0.029 A 
ATOM     47  N   UNL     1       6.140 -11.454   9.176  1.00  0.00    -0.354 N 
ATOM     48  N   UNL     1       3.300 -12.080   8.725  1.00  0.00    -0.248 NA
ATOM     49  C   UNL     1       1.363 -13.237   9.329  1.00  0.00     0.031 C 
ATOM     50  C   UNL     1       7.106 -12.233  11.018  1.00  0.00     0.029 A 
ATOM     51  C   UNL     1       5.906 -12.190  10.325  1.00  0.00     0.049 A 
ATOM     52  H   UNL     1       5.467 -11.259   8.484  1.00  0.00     0.167 HD
ATOM     53  C   UNL     1       3.517 -12.731   9.933  1.00  0.00     0.074 A 
ATOM     54  C   UNL     1       2.276 -13.396  10.278  1.00  0.00     0.031 C 
ATOM     55  C   UNL     1       4.647 -12.792  10.681  1.00  0.00     0.034 A 
BRANCH  42  56
ATOM     56  C   UNL     1       9.497  -9.873   8.200  1.00  0.00     0.023 A 
ATOM     57  C   UNL     1       9.855  -8.564   8.580  1.00  0.00     0.012 A 
ATOM     58  C   UNL     1      10.506 -10.829   7.975  1.00  0.00     0.148 A 
ATOM     59  C   UNL     1      11.197  -8.205   8.710  1.00  0.00     0.002 A 
ATOM     60  C   UNL     1      11.840 -10.474   8.143  1.00  0.00     0.091 A 
ATOM     61  F   UNL     1      10.146 -12.061   7.587  1.00  0.00    -0.205 F 
ATOM     62  C   UNL     1      12.187  -9.162   8.502  1.00  0.00     0.022 A 
BRANCH  60  63
ATOM     63  S   UNL     1      13.181 -11.656   7.963  1.00  0.00     0.127 S 
ATOM     64  O   UNL     1      13.742 -11.272   6.669  1.00  0.00    -0.237 OA
ATOM     65  O   UNL     1      14.030 -11.341   9.113  1.00  0.00    -0.237 OA
ATOM     66  O   UNL     1      12.561 -12.973   8.015  1.00  0.00    -0.744 OA
ENDBRANCH  60  63
ENDBRANCH  42  56
BRANCH  43  67
ATOM     67  C   UNL     1      -0.150 -12.245   7.009  1.00  0.00     0.023 A 
ATOM     68  C   UNL     1      -1.121 -11.737   7.893  1.00  0.00     0.012 A 
ATOM     69  C   UNL     1      -0.559 -13.066   5.939  1.00  0.00     0.148 A 
ATOM     70  C   UNL     1      -2.469 -12.057   7.729  1.00  0.00     0.002 A 
ATOM     71  C   UNL     1      -1.909 -13.336   5.749  1.00  0.00     0.091 A 
ATOM     72  F   UNL     1       0.382 -13.560   5.121  1.00  0.00    -0.205 F 
ATOM     73  C   UNL     1      -2.865 -12.844   6.651  1.00  0.00     0.022 A 
BRANCH  71  74
ATOM     74  S   UNL     1      -2.511 -14.228   4.310  1.00  0.00     0.127 S 
ATOM     75  O   UNL     1      -2.811 -15.540   4.875  1.00  0.00    -0.237 OA
ATOM     76  O   UNL     1      -3.683 -13.439   3.928  1.00  0.00    -0.237 OA
ATOM     77  O   UNL     1      -1.422 -14.182   3.343  1.00  0.00    -0.744 OA
ENDBRANCH  71  74
ENDBRANCH  43  67
BRANCH  55  78
ATOM     78  C   UNL     1       4.591 -13.577  11.963  1.00  0.00     0.023 A 
ATOM     79  C   UNL     1       4.597 -14.985  11.918  1.00  0.00     0.012 A 
ATOM     80  C   UNL     1       4.615 -12.924  13.211  1.00  0.00     0.148 A 
ATOM     81  C   UNL     1       4.601 -15.731  13.095  1.00  0.00     0.002 A 
ATOM     82  C   UNL     1       4.661 -13.674  14.380  1.00  0.00     0.091 A 
ATOM     83  F   UNL     1       4.587 -11.583  13.233  1.00  0.00    -0.205 F 
ATOM     84  C   UNL     1       4.645 -15.077  14.325  1.00  0.00     0.022 A 
BRANCH  82  85
ATOM     85  S   UNL     1       4.812 -12.910  15.999  1.00  0.00     0.127 S 
ATOM     86  O   UNL     1       3.444 -13.007  16.504  1.00  0.00    -0.237 OA
ATOM     87  O   UNL     1       5.774 -13.785  16.672  1.00  0.00    -0.237 OA
ATOM     88  O   UNL     1       5.300 -11.559  15.755  1.00  0.00    -0.744 OA
ENDBRANCH  82  85
ENDBRANCH  55  78
ENDBRANCH  29  30
ENDBRANCH  22  24
ENDBRANCH  21  22
ENDBRANCH  20  21
ENDBRANCH   1  20
TORSDOF 17
