REMARK SMILES Cc1ccn2c([C@H]3C[C@@H]3C(=O)OCCOC(=O)c3ccc(-c4c5nc(c(-c6cccc(S(=O)(=O)[O-])c6F)c6ccc([nH]6)c(-c6cccc(S(=O)(=O)[O-])c6F)c6nc(c(-c7cccc(S(=O)(=O)[O-])c7F)c7ccc4[nH]7)C=C6)C=C5)cc3)nnc2c1
REMARK SMILES IDX 14 1 13 2 12 3 10 4 11 5 9 6 7 7 8 8 6 9 1 10 2 11 3 12
REMARK SMILES IDX 84 13 4 14 83 15 5 16 82 17 81 18 15 19 16 20 17 21 18 22
REMARK SMILES IDX 19 23 80 24 20 25 79 26 21 27 22 28 23 29 73 30 24 31 78 32
REMARK SMILES IDX 72 33 74 34 25 35 77 36 71 37 70 38 26 40 58 41 38 42 57 43
REMARK SMILES IDX 39 44 42 45 56 46 75 47 40 48 41 49 55 51 76 52 43 53 27 54
REMARK SMILES IDX 28 55 36 56 29 57 31 58 37 59 30 60 32 61 33 62 34 63 35 64
REMARK SMILES IDX 59 65 60 66 68 67 61 68 63 69 69 70 62 71 64 72 65 73 66 74
REMARK SMILES IDX 67 75 44 76 45 77 53 78 46 79 48 80 54 81 47 82 49 83 50 84
REMARK SMILES IDX 51 85 52 86
REMARK H PARENT 74 39 42 50
REMARK Flexibility Score: inf
ROOT
ATOM      1  C   UNL     1       0.492  -5.581   0.889  1.00  0.00     0.275 C 
ENDROOT
BRANCH   1   2
ATOM      2  C   UNL     1       1.457  -4.637   1.616  1.00  0.00     0.274 C 
BRANCH   2   3
ATOM      3  O   UNL     1       1.331  -4.838   3.039  1.00  0.00    -0.462 OA
BRANCH   3   4
ATOM      4  C   UNL     1       0.944  -3.775   3.795  1.00  0.00     0.309 C 
ATOM      5  O   UNL     1       0.814  -2.622   3.410  1.00  0.00    -0.252 OA
BRANCH   4   6
ATOM      6  C   UNL     1       0.671  -4.195   5.188  1.00  0.00     0.110 C 
ATOM      7  C   UNL     1       0.577  -3.179   6.320  1.00  0.00     0.073 C 
ATOM      8  C   UNL     1       1.734  -4.133   6.241  1.00  0.00     0.028 C 
BRANCH   7   9
ATOM      9  C   UNL     1      -0.500  -3.385   7.378  1.00  0.00     0.141 A 
ATOM     10  C   UNL     1      -2.630  -0.277  11.487  1.00  0.00     0.044 C 
ATOM     11  C   UNL     1      -2.038  -1.139  10.413  1.00  0.00    -0.046 A 
ATOM     12  C   UNL     1      -0.640  -0.893  10.060  1.00  0.00     0.022 A 
ATOM     13  C   UNL     1      -2.742  -2.102   9.779  1.00  0.00     0.053 A 
ATOM     14  C   UNL     1      -0.099  -1.515   9.002  1.00  0.00     0.095 A 
ATOM     15  C   UNL     1      -2.084  -2.921   8.818  1.00  0.00     0.161 A 
ATOM     16  N   UNL     1      -0.835  -2.509   8.381  1.00  0.00    -0.286 N 
ATOM     17  N   UNL     1      -2.348  -4.100   8.293  1.00  0.00    -0.130 NA
ATOM     18  N   UNL     1      -1.299  -4.432   7.450  1.00  0.00    -0.134 NA
ENDBRANCH   7   9
ENDBRANCH   4   6
ENDBRANCH   3   4
ENDBRANCH   2   3
ENDBRANCH   1   2
BRANCH   1  19
ATOM     19  O   UNL     1      -0.839  -5.060   1.030  1.00  0.00    -0.458 OA
BRANCH  19  20
ATOM     20  C   UNL     1      -1.565  -5.611   2.041  1.00  0.00     0.338 C 
ATOM     21  O   UNL     1      -1.476  -6.739   2.454  1.00  0.00    -0.246 OA
BRANCH  20  22
ATOM     22  C   UNL     1      -2.231  -4.488   2.757  1.00  0.00     0.060 A 
ATOM     23  C   UNL     1      -2.440  -3.226   2.183  1.00  0.00     0.016 A 
ATOM     24  C   UNL     1      -2.457  -4.672   4.113  1.00  0.00     0.016 A 
ATOM     25  C   UNL     1      -2.725  -2.118   2.997  1.00  0.00     0.010 A 
ATOM     26  C   UNL     1      -2.739  -3.565   4.902  1.00  0.00     0.010 A 
ATOM     27  C   UNL     1      -2.793  -2.267   4.384  1.00  0.00    -0.014 A 
BRANCH  27  28
ATOM     28  C   UNL     1      -3.286  -1.194   5.272  1.00  0.00     0.031 A 
ATOM     29  C   UNL     1      -4.754  -1.330   5.443  1.00  0.00     0.074 A 
ATOM     30  C   UNL     1      -2.627  -0.217   5.949  1.00  0.00     0.049 A 
ATOM     31  N   UNL     1      -5.642  -0.763   4.691  1.00  0.00    -0.248 NA
ATOM     32  C   UNL     1      -5.299  -2.338   6.364  1.00  0.00     0.031 C 
ATOM     33  C   UNL     1      -1.187   0.026   6.054  1.00  0.00     0.029 A 
ATOM     34  N   UNL     1      -3.139   0.768   6.768  1.00  0.00    -0.354 N 
ATOM     35  C   UNL     1      -6.856  -1.137   5.241  1.00  0.00     0.074 A 
ATOM     36  C   UNL     1      -6.599  -2.290   6.062  1.00  0.00     0.031 C 
ATOM     37  C   UNL     1      -0.935   0.958   7.015  1.00  0.00     0.029 A 
ATOM     38  C   UNL     1      -2.191   1.510   7.501  1.00  0.00     0.049 A 
ATOM     39  H   UNL     1      -4.106   0.942   6.836  1.00  0.00     0.167 HD
ATOM     40  C   UNL     1      -7.892  -0.258   5.286  1.00  0.00     0.034 A 
ATOM     41  C   UNL     1      -2.447   2.523   8.386  1.00  0.00     0.034 A 
ATOM     42  C   UNL     1      -7.617   0.934   4.532  1.00  0.00     0.049 A 
ATOM     43  C   UNL     1      -3.702   3.115   7.869  1.00  0.00     0.074 A 
ATOM     44  C   UNL     1      -7.550   1.324   3.214  1.00  0.00     0.029 A 
ATOM     45  N   UNL     1      -6.973   1.885   5.274  1.00  0.00    -0.354 N 
ATOM     46  N   UNL     1      -3.735   3.862   6.803  1.00  0.00    -0.248 NA
ATOM     47  C   UNL     1      -4.996   2.793   8.463  1.00  0.00     0.031 C 
ATOM     48  C   UNL     1      -6.730   2.493   3.182  1.00  0.00     0.029 A 
ATOM     49  C   UNL     1      -6.327   2.788   4.480  1.00  0.00     0.049 A 
ATOM     50  H   UNL     1      -6.974   1.914   6.258  1.00  0.00     0.167 HD
ATOM     51  C   UNL     1      -5.025   3.717   6.353  1.00  0.00     0.074 A 
ATOM     52  C   UNL     1      -5.793   3.266   7.503  1.00  0.00     0.031 C 
ATOM     53  C   UNL     1      -5.276   3.612   5.022  1.00  0.00     0.034 A 
BRANCH  40  54
ATOM     54  C   UNL     1      -8.909  -0.217   6.398  1.00  0.00     0.023 A 
ATOM     55  C   UNL     1     -10.090   0.517   6.171  1.00  0.00     0.012 A 
ATOM     56  C   UNL     1      -8.640  -0.615   7.727  1.00  0.00     0.148 A 
ATOM     57  C   UNL     1     -10.968   0.824   7.216  1.00  0.00     0.002 A 
ATOM     58  C   UNL     1      -9.559  -0.392   8.743  1.00  0.00     0.091 A 
ATOM     59  F   UNL     1      -7.424  -1.066   8.055  1.00  0.00    -0.205 F 
ATOM     60  C   UNL     1     -10.718   0.346   8.498  1.00  0.00     0.022 A 
BRANCH  58  61
ATOM     61  S   UNL     1      -9.284  -1.027  10.400  1.00  0.00     0.127 S 
ATOM     62  O   UNL     1      -8.907   0.186  11.120  1.00  0.00    -0.237 OA
ATOM     63  O   UNL     1     -10.600  -1.569  10.736  1.00  0.00    -0.237 OA
ATOM     64  O   UNL     1      -8.241  -2.035  10.257  1.00  0.00    -0.744 OA
ENDBRANCH  58  61
ENDBRANCH  40  54
BRANCH  41  65
ATOM     65  C   UNL     1      -1.818   3.264   9.546  1.00  0.00     0.023 A 
ATOM     66  C   UNL     1      -2.504   4.406  10.045  1.00  0.00     0.012 A 
ATOM     67  C   UNL     1      -0.837   2.719  10.388  1.00  0.00     0.148 A 
ATOM     68  C   UNL     1      -2.378   4.849  11.366  1.00  0.00     0.002 A 
ATOM     69  C   UNL     1      -0.756   3.118  11.736  1.00  0.00     0.091 A 
ATOM     70  F   UNL     1      -0.011   1.800   9.882  1.00  0.00    -0.205 F 
ATOM     71  C   UNL     1      -1.544   4.166  12.231  1.00  0.00     0.022 A 
BRANCH  69  72
ATOM     72  S   UNL     1       0.193   2.214  12.978  1.00  0.00     0.127 S 
ATOM     73  O   UNL     1       0.873   3.288  13.701  1.00  0.00    -0.237 OA
ATOM     74  O   UNL     1      -0.865   1.545  13.732  1.00  0.00    -0.237 OA
ATOM     75  O   UNL     1       1.076   1.330  12.229  1.00  0.00    -0.744 OA
ENDBRANCH  69  72
ENDBRANCH  41  65
BRANCH  53  76
ATOM     76  C   UNL     1      -4.277   4.202   4.077  1.00  0.00     0.023 A 
ATOM     77  C   UNL     1      -3.007   3.636   3.854  1.00  0.00     0.012 A 
ATOM     78  C   UNL     1      -4.690   5.301   3.309  1.00  0.00     0.148 A 
ATOM     79  C   UNL     1      -2.164   4.160   2.870  1.00  0.00     0.002 A 
ATOM     80  C   UNL     1      -3.870   5.790   2.304  1.00  0.00     0.091 A 
ATOM     81  F   UNL     1      -5.897   5.829   3.562  1.00  0.00    -0.205 F 
ATOM     82  C   UNL     1      -2.603   5.225   2.084  1.00  0.00     0.022 A 
BRANCH  80  83
ATOM     83  S   UNL     1      -4.419   7.080   1.187  1.00  0.00     0.127 S 
ATOM     84  O   UNL     1      -3.526   8.185   1.530  1.00  0.00    -0.237 OA
ATOM     85  O   UNL     1      -4.173   6.476  -0.123  1.00  0.00    -0.237 OA
ATOM     86  O   UNL     1      -5.828   7.305   1.487  1.00  0.00    -0.744 OA
ENDBRANCH  80  83
ENDBRANCH  53  76
ENDBRANCH  27  28
ENDBRANCH  20  22
ENDBRANCH  19  20
ENDBRANCH   1  19
TORSDOF 15
