REMARK SMILES CC1(C)[C@@]2(C(=O)OCCOC(=O)c3ccc(-c4c5nc(c(-c6cccc(S(=O)(=O)[O-])c6F)c6ccc([nH]6)c(-c6cccc(S(=O)(=O)[O-])c6F)c6nc(c(-c7cccc(S(=O)(=O)[O-])c7F)c7ccc4[nH]7)C=C6)C=C5)cc3)CC[C@]1(C)/C(=N/NC(=O)c1ccc(Cl)cc1)C2
REMARK SMILES IDX 9 1 8 2 7 3 5 4 6 5 4 6 1 7 2 8 3 9 78 10 76 11 92 12 77 13
REMARK SMILES IDX 79 14 80 15 81 16 82 17 83 18 84 20 85 21 86 22 91 23 87 24
REMARK SMILES IDX 90 25 88 26 89 27 10 28 11 29 12 30 13 31 14 32 75 33 15 34
REMARK SMILES IDX 74 35 16 36 17 37 18 38 68 39 19 40 73 41 67 42 69 43 20 44
REMARK SMILES IDX 72 45 66 46 65 47 21 49 53 50 33 51 52 52 34 53 37 54 51 55
REMARK SMILES IDX 70 56 35 57 36 58 50 60 71 61 38 62 22 63 23 64 31 65 24 66
REMARK SMILES IDX 26 67 32 68 25 69 27 70 28 71 29 72 30 73 54 74 55 75 63 76
REMARK SMILES IDX 56 77 58 78 64 79 57 80 59 81 60 82 61 83 62 84 39 85 40 86
REMARK SMILES IDX 48 87 41 88 43 89 49 90 42 91 44 92 45 93 46 94 47 95
REMARK H PARENT 82 19 69 48 37 59
REMARK Flexibility Score: inf
ROOT
ATOM      1  C   UNL     1       3.611   0.618   4.989  1.00  0.00     0.275 C 
ENDROOT
BRANCH   1   2
ATOM      2  C   UNL     1       2.421   1.374   4.402  1.00  0.00     0.274 C 
BRANCH   2   3
ATOM      3  O   UNL     1       1.525   0.446   3.749  1.00  0.00    -0.462 OA
BRANCH   3   4
ATOM      4  C   UNL     1       1.243   0.653   2.432  1.00  0.00     0.313 C 
ATOM      5  O   UNL     1       1.738   1.534   1.743  1.00  0.00    -0.252 OA
BRANCH   4   6
ATOM      6  C   UNL     1       0.112  -0.245   1.960  1.00  0.00     0.079 C 
ATOM      7  C   UNL     1       0.469  -0.041  -0.612  1.00  0.00     0.013 C 
ATOM      8  C   UNL     1       0.179  -0.968   0.582  1.00  0.00    -0.008 C 
ATOM      9  C   UNL     1       1.164  -2.159   0.507  1.00  0.00     0.013 C 
ATOM     10  C   UNL     1      -1.309  -1.454   0.704  1.00  0.00     0.014 C 
ATOM     11  C   UNL     1      -1.165   0.652   1.827  1.00  0.00     0.021 C 
ATOM     12  C   UNL     1      -0.207  -1.413   2.921  1.00  0.00     0.073 C 
ATOM     13  C   UNL     1      -2.110  -0.166   0.936  1.00  0.00     0.014 C 
ATOM     14  C   UNL     1      -1.832  -2.327  -0.417  1.00  0.00     0.018 C 
ATOM     15  C   UNL     1      -1.262  -2.110   2.107  1.00  0.00     0.046 C 
ATOM     16  N   UNL     1      -2.032  -3.110   2.392  1.00  0.00    -0.181 NA
BRANCH  16  17
ATOM     17  N   UNL     1      -1.978  -3.850   3.531  1.00  0.00    -0.243 N 
ATOM     18  C   UNL     1      -1.833  -3.587   4.875  1.00  0.00     0.271 C 
ATOM     19  H   UNL     1      -2.065  -4.814   3.349  1.00  0.00     0.194 HD
ATOM     20  O   UNL     1      -1.739  -4.522   5.673  1.00  0.00    -0.267 OA
BRANCH  18  21
ATOM     21  C   UNL     1      -1.818  -2.229   5.433  1.00  0.00     0.041 A 
ATOM     22  C   UNL     1      -0.767  -1.900   6.306  1.00  0.00     0.015 A 
ATOM     23  C   UNL     1      -2.783  -1.275   5.094  1.00  0.00     0.015 A 
ATOM     24  C   UNL     1      -0.631  -0.591   6.771  1.00  0.00     0.021 A 
ATOM     25  C   UNL     1      -2.650   0.033   5.574  1.00  0.00     0.021 A 
ATOM     26  C   UNL     1      -1.566   0.372   6.390  1.00  0.00     0.041 A 
ATOM     27  Cl  UNL     1      -1.359   2.001   6.902  1.00  0.00    -0.084 Cl
ENDBRANCH  18  21
ENDBRANCH  16  17
ENDBRANCH   4   6
ENDBRANCH   3   4
ENDBRANCH   2   3
ENDBRANCH   1   2
BRANCH   1  28
ATOM     28  O   UNL     1       4.421   0.184   3.888  1.00  0.00    -0.458 OA
BRANCH  28  29
ATOM     29  C   UNL     1       4.659  -1.139   3.774  1.00  0.00     0.338 C 
ATOM     30  O   UNL     1       4.517  -1.994   4.639  1.00  0.00    -0.246 OA
BRANCH  29  31
ATOM     31  C   UNL     1       5.006  -1.421   2.367  1.00  0.00     0.060 A 
ATOM     32  C   UNL     1       4.303  -0.760   1.361  1.00  0.00     0.016 A 
ATOM     33  C   UNL     1       5.923  -2.411   2.025  1.00  0.00     0.016 A 
ATOM     34  C   UNL     1       4.428  -1.151   0.036  1.00  0.00     0.010 A 
ATOM     35  C   UNL     1       6.146  -2.706   0.672  1.00  0.00     0.010 A 
ATOM     36  C   UNL     1       5.379  -2.100  -0.343  1.00  0.00    -0.014 A 
BRANCH  36  37
ATOM     37  C   UNL     1       5.549  -2.465  -1.781  1.00  0.00     0.031 A 
ATOM     38  C   UNL     1       5.568  -3.912  -2.194  1.00  0.00     0.074 A 
ATOM     39  C   UNL     1       5.686  -1.514  -2.730  1.00  0.00     0.049 A 
ATOM     40  N   UNL     1       6.020  -4.447  -3.297  1.00  0.00    -0.248 NA
ATOM     41  C   UNL     1       5.028  -4.888  -1.232  1.00  0.00     0.031 C 
ATOM     42  C   UNL     1       5.625  -0.067  -2.507  1.00  0.00     0.029 A 
ATOM     43  N   UNL     1       5.909  -1.621  -4.083  1.00  0.00    -0.354 N 
ATOM     44  C   UNL     1       5.934  -5.822  -3.114  1.00  0.00     0.074 A 
ATOM     45  C   UNL     1       5.337  -6.040  -1.813  1.00  0.00     0.031 C 
ATOM     46  C   UNL     1       5.751   0.572  -3.677  1.00  0.00     0.029 A 
ATOM     47  C   UNL     1       6.049  -0.405  -4.714  1.00  0.00     0.049 A 
ATOM     48  H   UNL     1       5.964  -2.484  -4.555  1.00  0.00     0.167 HD
ATOM     49  C   UNL     1       6.327  -6.807  -3.954  1.00  0.00     0.034 A 
ATOM     50  C   UNL     1       6.451  -0.093  -5.962  1.00  0.00     0.034 A 
ATOM     51  C   UNL     1       6.812  -6.578  -5.288  1.00  0.00     0.049 A 
ATOM     52  C   UNL     1       6.867  -1.200  -6.884  1.00  0.00     0.074 A 
ATOM     53  C   UNL     1       7.227  -7.507  -6.227  1.00  0.00     0.029 A 
ATOM     54  N   UNL     1       6.914  -5.332  -5.888  1.00  0.00    -0.354 N 
ATOM     55  N   UNL     1       6.844  -2.494  -6.678  1.00  0.00    -0.248 NA
ATOM     56  C   UNL     1       7.386  -0.807  -8.201  1.00  0.00     0.031 C 
ATOM     57  C   UNL     1       7.570  -6.822  -7.397  1.00  0.00     0.029 A 
ATOM     58  C   UNL     1       7.370  -5.467  -7.187  1.00  0.00     0.049 A 
ATOM     59  H   UNL     1       6.693  -4.477  -5.453  1.00  0.00     0.167 HD
ATOM     60  C   UNL     1       7.352  -3.071  -7.834  1.00  0.00     0.074 A 
ATOM     61  C   UNL     1       7.635  -1.987  -8.754  1.00  0.00     0.031 C 
ATOM     62  C   UNL     1       7.599  -4.377  -8.098  1.00  0.00     0.034 A 
BRANCH  49  63
ATOM     63  C   UNL     1       6.247  -8.226  -3.461  1.00  0.00     0.023 A 
ATOM     64  C   UNL     1       5.008  -8.895  -3.438  1.00  0.00     0.012 A 
ATOM     65  C   UNL     1       7.415  -8.916  -3.079  1.00  0.00     0.148 A 
ATOM     66  C   UNL     1       4.930 -10.225  -3.023  1.00  0.00     0.002 A 
ATOM     67  C   UNL     1       7.334 -10.252  -2.700  1.00  0.00     0.091 A 
ATOM     68  F   UNL     1       8.580  -8.253  -3.078  1.00  0.00    -0.205 F 
ATOM     69  C   UNL     1       6.092 -10.905  -2.665  1.00  0.00     0.022 A 
BRANCH  67  70
ATOM     70  S   UNL     1       8.792 -11.220  -2.293  1.00  0.00     0.127 S 
ATOM     71  O   UNL     1       8.743 -11.231  -0.832  1.00  0.00    -0.237 OA
ATOM     72  O   UNL     1       8.498 -12.509  -2.921  1.00  0.00    -0.237 OA
ATOM     73  O   UNL     1       9.916 -10.507  -2.883  1.00  0.00    -0.744 OA
ENDBRANCH  67  70
ENDBRANCH  49  63
BRANCH  50  74
ATOM     74  C   UNL     1       6.511   1.337  -6.380  1.00  0.00     0.023 A 
ATOM     75  C   UNL     1       5.603   1.815  -7.343  1.00  0.00     0.012 A 
ATOM     76  C   UNL     1       7.398   2.245  -5.767  1.00  0.00     0.148 A 
ATOM     77  C   UNL     1       5.575   3.170  -7.683  1.00  0.00     0.002 A 
ATOM     78  C   UNL     1       7.313   3.603  -6.054  1.00  0.00     0.091 A 
ATOM     79  F   UNL     1       8.288   1.773  -4.882  1.00  0.00    -0.205 F 
ATOM     80  C   UNL     1       6.413   4.066  -7.023  1.00  0.00     0.022 A 
BRANCH  78  81
ATOM     81  S   UNL     1       8.227   4.815  -5.092  1.00  0.00     0.127 S 
ATOM     82  O   UNL     1       9.415   5.023  -5.914  1.00  0.00    -0.237 OA
ATOM     83  O   UNL     1       7.301   5.948  -5.051  1.00  0.00    -0.237 OA
ATOM     84  O   UNL     1       8.438   4.180  -3.797  1.00  0.00    -0.744 OA
ENDBRANCH  78  81
ENDBRANCH  50  74
BRANCH  62  85
ATOM     85  C   UNL     1       8.205  -4.704  -9.433  1.00  0.00     0.023 A 
ATOM     86  C   UNL     1       9.585  -4.502  -9.628  1.00  0.00     0.012 A 
ATOM     87  C   UNL     1       7.431  -5.269 -10.463  1.00  0.00     0.148 A 
ATOM     88  C   UNL     1      10.184  -4.841 -10.840  1.00  0.00     0.002 A 
ATOM     89  C   UNL     1       8.041  -5.636 -11.657  1.00  0.00     0.091 A 
ATOM     90  F   UNL     1       6.114  -5.428 -10.262  1.00  0.00    -0.205 F 
ATOM     91  C   UNL     1       9.415  -5.417 -11.849  1.00  0.00     0.022 A 
BRANCH  89  92
ATOM     92  S   UNL     1       7.137  -6.449 -12.979  1.00  0.00     0.127 S 
ATOM     93  O   UNL     1       6.928  -5.348 -13.917  1.00  0.00    -0.237 OA
ATOM     94  O   UNL     1       8.088  -7.465 -13.432  1.00  0.00    -0.237 OA
ATOM     95  O   UNL     1       5.933  -6.987 -12.361  1.00  0.00    -0.744 OA
ENDBRANCH  89  92
ENDBRANCH  62  85
ENDBRANCH  36  37
ENDBRANCH  29  31
ENDBRANCH  28  29
ENDBRANCH   1  28
TORSDOF 16
