REMARK SMILES Cc1[nH]c2c(C(=O)N3CC[C@H](O)C[C@@H]3C(=O)OCCOC(=O)c3ccc(-c4c5nc(c(-c6cccc(S(=O)(=O)[O-])c6F)c6ccc([nH]6)c(-c6cccc(S(=O)(=O)[O-])c6F)c6nc(c(-c7cccc(S(=O)(=O)[O-])c7F)c7ccc4[nH]7)C=C6)C=C5)cc3)cccc2c1C
REMARK SMILES IDX 19 1 18 2 17 3 15 4 16 5 14 6 8 7 9 8 10 9 13 10 11 11 6 12
REMARK SMILES IDX 7 13 5 14 1 15 2 16 3 17 90 18 4 19 89 21 91 22 88 23 86 24
REMARK SMILES IDX 87 25 12 26 20 28 21 29 22 30 23 31 24 32 85 33 25 34 84 35
REMARK SMILES IDX 26 36 27 37 28 38 78 39 29 40 83 41 77 42 79 43 30 44 82 45
REMARK SMILES IDX 76 46 75 47 31 49 63 50 43 51 62 52 44 53 47 54 61 55 80 56
REMARK SMILES IDX 45 57 46 58 60 60 81 61 48 62 32 63 33 64 41 65 34 66 36 67
REMARK SMILES IDX 42 68 35 69 37 70 38 71 39 72 40 73 64 74 65 75 73 76 66 77
REMARK SMILES IDX 68 78 74 79 67 80 69 81 70 82 71 83 72 84 49 85 50 86 58 87
REMARK SMILES IDX 51 88 53 89 59 90 52 91 54 92 55 93 56 94 57 95
REMARK H PARENT 3 20 12 27 79 48 47 59
REMARK Flexibility Score: inf
ROOT
ATOM      1  C   UNL     1      -3.881  -5.039   2.298  1.00  0.00     0.275 C 
ENDROOT
BRANCH   1   2
ATOM      2  C   UNL     1      -3.180  -3.830   1.673  1.00  0.00     0.274 C 
BRANCH   2   3
ATOM      3  O   UNL     1      -2.009  -4.211   0.923  1.00  0.00    -0.461 OA
BRANCH   3   4
ATOM      4  C   UNL     1      -0.815  -4.102   1.562  1.00  0.00     0.329 C 
ATOM      5  O   UNL     1      -0.689  -3.623   2.684  1.00  0.00    -0.250 OA
BRANCH   4   6
ATOM      6  C   UNL     1       0.386  -4.519   0.695  1.00  0.00     0.198 C 
ATOM      7  N   UNL     1       0.628  -3.515  -0.340  1.00  0.00    -0.325 N 
ATOM      8  C   UNL     1      -0.042  -3.682  -1.629  1.00  0.00     0.123 C 
ATOM      9  C   UNL     1       0.129  -5.099  -2.173  1.00  0.00     0.053 C 
ATOM     10  C   UNL     1       0.428  -5.952   0.167  1.00  0.00     0.069 C 
ATOM     11  C   UNL     1      -0.304  -6.151  -1.152  1.00  0.00     0.118 C 
BRANCH   7  12
ATOM     12  C   UNL     1       1.734  -2.694  -0.173  1.00  0.00     0.256 C 
ATOM     13  O   UNL     1       2.825  -3.153   0.157  1.00  0.00    -0.269 OA
BRANCH  12  14
ATOM     14  C   UNL     1       1.554  -1.220  -0.263  1.00  0.00     0.064 A 
ATOM     15  C   UNL     1      -3.354  -0.366  -0.097  1.00  0.00     0.064 C 
ATOM     16  C   UNL     1      -1.902  -0.060  -0.111  1.00  0.00     0.016 A 
ATOM     17  N   UNL     1      -0.970  -1.061  -0.068  1.00  0.00    -0.358 N 
ATOM     18  C   UNL     1      -1.214   1.140  -0.119  1.00  0.00    -0.023 A 
ATOM     19  C   UNL     1       0.306  -0.569  -0.194  1.00  0.00     0.059 A 
ATOM     20  H   UNL     1      -1.187  -2.015   0.041  1.00  0.00     0.166 HD
ATOM     21  C   UNL     1       0.184   0.823  -0.175  1.00  0.00     0.003 A 
ATOM     22  C   UNL     1      -1.797   2.506  -0.072  1.00  0.00     0.047 C 
ATOM     23  C   UNL     1       1.357   1.606  -0.195  1.00  0.00     0.010 A 
ATOM     24  C   UNL     1       2.701  -0.406  -0.275  1.00  0.00     0.016 A 
ATOM     25  C   UNL     1       2.607   0.983  -0.239  1.00  0.00     0.002 A 
ENDBRANCH  12  14
ENDBRANCH   7  12
BRANCH  11  26
ATOM     26  O   UNL     1      -1.715  -6.103  -0.978  1.00  0.00    -0.393 OA
ATOM     27  H   UNL     1      -1.970  -5.228  -0.645  1.00  0.00     0.210 HD
ENDBRANCH  11  26
ENDBRANCH   4   6
ENDBRANCH   3   4
ENDBRANCH   2   3
ENDBRANCH   1   2
BRANCH   1  28
ATOM     28  O   UNL     1      -3.086  -5.637   3.335  1.00  0.00    -0.458 OA
BRANCH  28  29
ATOM     29  C   UNL     1      -2.243  -6.611   2.920  1.00  0.00     0.338 C 
ATOM     30  O   UNL     1      -2.139  -7.055   1.787  1.00  0.00    -0.246 OA
BRANCH  29  31
ATOM     31  C   UNL     1      -1.327  -6.956   4.020  1.00  0.00     0.060 A 
ATOM     32  C   UNL     1       0.027  -6.634   3.889  1.00  0.00     0.016 A 
ATOM     33  C   UNL     1      -1.784  -7.640   5.145  1.00  0.00     0.016 A 
ATOM     34  C   UNL     1       0.940  -7.014   4.864  1.00  0.00     0.010 A 
ATOM     35  C   UNL     1      -0.869  -8.011   6.133  1.00  0.00     0.010 A 
ATOM     36  C   UNL     1       0.499  -7.714   5.989  1.00  0.00    -0.014 A 
BRANCH  36  37
ATOM     37  C   UNL     1       1.482  -8.174   6.993  1.00  0.00     0.031 A 
ATOM     38  C   UNL     1       1.834  -9.630   7.068  1.00  0.00     0.074 A 
ATOM     39  C   UNL     1       2.042  -7.283   7.831  1.00  0.00     0.049 A 
ATOM     40  N   UNL     1       2.597 -10.249   7.928  1.00  0.00    -0.248 NA
ATOM     41  C   UNL     1       1.245 -10.506   6.042  1.00  0.00     0.031 C 
ATOM     42  C   UNL     1       1.788  -5.842   7.825  1.00  0.00     0.029 A 
ATOM     43  N   UNL     1       2.924  -7.464   8.865  1.00  0.00    -0.354 N 
ATOM     44  C   UNL     1       2.543 -11.593   7.580  1.00  0.00     0.074 A 
ATOM     45  C   UNL     1       1.678 -11.699   6.425  1.00  0.00     0.031 C 
ATOM     46  C   UNL     1       2.478  -5.272   8.825  1.00  0.00     0.029 A 
ATOM     47  C   UNL     1       3.192  -6.310   9.562  1.00  0.00     0.049 A 
ATOM     48  H   UNL     1       3.326  -8.335   9.086  1.00  0.00     0.167 HD
ATOM     49  C   UNL     1       3.169 -12.639   8.167  1.00  0.00     0.034 A 
ATOM     50  C   UNL     1       3.909  -6.121  10.687  1.00  0.00     0.034 A 
ATOM     51  C   UNL     1       4.059 -12.515   9.289  1.00  0.00     0.049 A 
ATOM     52  C   UNL     1       4.584  -7.305  11.323  1.00  0.00     0.074 A 
ATOM     53  C   UNL     1       4.780 -13.506   9.929  1.00  0.00     0.029 A 
ATOM     54  N   UNL     1       4.346 -11.325   9.941  1.00  0.00    -0.354 N 
ATOM     55  N   UNL     1       4.602  -8.556  10.928  1.00  0.00    -0.248 NA
ATOM     56  C   UNL     1       5.358  -7.050  12.546  1.00  0.00     0.031 C 
ATOM     57  C   UNL     1       5.492 -12.916  10.980  1.00  0.00     0.029 A 
ATOM     58  C   UNL     1       5.226 -11.556  10.983  1.00  0.00     0.049 A 
ATOM     59  H   UNL     1       3.977 -10.445   9.698  1.00  0.00     0.167 HD
ATOM     60  C   UNL     1       5.412  -9.231  11.834  1.00  0.00     0.074 A 
ATOM     61  C   UNL     1       5.883  -8.245  12.786  1.00  0.00     0.031 C 
ATOM     62  C   UNL     1       5.725 -10.549  11.885  1.00  0.00     0.034 A 
BRANCH  49  63
ATOM     63  C   UNL     1       2.928 -14.009   7.593  1.00  0.00     0.023 A 
ATOM     64  C   UNL     1       3.542 -14.374   6.378  1.00  0.00     0.012 A 
ATOM     65  C   UNL     1       2.137 -14.950   8.279  1.00  0.00     0.148 A 
ATOM     66  C   UNL     1       3.350 -15.648   5.842  1.00  0.00     0.002 A 
ATOM     67  C   UNL     1       1.982 -16.229   7.758  1.00  0.00     0.091 A 
ATOM     68  F   UNL     1       1.539 -14.573   9.419  1.00  0.00    -0.205 F 
ATOM     69  C   UNL     1       2.580 -16.577   6.536  1.00  0.00     0.022 A 
BRANCH  67  70
ATOM     70  S   UNL     1       1.063 -17.515   8.613  1.00  0.00     0.127 S 
ATOM     71  O   UNL     1      -0.151 -17.599   7.802  1.00  0.00    -0.237 OA
ATOM     72  O   UNL     1       1.958 -18.667   8.492  1.00  0.00    -0.237 OA
ATOM     73  O   UNL     1       0.876 -17.035   9.975  1.00  0.00    -0.744 OA
ENDBRANCH  67  70
ENDBRANCH  49  63
BRANCH  50  74
ATOM     74  C   UNL     1       4.050  -4.752  11.257  1.00  0.00     0.023 A 
ATOM     75  C   UNL     1       5.301  -4.107  11.201  1.00  0.00     0.012 A 
ATOM     76  C   UNL     1       2.952  -4.074  11.822  1.00  0.00     0.148 A 
ATOM     77  C   UNL     1       5.461  -2.821  11.719  1.00  0.00     0.002 A 
ATOM     78  C   UNL     1       3.107  -2.773  12.289  1.00  0.00     0.091 A 
ATOM     79  F   UNL     1       1.775  -4.711  11.887  1.00  0.00    -0.205 F 
ATOM     80  C   UNL     1       4.364  -2.150  12.252  1.00  0.00     0.022 A 
BRANCH  78  81
ATOM     81  S   UNL     1       1.718  -1.794  12.873  1.00  0.00     0.127 S 
ATOM     82  O   UNL     1       1.923  -1.816  14.319  1.00  0.00    -0.237 OA
ATOM     83  O   UNL     1       1.965  -0.499  12.236  1.00  0.00    -0.237 OA
ATOM     84  O   UNL     1       0.527  -2.480  12.388  1.00  0.00    -0.744 OA
ENDBRANCH  78  81
ENDBRANCH  50  74
BRANCH  62  85
ATOM     85  C   UNL     1       6.642 -11.002  12.990  1.00  0.00     0.023 A 
ATOM     86  C   UNL     1       6.150 -11.098  14.306  1.00  0.00     0.012 A 
ATOM     87  C   UNL     1       7.962 -11.405  12.711  1.00  0.00     0.148 A 
ATOM     88  C   UNL     1       6.969 -11.563  15.335  1.00  0.00     0.002 A 
ATOM     89  C   UNL     1       8.758 -11.909  13.732  1.00  0.00     0.091 A 
ATOM     90  F   UNL     1       8.417 -11.285  11.455  1.00  0.00    -0.205 F 
ATOM     91  C   UNL     1       8.266 -11.979  15.046  1.00  0.00     0.022 A 
BRANCH  89  92
ATOM     92  S   UNL     1      10.406 -12.556  13.431  1.00  0.00     0.127 S 
ATOM     93  O   UNL     1      11.249 -11.475  13.938  1.00  0.00    -0.237 OA
ATOM     94  O   UNL     1      10.419 -13.773  14.244  1.00  0.00    -0.237 OA
ATOM     95  O   UNL     1      10.484 -12.793  11.995  1.00  0.00    -0.744 OA
ENDBRANCH  89  92
ENDBRANCH  62  85
ENDBRANCH  36  37
ENDBRANCH  29  31
ENDBRANCH  28  29
ENDBRANCH   1  28
TORSDOF 17
