REMARK SMILES Cc1ccc(Cl)c(Nc2ccccc2C(=O)N[C@@H](C)C(=O)OCCOC(=O)c2ccc(-c3c4nc(c(-c5cccc(S(=O)(=O)[O-])c5F)c5ccc([nH]5)c(-c5cccc(S(=O)(=O)[O-])c5F)c5nc(c(-c6cccc(S(=O)(=O)[O-])c6F)c6ccc3[nH]6)C=C5)C=C4)cc2)c1Cl
REMARK SMILES IDX 23 1 22 2 20 3 21 4 18 5 19 6 17 7 15 8 16 9 14 11 9 12
REMARK SMILES IDX 10 13 11 14 13 15 12 16 8 17 7 19 1 20 2 21 3 22 91 23 4 24
REMARK SMILES IDX 92 25 5 26 6 27 24 28 25 29 26 30 27 31 28 32 29 33 90 34
REMARK SMILES IDX 30 35 89 36 31 37 32 38 33 39 83 40 34 41 88 42 82 43 84 44
REMARK SMILES IDX 35 45 87 46 81 47 80 48 36 50 68 51 48 52 67 53 49 54 52 55
REMARK SMILES IDX 66 56 85 57 50 58 51 59 65 61 86 62 53 63 37 64 38 65 46 66
REMARK SMILES IDX 39 67 41 68 47 69 40 70 42 71 43 72 44 73 45 74 69 75 70 76
REMARK SMILES IDX 78 77 71 78 73 79 79 80 72 81 74 82 75 83 76 84 77 85 54 86
REMARK SMILES IDX 55 87 63 88 56 89 58 90 64 91 57 92 59 93 60 94 61 95 62 96
REMARK H PARENT 17 10 8 18 84 49 52 60
REMARK Flexibility Score: inf
ROOT
ATOM      1  C   UNL     1      -1.136   3.029   0.155  1.00  0.00     0.274 C 
ENDROOT
BRANCH   1   2
ATOM      2  O   UNL     1      -1.313   1.657   0.705  1.00  0.00    -0.461 OA
BRANCH   2   3
ATOM      3  C   UNL     1      -0.763   1.174   1.881  1.00  0.00     0.328 C 
ATOM      4  O   UNL     1      -0.169   1.875   2.673  1.00  0.00    -0.250 OA
BRANCH   3   5
ATOM      5  C   UNL     1      -0.989  -0.427   2.085  1.00  0.00     0.189 C 
ATOM      6  C   UNL     1      -2.263  -0.676   2.892  1.00  0.00     0.043 C 
BRANCH   5   7
ATOM      7  N   UNL     1       0.183  -1.090   2.744  1.00  0.00    -0.339 N 
ATOM      8  C   UNL     1       0.949  -2.242   2.812  1.00  0.00     0.254 C 
ATOM      9  O   UNL     1       1.744  -2.143   3.768  1.00  0.00    -0.269 OA
ATOM     10  H   UNL     1       0.560  -0.447   3.388  1.00  0.00     0.164 HD
BRANCH   8  11
ATOM     11  C   UNL     1       1.059  -3.567   2.023  1.00  0.00     0.063 A 
ATOM     12  C   UNL     1       0.390  -4.072   0.883  1.00  0.00     0.051 A 
ATOM     13  C   UNL     1       0.723  -5.333   0.301  1.00  0.00     0.027 A 
ATOM     14  C   UNL     1       1.824  -6.052   0.722  1.00  0.00     0.002 A 
ATOM     15  C   UNL     1       2.151  -4.380   2.443  1.00  0.00     0.016 A 
ATOM     16  C   UNL     1       2.552  -5.563   1.788  1.00  0.00     0.001 A 
BRANCH  12  17
ATOM     17  N   UNL     1      -0.303  -3.282  -0.029  1.00  0.00    -0.352 N 
ATOM     18  H   UNL     1      -1.237  -3.515  -0.234  1.00  0.00     0.167 HD
BRANCH  17  19
ATOM     19  C   UNL     1       0.267  -2.164  -0.675  1.00  0.00     0.077 A 
ATOM     20  C   UNL     1       3.267   0.114   0.151  1.00  0.00     0.046 C 
ATOM     21  C   UNL     1       1.938  -0.420  -0.290  1.00  0.00    -0.030 A 
ATOM     22  C   UNL     1       0.910   0.461  -0.503  1.00  0.00     0.006 A 
ATOM     23  C   UNL     1       1.626  -1.752  -0.485  1.00  0.00     0.069 A 
ATOM     24  C   UNL     1      -0.339   0.053  -1.020  1.00  0.00     0.023 A 
ATOM     25  Cl  UNL     1       2.945  -2.868  -0.569  1.00  0.00    -0.082 Cl
ATOM     26  C   UNL     1      -0.670  -1.261  -1.129  1.00  0.00     0.066 A 
ATOM     27  Cl  UNL     1      -2.299  -1.689  -1.518  1.00  0.00    -0.082 Cl
ENDBRANCH  17  19
ENDBRANCH  12  17
ENDBRANCH   8  11
ENDBRANCH   5   7
ENDBRANCH   3   5
ENDBRANCH   2   3
ENDBRANCH   1   2
BRANCH   1  28
ATOM     28  C   UNL     1      -0.140   3.359  -1.093  1.00  0.00     0.275 C 
BRANCH  28  29
ATOM     29  O   UNL     1      -0.052   2.433  -2.251  1.00  0.00    -0.458 OA
BRANCH  29  30
ATOM     30  C   UNL     1       1.180   2.270  -2.891  1.00  0.00     0.338 C 
ATOM     31  O   UNL     1       2.108   3.054  -2.746  1.00  0.00    -0.246 OA
BRANCH  30  32
ATOM     32  C   UNL     1       1.386   0.912  -3.599  1.00  0.00     0.060 A 
ATOM     33  C   UNL     1       0.345   0.018  -3.785  1.00  0.00     0.016 A 
ATOM     34  C   UNL     1       2.668   0.410  -3.912  1.00  0.00     0.016 A 
ATOM     35  C   UNL     1       0.601  -1.353  -4.052  1.00  0.00     0.010 A 
ATOM     36  C   UNL     1       2.882  -0.933  -4.394  1.00  0.00     0.010 A 
ATOM     37  C   UNL     1       1.839  -1.867  -4.481  1.00  0.00    -0.014 A 
BRANCH  37  38
ATOM     38  C   UNL     1       1.931  -3.276  -5.107  1.00  0.00     0.031 A 
ATOM     39  C   UNL     1       3.127  -4.233  -4.970  1.00  0.00     0.074 A 
ATOM     40  C   UNL     1       0.917  -3.745  -5.886  1.00  0.00     0.049 A 
ATOM     41  N   UNL     1       3.413  -5.313  -5.676  1.00  0.00    -0.248 NA
ATOM     42  C   UNL     1       4.104  -3.977  -3.904  1.00  0.00     0.031 C 
ATOM     43  C   UNL     1      -0.344  -3.055  -6.162  1.00  0.00     0.029 A 
ATOM     44  N   UNL     1       0.785  -4.917  -6.620  1.00  0.00    -0.354 N 
ATOM     45  C   UNL     1       4.624  -5.816  -5.191  1.00  0.00     0.074 A 
ATOM     46  C   UNL     1       4.994  -4.951  -4.087  1.00  0.00     0.031 C 
ATOM     47  C   UNL     1      -1.136  -3.818  -6.915  1.00  0.00     0.029 A 
ATOM     48  C   UNL     1      -0.366  -4.954  -7.383  1.00  0.00     0.049 A 
ATOM     49  H   UNL     1       1.445  -5.646  -6.599  1.00  0.00     0.167 HD
ATOM     50  C   UNL     1       5.366  -6.878  -5.615  1.00  0.00     0.034 A 
ATOM     51  C   UNL     1      -0.761  -5.696  -8.439  1.00  0.00     0.034 A 
ATOM     52  C   UNL     1       4.998  -7.798  -6.673  1.00  0.00     0.049 A 
ATOM     53  C   UNL     1       0.120  -6.770  -8.984  1.00  0.00     0.074 A 
ATOM     54  C   UNL     1       5.698  -8.909  -7.132  1.00  0.00     0.029 A 
ATOM     55  N   UNL     1       3.848  -7.727  -7.439  1.00  0.00    -0.354 N 
ATOM     56  N   UNL     1       1.262  -7.203  -8.522  1.00  0.00    -0.248 NA
ATOM     57  C   UNL     1      -0.342  -7.454 -10.201  1.00  0.00     0.031 C 
ATOM     58  C   UNL     1       4.989  -9.484  -8.194  1.00  0.00     0.029 A 
ATOM     59  C   UNL     1       3.834  -8.750  -8.381  1.00  0.00     0.049 A 
ATOM     60  H   UNL     1       3.142  -7.049  -7.333  1.00  0.00     0.167 HD
ATOM     61  C   UNL     1       1.656  -8.214  -9.388  1.00  0.00     0.074 A 
ATOM     62  C   UNL     1       0.614  -8.355 -10.381  1.00  0.00     0.031 C 
ATOM     63  C   UNL     1       2.800  -8.938  -9.364  1.00  0.00     0.034 A 
BRANCH  50  64
ATOM     64  C   UNL     1       6.705  -7.151  -4.952  1.00  0.00     0.023 A 
ATOM     65  C   UNL     1       6.757  -7.817  -3.712  1.00  0.00     0.012 A 
ATOM     66  C   UNL     1       7.912  -6.898  -5.644  1.00  0.00     0.148 A 
ATOM     67  C   UNL     1       7.983  -8.205  -3.163  1.00  0.00     0.002 A 
ATOM     68  C   UNL     1       9.126  -7.318  -5.106  1.00  0.00     0.091 A 
ATOM     69  F   UNL     1       7.849  -6.270  -6.827  1.00  0.00    -0.205 F 
ATOM     70  C   UNL     1       9.164  -7.966  -3.863  1.00  0.00     0.022 A 
BRANCH  68  71
ATOM     71  S   UNL     1      10.689  -7.132  -5.979  1.00  0.00     0.127 S 
ATOM     72  O   UNL     1      11.297  -6.013  -5.261  1.00  0.00    -0.237 OA
ATOM     73  O   UNL     1      11.335  -8.425  -5.748  1.00  0.00    -0.237 OA
ATOM     74  O   UNL     1      10.341  -6.872  -7.369  1.00  0.00    -0.744 OA
ENDBRANCH  68  71
ENDBRANCH  50  64
BRANCH  51  75
ATOM     75  C   UNL     1      -2.049  -5.355  -9.117  1.00  0.00     0.023 A 
ATOM     76  C   UNL     1      -3.141  -6.234  -9.024  1.00  0.00     0.012 A 
ATOM     77  C   UNL     1      -2.215  -4.114  -9.770  1.00  0.00     0.148 A 
ATOM     78  C   UNL     1      -4.379  -5.879  -9.562  1.00  0.00     0.002 A 
ATOM     79  C   UNL     1      -3.470  -3.732 -10.222  1.00  0.00     0.091 A 
ATOM     80  F   UNL     1      -1.152  -3.304  -9.881  1.00  0.00    -0.205 F 
ATOM     81  C   UNL     1      -4.551  -4.620 -10.136  1.00  0.00     0.022 A 
BRANCH  79  82
ATOM     82  S   UNL     1      -3.808  -2.053 -10.768  1.00  0.00     0.127 S 
ATOM     83  O   UNL     1      -3.873  -2.215 -12.217  1.00  0.00    -0.237 OA
ATOM     84  O   UNL     1      -5.090  -1.772 -10.119  1.00  0.00    -0.237 OA
ATOM     85  O   UNL     1      -2.702  -1.251 -10.261  1.00  0.00    -0.744 OA
ENDBRANCH  79  82
ENDBRANCH  51  75
BRANCH  63  86
ATOM     86  C   UNL     1       2.987  -9.971 -10.443  1.00  0.00     0.023 A 
ATOM     87  C   UNL     1       3.295  -9.555 -11.754  1.00  0.00     0.012 A 
ATOM     88  C   UNL     1       2.871 -11.347 -10.166  1.00  0.00     0.148 A 
ATOM     89  C   UNL     1       3.454 -10.488 -12.778  1.00  0.00     0.002 A 
ATOM     90  C   UNL     1       3.069 -12.275 -11.184  1.00  0.00     0.091 A 
ATOM     91  F   UNL     1       2.552 -11.723  -8.919  1.00  0.00    -0.205 F 
ATOM     92  C   UNL     1       3.350 -11.847 -12.492  1.00  0.00     0.022 A 
BRANCH  90  93
ATOM     93  S   UNL     1       3.018 -14.049 -10.902  1.00  0.00     0.127 S 
ATOM     94  O   UNL     1       1.781 -14.424 -11.586  1.00  0.00    -0.237 OA
ATOM     95  O   UNL     1       4.242 -14.503 -11.563  1.00  0.00    -0.237 OA
ATOM     96  O   UNL     1       3.009 -14.226  -9.457  1.00  0.00    -0.744 OA
ENDBRANCH  90  93
ENDBRANCH  63  86
ENDBRANCH  37  38
ENDBRANCH  30  32
ENDBRANCH  29  30
ENDBRANCH  28  29
ENDBRANCH   1  28
TORSDOF 18
