REMARK SMILES Cc1cccc(N2C(=O)/C(=C/c3ccc(C(=O)OCCOC(=O)c4ccc(-c5c6nc(c(-c7cccc(S(=O)(=O)[O-])c7F)c7ccc([nH]7)c(-c7cccc(S(=O)(=O)[O-])c7F)c7nc(c(-c8cccc(S(=O)(=O)[O-])c8F)c8ccc5[nH]8)C=C7)C=C6)cc4)cc3)c3ccccc3C2=O)c1
REMARK SMILES IDX 20 1 19 2 18 3 16 4 17 5 15 6 12 7 13 8 88 9 14 10 87 11
REMARK SMILES IDX 11 12 7 13 8 14 95 15 9 16 10 17 94 18 96 19 89 20 93 21
REMARK SMILES IDX 90 22 92 23 91 24 6 25 1 26 2 27 3 28 97 29 4 30 5 31 21 32
REMARK SMILES IDX 22 33 23 34 24 35 25 36 86 37 26 38 85 39 27 40 28 41 29 42
REMARK SMILES IDX 79 43 30 44 84 45 78 46 80 47 31 48 83 49 77 50 76 51 32 53
REMARK SMILES IDX 64 54 44 55 63 56 45 57 48 58 62 59 81 60 46 61 47 62 61 64
REMARK SMILES IDX 82 65 49 66 33 67 34 68 42 69 35 70 37 71 43 72 36 73 38 74
REMARK SMILES IDX 39 75 40 76 41 77 65 78 66 79 74 80 67 81 69 82 75 83 68 84
REMARK SMILES IDX 70 85 71 86 72 87 73 88 50 89 51 90 59 91 52 92 54 93 60 94
REMARK SMILES IDX 53 95 55 96 56 97 57 98 58 99
REMARK H PARENT 80 52 48 63
REMARK Flexibility Score: inf
ROOT
ATOM      1  C   UNL     1      -4.232  13.851   1.791  1.00  0.00     0.275 C 
ENDROOT
BRANCH   1   2
ATOM      2  C   UNL     1      -4.867  12.463   1.635  1.00  0.00     0.275 C 
BRANCH   2   3
ATOM      3  O   UNL     1      -3.981  11.458   1.138  1.00  0.00    -0.458 OA
BRANCH   3   4
ATOM      4  C   UNL     1      -4.669  10.338   0.775  1.00  0.00     0.338 C 
ATOM      5  O   UNL     1      -5.851  10.146   1.031  1.00  0.00    -0.246 OA
BRANCH   4   6
ATOM      6  C   UNL     1      -3.839   9.327   0.075  1.00  0.00     0.060 A 
ATOM      7  C   UNL     1      -2.349   7.124  -0.754  1.00  0.00    -0.025 A 
ATOM      8  C   UNL     1      -1.708   8.344  -0.512  1.00  0.00     0.009 A 
ATOM      9  C   UNL     1      -3.745   7.073  -0.808  1.00  0.00     0.009 A 
ATOM     10  C   UNL     1      -2.455   9.448  -0.088  1.00  0.00     0.016 A 
ATOM     11  C   UNL     1      -4.485   8.162  -0.360  1.00  0.00     0.016 A 
BRANCH   7  12
ATOM     12  C   UNL     1      -1.575   5.877  -0.688  1.00  0.00     0.022 C 
ATOM     13  N   UNL     1      -1.681   2.486   0.431  1.00  0.00    -0.242 N 
ATOM     14  C   UNL     1      -0.977   3.669   0.104  1.00  0.00     0.265 C 
ATOM     15  C   UNL     1      -3.021   2.528   0.894  1.00  0.00     0.265 C 
ATOM     16  O   UNL     1       0.174   3.761  -0.323  1.00  0.00    -0.268 OA
ATOM     17  C   UNL     1      -1.761   4.931   0.267  1.00  0.00     0.049 C 
ATOM     18  C   UNL     1      -3.495   3.789   1.516  1.00  0.00     0.048 A 
ATOM     19  O   UNL     1      -3.832   1.604   0.906  1.00  0.00    -0.268 OA
ATOM     20  C   UNL     1      -2.778   4.961   1.324  1.00  0.00    -0.000 A 
ATOM     21  C   UNL     1      -4.643   3.789   2.325  1.00  0.00     0.014 A 
ATOM     22  C   UNL     1      -3.117   6.094   2.081  1.00  0.00     0.010 A 
ATOM     23  C   UNL     1      -5.041   4.953   2.982  1.00  0.00     0.001 A 
ATOM     24  C   UNL     1      -4.261   6.099   2.882  1.00  0.00     0.001 A 
BRANCH  13  25
ATOM     25  C   UNL     1      -1.026   1.188   0.237  1.00  0.00     0.053 A 
ATOM     26  C   UNL     1       2.530  -0.239  -0.036  1.00  0.00     0.044 C 
ATOM     27  C   UNL     1       1.032  -0.172   0.025  1.00  0.00    -0.049 A 
ATOM     28  C   UNL     1       0.276  -1.336  -0.079  1.00  0.00     0.003 A 
ATOM     29  C   UNL     1       0.378   1.062   0.202  1.00  0.00     0.030 A 
ATOM     30  C   UNL     1      -1.108  -1.256  -0.034  1.00  0.00     0.002 A 
ATOM     31  C   UNL     1      -1.743  -0.015   0.111  1.00  0.00     0.027 A 
ENDBRANCH  13  25
ENDBRANCH   7  12
ENDBRANCH   4   6
ENDBRANCH   3   4
ENDBRANCH   2   3
ENDBRANCH   1   2
BRANCH   1  32
ATOM     32  O   UNL     1      -3.056  14.233   1.022  1.00  0.00    -0.458 OA
BRANCH  32  33
ATOM     33  C   UNL     1      -2.642  13.836  -0.205  1.00  0.00     0.338 C 
ATOM     34  O   UNL     1      -1.469  13.945  -0.549  1.00  0.00    -0.246 OA
BRANCH  33  35
ATOM     35  C   UNL     1      -3.655  13.297  -1.118  1.00  0.00     0.060 A 
ATOM     36  C   UNL     1      -3.365  12.180  -1.918  1.00  0.00     0.016 A 
ATOM     37  C   UNL     1      -4.928  13.853  -1.087  1.00  0.00     0.016 A 
ATOM     38  C   UNL     1      -4.388  11.542  -2.614  1.00  0.00     0.010 A 
ATOM     39  C   UNL     1      -5.956  13.150  -1.654  1.00  0.00     0.010 A 
ATOM     40  C   UNL     1      -5.682  12.029  -2.456  1.00  0.00    -0.014 A 
BRANCH  40  41
ATOM     41  C   UNL     1      -6.797  11.684  -3.320  1.00  0.00     0.031 A 
ATOM     42  C   UNL     1      -7.590  10.455  -3.142  1.00  0.00     0.074 A 
ATOM     43  C   UNL     1      -7.115  12.720  -4.133  1.00  0.00     0.049 A 
ATOM     44  N   UNL     1      -8.323   9.934  -4.061  1.00  0.00    -0.248 NA
ATOM     45  C   UNL     1      -7.616   9.681  -1.903  1.00  0.00     0.031 C 
ATOM     46  C   UNL     1      -8.322  13.009  -4.875  1.00  0.00     0.029 A 
ATOM     47  N   UNL     1      -6.242  13.754  -4.526  1.00  0.00    -0.354 N 
ATOM     48  C   UNL     1      -9.151   9.004  -3.450  1.00  0.00     0.074 A 
ATOM     49  C   UNL     1      -8.563   8.767  -2.158  1.00  0.00     0.031 C 
ATOM     50  C   UNL     1      -8.018  13.895  -5.846  1.00  0.00     0.029 A 
ATOM     51  C   UNL     1      -6.563  14.035  -5.848  1.00  0.00     0.049 A 
ATOM     52  H   UNL     1      -5.549  14.188  -3.977  1.00  0.00     0.167 HD
ATOM     53  C   UNL     1     -10.359   8.732  -4.025  1.00  0.00     0.034 A 
ATOM     54  C   UNL     1      -5.715  13.681  -6.865  1.00  0.00     0.034 A 
ATOM     55  C   UNL     1     -10.491   9.541  -5.240  1.00  0.00     0.049 A 
ATOM     56  C   UNL     1      -6.419  12.723  -7.799  1.00  0.00     0.074 A 
ATOM     57  C   UNL     1     -11.067  10.786  -5.437  1.00  0.00     0.029 A 
ATOM     58  N   UNL     1      -9.696   9.280  -6.344  1.00  0.00    -0.354 N 
ATOM     59  N   UNL     1      -7.325  11.867  -7.411  1.00  0.00    -0.248 NA
ATOM     60  C   UNL     1      -6.235  12.735  -9.245  1.00  0.00     0.031 C 
ATOM     61  C   UNL     1     -10.547  11.311  -6.645  1.00  0.00     0.029 A 
ATOM     62  C   UNL     1      -9.666  10.384  -7.178  1.00  0.00     0.049 A 
ATOM     63  H   UNL     1      -9.223   8.433  -6.512  1.00  0.00     0.167 HD
ATOM     64  C   UNL     1      -7.881  11.263  -8.507  1.00  0.00     0.074 A 
ATOM     65  C   UNL     1      -7.157  11.836  -9.631  1.00  0.00     0.031 C 
ATOM     66  C   UNL     1      -8.904  10.360  -8.413  1.00  0.00     0.034 A 
BRANCH  53  67
ATOM     67  C   UNL     1     -11.582   8.068  -3.396  1.00  0.00     0.023 A 
ATOM     68  C   UNL     1     -12.828   8.355  -4.014  1.00  0.00     0.012 A 
ATOM     69  C   UNL     1     -11.644   7.228  -2.260  1.00  0.00     0.148 A 
ATOM     70  C   UNL     1     -14.057   7.934  -3.506  1.00  0.00     0.002 A 
ATOM     71  C   UNL     1     -12.883   6.804  -1.743  1.00  0.00     0.091 A 
ATOM     72  F   UNL     1     -10.513   6.802  -1.689  1.00  0.00    -0.205 F 
ATOM     73  C   UNL     1     -14.087   7.170  -2.357  1.00  0.00     0.022 A 
BRANCH  71  74
ATOM     74  S   UNL     1     -13.056   5.792  -0.259  1.00  0.00     0.127 S 
ATOM     75  O   UNL     1     -13.882   6.644   0.599  1.00  0.00    -0.237 OA
ATOM     76  O   UNL     1     -13.741   4.604  -0.767  1.00  0.00    -0.237 OA
ATOM     77  O   UNL     1     -11.706   5.562   0.240  1.00  0.00    -0.744 OA
ENDBRANCH  71  74
ENDBRANCH  53  67
BRANCH  54  78
ATOM     78  C   UNL     1      -4.256  13.620  -6.490  1.00  0.00     0.023 A 
ATOM     79  C   UNL     1      -3.687  14.790  -5.919  1.00  0.00     0.012 A 
ATOM     80  C   UNL     1      -3.534  12.416  -6.374  1.00  0.00     0.148 A 
ATOM     81  C   UNL     1      -2.533  14.734  -5.131  1.00  0.00     0.002 A 
ATOM     82  C   UNL     1      -2.366  12.372  -5.602  1.00  0.00     0.091 A 
ATOM     83  F   UNL     1      -4.005  11.320  -6.981  1.00  0.00    -0.205 F 
ATOM     84  C   UNL     1      -1.890  13.518  -4.947  1.00  0.00     0.022 A 
BRANCH  82  85
ATOM     85  S   UNL     1      -1.489  10.823  -5.313  1.00  0.00     0.127 S 
ATOM     86  O   UNL     1      -0.583  10.779  -6.457  1.00  0.00    -0.237 OA
ATOM     87  O   UNL     1      -0.835  11.049  -4.023  1.00  0.00    -0.237 OA
ATOM     88  O   UNL     1      -2.539   9.817  -5.269  1.00  0.00    -0.744 OA
ENDBRANCH  82  85
ENDBRANCH  54  78
BRANCH  66  89
ATOM     89  C   UNL     1      -9.329   9.399  -9.501  1.00  0.00     0.023 A 
ATOM     90  C   UNL     1      -8.482   9.085 -10.579  1.00  0.00     0.012 A 
ATOM     91  C   UNL     1     -10.517   8.630  -9.376  1.00  0.00     0.148 A 
ATOM     92  C   UNL     1      -8.820   8.112 -11.522  1.00  0.00     0.002 A 
ATOM     93  C   UNL     1     -10.780   7.574 -10.239  1.00  0.00     0.091 A 
ATOM     94  F   UNL     1     -11.415   8.920  -8.424  1.00  0.00    -0.205 F 
ATOM     95  C   UNL     1      -9.955   7.337 -11.338  1.00  0.00     0.022 A 
BRANCH  93  96
ATOM     96  S   UNL     1     -12.074   6.379  -9.873  1.00  0.00     0.127 S 
ATOM     97  O   UNL     1     -13.183   6.878 -10.681  1.00  0.00    -0.237 OA
ATOM     98  O   UNL     1     -11.484   5.127 -10.354  1.00  0.00    -0.237 OA
ATOM     99  O   UNL     1     -12.251   6.436  -8.429  1.00  0.00    -0.744 OA
ENDBRANCH  93  96
ENDBRANCH  66  89
ENDBRANCH  40  41
ENDBRANCH  33  35
ENDBRANCH  32  33
ENDBRANCH   1  32
TORSDOF 16
