REMARK SMILES COc1cc([C@H]2CC(c3ccc(S(C)(=O)=O)cc3)=NN2c2ccc(C(=O)OCCOC(=O)c3ccc(-c4c5nc(c(-c6cccc(S(=O)(=O)[O-])c6F)c6ccc([nH]6)c(-c6cccc(S(=O)(=O)[O-])c6F)c6nc(c(-c7cccc(S(=O)(=O)[O-])c7F)c7ccc4[nH]7)C=C6)C=C5)cc3)cc2)cc(OC)c1OC
REMARK SMILES IDX 28 1 27 2 25 3 26 4 24 5 21 6 22 7 97 8 23 9 96 10 20 11
REMARK SMILES IDX 6 12 7 13 8 14 19 15 5 16 3 17 4 18 102 19 99 20 98 21 2 22
REMARK SMILES IDX 1 23 103 24 104 25 100 26 101 27 9 28 10 29 18 30 11 31
REMARK SMILES IDX 17 32 12 33 13 34 14 35 15 36 16 37 29 38 30 39 31 40 32 41
REMARK SMILES IDX 33 42 34 43 95 44 35 45 94 46 36 47 37 48 38 49 88 50 39 51
REMARK SMILES IDX 93 52 87 53 89 54 40 55 92 56 86 57 85 58 41 60 73 61 53 62
REMARK SMILES IDX 72 63 54 64 57 65 71 66 90 67 55 68 56 69 70 71 91 72 58 73
REMARK SMILES IDX 42 74 43 75 51 76 44 77 46 78 52 79 45 80 47 81 48 82 49 83
REMARK SMILES IDX 50 84 74 85 75 86 83 87 76 88 78 89 84 90 77 91 79 92 80 93
REMARK SMILES IDX 81 94 82 95 59 96 60 97 68 98 61 99 63 100 69 101 62 102
REMARK SMILES IDX 64 103 65 104 66 105 67 106
REMARK H PARENT 89 59 57 70
REMARK Flexibility Score: inf
ROOT
ATOM      1  C   UNL     1       2.049   7.812  -3.611  1.00  0.00     0.275 C 
ENDROOT
BRANCH   1   2
ATOM      2  O   UNL     1       1.341   7.564  -2.380  1.00  0.00    -0.458 OA
BRANCH   2   3
ATOM      3  C   UNL     1       2.060   6.926  -1.425  1.00  0.00     0.338 C 
ATOM      4  O   UNL     1       3.220   6.547  -1.517  1.00  0.00    -0.246 OA
BRANCH   3   5
ATOM      5  C   UNL     1       1.271   6.766  -0.189  1.00  0.00     0.060 A 
ATOM      6  C   UNL     1      -0.058   6.207   2.223  1.00  0.00     0.060 A 
ATOM      7  C   UNL     1       1.204   6.806   2.228  1.00  0.00     0.029 A 
ATOM      8  C   UNL     1      -0.671   5.947   0.988  1.00  0.00     0.029 A 
ATOM      9  C   UNL     1       1.878   7.046   1.036  1.00  0.00     0.018 A 
ATOM     10  C   UNL     1      -0.020   6.238  -0.217  1.00  0.00     0.018 A 
BRANCH   6  11
ATOM     11  N   UNL     1      -0.640   5.816   3.422  1.00  0.00    -0.257 N 
ATOM     12  C   UNL     1      -0.801   4.410   3.821  1.00  0.00     0.144 C 
ATOM     13  C   UNL     1      -0.838   4.501   5.361  1.00  0.00     0.091 C 
ATOM     14  C   UNL     1      -0.782   5.993   5.548  1.00  0.00     0.071 C 
ATOM     15  N   UNL     1      -0.641   6.688   4.465  1.00  0.00    -0.176 NA
BRANCH  12  16
ATOM     16  C   UNL     1       0.247   3.470   3.233  1.00  0.00    -0.015 A 
ATOM     17  C   UNL     1       0.932   1.940   1.441  1.00  0.00     0.164 A 
ATOM     18  C   UNL     1      -0.036   2.751   2.060  1.00  0.00     0.056 A 
ATOM     19  C   UNL     1       2.227   1.817   1.975  1.00  0.00     0.203 A 
ATOM     20  C   UNL     1       2.521   2.539   3.150  1.00  0.00     0.164 A 
ATOM     21  C   UNL     1       1.541   3.353   3.754  1.00  0.00     0.056 A 
BRANCH  17  22
ATOM     22  O   UNL     1       0.596   1.371   0.237  1.00  0.00    -0.493 OA
ATOM     23  C   UNL     1      -0.316   0.286   0.395  1.00  0.00     0.278 C 
ENDBRANCH  17  22
BRANCH  19  24
ATOM     24  O   UNL     1       3.236   1.044   1.471  1.00  0.00    -0.490 OA
ATOM     25  C   UNL     1       3.046   0.244   0.318  1.00  0.00     0.278 C 
ENDBRANCH  19  24
BRANCH  20  26
ATOM     26  O   UNL     1       3.696   2.552   3.863  1.00  0.00    -0.493 OA
ATOM     27  C   UNL     1       4.892   2.131   3.221  1.00  0.00     0.278 C 
ENDBRANCH  20  26
ENDBRANCH  12  16
BRANCH  14  28
ATOM     28  C   UNL     1      -0.932   6.634   6.870  1.00  0.00    -0.002 A 
ATOM     29  C   UNL     1      -1.644   7.841   6.931  1.00  0.00     0.011 A 
ATOM     30  C   UNL     1      -0.400   6.073   8.035  1.00  0.00     0.011 A 
ATOM     31  C   UNL     1      -1.854   8.475   8.156  1.00  0.00     0.021 A 
ATOM     32  C   UNL     1      -0.587   6.720   9.263  1.00  0.00     0.021 A 
ATOM     33  C   UNL     1      -1.317   7.914   9.317  1.00  0.00     0.067 A 
BRANCH  33  34
ATOM     34  S   UNL     1      -1.633   8.710  10.876  1.00  0.00     0.175 S 
ATOM     35  C   UNL     1      -0.807  10.276  10.752  1.00  0.00     0.163 C 
ATOM     36  O   UNL     1      -3.062   8.947  10.936  1.00  0.00    -0.224 OA
ATOM     37  O   UNL     1      -0.971   7.932  11.909  1.00  0.00    -0.224 OA
ENDBRANCH  33  34
ENDBRANCH  14  28
ENDBRANCH   6  11
ENDBRANCH   3   5
ENDBRANCH   2   3
ENDBRANCH   1   2
BRANCH   1  38
ATOM     38  C   UNL     1       2.615   9.231  -3.658  1.00  0.00     0.275 C 
BRANCH  38  39
ATOM     39  O   UNL     1       3.638   9.394  -2.660  1.00  0.00    -0.458 OA
BRANCH  39  40
ATOM     40  C   UNL     1       3.420  10.369  -1.750  1.00  0.00     0.338 C 
ATOM     41  O   UNL     1       2.479  11.149  -1.713  1.00  0.00    -0.246 OA
BRANCH  40  42
ATOM     42  C   UNL     1       4.494  10.377  -0.742  1.00  0.00     0.060 A 
ATOM     43  C   UNL     1       4.685   9.261   0.064  1.00  0.00     0.016 A 
ATOM     44  C   UNL     1       5.204  11.547  -0.486  1.00  0.00     0.016 A 
ATOM     45  C   UNL     1       5.468   9.351   1.214  1.00  0.00     0.010 A 
ATOM     46  C   UNL     1       6.096  11.592   0.593  1.00  0.00     0.010 A 
ATOM     47  C   UNL     1       6.197  10.516   1.494  1.00  0.00    -0.014 A 
BRANCH  47  48
ATOM     48  C   UNL     1       7.031  10.623   2.731  1.00  0.00     0.031 A 
ATOM     49  C   UNL     1       6.831  11.776   3.689  1.00  0.00     0.074 A 
ATOM     50  C   UNL     1       7.978   9.701   3.006  1.00  0.00     0.049 A 
ATOM     51  N   UNL     1       7.567  12.143   4.709  1.00  0.00    -0.248 NA
ATOM     52  C   UNL     1       5.663  12.643   3.459  1.00  0.00     0.031 C 
ATOM     53  C   UNL     1       8.282   8.527   2.186  1.00  0.00     0.029 A 
ATOM     54  N   UNL     1       8.867   9.609   4.051  1.00  0.00    -0.354 N 
ATOM     55  C   UNL     1       7.005  13.325   5.182  1.00  0.00     0.074 A 
ATOM     56  C   UNL     1       5.860  13.610   4.345  1.00  0.00     0.031 C 
ATOM     57  C   UNL     1       9.254   7.815   2.774  1.00  0.00     0.029 A 
ATOM     58  C   UNL     1       9.708   8.523   3.965  1.00  0.00     0.049 A 
ATOM     59  H   UNL     1       8.898  10.258   4.791  1.00  0.00     0.167 HD
ATOM     60  C   UNL     1       7.396  14.097   6.225  1.00  0.00     0.034 A 
ATOM     61  C   UNL     1      10.754   8.152   4.729  1.00  0.00     0.034 A 
ATOM     62  C   UNL     1       8.475  13.765   7.119  1.00  0.00     0.049 A 
ATOM     63  C   UNL     1      11.149   9.008   5.899  1.00  0.00     0.074 A 
ATOM     64  C   UNL     1       8.918  14.463   8.230  1.00  0.00     0.029 A 
ATOM     65  N   UNL     1       9.265  12.631   7.019  1.00  0.00    -0.354 N 
ATOM     66  N   UNL     1      10.585  10.104   6.346  1.00  0.00    -0.248 NA
ATOM     67  C   UNL     1      12.319   8.574   6.674  1.00  0.00     0.031 C 
ATOM     68  C   UNL     1       9.978  13.750   8.801  1.00  0.00     0.029 A 
ATOM     69  C   UNL     1      10.188  12.604   8.052  1.00  0.00     0.049 A 
ATOM     70  H   UNL     1       9.183  11.945   6.318  1.00  0.00     0.167 HD
ATOM     71  C   UNL     1      11.319  10.480   7.464  1.00  0.00     0.074 A 
ATOM     72  C   UNL     1      12.350   9.477   7.645  1.00  0.00     0.031 C 
ATOM     73  C   UNL     1      11.171  11.571   8.254  1.00  0.00     0.034 A 
BRANCH  60  74
ATOM     74  C   UNL     1       6.629  15.369   6.486  1.00  0.00     0.023 A 
ATOM     75  C   UNL     1       5.343  15.307   7.056  1.00  0.00     0.012 A 
ATOM     76  C   UNL     1       7.206  16.628   6.221  1.00  0.00     0.148 A 
ATOM     77  C   UNL     1       4.628  16.474   7.328  1.00  0.00     0.002 A 
ATOM     78  C   UNL     1       6.505  17.788   6.532  1.00  0.00     0.091 A 
ATOM     79  F   UNL     1       8.422  16.671   5.658  1.00  0.00    -0.205 F 
ATOM     80  C   UNL     1       5.212  17.713   7.076  1.00  0.00     0.022 A 
BRANCH  78  81
ATOM     81  S   UNL     1       7.209  19.428   6.317  1.00  0.00     0.127 S 
ATOM     82  O   UNL     1       6.525  19.887   5.110  1.00  0.00    -0.237 OA
ATOM     83  O   UNL     1       6.797  20.108   7.546  1.00  0.00    -0.237 OA
ATOM     84  O   UNL     1       8.646  19.229   6.192  1.00  0.00    -0.744 OA
ENDBRANCH  78  81
ENDBRANCH  60  74
BRANCH  61  85
ATOM     85  C   UNL     1      11.486   6.889   4.420  1.00  0.00     0.023 A 
ATOM     86  C   UNL     1      11.378   5.797   5.303  1.00  0.00     0.012 A 
ATOM     87  C   UNL     1      12.243   6.744   3.241  1.00  0.00     0.148 A 
ATOM     88  C   UNL     1      12.021   4.590   5.025  1.00  0.00     0.002 A 
ATOM     89  C   UNL     1      12.828   5.520   2.939  1.00  0.00     0.091 A 
ATOM     90  F   UNL     1      12.360   7.802   2.425  1.00  0.00    -0.205 F 
ATOM     91  C   UNL     1      12.732   4.447   3.837  1.00  0.00     0.022 A 
BRANCH  89  92
ATOM     92  S   UNL     1      13.628   5.211   1.360  1.00  0.00     0.127 S 
ATOM     93  O   UNL     1      15.041   5.265   1.724  1.00  0.00    -0.237 OA
ATOM     94  O   UNL     1      13.131   3.877   1.020  1.00  0.00    -0.237 OA
ATOM     95  O   UNL     1      13.155   6.266   0.474  1.00  0.00    -0.744 OA
ENDBRANCH  89  92
ENDBRANCH  61  85
BRANCH  73  96
ATOM     96  C   UNL     1      12.127  11.729   9.405  1.00  0.00     0.023 A 
ATOM     97  C   UNL     1      13.453  12.134   9.156  1.00  0.00     0.012 A 
ATOM     98  C   UNL     1      11.699  11.535  10.733  1.00  0.00     0.148 A 
ATOM     99  C   UNL     1      14.348  12.317  10.210  1.00  0.00     0.002 A 
ATOM    100  C   UNL     1      12.585  11.760  11.781  1.00  0.00     0.091 A 
ATOM    101  F   UNL     1      10.440  11.127  10.948  1.00  0.00    -0.205 F 
ATOM    102  C   UNL     1      13.912  12.141  11.521  1.00  0.00     0.022 A 
BRANCH 100 103
ATOM    103  S   UNL     1      12.081  11.639  13.501  1.00  0.00     0.127 S 
ATOM    104  O   UNL     1      12.644  10.346  13.887  1.00  0.00    -0.237 OA
ATOM    105  O   UNL     1      12.742  12.797  14.104  1.00  0.00    -0.237 OA
ATOM    106  O   UNL     1      10.626  11.715  13.493  1.00  0.00    -0.744 OA
ENDBRANCH 100 103
ENDBRANCH  73  96
ENDBRANCH  47  48
ENDBRANCH  40  42
ENDBRANCH  39  40
ENDBRANCH  38  39
ENDBRANCH   1  38
TORSDOF 21
