REMARK SMILES Cc1nnc(SCC2=C(C(=O)OCCOC(=O)c3ccc(-c4c5nc(c(-c6cccc(S(=O)(=O)[O-])c6F)c6ccc([nH]6)c(-c6cccc(S(=O)(=O)[O-])c6F)c6nc(c(-c7cccc(S(=O)(=O)[O-])c7F)c7ccc4[nH]7)C=C6)C=C5)cc3)N3C(=O)[C@H](NC(=O)c4ccc(F)cc4F)[C@H]3SC2)s1
REMARK SMILES IDX 13 1 12 2 10 3 11 4 9 5 8 6 98 7 81 8 97 9 82 10 96 11 83 12
REMARK SMILES IDX 84 13 7 14 6 15 5 16 1 17 2 18 3 19 99 20 4 21 85 22 86 23
REMARK SMILES IDX 87 25 88 26 89 27 94 28 90 29 93 30 95 31 91 32 92 33 14 34
REMARK SMILES IDX 15 35 16 36 17 37 18 38 19 39 80 40 20 41 79 42 21 43 22 44
REMARK SMILES IDX 23 45 73 46 24 47 78 48 72 49 74 50 25 51 77 52 71 53 70 54
REMARK SMILES IDX 26 56 58 57 38 58 57 59 39 60 42 61 56 62 75 63 40 64 41 65
REMARK SMILES IDX 55 67 76 68 43 69 27 70 28 71 36 72 29 73 31 74 37 75 30 76
REMARK SMILES IDX 32 77 33 78 34 79 35 80 59 81 60 82 68 83 61 84 63 85 69 86
REMARK SMILES IDX 62 87 64 88 65 89 66 90 67 91 44 92 45 93 53 94 46 95 48 96
REMARK SMILES IDX 54 97 47 98 49 99 50 100 51 101 52 102
REMARK H PARENT 85 24 74 55 42 66
REMARK Flexibility Score: inf
ROOT
ATOM      1  C   UNL     1       3.198  -3.025  -2.261  1.00  0.00     0.275 C 
ENDROOT
BRANCH   1   2
ATOM      2  O   UNL     1       3.985  -2.631  -1.116  1.00  0.00    -0.457 OA
BRANCH   2   3
ATOM      3  C   UNL     1       3.358  -2.776   0.076  1.00  0.00     0.355 C 
ATOM      4  O   UNL     1       2.281  -3.324   0.270  1.00  0.00    -0.244 OA
BRANCH   3   5
ATOM      5  C   UNL     1       4.083  -2.106   1.197  1.00  0.00     0.132 C 
ATOM      6  C   UNL     1       4.420  -0.792   1.215  1.00  0.00    -0.019 C 
ATOM      7  C   UNL     1       5.071  -0.114   2.422  1.00  0.00     0.106 C 
ATOM      8  N   UNL     1       4.182  -2.826   2.340  1.00  0.00    -0.289 N 
ATOM      9  S   UNL     1       5.455  -1.155   3.864  1.00  0.00    -0.129 SA
ATOM     10  C   UNL     1       4.465  -4.082   2.725  1.00  0.00     0.253 C 
ATOM     11  C   UNL     1       4.027  -2.247   3.641  1.00  0.00     0.181 C 
ATOM     12  O   UNL     1       4.874  -5.037   2.115  1.00  0.00    -0.272 OA
ATOM     13  C   UNL     1       4.172  -3.691   4.231  1.00  0.00     0.206 C 
BRANCH   6  14
ATOM     14  C   UNL     1       4.250   0.141   0.030  1.00  0.00     0.111 C 
BRANCH  14  15
ATOM     15  S   UNL     1       3.093   1.496   0.388  1.00  0.00    -0.089 SA
BRANCH  15  16
ATOM     16  C   UNL     1       1.552   0.731   0.091  1.00  0.00     0.174 A 
ATOM     17  C   UNL     1      -2.181  -0.139   0.018  1.00  0.00     0.081 C 
ATOM     18  C   UNL     1      -0.709   0.036  -0.072  1.00  0.00     0.115 A 
ATOM     19  N   UNL     1       0.096  -0.712  -0.798  1.00  0.00    -0.143 NA
ATOM     20  S   UNL     1       0.086   1.312   0.761  1.00  0.00    -0.091 S 
ATOM     21  N   UNL     1       1.412  -0.306  -0.702  1.00  0.00    -0.132 NA
ENDBRANCH  15  16
ENDBRANCH  14  15
ENDBRANCH   6  14
BRANCH  13  22
ATOM     22  N   UNL     1       2.939  -4.330   4.781  1.00  0.00    -0.338 N 
ATOM     23  C   UNL     1       2.127  -3.909   5.805  1.00  0.00     0.254 C 
ATOM     24  H   UNL     1       2.671  -5.173   4.348  1.00  0.00     0.164 HD
ATOM     25  O   UNL     1       1.131  -4.533   6.143  1.00  0.00    -0.269 OA
BRANCH  23  26
ATOM     26  C   UNL     1       2.475  -2.688   6.531  1.00  0.00     0.075 A 
ATOM     27  C   UNL     1       3.300  -2.761   7.656  1.00  0.00     0.020 A 
ATOM     28  C   UNL     1       1.945  -1.467   6.118  1.00  0.00     0.138 A 
ATOM     29  C   UNL     1       3.634  -1.583   8.327  1.00  0.00     0.040 A 
ATOM     30  C   UNL     1       2.295  -0.292   6.769  1.00  0.00     0.079 A 
ATOM     31  F   UNL     1       1.139  -1.394   5.048  1.00  0.00    -0.206 F 
ATOM     32  C   UNL     1       3.141  -0.362   7.868  1.00  0.00     0.126 A 
ATOM     33  F   UNL     1       3.489   0.768   8.497  1.00  0.00    -0.207 F 
ENDBRANCH  23  26
ENDBRANCH  13  22
ENDBRANCH   3   5
ENDBRANCH   2   3
ENDBRANCH   1   2
BRANCH   1  34
ATOM     34  C   UNL     1       3.591  -4.413  -2.754  1.00  0.00     0.275 C 
BRANCH  34  35
ATOM     35  O   UNL     1       3.216  -5.381  -1.766  1.00  0.00    -0.458 OA
BRANCH  35  36
ATOM     36  C   UNL     1       4.111  -6.366  -1.517  1.00  0.00     0.338 C 
ATOM     37  O   UNL     1       5.141  -6.577  -2.136  1.00  0.00    -0.246 OA
BRANCH  36  38
ATOM     38  C   UNL     1       3.668  -7.168  -0.350  1.00  0.00     0.060 A 
ATOM     39  C   UNL     1       2.895  -6.600   0.660  1.00  0.00     0.016 A 
ATOM     40  C   UNL     1       4.128  -8.477  -0.200  1.00  0.00     0.016 A 
ATOM     41  C   UNL     1       2.716  -7.269   1.870  1.00  0.00     0.010 A 
ATOM     42  C   UNL     1       3.848  -9.189   0.974  1.00  0.00     0.010 A 
ATOM     43  C   UNL     1       3.200  -8.570   2.058  1.00  0.00    -0.014 A 
BRANCH  43  44
ATOM     44  C   UNL     1       3.119  -9.235   3.397  1.00  0.00     0.031 A 
ATOM     45  C   UNL     1       4.359  -9.831   4.023  1.00  0.00     0.074 A 
ATOM     46  C   UNL     1       1.960  -9.291   4.087  1.00  0.00     0.049 A 
ATOM     47  N   UNL     1       4.462 -10.647   5.042  1.00  0.00    -0.248 NA
ATOM     48  C   UNL     1       5.654  -9.485   3.410  1.00  0.00     0.031 C 
ATOM     49  C   UNL     1       0.680  -8.731   3.652  1.00  0.00     0.029 A 
ATOM     50  N   UNL     1       1.675  -9.840   5.316  1.00  0.00    -0.354 N 
ATOM     51  C   UNL     1       5.803 -11.009   5.109  1.00  0.00     0.074 A 
ATOM     52  C   UNL     1       6.485 -10.294   4.052  1.00  0.00     0.031 C 
ATOM     53  C   UNL     1      -0.231  -8.902   4.620  1.00  0.00     0.029 A 
ATOM     54  C   UNL     1       0.362  -9.682   5.699  1.00  0.00     0.049 A 
ATOM     55  H   UNL     1       2.346 -10.302   5.869  1.00  0.00     0.167 HD
ATOM     56  C   UNL     1       6.412 -11.854   5.974  1.00  0.00     0.034 A 
ATOM     57  C   UNL     1      -0.308 -10.146   6.773  1.00  0.00     0.034 A 
ATOM     58  C   UNL     1       5.768 -12.448   7.115  1.00  0.00     0.049 A 
ATOM     59  C   UNL     1       0.406 -11.021   7.764  1.00  0.00     0.074 A 
ATOM     60  C   UNL     1       6.312 -13.290   8.070  1.00  0.00     0.029 A 
ATOM     61  N   UNL     1       4.450 -12.228   7.482  1.00  0.00    -0.354 N 
ATOM     62  N   UNL     1       1.665 -11.383   7.789  1.00  0.00    -0.248 NA
ATOM     63  C   UNL     1      -0.398 -11.564   8.869  1.00  0.00     0.031 C 
ATOM     64  C   UNL     1       5.326 -13.566   9.024  1.00  0.00     0.029 A 
ATOM     65  C   UNL     1       4.168 -12.900   8.659  1.00  0.00     0.049 A 
ATOM     66  H   UNL     1       3.809 -11.675   6.979  1.00  0.00     0.167 HD
ATOM     67  C   UNL     1       1.804 -12.202   8.903  1.00  0.00     0.074 A 
ATOM     68  C   UNL     1       0.511 -12.243   9.556  1.00  0.00     0.031 C 
ATOM     69  C   UNL     1       2.891 -12.892   9.324  1.00  0.00     0.034 A 
BRANCH  56  70
ATOM     70  C   UNL     1       7.867 -12.166   5.746  1.00  0.00     0.023 A 
ATOM     71  C   UNL     1       8.854 -11.231   6.114  1.00  0.00     0.012 A 
ATOM     72  C   UNL     1       8.259 -13.418   5.229  1.00  0.00     0.148 A 
ATOM     73  C   UNL     1      10.207 -11.526   5.947  1.00  0.00     0.002 A 
ATOM     74  C   UNL     1       9.611 -13.720   5.101  1.00  0.00     0.091 A 
ATOM     75  F   UNL     1       7.306 -14.287   4.860  1.00  0.00    -0.205 F 
ATOM     76  C   UNL     1      10.585 -12.773   5.452  1.00  0.00     0.022 A 
BRANCH  74  77
ATOM     77  S   UNL     1      10.183 -15.331   4.548  1.00  0.00     0.127 S 
ATOM     78  O   UNL     1      10.514 -15.066   3.149  1.00  0.00    -0.237 OA
ATOM     79  O   UNL     1      11.341 -15.568   5.412  1.00  0.00    -0.237 OA
ATOM     80  O   UNL     1       9.070 -16.243   4.774  1.00  0.00    -0.744 OA
ENDBRANCH  74  77
ENDBRANCH  56  70
BRANCH  57  81
ATOM     81  C   UNL     1      -1.742  -9.779   6.964  1.00  0.00     0.023 A 
ATOM     82  C   UNL     1      -2.096  -8.917   8.020  1.00  0.00     0.012 A 
ATOM     83  C   UNL     1      -2.743 -10.221   6.078  1.00  0.00     0.148 A 
ATOM     84  C   UNL     1      -3.420  -8.509   8.191  1.00  0.00     0.002 A 
ATOM     85  C   UNL     1      -4.046  -9.756   6.213  1.00  0.00     0.091 A 
ATOM     86  F   UNL     1      -2.401 -11.073   5.100  1.00  0.00    -0.205 F 
ATOM     87  C   UNL     1      -4.391  -8.912   7.278  1.00  0.00     0.022 A 
BRANCH  85  88
ATOM     88  S   UNL     1      -5.293 -10.102   4.966  1.00  0.00     0.127 S 
ATOM     89  O   UNL     1      -5.960 -11.275   5.521  1.00  0.00    -0.237 OA
ATOM     90  O   UNL     1      -6.096  -8.878   4.972  1.00  0.00    -0.237 OA
ATOM     91  O   UNL     1      -4.542 -10.309   3.734  1.00  0.00    -0.744 OA
ENDBRANCH  85  88
ENDBRANCH  57  81
BRANCH  69  92
ATOM     92  C   UNL     1       2.729 -13.761  10.540  1.00  0.00     0.023 A 
ATOM     93  C   UNL     1       2.073 -15.002  10.411  1.00  0.00     0.012 A 
ATOM     94  C   UNL     1       3.268 -13.389  11.785  1.00  0.00     0.148 A 
ATOM     95  C   UNL     1       1.935 -15.848  11.509  1.00  0.00     0.002 A 
ATOM     96  C   UNL     1       3.156 -14.254  12.869  1.00  0.00     0.091 A 
ATOM     97  F   UNL     1       3.868 -12.194  11.896  1.00  0.00    -0.205 F 
ATOM     98  C   UNL     1       2.484 -15.480  12.735  1.00  0.00     0.022 A 
BRANCH  96  99
ATOM     99  S   UNL     1       3.903 -13.878  14.459  1.00  0.00     0.127 S 
ATOM    100  O   UNL     1       2.775 -13.310  15.195  1.00  0.00    -0.237 OA
ATOM    101  O   UNL     1       4.335 -15.195  14.930  1.00  0.00    -0.237 OA
ATOM    102  O   UNL     1       4.997 -12.961  14.168  1.00  0.00    -0.744 OA
ENDBRANCH  96  99
ENDBRANCH  69  92
ENDBRANCH  43  44
ENDBRANCH  36  38
ENDBRANCH  35  36
ENDBRANCH  34  35
ENDBRANCH   1  34
TORSDOF 19
