REMARK SMILES O=C(CC[C@@H]1CN(c2ccncc2)CC[C@@H]1[NH+]1CCOCC1)OCCOC(=O)c1ccc(-c2c3nc(c(-c4cccc(S(=O)(=O)[O-])c4F)c4ccc([nH]4)c(-c4cccc(S(=O)(=O)[O-])c4F)c4nc(c(-c5cccc(S(=O)(=O)[O-])c5F)c5ccc2[nH]5)C=C4)C=C3)cc1
REMARK SMILES IDX 24 1 23 2 2 3 1 4 3 5 4 6 5 7 6 8 16 9 7 10 15 11 14 12
REMARK SMILES IDX 17 13 18 14 22 15 19 17 21 18 20 19 8 20 9 21 13 22 10 23
REMARK SMILES IDX 12 24 11 25 25 26 26 27 27 28 28 29 29 30 30 31 91 32 31 33
REMARK SMILES IDX 90 34 32 35 33 36 34 37 84 38 35 39 89 40 83 41 85 42 36 43
REMARK SMILES IDX 88 44 82 45 81 46 37 48 69 49 49 50 68 51 50 52 53 53 67 54
REMARK SMILES IDX 86 55 51 56 52 57 66 59 87 60 54 61 38 62 39 63 47 64 40 65
REMARK SMILES IDX 42 66 48 67 41 68 43 69 44 70 45 71 46 72 70 73 71 74 79 75
REMARK SMILES IDX 72 76 74 77 80 78 73 79 75 80 76 81 77 82 78 83 55 84 56 85
REMARK SMILES IDX 64 86 57 87 59 88 65 89 58 90 60 91 61 92 62 93 63 94
REMARK H PARENT 17 16 85 47 53 58
REMARK Flexibility Score: inf
ROOT
ATOM      1  C   UNL     1       5.435   1.087  -2.014  1.00  0.00     0.274 C 
ENDROOT
BRANCH   1   2
ATOM      2  O   UNL     1       6.428   0.215  -2.596  1.00  0.00    -0.462 OA
BRANCH   2   3
ATOM      3  C   UNL     1       6.302  -1.120  -2.770  1.00  0.00     0.305 C 
ATOM      4  O   UNL     1       7.222  -1.774  -3.258  1.00  0.00    -0.252 OA
BRANCH   3   5
ATOM      5  C   UNL     1       5.003  -1.771  -2.386  1.00  0.00     0.123 C 
BRANCH   5   6
ATOM      6  C   UNL     1       5.035  -2.557  -1.078  1.00  0.00     0.023 C 
BRANCH   6   7
ATOM      7  C   UNL     1       5.120  -1.824   0.289  1.00  0.00     0.067 C 
ATOM      8  C   UNL     1       4.074  -0.700   0.497  1.00  0.00     0.126 C 
ATOM      9  C   UNL     1       6.555  -1.664   0.916  1.00  0.00     0.190 C 
ATOM     10  N   UNL     1       4.409   0.305   1.514  1.00  0.00    -0.371 N 
ATOM     11  C   UNL     1       6.434  -0.864   2.209  1.00  0.00     0.087 C 
ATOM     12  C   UNL     1       5.766   0.473   2.006  1.00  0.00     0.122 C 
BRANCH   9  13
ATOM     13  N   UNL     1       7.700  -1.387   0.022  1.00  0.00    -0.328 N 
ATOM     14  C   UNL     1       8.894  -2.226   0.317  1.00  0.00     0.291 C 
ATOM     15  C   UNL     1       8.203  -0.019  -0.198  1.00  0.00     0.291 C 
ATOM     16  H   UNL     1       7.212  -1.622  -0.843  1.00  0.00     0.348 HD
ATOM     17  C   UNL     1       9.813  -1.655   1.415  1.00  0.00     0.221 C 
ATOM     18  C   UNL     1       9.194   0.542   0.837  1.00  0.00     0.221 C 
ATOM     19  O   UNL     1      10.284  -0.346   1.084  1.00  0.00    -0.370 OA
ENDBRANCH   9  13
BRANCH  10  20
ATOM     20  C   UNL     1       3.494   1.310   1.835  1.00  0.00     0.040 A 
ATOM     21  C   UNL     1       3.884   2.651   1.971  1.00  0.00     0.046 A 
ATOM     22  C   UNL     1       2.159   1.017   2.117  1.00  0.00     0.046 A 
ATOM     23  C   UNL     1       2.969   3.598   2.410  1.00  0.00     0.113 A 
ATOM     24  C   UNL     1       1.316   2.028   2.562  1.00  0.00     0.113 A 
ATOM     25  N   UNL     1       1.692   3.313   2.722  1.00  0.00    -0.265 NA
ENDBRANCH  10  20
ENDBRANCH   6   7
ENDBRANCH   5   6
ENDBRANCH   3   5
ENDBRANCH   2   3
ENDBRANCH   1   2
BRANCH   1  26
ATOM     26  C   UNL     1       5.784   2.537  -2.339  1.00  0.00     0.275 C 
BRANCH  26  27
ATOM     27  O   UNL     1       5.382   2.788  -3.688  1.00  0.00    -0.458 OA
BRANCH  27  28
ATOM     28  C   UNL     1       6.223   2.198  -4.579  1.00  0.00     0.338 C 
ATOM     29  O   UNL     1       7.430   2.293  -4.574  1.00  0.00    -0.246 OA
BRANCH  28  30
ATOM     30  C   UNL     1       5.438   1.251  -5.414  1.00  0.00     0.060 A 
ATOM     31  C   UNL     1       6.132   0.212  -6.045  1.00  0.00     0.016 A 
ATOM     32  C   UNL     1       4.048   1.367  -5.567  1.00  0.00     0.016 A 
ATOM     33  C   UNL     1       5.474  -0.606  -6.956  1.00  0.00     0.010 A 
ATOM     34  C   UNL     1       3.383   0.539  -6.468  1.00  0.00     0.010 A 
ATOM     35  C   UNL     1       4.122  -0.373  -7.236  1.00  0.00    -0.014 A 
BRANCH  35  36
ATOM     36  C   UNL     1       3.600  -0.774  -8.560  1.00  0.00     0.031 A 
ATOM     37  C   UNL     1       3.691   0.250  -9.665  1.00  0.00     0.074 A 
ATOM     38  C   UNL     1       3.080  -1.991  -8.779  1.00  0.00     0.049 A 
ATOM     39  N   UNL     1       3.343   0.154 -10.920  1.00  0.00    -0.248 NA
ATOM     40  C   UNL     1       4.243   1.569  -9.301  1.00  0.00     0.031 C 
ATOM     41  C   UNL     1       2.937  -3.046  -7.779  1.00  0.00     0.029 A 
ATOM     42  N   UNL     1       2.561  -2.534  -9.925  1.00  0.00    -0.354 N 
ATOM     43  C   UNL     1       3.610   1.399 -11.480  1.00  0.00     0.074 A 
ATOM     44  C   UNL     1       4.120   2.246 -10.430  1.00  0.00     0.031 C 
ATOM     45  C   UNL     1       2.348  -4.111  -8.355  1.00  0.00     0.029 A 
ATOM     46  C   UNL     1       2.072  -3.806  -9.758  1.00  0.00     0.049 A 
ATOM     47  H   UNL     1       2.540  -2.057 -10.786  1.00  0.00     0.167 HD
ATOM     48  C   UNL     1       3.470   1.798 -12.764  1.00  0.00     0.034 A 
ATOM     49  C   UNL     1       1.474  -4.623 -10.647  1.00  0.00     0.034 A 
ATOM     50  C   UNL     1       2.989   0.941 -13.807  1.00  0.00     0.049 A 
ATOM     51  C   UNL     1       1.337  -4.160 -12.077  1.00  0.00     0.074 A 
ATOM     52  C   UNL     1       2.852   1.214 -15.154  1.00  0.00     0.029 A 
ATOM     53  N   UNL     1       2.557  -0.362 -13.610  1.00  0.00    -0.354 N 
ATOM     54  N   UNL     1       1.722  -3.030 -12.622  1.00  0.00    -0.248 NA
ATOM     55  C   UNL     1       0.725  -5.103 -13.023  1.00  0.00     0.031 C 
ATOM     56  C   UNL     1       2.314   0.079 -15.770  1.00  0.00     0.029 A 
ATOM     57  C   UNL     1       2.142  -0.907 -14.809  1.00  0.00     0.049 A 
ATOM     58  H   UNL     1       2.547  -0.830 -12.744  1.00  0.00     0.167 HD
ATOM     59  C   UNL     1       1.441  -3.143 -13.979  1.00  0.00     0.074 A 
ATOM     60  C   UNL     1       0.865  -4.459 -14.174  1.00  0.00     0.031 C 
ATOM     61  C   UNL     1       1.628  -2.242 -14.977  1.00  0.00     0.034 A 
BRANCH  48  62
ATOM     62  C   UNL     1       3.865   3.211 -13.099  1.00  0.00     0.023 A 
ATOM     63  C   UNL     1       5.228   3.573 -13.116  1.00  0.00     0.012 A 
ATOM     64  C   UNL     1       2.890   4.178 -13.410  1.00  0.00     0.148 A 
ATOM     65  C   UNL     1       5.613   4.882 -13.402  1.00  0.00     0.002 A 
ATOM     66  C   UNL     1       3.284   5.471 -13.737  1.00  0.00     0.091 A 
ATOM     67  F   UNL     1       1.599   3.825 -13.354  1.00  0.00    -0.205 F 
ATOM     68  C   UNL     1       4.643   5.827 -13.722  1.00  0.00     0.022 A 
BRANCH  66  69
ATOM     69  S   UNL     1       2.113   6.739 -14.232  1.00  0.00     0.127 S 
ATOM     70  O   UNL     1       2.114   7.615 -13.061  1.00  0.00    -0.237 OA
ATOM     71  O   UNL     1       2.756   7.306 -15.418  1.00  0.00    -0.237 OA
ATOM     72  O   UNL     1       0.860   6.047 -14.495  1.00  0.00    -0.744 OA
ENDBRANCH  66  69
ENDBRANCH  48  62
BRANCH  49  73
ATOM     73  C   UNL     1       1.036  -5.985 -10.232  1.00  0.00     0.023 A 
ATOM     74  C   UNL     1       1.725  -7.113 -10.720  1.00  0.00     0.012 A 
ATOM     75  C   UNL     1      -0.037  -6.170  -9.338  1.00  0.00     0.148 A 
ATOM     76  C   UNL     1       1.334  -8.401 -10.350  1.00  0.00     0.002 A 
ATOM     77  C   UNL     1      -0.388  -7.454  -8.933  1.00  0.00     0.091 A 
ATOM     78  F   UNL     1      -0.691  -5.086  -8.897  1.00  0.00    -0.205 F 
ATOM     79  C   UNL     1       0.286  -8.571  -9.450  1.00  0.00     0.022 A 
BRANCH  77  80
ATOM     80  S   UNL     1      -1.641  -7.759  -7.683  1.00  0.00     0.127 S 
ATOM     81  O   UNL     1      -2.734  -8.309  -8.480  1.00  0.00    -0.237 OA
ATOM     82  O   UNL     1      -0.970  -8.723  -6.809  1.00  0.00    -0.237 OA
ATOM     83  O   UNL     1      -1.897  -6.466  -7.061  1.00  0.00    -0.744 OA
ENDBRANCH  77  80
ENDBRANCH  49  73
BRANCH  61  84
ATOM     84  C   UNL     1       1.249  -2.658 -16.373  1.00  0.00     0.023 A 
ATOM     85  C   UNL     1      -0.110  -2.749 -16.732  1.00  0.00     0.012 A 
ATOM     86  C   UNL     1       2.241  -2.873 -17.349  1.00  0.00     0.148 A 
ATOM     87  C   UNL     1      -0.475  -3.085 -18.034  1.00  0.00     0.002 A 
ATOM     88  C   UNL     1       1.869  -3.158 -18.657  1.00  0.00     0.091 A 
ATOM     89  F   UNL     1       3.529  -2.798 -16.983  1.00  0.00    -0.205 F 
ATOM     90  C   UNL     1       0.513  -3.276 -18.998  1.00  0.00     0.022 A 
BRANCH  88  91
ATOM     91  S   UNL     1       3.076  -3.314 -19.978  1.00  0.00     0.127 S 
ATOM     92  O   UNL     1       3.157  -4.764 -20.138  1.00  0.00    -0.237 OA
ATOM     93  O   UNL     1       2.423  -2.614 -21.085  1.00  0.00    -0.237 OA
ATOM     94  O   UNL     1       4.285  -2.664 -19.488  1.00  0.00    -0.744 OA
ENDBRANCH  88  91
ENDBRANCH  61  84
ENDBRANCH  35  36
ENDBRANCH  28  30
ENDBRANCH  27  28
ENDBRANCH  26  27
ENDBRANCH   1  26
TORSDOF 18
