REMARK SMILES C[NH+]1CCC(NC(=O)N[C@H]2C=C[C@H](C(=O)OCCOC(=O)c3ccc(-c4c5nc(c(-c6cccc(S(=O)(=O)[O-])c6F)c6ccc([nH]6)c(-c6cccc(S(=O)(=O)[O-])c6F)c6nc(c(-c7cccc(S(=O)(=O)[O-])c7F)c7ccc4[nH]7)C=C6)C=C5)cc3)C2)CC1
REMARK SMILES IDX 18 1 17 2 16 3 14 4 15 5 13 6 10 7 11 8 85 9 12 10 9 11 6 12
REMARK SMILES IDX 7 13 8 15 5 17 1 18 2 19 3 20 87 21 4 23 86 24 19 25 20 26
REMARK SMILES IDX 21 27 22 28 23 29 84 30 24 31 83 32 25 33 26 34 27 35 77 36
REMARK SMILES IDX 28 37 82 38 76 39 78 40 29 41 81 42 75 43 74 44 30 46 62 47
REMARK SMILES IDX 42 48 61 49 43 50 46 51 60 52 79 53 44 54 45 55 59 57 80 58
REMARK SMILES IDX 47 59 31 60 32 61 40 62 33 63 35 64 41 65 34 66 36 67 37 68
REMARK SMILES IDX 38 69 39 70 63 71 64 72 72 73 65 74 67 75 73 76 66 77 68 78
REMARK SMILES IDX 69 79 70 80 71 81 48 82 49 83 57 84 50 85 52 86 58 87 51 88
REMARK SMILES IDX 53 89 54 90 55 91 56 92
REMARK H PARENT 6 14 9 16 2 22 78 45 46 56
REMARK Flexibility Score: inf
ROOT
ATOM      1  C   UNL     1      -2.593   2.916  -4.076  1.00  0.00     0.275 C 
ENDROOT
BRANCH   1   2
ATOM      2  C   UNL     1      -2.744   1.611  -3.301  1.00  0.00     0.274 C 
BRANCH   2   3
ATOM      3  O   UNL     1      -1.504   1.257  -2.655  1.00  0.00    -0.462 OA
BRANCH   3   4
ATOM      4  C   UNL     1      -0.875   0.141  -3.132  1.00  0.00     0.312 C 
ATOM      5  O   UNL     1      -1.263  -0.534  -4.072  1.00  0.00    -0.252 OA
BRANCH   4   6
ATOM      6  C   UNL     1       0.306  -0.205  -2.237  1.00  0.00     0.124 C 
ATOM      7  C   UNL     1       2.770  -0.085  -2.336  1.00  0.00     0.107 C 
ATOM      8  C   UNL     1       2.274  -1.476  -2.518  1.00  0.00    -0.006 C 
ATOM      9  C   UNL     1       1.501   0.776  -2.208  1.00  0.00     0.048 C 
ATOM     10  C   UNL     1       0.938  -1.536  -2.526  1.00  0.00    -0.014 C 
BRANCH   7  11
ATOM     11  N   UNL     1       3.824  -0.006  -1.330  1.00  0.00    -0.332 N 
ATOM     12  N   UNL     1       3.150  -0.254   0.944  1.00  0.00    -0.335 N 
ATOM     13  C   UNL     1       4.062  -0.108  -0.022  1.00  0.00     0.315 C 
ATOM     14  H   UNL     1       3.533  -0.407   1.837  1.00  0.00     0.165 HD
ATOM     15  O   UNL     1       5.243  -0.063   0.338  1.00  0.00    -0.249 OA
ATOM     16  H   UNL     1       4.673   0.199  -1.785  1.00  0.00     0.165 HD
BRANCH  12  17
ATOM     17  C   UNL     1       1.713  -0.229   0.921  1.00  0.00     0.095 C 
ATOM     18  C   UNL     1      -2.448  -0.042   1.034  1.00  0.00     0.332 C 
ATOM     19  N   UNL     1      -1.101  -0.062   1.623  1.00  0.00    -0.337 N 
ATOM     20  C   UNL     1      -0.361   1.132   1.183  1.00  0.00     0.264 C 
ATOM     21  C   UNL     1      -0.454  -1.354   1.335  1.00  0.00     0.264 C 
ATOM     22  H   UNL     1      -1.131  -0.004   2.641  1.00  0.00     0.347 HD
ATOM     23  C   UNL     1       1.140   1.077   1.458  1.00  0.00     0.086 C 
ATOM     24  C   UNL     1       1.048  -1.391   1.639  1.00  0.00     0.086 C 
ENDBRANCH  12  17
ENDBRANCH   7  11
ENDBRANCH   4   6
ENDBRANCH   3   4
ENDBRANCH   2   3
ENDBRANCH   1   2
BRANCH   1  25
ATOM     25  O   UNL     1      -1.560   2.762  -5.063  1.00  0.00    -0.458 OA
BRANCH  25  26
ATOM     26  C   UNL     1      -0.427   3.454  -4.825  1.00  0.00     0.338 C 
ATOM     27  O   UNL     1      -0.236   4.286  -3.943  1.00  0.00    -0.246 OA
BRANCH  26  28
ATOM     28  C   UNL     1       0.651   2.975  -5.698  1.00  0.00     0.060 A 
ATOM     29  C   UNL     1       1.094   1.669  -5.534  1.00  0.00     0.016 A 
ATOM     30  C   UNL     1       1.369   3.855  -6.500  1.00  0.00     0.016 A 
ATOM     31  C   UNL     1       2.340   1.290  -6.008  1.00  0.00     0.010 A 
ATOM     32  C   UNL     1       2.539   3.408  -7.128  1.00  0.00     0.010 A 
ATOM     33  C   UNL     1       3.073   2.136  -6.845  1.00  0.00    -0.014 A 
BRANCH  33  34
ATOM     34  C   UNL     1       4.394   1.697  -7.386  1.00  0.00     0.031 A 
ATOM     35  C   UNL     1       5.592   2.607  -7.286  1.00  0.00     0.074 A 
ATOM     36  C   UNL     1       4.534   0.486  -7.968  1.00  0.00     0.049 A 
ATOM     37  N   UNL     1       6.728   2.545  -7.929  1.00  0.00    -0.248 NA
ATOM     38  C   UNL     1       5.493   3.752  -6.363  1.00  0.00     0.031 C 
ATOM     39  C   UNL     1       3.480  -0.523  -8.106  1.00  0.00     0.029 A 
ATOM     40  N   UNL     1       5.624  -0.105  -8.563  1.00  0.00    -0.354 N 
ATOM     41  C   UNL     1       7.421   3.701  -7.590  1.00  0.00     0.074 A 
ATOM     42  C   UNL     1       6.601   4.425  -6.644  1.00  0.00     0.031 C 
ATOM     43  C   UNL     1       3.981  -1.617  -8.691  1.00  0.00     0.029 A 
ATOM     44  C   UNL     1       5.346  -1.339  -9.108  1.00  0.00     0.049 A 
ATOM     45  H   UNL     1       6.515   0.312  -8.596  1.00  0.00     0.167 HD
ATOM     46  C   UNL     1       8.627   4.121  -8.039  1.00  0.00     0.034 A 
ATOM     47  C   UNL     1       6.066  -2.130  -9.927  1.00  0.00     0.034 A 
ATOM     48  C   UNL     1       9.485   3.337  -8.887  1.00  0.00     0.049 A 
ATOM     49  C   UNL     1       7.416  -1.659 -10.380  1.00  0.00     0.074 A 
ATOM     50  C   UNL     1      10.748   3.649  -9.356  1.00  0.00     0.029 A 
ATOM     51  N   UNL     1       9.177   2.075  -9.372  1.00  0.00    -0.354 N 
ATOM     52  N   UNL     1       8.053  -0.559 -10.060  1.00  0.00    -0.248 NA
ATOM     53  C   UNL     1       8.144  -2.530 -11.312  1.00  0.00     0.031 C 
ATOM     54  C   UNL     1      11.201   2.579 -10.135  1.00  0.00     0.029 A 
ATOM     55  C   UNL     1      10.226   1.594 -10.136  1.00  0.00     0.049 A 
ATOM     56  H   UNL     1       8.337   1.593  -9.198  1.00  0.00     0.167 HD
ATOM     57  C   UNL     1       9.258  -0.607 -10.747  1.00  0.00     0.074 A 
ATOM     58  C   UNL     1       9.279  -1.863 -11.469  1.00  0.00     0.031 C 
ATOM     59  C   UNL     1      10.246   0.319 -10.802  1.00  0.00     0.034 A 
BRANCH  46  60
ATOM     60  C   UNL     1       9.099   5.493  -7.635  1.00  0.00     0.023 A 
ATOM     61  C   UNL     1       9.599   5.723  -6.339  1.00  0.00     0.012 A 
ATOM     62  C   UNL     1       9.116   6.540  -8.580  1.00  0.00     0.148 A 
ATOM     63  C   UNL     1      10.089   6.981  -5.983  1.00  0.00     0.002 A 
ATOM     64  C   UNL     1       9.643   7.777  -8.231  1.00  0.00     0.091 A 
ATOM     65  F   UNL     1       8.614   6.306  -9.801  1.00  0.00    -0.205 F 
ATOM     66  C   UNL     1      10.122   8.002  -6.931  1.00  0.00     0.022 A 
BRANCH  64  67
ATOM     67  S   UNL     1       9.799   9.129  -9.405  1.00  0.00     0.127 S 
ATOM     68  O   UNL     1       8.777  10.058  -8.922  1.00  0.00    -0.237 OA
ATOM     69  O   UNL     1      11.176   9.571  -9.186  1.00  0.00    -0.237 OA
ATOM     70  O   UNL     1       9.548   8.552 -10.718  1.00  0.00    -0.744 OA
ENDBRANCH  64  67
ENDBRANCH  46  60
BRANCH  47  71
ATOM     71  C   UNL     1       5.492  -3.423 -10.403  1.00  0.00     0.023 A 
ATOM     72  C   UNL     1       6.065  -4.637  -9.984  1.00  0.00     0.012 A 
ATOM     73  C   UNL     1       4.343  -3.455 -11.220  1.00  0.00     0.148 A 
ATOM     74  C   UNL     1       5.512  -5.857 -10.378  1.00  0.00     0.002 A 
ATOM     75  C   UNL     1       3.753  -4.670 -11.544  1.00  0.00     0.091 A 
ATOM     76  F   UNL     1       3.827  -2.292 -11.643  1.00  0.00    -0.205 F 
ATOM     77  C   UNL     1       4.346  -5.874 -11.140  1.00  0.00     0.022 A 
BRANCH  75  78
ATOM     78  S   UNL     1       2.155  -4.751 -12.361  1.00  0.00     0.127 S 
ATOM     79  O   UNL     1       2.537  -5.010 -13.746  1.00  0.00    -0.237 OA
ATOM     80  O   UNL     1       1.513  -5.876 -11.678  1.00  0.00    -0.237 OA
ATOM     81  O   UNL     1       1.527  -3.463 -12.096  1.00  0.00    -0.744 OA
ENDBRANCH  75  78
ENDBRANCH  47  71
BRANCH  59  82
ATOM     82  C   UNL     1      11.443  -0.003 -11.653  1.00  0.00     0.023 A 
ATOM     83  C   UNL     1      11.341   0.081 -13.055  1.00  0.00     0.012 A 
ATOM     84  C   UNL     1      12.680  -0.321 -11.062  1.00  0.00     0.148 A 
ATOM     85  C   UNL     1      12.450  -0.175 -13.859  1.00  0.00     0.002 A 
ATOM     86  C   UNL     1      13.791  -0.532 -11.868  1.00  0.00     0.091 A 
ATOM     87  F   UNL     1      12.745  -0.417  -9.726  1.00  0.00    -0.205 F 
ATOM     88  C   UNL     1      13.676  -0.470 -13.267  1.00  0.00     0.022 A 
BRANCH  86  89
ATOM     89  S   UNL     1      15.425  -0.827 -11.186  1.00  0.00     0.127 S 
ATOM     90  O   UNL     1      15.593  -2.259 -11.425  1.00  0.00    -0.237 OA
ATOM     91  O   UNL     1      16.270   0.033 -12.015  1.00  0.00    -0.237 OA
ATOM     92  O   UNL     1      15.351  -0.429  -9.787  1.00  0.00    -0.744 OA
ENDBRANCH  86  89
ENDBRANCH  59  82
ENDBRANCH  33  34
ENDBRANCH  26  28
ENDBRANCH  25  26
ENDBRANCH   1  25
TORSDOF 16
