REMARK SMILES CC[C@@H]1CCCN1C(=O)N1CC[C@@H](C(=O)OCCOC(=O)c2ccc(-c3c4nc(c(-c5cccc(S(=O)(=O)[O-])c5F)c5ccc([nH]5)c(-c5cccc(S(=O)(=O)[O-])c5F)c5nc(c(-c6cccc(S(=O)(=O)[O-])c6F)c6ccc3[nH]6)C=C5)C=C4)cc2)[C@@H]1C
REMARK SMILES IDX 17 1 16 2 14 3 15 4 13 5 10 6 11 7 85 8 12 9 86 10 8 11 9 12
REMARK SMILES IDX 7 13 3 14 4 15 5 16 6 17 2 18 1 19 18 20 19 21 20 22 21 23
REMARK SMILES IDX 22 24 23 25 84 26 24 27 83 28 25 29 26 30 27 31 77 32 28 33
REMARK SMILES IDX 82 34 76 35 78 36 29 37 81 38 75 39 74 40 30 42 62 43 42 44
REMARK SMILES IDX 61 45 43 46 46 47 60 48 79 49 44 50 45 51 59 53 80 54 47 55
REMARK SMILES IDX 31 56 32 57 40 58 33 59 35 60 41 61 34 62 36 63 37 64 38 65
REMARK SMILES IDX 39 66 63 67 64 68 72 69 65 70 67 71 73 72 66 73 68 74 69 75
REMARK SMILES IDX 70 76 71 77 48 78 49 79 57 80 50 81 52 82 58 83 51 84 53 85
REMARK SMILES IDX 54 86 55 87 56 88
REMARK H PARENT 78 41 46 52
REMARK Flexibility Score: inf
ROOT
ATOM      1  C   UNL     1      -3.674  -2.390  -3.585  1.00  0.00     0.274 C 
ENDROOT
BRANCH   1   2
ATOM      2  O   UNL     1      -2.819  -1.881  -2.542  1.00  0.00    -0.462 OA
BRANCH   2   3
ATOM      3  C   UNL     1      -1.622  -1.368  -2.923  1.00  0.00     0.311 C 
ATOM      4  O   UNL     1      -1.213  -1.346  -4.077  1.00  0.00    -0.252 OA
BRANCH   3   5
ATOM      5  C   UNL     1      -0.801  -0.846  -1.763  1.00  0.00     0.123 C 
ATOM      6  N   UNL     1      -0.458   1.146  -0.567  1.00  0.00    -0.321 N 
ATOM      7  C   UNL     1      -1.523   0.471   0.141  1.00  0.00     0.122 C 
ATOM      8  C   UNL     1      -0.505   0.655  -1.935  1.00  0.00     0.098 C 
ATOM      9  C   UNL     1      -1.426  -0.960  -0.355  1.00  0.00     0.039 C 
ATOM     10  C   UNL     1       0.743   0.953  -2.761  1.00  0.00     0.032 C 
BRANCH   6  11
ATOM     11  C   UNL     1      -0.249   2.476  -0.296  1.00  0.00     0.320 C 
ATOM     12  O   UNL     1      -0.627   3.350  -1.073  1.00  0.00    -0.248 OA
BRANCH  11  13
ATOM     13  N   UNL     1       0.337   2.765   0.918  1.00  0.00    -0.322 N 
ATOM     14  C   UNL     1       1.406   2.059   1.646  1.00  0.00     0.086 C 
ATOM     15  C   UNL     1       1.387   2.798   2.993  1.00  0.00     0.027 C 
ATOM     16  C   UNL     1       1.178   4.246   2.583  1.00  0.00     0.024 C 
ATOM     17  C   UNL     1       0.254   4.147   1.378  1.00  0.00     0.122 C 
BRANCH  14  18
ATOM     18  C   UNL     1       1.363   0.546   1.886  1.00  0.00     0.022 C 
ATOM     19  C   UNL     1       2.111  -0.252   0.826  1.00  0.00     0.006 C 
ENDBRANCH  14  18
ENDBRANCH  11  13
ENDBRANCH   6  11
ENDBRANCH   3   5
ENDBRANCH   2   3
ENDBRANCH   1   2
BRANCH   1  20
ATOM     20  C   UNL     1      -4.857  -1.454  -3.801  1.00  0.00     0.275 C 
BRANCH  20  21
ATOM     21  O   UNL     1      -4.394  -0.220  -4.379  1.00  0.00    -0.458 OA
BRANCH  21  22
ATOM     22  C   UNL     1      -4.406   0.852  -3.564  1.00  0.00     0.338 C 
ATOM     23  O   UNL     1      -4.814   0.904  -2.411  1.00  0.00    -0.246 OA
BRANCH  22  24
ATOM     24  C   UNL     1      -3.797   1.995  -4.257  1.00  0.00     0.060 A 
ATOM     25  C   UNL     1      -2.451   1.933  -4.621  1.00  0.00     0.016 A 
ATOM     26  C   UNL     1      -4.521   3.174  -4.436  1.00  0.00     0.016 A 
ATOM     27  C   UNL     1      -1.794   3.084  -5.043  1.00  0.00     0.010 A 
ATOM     28  C   UNL     1      -3.885   4.289  -4.988  1.00  0.00     0.010 A 
ATOM     29  C   UNL     1      -2.506   4.271  -5.261  1.00  0.00    -0.014 A 
BRANCH  29  30
ATOM     30  C   UNL     1      -1.816   5.488  -5.778  1.00  0.00     0.031 A 
ATOM     31  C   UNL     1      -1.913   6.793  -5.034  1.00  0.00     0.074 A 
ATOM     32  C   UNL     1      -1.141   5.437  -6.943  1.00  0.00     0.049 A 
ATOM     33  N   UNL     1      -1.598   7.997  -5.436  1.00  0.00    -0.248 NA
ATOM     34  C   UNL     1      -2.465   6.742  -3.670  1.00  0.00     0.031 C 
ATOM     35  C   UNL     1      -0.967   4.242  -7.770  1.00  0.00     0.029 A 
ATOM     36  N   UNL     1      -0.489   6.422  -7.647  1.00  0.00    -0.354 N 
ATOM     37  C   UNL     1      -1.999   8.855  -4.418  1.00  0.00     0.074 A 
ATOM     38  C   UNL     1      -2.566   8.030  -3.372  1.00  0.00     0.031 C 
ATOM     39  C   UNL     1      -0.245   4.555  -8.854  1.00  0.00     0.029 A 
ATOM     40  C   UNL     1       0.021   5.988  -8.848  1.00  0.00     0.049 A 
ATOM     41  H   UNL     1      -0.398   7.347  -7.323  1.00  0.00     0.167 HD
ATOM     42  C   UNL     1      -1.893  10.204  -4.358  1.00  0.00     0.034 A 
ATOM     43  C   UNL     1       0.597   6.665  -9.860  1.00  0.00     0.034 A 
ATOM     44  C   UNL     1      -1.227  11.007  -5.350  1.00  0.00     0.049 A 
ATOM     45  C   UNL     1       0.765   8.151  -9.742  1.00  0.00     0.074 A 
ATOM     46  C   UNL     1      -1.008  12.374  -5.348  1.00  0.00     0.029 A 
ATOM     47  N   UNL     1      -0.649  10.513  -6.510  1.00  0.00    -0.354 N 
ATOM     48  N   UNL     1       0.414   8.942  -8.757  1.00  0.00    -0.248 NA
ATOM     49  C   UNL     1       1.417   8.839 -10.864  1.00  0.00     0.031 C 
ATOM     50  C   UNL     1      -0.294  12.706  -6.505  1.00  0.00     0.029 A 
ATOM     51  C   UNL     1      -0.067  11.545  -7.228  1.00  0.00     0.049 A 
ATOM     52  H   UNL     1      -0.651   9.567  -6.784  1.00  0.00     0.167 HD
ATOM     53  C   UNL     1       0.803  10.220  -9.137  1.00  0.00     0.074 A 
ATOM     54  C   UNL     1       1.450  10.092 -10.428  1.00  0.00     0.031 C 
ATOM     55  C   UNL     1       0.614  11.395  -8.489  1.00  0.00     0.034 A 
BRANCH  42  56
ATOM     56  C   UNL     1      -2.479  10.899  -3.156  1.00  0.00     0.023 A 
ATOM     57  C   UNL     1      -1.815  10.830  -1.915  1.00  0.00     0.012 A 
ATOM     58  C   UNL     1      -3.663  11.656  -3.264  1.00  0.00     0.148 A 
ATOM     59  C   UNL     1      -2.337  11.476  -0.794  1.00  0.00     0.002 A 
ATOM     60  C   UNL     1      -4.156  12.329  -2.150  1.00  0.00     0.091 A 
ATOM     61  F   UNL     1      -4.300  11.692  -4.443  1.00  0.00    -0.205 F 
ATOM     62  C   UNL     1      -3.501  12.232  -0.913  1.00  0.00     0.022 A 
BRANCH  60  63
ATOM     63  S   UNL     1      -5.608  13.385  -2.249  1.00  0.00     0.127 S 
ATOM     64  O   UNL     1      -6.670  12.475  -1.826  1.00  0.00    -0.237 OA
ATOM     65  O   UNL     1      -5.298  14.444  -1.287  1.00  0.00    -0.237 OA
ATOM     66  O   UNL     1      -5.664  13.834  -3.633  1.00  0.00    -0.744 OA
ENDBRANCH  60  63
ENDBRANCH  42  56
BRANCH  43  67
ATOM     67  C   UNL     1       1.065   5.912 -11.058  1.00  0.00     0.023 A 
ATOM     68  C   UNL     1       2.446   5.726 -11.258  1.00  0.00     0.012 A 
ATOM     69  C   UNL     1       0.152   5.284 -11.928  1.00  0.00     0.148 A 
ATOM     70  C   UNL     1       2.908   4.926 -12.304  1.00  0.00     0.002 A 
ATOM     71  C   UNL     1       0.617   4.437 -12.926  1.00  0.00     0.091 A 
ATOM     72  F   UNL     1      -1.158   5.492 -11.733  1.00  0.00    -0.205 F 
ATOM     73  C   UNL     1       1.996   4.266 -13.124  1.00  0.00     0.022 A 
BRANCH  71  74
ATOM     74  S   UNL     1      -0.491   3.418 -13.909  1.00  0.00     0.127 S 
ATOM     75  O   UNL     1      -0.467   4.106 -15.197  1.00  0.00    -0.237 OA
ATOM     76  O   UNL     1       0.187   2.122 -13.890  1.00  0.00    -0.237 OA
ATOM     77  O   UNL     1      -1.764   3.434 -13.202  1.00  0.00    -0.744 OA
ENDBRANCH  71  74
ENDBRANCH  43  67
BRANCH  55  78
ATOM     78  C   UNL     1       1.113  12.643  -9.165  1.00  0.00     0.023 A 
ATOM     79  C   UNL     1       0.372  13.188 -10.233  1.00  0.00     0.012 A 
ATOM     80  C   UNL     1       2.266  13.308  -8.710  1.00  0.00     0.148 A 
ATOM     81  C   UNL     1       0.785  14.367 -10.851  1.00  0.00     0.002 A 
ATOM     82  C   UNL     1       2.652  14.503  -9.308  1.00  0.00     0.091 A 
ATOM     83  F   UNL     1       2.971  12.760  -7.709  1.00  0.00    -0.205 F 
ATOM     84  C   UNL     1       1.917  15.030 -10.383  1.00  0.00     0.022 A 
BRANCH  82  85
ATOM     85  S   UNL     1       4.055  15.457  -8.715  1.00  0.00     0.127 S 
ATOM     86  O   UNL     1       5.088  15.106  -9.688  1.00  0.00    -0.237 OA
ATOM     87  O   UNL     1       3.566  16.833  -8.816  1.00  0.00    -0.237 OA
ATOM     88  O   UNL     1       4.292  15.004  -7.351  1.00  0.00    -0.744 OA
ENDBRANCH  82  85
ENDBRANCH  55  78
ENDBRANCH  29  30
ENDBRANCH  22  24
ENDBRANCH  21  22
ENDBRANCH  20  21
ENDBRANCH   1  20
TORSDOF 17
