REMARK SMILES COc1cc([C@@H]2[NH2+][C@@H](C(=O)OCCOC(=O)c3ccc(-c4c5nc(c(-c6cccc(S(=O)(=O)[O-])c6F)c6ccc([nH]6)c(-c6cccc(S(=O)(=O)[O-])c6F)c6nc(c(-c7cccc(S(=O)(=O)[O-])c7F)c7ccc4[nH]7)C=C6)C=C5)cc3)CS2)cc(Cl)c1O
REMARK SMILES IDX 13 1 12 2 11 3 9 4 10 5 8 6 6 7 7 8 81 9 80 12 5 13 3 14
REMARK SMILES IDX 4 15 85 16 83 17 82 18 84 19 2 20 1 21 86 22 14 24 15 25
REMARK SMILES IDX 16 26 17 27 18 28 79 29 19 30 78 31 20 32 21 33 22 34 72 35
REMARK SMILES IDX 23 36 77 37 71 38 73 39 24 40 76 41 70 42 69 43 25 45 57 46
REMARK SMILES IDX 37 47 56 48 38 49 41 50 55 51 74 52 39 53 40 54 54 56 75 57
REMARK SMILES IDX 42 58 26 59 27 60 35 61 28 62 30 63 36 64 29 65 31 66 32 67
REMARK SMILES IDX 33 68 34 69 58 70 59 71 67 72 60 73 62 74 68 75 61 76 63 77
REMARK SMILES IDX 64 78 65 79 66 80 43 81 44 82 52 83 45 84 47 85 53 86 46 87
REMARK SMILES IDX 48 88 49 89 50 90 51 91
REMARK H PARENT 7 10 7 11 86 23 73 44 41 55
REMARK Flexibility Score: inf
ROOT
ATOM      1  C   UNL     1      -6.047   5.699   2.420  1.00  0.00     0.275 C 
ENDROOT
BRANCH   1   2
ATOM      2  C   UNL     1      -6.329   5.698   0.915  1.00  0.00     0.274 C 
BRANCH   2   3
ATOM      3  O   UNL     1      -5.405   4.856   0.195  1.00  0.00    -0.458 OA
BRANCH   3   4
ATOM      4  C   UNL     1      -4.469   5.473  -0.585  1.00  0.00     0.365 C 
ATOM      5  O   UNL     1      -4.320   6.683  -0.673  1.00  0.00    -0.245 OA
BRANCH   4   6
ATOM      6  C   UNL     1      -3.627   4.429  -1.329  1.00  0.00     0.304 C 
ATOM      7  C   UNL     1      -1.242   4.833  -1.214  1.00  0.00     0.274 C 
ATOM      8  N   UNL     1      -2.369   4.110  -0.633  1.00  0.00    -0.319 N 
ATOM      9  S   UNL     1      -1.595   5.108  -2.962  1.00  0.00    -0.087 SA
ATOM     10  H   UNL     1      -2.458   4.368   0.350  1.00  0.00     0.348 HD
ATOM     11  H   UNL     1      -2.193   3.110  -0.730  1.00  0.00     0.348 HD
ATOM     12  C   UNL     1      -3.373   4.854  -2.776  1.00  0.00     0.153 C 
BRANCH   7  13
ATOM     13  C   UNL     1       0.055   4.075  -1.015  1.00  0.00     0.025 A 
ATOM     14  C   UNL     1       1.299   1.989  -1.038  1.00  0.00     0.162 A 
ATOM     15  C   UNL     1       0.111   2.687  -1.231  1.00  0.00     0.061 A 
ATOM     16  C   UNL     1       2.470   2.658  -0.686  1.00  0.00     0.176 A 
ATOM     17  C   UNL     1       2.435   4.034  -0.466  1.00  0.00     0.087 A 
ATOM     18  C   UNL     1       1.234   4.739  -0.627  1.00  0.00     0.035 A 
ATOM     19  Cl  UNL     1       3.850   4.899   0.004  1.00  0.00    -0.080 Cl
BRANCH  14  20
ATOM     20  O   UNL     1       1.314   0.631  -1.228  1.00  0.00    -0.493 OA
ATOM     21  C   UNL     1       1.017  -0.030   0.006  1.00  0.00     0.278 C 
ENDBRANCH  14  20
BRANCH  16  22
ATOM     22  O   UNL     1       3.635   1.948  -0.572  1.00  0.00    -0.503 OA
ATOM     23  H   UNL     1       3.637   1.024  -0.724  1.00  0.00     0.293 HD
ENDBRANCH  16  22
ENDBRANCH   7  13
ENDBRANCH   4   6
ENDBRANCH   3   4
ENDBRANCH   2   3
ENDBRANCH   1   2
BRANCH   1  24
ATOM     24  O   UNL     1      -4.905   6.512   2.746  1.00  0.00    -0.458 OA
BRANCH  24  25
ATOM     25  C   UNL     1      -3.723   5.859   2.728  1.00  0.00     0.338 C 
ATOM     26  O   UNL     1      -3.534   4.676   2.493  1.00  0.00    -0.246 OA
BRANCH  25  27
ATOM     27  C   UNL     1      -2.618   6.818   2.828  1.00  0.00     0.060 A 
ATOM     28  C   UNL     1      -1.905   7.052   1.658  1.00  0.00     0.016 A 
ATOM     29  C   UNL     1      -2.192   7.365   4.036  1.00  0.00     0.016 A 
ATOM     30  C   UNL     1      -0.706   7.748   1.691  1.00  0.00     0.010 A 
ATOM     31  C   UNL     1      -1.019   8.134   4.057  1.00  0.00     0.010 A 
ATOM     32  C   UNL     1      -0.246   8.302   2.891  1.00  0.00    -0.014 A 
BRANCH  32  33
ATOM     33  C   UNL     1       1.052   9.028   2.895  1.00  0.00     0.031 A 
ATOM     34  C   UNL     1       2.213   8.518   3.704  1.00  0.00     0.074 A 
ATOM     35  C   UNL     1       1.204  10.123   2.123  1.00  0.00     0.049 A 
ATOM     36  N   UNL     1       3.397   9.049   3.869  1.00  0.00    -0.248 NA
ATOM     37  C   UNL     1       2.018   7.253   4.432  1.00  0.00     0.031 C 
ATOM     38  C   UNL     1       0.161  10.712   1.282  1.00  0.00     0.029 A 
ATOM     39  N   UNL     1       2.295  10.927   1.908  1.00  0.00    -0.354 N 
ATOM     40  C   UNL     1       4.064   8.223   4.765  1.00  0.00     0.074 A 
ATOM     41  C   UNL     1       3.156   7.149   5.104  1.00  0.00     0.031 C 
ATOM     42  C   UNL     1       0.670  11.758   0.615  1.00  0.00     0.029 A 
ATOM     43  C   UNL     1       2.056  11.956   1.028  1.00  0.00     0.049 A 
ATOM     44  H   UNL     1       3.166  10.781   2.343  1.00  0.00     0.167 HD
ATOM     45  C   UNL     1       5.322   8.342   5.252  1.00  0.00     0.034 A 
ATOM     46  C   UNL     1       2.852  12.960   0.611  1.00  0.00     0.034 A 
ATOM     47  C   UNL     1       6.254   9.363   4.853  1.00  0.00     0.049 A 
ATOM     48  C   UNL     1       4.257  13.043   1.136  1.00  0.00     0.074 A 
ATOM     49  C   UNL     1       7.562   9.544   5.268  1.00  0.00     0.029 A 
ATOM     50  N   UNL     1       5.986  10.362   3.930  1.00  0.00    -0.354 N 
ATOM     51  N   UNL     1       4.882  12.227   1.950  1.00  0.00    -0.248 NA
ATOM     52  C   UNL     1       5.071  14.179   0.679  1.00  0.00     0.031 C 
ATOM     53  C   UNL     1       8.084  10.656   4.596  1.00  0.00     0.029 A 
ATOM     54  C   UNL     1       7.103  11.164   3.762  1.00  0.00     0.049 A 
ATOM     55  H   UNL     1       5.128  10.483   3.462  1.00  0.00     0.167 HD
ATOM     56  C   UNL     1       6.162  12.746   2.100  1.00  0.00     0.074 A 
ATOM     57  C   UNL     1       6.236  13.925   1.261  1.00  0.00     0.031 C 
ATOM     58  C   UNL     1       7.174  12.307   2.888  1.00  0.00     0.034 A 
BRANCH  45  59
ATOM     59  C   UNL     1       5.780   7.319   6.257  1.00  0.00     0.023 A 
ATOM     60  C   UNL     1       6.157   6.033   5.821  1.00  0.00     0.012 A 
ATOM     61  C   UNL     1       5.887   7.646   7.623  1.00  0.00     0.148 A 
ATOM     62  C   UNL     1       6.612   5.081   6.733  1.00  0.00     0.002 A 
ATOM     63  C   UNL     1       6.374   6.703   8.521  1.00  0.00     0.091 A 
ATOM     64  F   UNL     1       5.495   8.864   8.023  1.00  0.00    -0.205 F 
ATOM     65  C   UNL     1       6.730   5.418   8.079  1.00  0.00     0.022 A 
BRANCH  63  66
ATOM     66  S   UNL     1       6.619   7.076  10.262  1.00  0.00     0.127 S 
ATOM     67  O   UNL     1       5.442   6.454  10.867  1.00  0.00    -0.237 OA
ATOM     68  O   UNL     1       7.883   6.400  10.555  1.00  0.00    -0.237 OA
ATOM     69  O   UNL     1       6.681   8.529  10.349  1.00  0.00    -0.744 OA
ENDBRANCH  63  66
ENDBRANCH  45  59
BRANCH  46  70
ATOM     70  C   UNL     1       2.336  13.944  -0.383  1.00  0.00     0.023 A 
ATOM     71  C   UNL     1       2.854  13.942  -1.691  1.00  0.00     0.012 A 
ATOM     72  C   UNL     1       1.294  14.835  -0.059  1.00  0.00     0.148 A 
ATOM     73  C   UNL     1       2.351  14.817  -2.656  1.00  0.00     0.002 A 
ATOM     74  C   UNL     1       0.754  15.658  -1.041  1.00  0.00     0.091 A 
ATOM     75  F   UNL     1       0.832  14.848   1.200  1.00  0.00    -0.205 F 
ATOM     76  C   UNL     1       1.290  15.661  -2.337  1.00  0.00     0.022 A 
BRANCH  74  77
ATOM     77  S   UNL     1      -0.715  16.646  -0.736  1.00  0.00     0.127 S 
ATOM     78  O   UNL     1      -0.144  17.962  -0.467  1.00  0.00    -0.237 OA
ATOM     79  O   UNL     1      -1.436  16.535  -2.006  1.00  0.00    -0.237 OA
ATOM     80  O   UNL     1      -1.385  15.994   0.382  1.00  0.00    -0.744 OA
ENDBRANCH  74  77
ENDBRANCH  46  70
BRANCH  58  81
ATOM     81  C   UNL     1       8.444  13.112   2.890  1.00  0.00     0.023 A 
ATOM     82  C   UNL     1       8.481  14.332   3.594  1.00  0.00     0.012 A 
ATOM     83  C   UNL     1       9.610  12.643   2.255  1.00  0.00     0.148 A 
ATOM     84  C   UNL     1       9.651  15.088   3.643  1.00  0.00     0.002 A 
ATOM     85  C   UNL     1      10.784  13.384   2.340  1.00  0.00     0.091 A 
ATOM     86  F   UNL     1       9.550  11.492   1.570  1.00  0.00    -0.205 F 
ATOM     87  C   UNL     1      10.804  14.610   3.026  1.00  0.00     0.022 A 
BRANCH  85  88
ATOM     88  S   UNL     1      12.330  12.796   1.638  1.00  0.00     0.127 S 
ATOM     89  O   UNL     1      12.374  13.515   0.366  1.00  0.00    -0.237 OA
ATOM     90  O   UNL     1      13.317  13.242   2.623  1.00  0.00    -0.237 OA
ATOM     91  O   UNL     1      12.191  11.349   1.545  1.00  0.00    -0.744 OA
ENDBRANCH  85  88
ENDBRANCH  58  81
ENDBRANCH  32  33
ENDBRANCH  25  27
ENDBRANCH  24  25
ENDBRANCH   1  24
TORSDOF 17
