REMARK SMILES COC[C@@H](C)CC(=O)N1[C@@H](C2CC2)SC[C@H]1C(=O)OCCOC(=O)c1ccc(-c2c3nc(c(-c4cccc(S(=O)(=O)[O-])c4F)c4ccc([nH]4)c(-c4cccc(S(=O)(=O)[O-])c4F)c4nc(c(-c5cccc(S(=O)(=O)[O-])c5F)c5ccc2[nH]5)C=C4)C=C3)cc1
REMARK SMILES IDX 20 1 19 2 17 3 18 4 16 5 9 6 10 7 14 8 15 9 7 10 8 11 6 12
REMARK SMILES IDX 4 13 5 14 3 15 2 16 1 17 11 18 12 19 13 20 21 21 22 22 23 23
REMARK SMILES IDX 24 24 25 25 26 26 87 27 27 28 86 29 28 30 29 31 30 32 80 33
REMARK SMILES IDX 31 34 85 35 79 36 81 37 32 38 84 39 78 40 77 41 33 43 65 44
REMARK SMILES IDX 45 45 64 46 46 47 49 48 63 49 82 50 47 51 48 52 62 54 83 55
REMARK SMILES IDX 50 56 34 57 35 58 43 59 36 60 38 61 44 62 37 63 39 64 40 65
REMARK SMILES IDX 41 66 42 67 66 68 67 69 75 70 68 71 70 72 76 73 69 74 71 75
REMARK SMILES IDX 72 76 73 77 74 78 51 79 52 80 60 81 53 82 55 83 61 84 54 85
REMARK SMILES IDX 56 86 57 87 58 88 59 89
REMARK H PARENT 81 42 49 53
REMARK Flexibility Score: inf
ROOT
ATOM      1  C   UNL     1      -2.118   5.561  -5.526  1.00  0.00     0.274 C 
ENDROOT
BRANCH   1   2
ATOM      2  O   UNL     1      -1.036   4.962  -4.783  1.00  0.00    -0.461 OA
BRANCH   2   3
ATOM      3  C   UNL     1       0.212   5.250  -5.235  1.00  0.00     0.329 C 
ATOM      4  O   UNL     1       0.448   5.968  -6.203  1.00  0.00    -0.250 OA
BRANCH   3   5
ATOM      5  C   UNL     1       1.340   4.578  -4.444  1.00  0.00     0.206 C 
ATOM      6  N   UNL     1       1.034   3.711  -3.301  1.00  0.00    -0.316 N 
ATOM      7  C   UNL     1       0.878   2.321  -3.654  1.00  0.00     0.147 C 
ATOM      8  S   UNL     1       1.933   2.034  -5.084  1.00  0.00    -0.134 SA
ATOM      9  C   UNL     1       2.223   3.792  -5.413  1.00  0.00     0.109 C 
BRANCH   6  10
ATOM     10  C   UNL     1       0.901   4.264  -2.046  1.00  0.00     0.224 C 
ATOM     11  O   UNL     1       0.600   5.452  -1.918  1.00  0.00    -0.275 OA
BRANCH  10  12
ATOM     12  C   UNL     1       1.368   3.474  -0.823  1.00  0.00     0.106 C 
BRANCH  12  13
ATOM     13  C   UNL     1       0.370   2.611  -0.024  1.00  0.00     0.021 C 
ATOM     14  C   UNL     1       0.742   2.670   1.471  1.00  0.00     0.010 C 
BRANCH  13  15
ATOM     15  C   UNL     1       0.375   1.148  -0.509  1.00  0.00     0.163 C 
BRANCH  15  16
ATOM     16  O   UNL     1      -0.057   0.245   0.507  1.00  0.00    -0.384 OA
ATOM     17  C   UNL     1       0.798  -0.888   0.613  1.00  0.00     0.194 C 
ENDBRANCH  15  16
ENDBRANCH  13  15
ENDBRANCH  12  13
ENDBRANCH  10  12
ENDBRANCH   6  10
BRANCH   7  18
ATOM     18  C   UNL     1      -0.586   2.028  -3.870  1.00  0.00     0.022 C 
ATOM     19  C   UNL     1      -1.281   1.959  -5.216  1.00  0.00     0.007 C 
ATOM     20  C   UNL     1      -1.063   0.703  -4.421  1.00  0.00     0.007 C 
ENDBRANCH   7  18
ENDBRANCH   3   5
ENDBRANCH   2   3
ENDBRANCH   1   2
BRANCH   1  21
ATOM     21  C   UNL     1      -2.739   6.715  -4.750  1.00  0.00     0.275 C 
BRANCH  21  22
ATOM     22  O   UNL     1      -1.719   7.671  -4.434  1.00  0.00    -0.458 OA
BRANCH  22  23
ATOM     23  C   UNL     1      -1.499   7.865  -3.113  1.00  0.00     0.338 C 
ATOM     24  O   UNL     1      -2.137   7.417  -2.178  1.00  0.00    -0.246 OA
BRANCH  23  25
ATOM     25  C   UNL     1      -0.352   8.772  -2.970  1.00  0.00     0.060 A 
ATOM     26  C   UNL     1       0.937   8.303  -3.224  1.00  0.00     0.016 A 
ATOM     27  C   UNL     1      -0.556  10.070  -2.512  1.00  0.00     0.016 A 
ATOM     28  C   UNL     1       2.042   9.107  -2.962  1.00  0.00     0.010 A 
ATOM     29  C   UNL     1       0.547  10.898  -2.305  1.00  0.00     0.010 A 
ATOM     30  C   UNL     1       1.855  10.412  -2.495  1.00  0.00    -0.014 A 
BRANCH  30  31
ATOM     31  C   UNL     1       3.018  11.256  -2.131  1.00  0.00     0.031 A 
ATOM     32  C   UNL     1       3.211  11.658  -0.696  1.00  0.00     0.074 A 
ATOM     33  C   UNL     1       3.869  11.685  -3.081  1.00  0.00     0.049 A 
ATOM     34  N   UNL     1       4.038  12.532  -0.187  1.00  0.00    -0.248 NA
ATOM     35  C   UNL     1       2.347  10.997   0.297  1.00  0.00     0.031 C 
ATOM     36  C   UNL     1       3.798  11.338  -4.501  1.00  0.00     0.029 A 
ATOM     37  N   UNL     1       4.946  12.531  -2.997  1.00  0.00    -0.354 N 
ATOM     38  C   UNL     1       3.748  12.579   1.171  1.00  0.00     0.074 A 
ATOM     39  C   UNL     1       2.676  11.637   1.410  1.00  0.00     0.031 C 
ATOM     40  C   UNL     1       4.778  11.980  -5.158  1.00  0.00     0.029 A 
ATOM     41  C   UNL     1       5.507  12.824  -4.218  1.00  0.00     0.049 A 
ATOM     42  H   UNL     1       5.284  12.893  -2.146  1.00  0.00     0.167 HD
ATOM     43  C   UNL     1       4.331  13.333   2.133  1.00  0.00     0.034 A 
ATOM     44  C   UNL     1       6.473  13.705  -4.546  1.00  0.00     0.034 A 
ATOM     45  C   UNL     1       5.437  14.221   1.894  1.00  0.00     0.049 A 
ATOM     46  C   UNL     1       7.109  14.525  -3.457  1.00  0.00     0.074 A 
ATOM     47  C   UNL     1       6.126  15.002   2.804  1.00  0.00     0.029 A 
ATOM     48  N   UNL     1       6.022  14.438   0.656  1.00  0.00    -0.354 N 
ATOM     49  N   UNL     1       6.868  14.515  -2.168  1.00  0.00    -0.248 NA
ATOM     50  C   UNL     1       8.165  15.464  -3.863  1.00  0.00     0.031 C 
ATOM     51  C   UNL     1       7.124  15.698   2.114  1.00  0.00     0.029 A 
ATOM     52  C   UNL     1       7.066  15.338   0.776  1.00  0.00     0.049 A 
ATOM     53  H   UNL     1       5.736  14.014  -0.186  1.00  0.00     0.167 HD
ATOM     54  C   UNL     1       7.760  15.419  -1.605  1.00  0.00     0.074 A 
ATOM     55  C   UNL     1       8.562  15.944  -2.692  1.00  0.00     0.031 C 
ATOM     56  C   UNL     1       7.893  15.797  -0.310  1.00  0.00     0.034 A 
BRANCH  43  57
ATOM     57  C   UNL     1       3.797  13.213   3.535  1.00  0.00     0.023 A 
ATOM     58  C   UNL     1       4.086  12.064   4.298  1.00  0.00     0.012 A 
ATOM     59  C   UNL     1       3.049  14.257   4.114  1.00  0.00     0.148 A 
ATOM     60  C   UNL     1       3.613  11.942   5.604  1.00  0.00     0.002 A 
ATOM     61  C   UNL     1       2.615  14.146   5.430  1.00  0.00     0.091 A 
ATOM     62  F   UNL     1       2.762  15.332   3.365  1.00  0.00    -0.205 F 
ATOM     63  C   UNL     1       2.887  12.985   6.173  1.00  0.00     0.022 A 
BRANCH  61  64
ATOM     64  S   UNL     1       1.739  15.469   6.273  1.00  0.00     0.127 S 
ATOM     65  O   UNL     1       0.375  14.943   6.313  1.00  0.00    -0.237 OA
ATOM     66  O   UNL     1       2.413  15.510   7.571  1.00  0.00    -0.237 OA
ATOM     67  O   UNL     1       1.930  16.659   5.455  1.00  0.00    -0.744 OA
ENDBRANCH  61  64
ENDBRANCH  43  57
BRANCH  44  68
ATOM     68  C   UNL     1       6.912  13.831  -5.965  1.00  0.00     0.023 A 
ATOM     69  C   UNL     1       8.192  13.376  -6.333  1.00  0.00     0.012 A 
ATOM     70  C   UNL     1       6.060  14.360  -6.955  1.00  0.00     0.148 A 
ATOM     71  C   UNL     1       8.625  13.466  -7.657  1.00  0.00     0.002 A 
ATOM     72  C   UNL     1       6.476  14.394  -8.281  1.00  0.00     0.091 A 
ATOM     73  F   UNL     1       4.852  14.808  -6.582  1.00  0.00    -0.205 F 
ATOM     74  C   UNL     1       7.764  13.962  -8.632  1.00  0.00     0.022 A 
BRANCH  72  75
ATOM     75  S   UNL     1       5.382  14.890  -9.617  1.00  0.00     0.127 S 
ATOM     76  O   UNL     1       5.902  16.213  -9.954  1.00  0.00    -0.237 OA
ATOM     77  O   UNL     1       5.636  13.855 -10.620  1.00  0.00    -0.237 OA
ATOM     78  O   UNL     1       4.039  14.858  -9.053  1.00  0.00    -0.744 OA
ENDBRANCH  72  75
ENDBRANCH  44  68
BRANCH  56  79
ATOM     79  C   UNL     1       8.970  16.797   0.016  1.00  0.00     0.023 A 
ATOM     80  C   UNL     1       8.787  18.153  -0.319  1.00  0.00     0.012 A 
ATOM     81  C   UNL     1      10.123  16.406   0.723  1.00  0.00     0.148 A 
ATOM     82  C   UNL     1       9.751  19.101   0.021  1.00  0.00     0.002 A 
ATOM     83  C   UNL     1      11.058  17.363   1.097  1.00  0.00     0.091 A 
ATOM     84  F   UNL     1      10.288  15.107   1.012  1.00  0.00    -0.205 F 
ATOM     85  C   UNL     1      10.879  18.709   0.739  1.00  0.00     0.022 A 
BRANCH  83  86
ATOM     86  S   UNL     1      12.491  16.958   2.102  1.00  0.00     0.127 S 
ATOM     87  O   UNL     1      13.563  16.962   1.109  1.00  0.00    -0.237 OA
ATOM     88  O   UNL     1      12.535  18.072   3.050  1.00  0.00    -0.237 OA
ATOM     89  O   UNL     1      12.199  15.666   2.708  1.00  0.00    -0.744 OA
ENDBRANCH  83  86
ENDBRANCH  56  79
ENDBRANCH  30  31
ENDBRANCH  23  25
ENDBRANCH  22  23
ENDBRANCH  21  22
ENDBRANCH   1  21
TORSDOF 20
