REMARK SMILES CC/C=C/C/C=C/C/C=C/C/C=C/CCSCCCC(=O)OCCOC(=O)c1ccc(-c2c3nc(c(-c4cccc(S(=O)(=O)[O-])c4F)c4ccc([nH]4)c(-c4cccc(S(=O)(=O)[O-])c4F)c4nc(c(-c5cccc(S(=O)(=O)[O-])c5F)c5ccc2[nH]5)C=C4)C=C3)cc1
REMARK SMILES IDX 17 1 16 2 15 3 14 4 13 5 12 6 11 7 10 8 9 9 8 10 7 11 6 12
REMARK SMILES IDX 5 13 4 14 3 15 2 16 1 17 18 18 19 19 20 20 21 21 22 22 23 23
REMARK SMILES IDX 24 24 25 25 26 26 27 27 28 28 29 29 90 30 30 31 89 32 31 33
REMARK SMILES IDX 32 34 33 35 83 36 34 37 88 38 82 39 84 40 35 41 87 42 81 43
REMARK SMILES IDX 80 44 36 46 68 47 48 48 67 49 49 50 52 51 66 52 85 53 50 54
REMARK SMILES IDX 51 55 65 57 86 58 53 59 37 60 38 61 46 62 39 63 41 64 47 65
REMARK SMILES IDX 40 66 42 67 43 68 44 69 45 70 69 71 70 72 78 73 71 74 73 75
REMARK SMILES IDX 79 76 72 77 74 78 75 79 76 80 77 81 54 82 55 83 63 84 56 85
REMARK SMILES IDX 58 86 64 87 57 88 59 89 60 90 61 91 62 92
REMARK H PARENT 84 45 52 56
REMARK Flexibility Score: inf
ROOT
ATOM      1  C   UNL     1      -7.005  11.011   6.944  1.00  0.00     0.070 C 
ENDROOT
BRANCH   1   2
ATOM      2  S   UNL     1      -7.488  10.175   8.499  1.00  0.00    -0.162 SA
BRANCH   2   3
ATOM      3  C   UNL     1      -6.391   8.714   8.681  1.00  0.00     0.073 C 
BRANCH   3   4
ATOM      4  C   UNL     1      -6.961   7.329   8.321  1.00  0.00     0.038 C 
BRANCH   4   5
ATOM      5  C   UNL     1      -6.566   6.777   6.972  1.00  0.00    -0.030 C 
ATOM      6  C   UNL     1      -5.604   5.851   6.776  1.00  0.00    -0.027 C 
BRANCH   6   7
ATOM      7  C   UNL     1      -5.158   5.267   5.447  1.00  0.00     0.054 C 
BRANCH   7   8
ATOM      8  C   UNL     1      -3.677   5.424   5.214  1.00  0.00    -0.027 C 
ATOM      9  C   UNL     1      -3.062   5.274   4.026  1.00  0.00    -0.027 C 
BRANCH   9  10
ATOM     10  C   UNL     1      -1.587   5.505   3.829  1.00  0.00     0.054 C 
BRANCH  10  11
ATOM     11  C   UNL     1      -0.765   4.315   4.201  1.00  0.00    -0.027 C 
ATOM     12  C   UNL     1       0.221   3.806   3.444  1.00  0.00    -0.027 C 
BRANCH  12  13
ATOM     13  C   UNL     1       0.968   2.549   3.802  1.00  0.00     0.054 C 
BRANCH  13  14
ATOM     14  C   UNL     1       0.448   1.435   2.939  1.00  0.00    -0.027 C 
ATOM     15  C   UNL     1       1.212   0.667   2.148  1.00  0.00    -0.031 C 
BRANCH  15  16
ATOM     16  C   UNL     1       0.655  -0.377   1.230  1.00  0.00     0.023 C 
ATOM     17  C   UNL     1       1.053  -0.088  -0.209  1.00  0.00     0.008 C 
ENDBRANCH  15  16
ENDBRANCH  13  14
ENDBRANCH  12  13
ENDBRANCH  10  11
ENDBRANCH   9  10
ENDBRANCH   7   8
ENDBRANCH   6   7
ENDBRANCH   4   5
ENDBRANCH   3   4
ENDBRANCH   2   3
ENDBRANCH   1   2
BRANCH   1  18
ATOM     18  C   UNL     1      -5.587  11.555   6.734  1.00  0.00     0.023 C 
BRANCH  18  19
ATOM     19  C   UNL     1      -4.471  10.557   6.495  1.00  0.00     0.123 C 
BRANCH  19  20
ATOM     20  C   UNL     1      -4.821   9.419   5.573  1.00  0.00     0.305 C 
ATOM     21  O   UNL     1      -4.258   8.338   5.650  1.00  0.00    -0.252 OA
BRANCH  20  22
ATOM     22  O   UNL     1      -5.754   9.752   4.644  1.00  0.00    -0.462 OA
BRANCH  22  23
ATOM     23  C   UNL     1      -6.250   8.695   3.808  1.00  0.00     0.274 C 
BRANCH  23  24
ATOM     24  C   UNL     1      -5.552   8.591   2.457  1.00  0.00     0.275 C 
BRANCH  24  25
ATOM     25  O   UNL     1      -4.146   8.361   2.587  1.00  0.00    -0.458 OA
BRANCH  25  26
ATOM     26  C   UNL     1      -3.417   9.479   2.817  1.00  0.00     0.338 C 
ATOM     27  O   UNL     1      -3.810  10.630   2.861  1.00  0.00    -0.246 OA
BRANCH  26  28
ATOM     28  C   UNL     1      -2.042   9.088   3.128  1.00  0.00     0.060 A 
ATOM     29  C   UNL     1      -1.537   9.334   4.409  1.00  0.00     0.016 A 
ATOM     30  C   UNL     1      -1.238   8.550   2.128  1.00  0.00     0.016 A 
ATOM     31  C   UNL     1      -0.208   9.074   4.697  1.00  0.00     0.010 A 
ATOM     32  C   UNL     1       0.094   8.274   2.419  1.00  0.00     0.010 A 
ATOM     33  C   UNL     1       0.619   8.570   3.693  1.00  0.00    -0.014 A 
BRANCH  33  34
ATOM     34  C   UNL     1       2.077   8.545   3.904  1.00  0.00     0.031 A 
ATOM     35  C   UNL     1       2.898   9.550   3.154  1.00  0.00     0.074 A 
ATOM     36  C   UNL     1       2.644   7.657   4.738  1.00  0.00     0.049 A 
ATOM     37  N   UNL     1       4.194   9.644   3.046  1.00  0.00    -0.248 NA
ATOM     38  C   UNL     1       2.152  10.578   2.403  1.00  0.00     0.031 C 
ATOM     39  C   UNL     1       1.928   6.676   5.553  1.00  0.00     0.029 A 
ATOM     40  N   UNL     1       3.965   7.426   5.017  1.00  0.00    -0.354 N 
ATOM     41  C   UNL     1       4.415  10.691   2.161  1.00  0.00     0.074 A 
ATOM     42  C   UNL     1       3.125  11.193   1.751  1.00  0.00     0.031 C 
ATOM     43  C   UNL     1       2.822   5.925   6.219  1.00  0.00     0.029 A 
ATOM     44  C   UNL     1       4.167   6.350   5.847  1.00  0.00     0.049 A 
ATOM     45  H   UNL     1       4.698   7.976   4.657  1.00  0.00     0.167 HD
ATOM     46  C   UNL     1       5.595  11.197   1.741  1.00  0.00     0.034 A 
ATOM     47  C   UNL     1       5.316   5.763   6.233  1.00  0.00     0.034 A 
ATOM     48  C   UNL     1       6.867  10.719   2.202  1.00  0.00     0.049 A 
ATOM     49  C   UNL     1       6.618   6.339   5.737  1.00  0.00     0.074 A 
ATOM     50  C   UNL     1       8.127  11.186   1.885  1.00  0.00     0.029 A 
ATOM     51  N   UNL     1       7.035   9.660   3.081  1.00  0.00    -0.354 N 
ATOM     52  N   UNL     1       6.822   7.377   4.962  1.00  0.00    -0.248 NA
ATOM     53  C   UNL     1       7.849   5.680   6.192  1.00  0.00     0.031 C 
ATOM     54  C   UNL     1       9.062  10.386   2.549  1.00  0.00     0.029 A 
ATOM     55  C   UNL     1       8.381   9.450   3.312  1.00  0.00     0.049 A 
ATOM     56  H   UNL     1       6.304   9.136   3.482  1.00  0.00     0.167 HD
ATOM     57  C   UNL     1       8.201   7.525   4.874  1.00  0.00     0.074 A 
ATOM     58  C   UNL     1       8.782   6.476   5.688  1.00  0.00     0.031 C 
ATOM     59  C   UNL     1       8.926   8.436   4.178  1.00  0.00     0.034 A 
BRANCH  46  60
ATOM     60  C   UNL     1       5.550  12.314   0.736  1.00  0.00     0.023 A 
ATOM     61  C   UNL     1       5.087  13.591   1.114  1.00  0.00     0.012 A 
ATOM     62  C   UNL     1       5.971  12.094  -0.589  1.00  0.00     0.148 A 
ATOM     63  C   UNL     1       5.002  14.619   0.177  1.00  0.00     0.002 A 
ATOM     64  C   UNL     1       5.934  13.138  -1.503  1.00  0.00     0.091 A 
ATOM     65  F   UNL     1       6.380  10.865  -0.934  1.00  0.00    -0.205 F 
ATOM     66  C   UNL     1       5.434  14.396  -1.127  1.00  0.00     0.022 A 
BRANCH  64  67
ATOM     67  S   UNL     1       6.542  12.974  -3.184  1.00  0.00     0.127 S 
ATOM     68  O   UNL     1       5.307  13.094  -3.958  1.00  0.00    -0.237 OA
ATOM     69  O   UNL     1       7.445  14.119  -3.293  1.00  0.00    -0.237 OA
ATOM     70  O   UNL     1       7.194  11.674  -3.253  1.00  0.00    -0.744 OA
ENDBRANCH  64  67
ENDBRANCH  46  60
BRANCH  47  71
ATOM     71  C   UNL     1       5.297   4.590   7.151  1.00  0.00     0.023 A 
ATOM     72  C   UNL     1       5.814   4.726   8.455  1.00  0.00     0.012 A 
ATOM     73  C   UNL     1       4.784   3.344   6.743  1.00  0.00     0.148 A 
ATOM     74  C   UNL     1       5.863   3.631   9.319  1.00  0.00     0.002 A 
ATOM     75  C   UNL     1       4.789   2.271   7.626  1.00  0.00     0.091 A 
ATOM     76  F   UNL     1       4.301   3.233   5.497  1.00  0.00    -0.205 F 
ATOM     77  C   UNL     1       5.346   2.406   8.907  1.00  0.00     0.022 A 
BRANCH  75  78
ATOM     78  S   UNL     1       4.048   0.685   7.224  1.00  0.00     0.127 S 
ATOM     79  O   UNL     1       5.221  -0.183   7.157  1.00  0.00    -0.237 OA
ATOM     80  O   UNL     1       3.180   0.459   8.380  1.00  0.00    -0.237 OA
ATOM     81  O   UNL     1       3.341   0.889   5.968  1.00  0.00    -0.744 OA
ENDBRANCH  75  78
ENDBRANCH  47  71
BRANCH  59  82
ATOM     82  C   UNL     1      10.424   8.386   4.311  1.00  0.00     0.023 A 
ATOM     83  C   UNL     1      11.155   7.348   3.701  1.00  0.00     0.012 A 
ATOM     84  C   UNL     1      11.111   9.429   4.963  1.00  0.00     0.148 A 
ATOM     85  C   UNL     1      12.547   7.334   3.764  1.00  0.00     0.002 A 
ATOM     86  C   UNL     1      12.499   9.439   4.972  1.00  0.00     0.091 A 
ATOM     87  F   UNL     1      10.394  10.398   5.551  1.00  0.00    -0.205 F 
ATOM     88  C   UNL     1      13.219   8.385   4.386  1.00  0.00     0.022 A 
BRANCH  86  89
ATOM     89  S   UNL     1      13.447  10.805   5.649  1.00  0.00     0.127 S 
ATOM     90  O   UNL     1      14.022  10.202   6.851  1.00  0.00    -0.237 OA
ATOM     91  O   UNL     1      14.409  11.073   4.580  1.00  0.00    -0.237 OA
ATOM     92  O   UNL     1      12.492  11.880   5.887  1.00  0.00    -0.744 OA
ENDBRANCH  86  89
ENDBRANCH  59  82
ENDBRANCH  33  34
ENDBRANCH  26  28
ENDBRANCH  25  26
ENDBRANCH  24  25
ENDBRANCH  23  24
ENDBRANCH  22  23
ENDBRANCH  20  22
ENDBRANCH  19  20
ENDBRANCH  18  19
ENDBRANCH   1  18
TORSDOF 27
