REMARK SMILES CC(=O)NS(=O)(=O)c1ccc(-c2ccn(C(F)F)c(=O)c2)cc1C(=O)OCCOC(=O)c1ccc(-c2c3nc(c(-c4cccc(S(=O)(=O)[O-])c4F)c4ccc([nH]4)c(-c4cccc(S(=O)(=O)[O-])c4F)c4nc(c(-c5cccc(S(=O)(=O)[O-])c5F)c5ccc2[nH]5)C=C4)C=C3)cc1
REMARK SMILES IDX 28 1 27 2 26 3 24 4 25 5 23 6 8 7 9 8 10 9 22 10 11 11 5 12
REMARK SMILES IDX 6 13 7 14 4 15 1 16 2 17 3 18 12 20 13 21 21 22 14 23 19 24
REMARK SMILES IDX 15 25 20 26 16 27 17 28 18 29 29 30 30 31 31 32 32 33 33 34
REMARK SMILES IDX 94 35 34 36 93 37 35 38 36 39 37 40 87 41 38 42 92 43 86 44
REMARK SMILES IDX 88 45 39 46 91 47 85 48 84 49 40 51 72 52 52 53 71 54 53 55
REMARK SMILES IDX 56 56 70 57 89 58 54 59 55 60 69 62 90 63 57 64 41 65 42 66
REMARK SMILES IDX 50 67 43 68 45 69 51 70 44 71 46 72 47 73 48 74 49 75 73 76
REMARK SMILES IDX 74 77 82 78 75 79 77 80 83 81 76 82 78 83 79 84 80 85 81 86
REMARK SMILES IDX 58 87 59 88 67 89 60 90 62 91 68 92 61 93 63 94 64 95 65 96
REMARK SMILES IDX 66 97
REMARK H PARENT 4 19 88 50 56 61
REMARK Flexibility Score: inf
ROOT
ATOM      1  C   UNL     1       1.429   6.783   1.432  1.00  0.00     0.275 C 
ENDROOT
BRANCH   1   2
ATOM      2  C   UNL     1       2.514   6.066   0.636  1.00  0.00     0.275 C 
BRANCH   2   3
ATOM      3  O   UNL     1       2.313   4.636   0.672  1.00  0.00    -0.458 OA
BRANCH   3   4
ATOM      4  C   UNL     1       3.156   3.935   1.449  1.00  0.00     0.339 C 
ATOM      5  O   UNL     1       4.038   4.405   2.152  1.00  0.00    -0.246 OA
BRANCH   4   6
ATOM      6  C   UNL     1       2.890   2.471   1.452  1.00  0.00     0.081 A 
ATOM      7  C   UNL     1       2.530   1.688   0.351  1.00  0.00     0.102 A 
ATOM      8  C   UNL     1       2.611   0.287   0.442  1.00  0.00     0.024 A 
ATOM      9  C   UNL     1       2.851  -0.337   1.668  1.00  0.00     0.010 A 
ATOM     10  C   UNL     1       3.152   1.821   2.675  1.00  0.00     0.025 A 
ATOM     11  C   UNL     1       3.058   0.432   2.810  1.00  0.00    -0.017 A 
BRANCH   7  12
ATOM     12  S   UNL     1       1.836   2.413  -1.108  1.00  0.00     0.264 S 
ATOM     13  O   UNL     1       2.921   3.015  -1.851  1.00  0.00    -0.201 OA
ATOM     14  O   UNL     1       0.634   3.129  -0.751  1.00  0.00    -0.201 OA
BRANCH  12  15
ATOM     15  N   UNL     1       1.331   1.113  -2.032  1.00  0.00    -0.249 N 
ATOM     16  C   UNL     1      -0.516   0.195  -0.598  1.00  0.00     0.115 C 
ATOM     17  C   UNL     1       0.066   0.500  -1.955  1.00  0.00     0.230 C 
ATOM     18  O   UNL     1      -0.433   0.057  -2.982  1.00  0.00    -0.274 OA
ATOM     19  H   UNL     1       1.971   0.747  -2.684  1.00  0.00     0.183 HD
ENDBRANCH  12  15
ENDBRANCH   7  12
BRANCH  11  20
ATOM     20  C   UNL     1       3.125  -0.178   4.150  1.00  0.00    -0.011 A 
ATOM     21  C   UNL     1       2.126   0.095   5.170  1.00  0.00     0.027 A 
ATOM     22  C   UNL     1       4.140  -1.007   4.440  1.00  0.00     0.080 A 
ATOM     23  C   UNL     1       2.239  -0.433   6.394  1.00  0.00     0.095 A 
ATOM     24  C   UNL     1       4.254  -1.639   5.785  1.00  0.00     0.255 A 
ATOM     25  N   UNL     1       3.292  -1.271   6.711  1.00  0.00    -0.258 N 
ATOM     26  O   UNL     1       5.173  -2.430   5.970  1.00  0.00    -0.269 OA
BRANCH  25  27
ATOM     27  C   UNL     1       3.401  -1.836   8.035  1.00  0.00     0.451 C 
ATOM     28  F   UNL     1       3.236  -3.182   7.983  1.00  0.00    -0.185 F 
ATOM     29  F   UNL     1       4.622  -1.588   8.566  1.00  0.00    -0.185 F 
ENDBRANCH  25  27
ENDBRANCH  11  20
ENDBRANCH   4   6
ENDBRANCH   3   4
ENDBRANCH   2   3
ENDBRANCH   1   2
BRANCH   1  30
ATOM     30  O   UNL     1       1.533   6.413   2.817  1.00  0.00    -0.458 OA
BRANCH  30  31
ATOM     31  C   UNL     1       0.409   5.924   3.384  1.00  0.00     0.338 C 
ATOM     32  O   UNL     1      -0.698   5.823   2.883  1.00  0.00    -0.246 OA
BRANCH  31  33
ATOM     33  C   UNL     1       0.710   5.473   4.752  1.00  0.00     0.060 A 
ATOM     34  C   UNL     1       1.661   4.474   4.951  1.00  0.00     0.016 A 
ATOM     35  C   UNL     1      -0.041   5.950   5.824  1.00  0.00     0.016 A 
ATOM     36  C   UNL     1       1.804   3.882   6.204  1.00  0.00     0.010 A 
ATOM     37  C   UNL     1       0.168   5.416   7.100  1.00  0.00     0.010 A 
ATOM     38  C   UNL     1       1.056   4.343   7.299  1.00  0.00    -0.014 A 
BRANCH  38  39
ATOM     39  C   UNL     1       1.154   3.675   8.630  1.00  0.00     0.031 A 
ATOM     40  C   UNL     1      -0.084   3.111   9.284  1.00  0.00     0.074 A 
ATOM     41  C   UNL     1       2.338   3.572   9.267  1.00  0.00     0.049 A 
ATOM     42  N   UNL     1      -0.241   2.655  10.500  1.00  0.00    -0.248 NA
ATOM     43  C   UNL     1      -1.309   3.062   8.466  1.00  0.00     0.031 C 
ATOM     44  C   UNL     1       3.620   4.058   8.757  1.00  0.00     0.029 A 
ATOM     45  N   UNL     1       2.653   3.032  10.492  1.00  0.00    -0.354 N 
ATOM     46  C   UNL     1      -1.595   2.363  10.626  1.00  0.00     0.074 A 
ATOM     47  C   UNL     1      -2.211   2.659   9.350  1.00  0.00     0.031 C 
ATOM     48  C   UNL     1       4.585   3.773   9.644  1.00  0.00     0.029 A 
ATOM     49  C   UNL     1       3.984   3.156  10.822  1.00  0.00     0.049 A 
ATOM     50  H   UNL     1       1.990   2.598  11.077  1.00  0.00     0.167 HD
ATOM     51  C   UNL     1      -2.266   1.887  11.701  1.00  0.00     0.034 A 
ATOM     52  C   UNL     1       4.645   2.848  11.956  1.00  0.00     0.034 A 
ATOM     53  C   UNL     1      -1.646   1.505  12.941  1.00  0.00     0.049 A 
ATOM     54  C   UNL     1       3.887   2.272  13.118  1.00  0.00     0.074 A 
ATOM     55  C   UNL     1      -2.240   0.970  14.071  1.00  0.00     0.029 A 
ATOM     56  N   UNL     1      -0.290   1.597  13.209  1.00  0.00    -0.354 N 
ATOM     57  N   UNL     1       2.613   1.973  13.203  1.00  0.00    -0.248 NA
ATOM     58  C   UNL     1       4.655   1.987  14.339  1.00  0.00     0.031 C 
ATOM     59  C   UNL     1      -1.240   0.727  15.018  1.00  0.00     0.029 A 
ATOM     60  C   UNL     1      -0.024   1.113  14.478  1.00  0.00     0.049 A 
ATOM     61  H   UNL     1       0.385   1.955  12.588  1.00  0.00     0.167 HD
ATOM     62  C   UNL     1       2.428   1.462  14.482  1.00  0.00     0.074 A 
ATOM     63  C   UNL     1       3.726   1.457  15.124  1.00  0.00     0.031 C 
ATOM     64  C   UNL     1       1.280   1.064  15.083  1.00  0.00     0.034 A 
BRANCH  51  65
ATOM     65  C   UNL     1      -3.756   1.716  11.578  1.00  0.00     0.023 A 
ATOM     66  C   UNL     1      -4.274   0.605  10.884  1.00  0.00     0.012 A 
ATOM     67  C   UNL     1      -4.641   2.619  12.199  1.00  0.00     0.148 A 
ATOM     68  C   UNL     1      -5.652   0.408  10.791  1.00  0.00     0.002 A 
ATOM     69  C   UNL     1      -6.012   2.396  12.132  1.00  0.00     0.091 A 
ATOM     70  F   UNL     1      -4.130   3.686  12.830  1.00  0.00    -0.205 F 
ATOM     71  C   UNL     1      -6.519   1.296  11.423  1.00  0.00     0.022 A 
BRANCH  69  72
ATOM     72  S   UNL     1      -7.194   3.454  12.977  1.00  0.00     0.127 S 
ATOM     73  O   UNL     1      -7.662   4.305  11.885  1.00  0.00    -0.237 OA
ATOM     74  O   UNL     1      -8.182   2.493  13.467  1.00  0.00    -0.237 OA
ATOM     75  O   UNL     1      -6.438   4.125  14.025  1.00  0.00    -0.744 OA
ENDBRANCH  69  72
ENDBRANCH  51  65
BRANCH  52  76
ATOM     76  C   UNL     1       6.118   3.063  12.030  1.00  0.00     0.023 A 
ATOM     77  C   UNL     1       6.978   1.948  12.045  1.00  0.00     0.012 A 
ATOM     78  C   UNL     1       6.674   4.356  12.021  1.00  0.00     0.148 A 
ATOM     79  C   UNL     1       8.363   2.119  12.056  1.00  0.00     0.002 A 
ATOM     80  C   UNL     1       8.054   4.519  11.969  1.00  0.00     0.091 A 
ATOM     81  F   UNL     1       5.844   5.409  12.042  1.00  0.00    -0.205 F 
ATOM     82  C   UNL     1       8.902   3.402  12.000  1.00  0.00     0.022 A 
BRANCH  80  83
ATOM     83  S   UNL     1       8.795   6.138  11.728  1.00  0.00     0.127 S 
ATOM     84  O   UNL     1       9.107   6.534  13.098  1.00  0.00    -0.237 OA
ATOM     85  O   UNL     1       9.958   5.832  10.895  1.00  0.00    -0.237 OA
ATOM     86  O   UNL     1       7.770   6.920  11.048  1.00  0.00    -0.744 OA
ENDBRANCH  80  83
ENDBRANCH  52  76
BRANCH  64  87
ATOM     87  C   UNL     1       1.371   0.580  16.504  1.00  0.00     0.023 A 
ATOM     88  C   UNL     1       1.492   1.519  17.546  1.00  0.00     0.012 A 
ATOM     89  C   UNL     1       1.264  -0.789  16.813  1.00  0.00     0.148 A 
ATOM     90  C   UNL     1       1.524   1.101  18.875  1.00  0.00     0.002 A 
ATOM     91  C   UNL     1       1.261  -1.196  18.143  1.00  0.00     0.091 A 
ATOM     92  F   UNL     1       1.175  -1.670  15.805  1.00  0.00    -0.205 F 
ATOM     93  C   UNL     1       1.397  -0.253  19.175  1.00  0.00     0.022 A 
BRANCH  91  94
ATOM     94  S   UNL     1       1.022  -2.915  18.606  1.00  0.00     0.127 S 
ATOM     95  O   UNL     1       2.396  -3.360  18.826  1.00  0.00    -0.237 OA
ATOM     96  O   UNL     1       0.213  -2.808  19.821  1.00  0.00    -0.237 OA
ATOM     97  O   UNL     1       0.329  -3.528  17.480  1.00  0.00    -0.744 OA
ENDBRANCH  91  94
ENDBRANCH  64  87
ENDBRANCH  38  39
ENDBRANCH  31  33
ENDBRANCH  30  31
ENDBRANCH   1  30
TORSDOF 18
