REMARK SMILES COc1ccc2[nH]cc([C@H](C(=O)OCCOC(=O)c3ccc(-c4c5nc(c(-c6cccc(S(=O)(=O)[O-])c6F)c6ccc([nH]6)c(-c6cccc(S(=O)(=O)[O-])c6F)c6nc(c(-c7cccc(S(=O)(=O)[O-])c7F)c7ccc4[nH]7)C=C6)C=C5)cc3)[NH+]3CC[NH+](Cc4cccc5ccccc45)CC3)c2c1
REMARK SMILES IDX 14 1 13 2 11 3 12 4 10 5 9 6 3 7 4 8 100 9 5 10 99 11 6 12
REMARK SMILES IDX 7 13 8 14 2 16 1 17 82 18 83 19 98 20 84 22 97 23 85 24
REMARK SMILES IDX 86 26 87 27 88 28 96 29 89 30 91 31 95 32 90 33 92 34 94 35
REMARK SMILES IDX 93 36 15 37 16 38 17 39 18 40 19 41 20 42 81 43 21 44 80 45
REMARK SMILES IDX 22 46 23 47 24 48 74 49 25 50 79 51 73 52 75 53 26 54 78 55
REMARK SMILES IDX 72 56 71 57 27 59 59 60 39 61 58 62 40 63 43 64 57 65 76 66
REMARK SMILES IDX 41 67 42 68 56 70 77 71 44 72 28 73 29 74 37 75 30 76 32 77
REMARK SMILES IDX 38 78 31 79 33 80 34 81 35 82 36 83 60 84 61 85 69 86 62 87
REMARK SMILES IDX 64 88 70 89 63 90 65 91 66 92 67 93 68 94 45 95 46 96 54 97
REMARK SMILES IDX 47 98 49 99 55 100 48 101 50 102 51 103 52 104 53 105
REMARK H PARENT 7 15 82 21 85 25 75 58 43 69
REMARK Flexibility Score: inf
ROOT
ATOM      1  C   UNL     1       1.629   3.172  -2.227  1.00  0.00     0.274 C 
ENDROOT
BRANCH   1   2
ATOM      2  O   UNL     1       0.234   2.825  -2.386  1.00  0.00    -0.457 OA
BRANCH   2   3
ATOM      3  C   UNL     1      -0.545   3.912  -2.642  1.00  0.00     0.370 C 
ATOM      4  O   UNL     1      -0.266   4.985  -2.118  1.00  0.00    -0.245 OA
BRANCH   3   5
ATOM      5  C   UNL     1      -1.729   3.638  -3.633  1.00  0.00     0.328 C 
BRANCH   5   6
ATOM      6  C   UNL     1      -2.707   4.882  -3.699  1.00  0.00     0.046 A 
ATOM      7  C   UNL     1      -1.597   8.644  -3.326  1.00  0.00     0.119 A 
ATOM      8  C   UNL     1      -2.807   9.181  -3.733  1.00  0.00     0.048 A 
ATOM      9  C   UNL     1      -1.430   7.249  -3.284  1.00  0.00     0.057 A 
ATOM     10  C   UNL     1      -3.890   8.352  -4.019  1.00  0.00     0.030 A 
ATOM     11  C   UNL     1      -2.504   6.347  -3.576  1.00  0.00     0.013 A 
ATOM     12  C   UNL     1      -3.719   6.960  -3.915  1.00  0.00     0.046 A 
ATOM     13  N   UNL     1      -4.629   5.964  -4.157  1.00  0.00    -0.361 N 
ATOM     14  C   UNL     1      -4.051   4.735  -4.022  1.00  0.00     0.094 A 
ATOM     15  H   UNL     1      -5.572   6.114  -4.395  1.00  0.00     0.166 HD
BRANCH   7  16
ATOM     16  O   UNL     1      -0.614   9.564  -3.074  1.00  0.00    -0.497 OA
ATOM     17  C   UNL     1       0.305   9.257  -2.030  1.00  0.00     0.278 C 
ENDBRANCH   7  16
ENDBRANCH   5   6
BRANCH   5  18
ATOM     18  N   UNL     1      -1.368   3.340  -5.097  1.00  0.00    -0.310 N 
ATOM     19  C   UNL     1      -0.317   4.777  -5.584  1.00  0.00     0.325 C 
ATOM     20  C   UNL     1      -0.801   1.583  -5.630  1.00  0.00     0.325 C 
ATOM     21  H   UNL     1      -2.219   3.260  -5.654  1.00  0.00     0.349 HD
ATOM     22  C   UNL     1       1.227   4.544  -6.772  1.00  0.00     0.324 C 
ATOM     23  C   UNL     1       1.036   1.569  -6.609  1.00  0.00     0.324 C 
ATOM     24  N   UNL     1       1.147   3.077  -7.904  1.00  0.00    -0.322 N 
ATOM     25  H   UNL     1       1.942   3.065  -8.544  1.00  0.00     0.348 HD
BRANCH  24  26
ATOM     26  C   UNL     1      -0.517   3.031  -9.211  1.00  0.00     0.300 C 
BRANCH  26  27
ATOM     27  C   UNL     1      -2.130   2.445  -9.123  1.00  0.00     0.014 A 
ATOM     28  C   UNL     1      -2.368   1.056  -9.350  1.00  0.00     0.010 A 
ATOM     29  C   UNL     1      -3.241   3.329  -9.280  1.00  0.00    -0.010 A 
ATOM     30  C   UNL     1      -3.640   0.520  -9.399  1.00  0.00     0.001 A 
ATOM     31  C   UNL     1      -4.540   2.764  -9.271  1.00  0.00    -0.018 A 
ATOM     32  C   UNL     1      -3.167   4.717  -9.572  1.00  0.00     0.009 A 
ATOM     33  C   UNL     1      -4.722   1.373  -9.290  1.00  0.00     0.009 A 
ATOM     34  C   UNL     1      -5.669   3.591  -9.340  1.00  0.00     0.009 A 
ATOM     35  C   UNL     1      -4.295   5.524  -9.689  1.00  0.00     0.001 A 
ATOM     36  C   UNL     1      -5.548   4.964  -9.530  1.00  0.00     0.001 A 
ENDBRANCH  26  27
ENDBRANCH  24  26
ENDBRANCH   5  18
ENDBRANCH   3   5
ENDBRANCH   2   3
ENDBRANCH   1   2
BRANCH   1  37
ATOM     37  C   UNL     1       2.389   3.296  -3.574  1.00  0.00     0.275 C 
BRANCH  37  38
ATOM     38  O   UNL     1       1.590   3.858  -4.681  1.00  0.00    -0.458 OA
BRANCH  38  39
ATOM     39  C   UNL     1       0.675   2.949  -5.322  1.00  0.00     0.338 C 
ATOM     40  O   UNL     1       0.790   1.966  -4.519  1.00  0.00    -0.246 OA
BRANCH  39  41
ATOM     41  C   UNL     1      -0.488   2.947  -7.078  1.00  0.00     0.060 A 
ATOM     42  C   UNL     1      -0.489   4.557  -7.921  1.00  0.00     0.016 A 
ATOM     43  C   UNL     1       0.031   1.488  -8.240  1.00  0.00     0.016 A 
ATOM     44  C   UNL     1       0.618   4.846  -9.275  1.00  0.00     0.010 A 
ATOM     45  C   UNL     1       1.243   1.846  -9.561  1.00  0.00     0.010 A 
ATOM     46  C   UNL     1       1.428   3.527 -10.142  1.00  0.00    -0.014 A 
BRANCH  46  47
ATOM     47  C   UNL     1       1.355   3.819 -11.754  1.00  0.00     0.031 A 
ATOM     48  C   UNL     1       0.821   2.780 -12.780  1.00  0.00     0.074 A 
ATOM     49  C   UNL     1       1.463   5.089 -12.253  1.00  0.00     0.049 A 
ATOM     50  N   UNL     1       0.549   2.936 -14.067  1.00  0.00    -0.248 NA
ATOM     51  C   UNL     1       0.559   1.406 -12.349  1.00  0.00     0.031 C 
ATOM     52  C   UNL     1       1.917   6.261 -11.509  1.00  0.00     0.029 A 
ATOM     53  N   UNL     1       1.091   5.645 -13.479  1.00  0.00    -0.354 N 
ATOM     54  C   UNL     1       0.189   1.677 -14.564  1.00  0.00     0.074 A 
ATOM     55  C   UNL     1       0.228   0.773 -13.456  1.00  0.00     0.031 C 
ATOM     56  C   UNL     1       1.595   7.382 -12.175  1.00  0.00     0.029 A 
ATOM     57  C   UNL     1       1.075   7.035 -13.496  1.00  0.00     0.049 A 
ATOM     58  H   UNL     1       0.860   5.099 -14.264  1.00  0.00     0.167 HD
ATOM     59  C   UNL     1      -0.152   1.253 -15.806  1.00  0.00     0.034 A 
ATOM     60  C   UNL     1       0.717   7.944 -14.443  1.00  0.00     0.034 A 
ATOM     61  C   UNL     1      -0.276   2.094 -16.955  1.00  0.00     0.049 A 
ATOM     62  C   UNL     1       0.334   7.472 -15.826  1.00  0.00     0.074 A 
ATOM     63  C   UNL     1      -0.498   1.729 -18.271  1.00  0.00     0.029 A 
ATOM     64  N   UNL     1      -0.212   3.472 -16.920  1.00  0.00    -0.354 N 
ATOM     65  N   UNL     1       0.079   6.258 -16.243  1.00  0.00    -0.248 NA
ATOM     66  C   UNL     1       0.240   8.496 -16.886  1.00  0.00     0.031 C 
ATOM     67  C   UNL     1      -0.544   2.894 -19.041  1.00  0.00     0.029 A 
ATOM     68  C   UNL     1      -0.374   3.978 -18.195  1.00  0.00     0.049 A 
ATOM     69  H   UNL     1      -0.072   4.013 -16.109  1.00  0.00     0.167 HD
ATOM     70  C   UNL     1      -0.157   6.364 -17.611  1.00  0.00     0.074 A 
ATOM     71  C   UNL     1      -0.095   7.769 -17.946  1.00  0.00     0.031 C 
ATOM     72  C   UNL     1      -0.347   5.376 -18.518  1.00  0.00     0.034 A 
BRANCH  59  73
ATOM     73  C   UNL     1      -0.358  -0.234 -15.997  1.00  0.00     0.023 A 
ATOM     74  C   UNL     1      -1.572  -0.846 -15.622  1.00  0.00     0.012 A 
ATOM     75  C   UNL     1       0.678  -1.025 -16.534  1.00  0.00     0.148 A 
ATOM     76  C   UNL     1      -1.735  -2.228 -15.747  1.00  0.00     0.002 A 
ATOM     77  C   UNL     1       0.496  -2.394 -16.684  1.00  0.00     0.091 A 
ATOM     78  F   UNL     1       1.831  -0.426 -16.861  1.00  0.00    -0.205 F 
ATOM     79  C   UNL     1      -0.705  -3.000 -16.282  1.00  0.00     0.022 A 
BRANCH  77  80
ATOM     80  S   UNL     1       1.750  -3.464 -17.397  1.00  0.00     0.127 S 
ATOM     81  O   UNL     1       2.190  -4.223 -16.227  1.00  0.00    -0.237 OA
ATOM     82  O   UNL     1       0.979  -4.238 -18.370  1.00  0.00    -0.237 OA
ATOM     83  O   UNL     1       2.750  -2.580 -17.979  1.00  0.00    -0.744 OA
ENDBRANCH  77  80
ENDBRANCH  59  73
BRANCH  60  84
ATOM     84  C   UNL     1       0.720   9.423 -14.145  1.00  0.00     0.023 A 
ATOM     85  C   UNL     1      -0.468  10.179 -14.262  1.00  0.00     0.012 A 
ATOM     86  C   UNL     1       1.883  10.088 -13.716  1.00  0.00     0.148 A 
ATOM     87  C   UNL     1      -0.495  11.543 -13.938  1.00  0.00     0.002 A 
ATOM     88  C   UNL     1       1.825  11.414 -13.292  1.00  0.00     0.091 A 
ATOM     89  F   UNL     1       3.042   9.414 -13.705  1.00  0.00    -0.205 F 
ATOM     90  C   UNL     1       0.644  12.153 -13.420  1.00  0.00     0.022 A 
BRANCH  88  91
ATOM     91  S   UNL     1       3.204  12.131 -12.389  1.00  0.00     0.127 S 
ATOM     92  O   UNL     1       4.002  12.719 -13.459  1.00  0.00    -0.237 OA
ATOM     93  O   UNL     1       2.544  13.098 -11.510  1.00  0.00    -0.237 OA
ATOM     94  O   UNL     1       3.793  11.000 -11.682  1.00  0.00    -0.744 OA
ENDBRANCH  88  91
ENDBRANCH  60  84
BRANCH  72  95
ATOM     95  C   UNL     1      -0.451   5.747 -19.970  1.00  0.00     0.023 A 
ATOM     96  C   UNL     1       0.725   6.071 -20.675  1.00  0.00     0.012 A 
ATOM     97  C   UNL     1      -1.672   5.648 -20.662  1.00  0.00     0.148 A 
ATOM     98  C   UNL     1       0.684   6.306 -22.048  1.00  0.00     0.002 A 
ATOM     99  C   UNL     1      -1.699   5.847 -22.037  1.00  0.00     0.091 A 
ATOM    100  F   UNL     1      -2.780   5.352 -19.967  1.00  0.00    -0.205 F 
ATOM    101  C   UNL     1      -0.523   6.181 -22.731  1.00  0.00     0.022 A 
BRANCH  99 102
ATOM    102  S   UNL     1      -3.193   5.617 -23.007  1.00  0.00     0.127 S 
ATOM    103  O   UNL     1      -3.595   6.998 -23.266  1.00  0.00    -0.237 OA
ATOM    104  O   UNL     1      -2.699   4.895 -24.180  1.00  0.00    -0.237 OA
ATOM    105  O   UNL     1      -4.098   4.846 -22.164  1.00  0.00    -0.744 OA
ENDBRANCH  99 102
ENDBRANCH  72  95
ENDBRANCH  46  47
ENDBRANCH  39  41
ENDBRANCH  38  39
ENDBRANCH  37  38
ENDBRANCH   1  37
TORSDOF 19
