REMARK SMILES CC1=C(C)C[C@@H](C(=O)OCCOC(=O)c2ccc(-c3c4nc(c(-c5cccc(S(=O)(=O)[O-])c5F)c5ccc([nH]5)c(-c5cccc(S(=O)(=O)[O-])c5F)c5nc(c(-c6cccc(S(=O)(=O)[O-])c6F)c6ccc3[nH]6)C=C5)C=C4)cc2)[C@@H](C(=O)NCC[NH+]2CCOCC2)C1
REMARK SMILES IDX 10 1 9 2 7 3 8 4 6 5 1 6 2 7 3 8 90 9 4 10 5 11 78 12 79 13
REMARK SMILES IDX 80 14 81 15 82 17 83 18 84 19 85 20 89 21 86 23 88 24 87 25
REMARK SMILES IDX 11 26 12 27 13 28 14 29 15 30 16 31 77 32 17 33 76 34 18 35
REMARK SMILES IDX 19 36 20 37 70 38 21 39 75 40 69 41 71 42 22 43 74 44 68 45
REMARK SMILES IDX 67 46 23 48 55 49 35 50 54 51 36 52 39 53 53 54 72 55 37 56
REMARK SMILES IDX 38 57 52 59 73 60 40 61 24 62 25 63 33 64 26 65 28 66 34 67
REMARK SMILES IDX 27 68 29 69 30 70 31 71 32 72 56 73 57 74 65 75 58 76 60 77
REMARK SMILES IDX 66 78 59 79 61 80 62 81 63 82 64 83 41 84 42 85 50 86 43 87
REMARK SMILES IDX 45 88 51 89 44 90 46 91 47 92 48 93 49 94
REMARK H PARENT 81 16 84 22 71 47 39 58
REMARK Flexibility Score: inf
ROOT
ATOM      1  C   UNL     1       0.033   4.799   4.247  1.00  0.00     0.274 C 
ENDROOT
BRANCH   1   2
ATOM      2  O   UNL     1       0.255   3.946   3.108  1.00  0.00    -0.462 OA
BRANCH   2   3
ATOM      3  C   UNL     1      -0.615   4.048   2.092  1.00  0.00     0.310 C 
ATOM      4  O   UNL     1      -1.655   4.704   2.156  1.00  0.00    -0.252 OA
BRANCH   3   5
ATOM      5  C   UNL     1      -0.251   3.300   0.817  1.00  0.00     0.116 C 
ATOM      6  C   UNL     1       0.916  -0.881   0.027  1.00  0.00     0.039 C 
ATOM      7  C   UNL     1       0.358   0.510   0.114  1.00  0.00    -0.074 C 
ATOM      8  C   UNL     1      -0.882   0.811   0.542  1.00  0.00    -0.073 C 
ATOM      9  C   UNL     1       1.262   1.608  -0.391  1.00  0.00     0.045 C 
ATOM     10  C   UNL     1      -1.951  -0.180   0.914  1.00  0.00     0.039 C 
ATOM     11  C   UNL     1      -1.342   2.240   0.578  1.00  0.00     0.046 C 
ATOM     12  C   UNL     1       1.197   2.924   0.408  1.00  0.00     0.097 C 
BRANCH  12  13
ATOM     13  C   UNL     1       2.332   2.883   1.434  1.00  0.00     0.224 C 
ATOM     14  O   UNL     1       2.214   2.431   2.572  1.00  0.00    -0.275 OA
ATOM     15  N   UNL     1       3.601   3.225   1.030  1.00  0.00    -0.350 N 
ATOM     16  H   UNL     1       4.248   3.340   1.763  1.00  0.00     0.163 HD
BRANCH  15  17
ATOM     17  C   UNL     1       4.151   3.448  -0.305  1.00  0.00     0.177 C 
BRANCH  17  18
ATOM     18  C   UNL     1       4.483   4.908  -0.684  1.00  0.00     0.283 C 
BRANCH  18  19
ATOM     19  N   UNL     1       5.731   5.462  -0.108  1.00  0.00    -0.330 N 
ATOM     20  C   UNL     1       5.627   5.766   1.337  1.00  0.00     0.291 C 
ATOM     21  C   UNL     1       6.096   6.738  -0.785  1.00  0.00     0.291 C 
ATOM     22  H   UNL     1       6.435   4.737  -0.248  1.00  0.00     0.348 HD
ATOM     23  C   UNL     1       4.696   6.944   1.657  1.00  0.00     0.221 C 
ATOM     24  C   UNL     1       5.185   7.929  -0.425  1.00  0.00     0.221 C 
ATOM     25  O   UNL     1       5.135   8.135   0.993  1.00  0.00    -0.370 OA
ENDBRANCH  18  19
ENDBRANCH  17  18
ENDBRANCH  15  17
ENDBRANCH  12  13
ENDBRANCH   3   5
ENDBRANCH   2   3
ENDBRANCH   1   2
BRANCH   1  26
ATOM     26  C   UNL     1       0.892   6.064   4.146  1.00  0.00     0.275 C 
BRANCH  26  27
ATOM     27  O   UNL     1       0.367   7.014   3.198  1.00  0.00    -0.458 OA
BRANCH  27  28
ATOM     28  C   UNL     1       0.726   6.817   1.908  1.00  0.00     0.338 C 
ATOM     29  O   UNL     1       1.461   5.951   1.466  1.00  0.00    -0.246 OA
BRANCH  28  30
ATOM     30  C   UNL     1      -0.019   7.725   1.027  1.00  0.00     0.060 A 
ATOM     31  C   UNL     1      -0.818   7.153   0.033  1.00  0.00     0.016 A 
ATOM     32  C   UNL     1       0.103   9.110   1.133  1.00  0.00     0.016 A 
ATOM     33  C   UNL     1      -1.515   7.958  -0.856  1.00  0.00     0.010 A 
ATOM     34  C   UNL     1      -0.611   9.922   0.249  1.00  0.00     0.010 A 
ATOM     35  C   UNL     1      -1.430   9.349  -0.739  1.00  0.00    -0.014 A 
BRANCH  35  36
ATOM     36  C   UNL     1      -2.278  10.197  -1.601  1.00  0.00     0.031 A 
ATOM     37  C   UNL     1      -1.679  10.977  -2.728  1.00  0.00     0.074 A 
ATOM     38  C   UNL     1      -3.594  10.263  -1.328  1.00  0.00     0.049 A 
ATOM     39  N   UNL     1      -2.255  11.834  -3.526  1.00  0.00    -0.248 NA
ATOM     40  C   UNL     1      -0.247  10.767  -2.995  1.00  0.00     0.031 C 
ATOM     41  C   UNL     1      -4.267   9.527  -0.255  1.00  0.00     0.029 A 
ATOM     42  N   UNL     1      -4.595  10.997  -1.908  1.00  0.00    -0.354 N 
ATOM     43  C   UNL     1      -1.254  12.298  -4.369  1.00  0.00     0.074 A 
ATOM     44  C   UNL     1      -0.033  11.618  -3.991  1.00  0.00     0.031 C 
ATOM     45  C   UNL     1      -5.564   9.865  -0.237  1.00  0.00     0.029 A 
ATOM     46  C   UNL     1      -5.803  10.873  -1.264  1.00  0.00     0.049 A 
ATOM     47  H   UNL     1      -4.462  11.557  -2.707  1.00  0.00     0.167 HD
ATOM     48  C   UNL     1      -1.355  13.205  -5.368  1.00  0.00     0.034 A 
ATOM     49  C   UNL     1      -6.962  11.529  -1.455  1.00  0.00     0.034 A 
ATOM     50  C   UNL     1      -2.584  13.853  -5.742  1.00  0.00     0.049 A 
ATOM     51  C   UNL     1      -7.035  12.553  -2.551  1.00  0.00     0.074 A 
ATOM     52  C   UNL     1      -2.807  14.748  -6.772  1.00  0.00     0.029 A 
ATOM     53  N   UNL     1      -3.797  13.685  -5.089  1.00  0.00    -0.354 N 
ATOM     54  N   UNL     1      -6.108  12.905  -3.410  1.00  0.00    -0.248 NA
ATOM     55  C   UNL     1      -8.312  13.258  -2.718  1.00  0.00     0.031 C 
ATOM     56  C   UNL     1      -4.151  15.136  -6.730  1.00  0.00     0.029 A 
ATOM     57  C   UNL     1      -4.768  14.474  -5.680  1.00  0.00     0.049 A 
ATOM     58  H   UNL     1      -3.945  13.091  -4.317  1.00  0.00     0.167 HD
ATOM     59  C   UNL     1      -6.689  13.866  -4.225  1.00  0.00     0.074 A 
ATOM     60  C   UNL     1      -8.061  14.015  -3.778  1.00  0.00     0.031 C 
ATOM     61  C   UNL     1      -6.135  14.579  -5.237  1.00  0.00     0.034 A 
BRANCH  48  62
ATOM     62  C   UNL     1      -0.109  13.532  -6.145  1.00  0.00     0.023 A 
ATOM     63  C   UNL     1       0.366  12.623  -7.110  1.00  0.00     0.012 A 
ATOM     64  C   UNL     1       0.557  14.760  -5.962  1.00  0.00     0.148 A 
ATOM     65  C   UNL     1       1.498  12.921  -7.869  1.00  0.00     0.002 A 
ATOM     66  C   UNL     1       1.665  15.064  -6.745  1.00  0.00     0.091 A 
ATOM     67  F   UNL     1       0.104  15.599  -5.020  1.00  0.00    -0.205 F 
ATOM     68  C   UNL     1       2.140  14.143  -7.694  1.00  0.00     0.022 A 
BRANCH  66  69
ATOM     69  S   UNL     1       2.527  16.636  -6.632  1.00  0.00     0.127 S 
ATOM     70  O   UNL     1       3.763  16.246  -5.954  1.00  0.00    -0.237 OA
ATOM     71  O   UNL     1       2.694  17.000  -8.039  1.00  0.00    -0.237 OA
ATOM     72  O   UNL     1       1.650  17.520  -5.877  1.00  0.00    -0.744 OA
ENDBRANCH  66  69
ENDBRANCH  48  62
BRANCH  49  73
ATOM     73  C   UNL     1      -8.136  11.219  -0.593  1.00  0.00     0.023 A 
ATOM     74  C   UNL     1      -9.241  10.543  -1.143  1.00  0.00     0.012 A 
ATOM     75  C   UNL     1      -8.136  11.530   0.782  1.00  0.00     0.148 A 
ATOM     76  C   UNL     1     -10.330  10.196  -0.343  1.00  0.00     0.002 A 
ATOM     77  C   UNL     1      -9.199  11.132   1.584  1.00  0.00     0.091 A 
ATOM     78  F   UNL     1      -7.086  12.197   1.285  1.00  0.00    -0.205 F 
ATOM     79  C   UNL     1     -10.303  10.476   1.021  1.00  0.00     0.022 A 
BRANCH  77  80
ATOM     80  S   UNL     1      -9.168  11.331   3.370  1.00  0.00     0.127 S 
ATOM     81  O   UNL     1     -10.015  12.505   3.555  1.00  0.00    -0.237 OA
ATOM     82  O   UNL     1      -9.752  10.071   3.832  1.00  0.00    -0.237 OA
ATOM     83  O   UNL     1      -7.762  11.495   3.714  1.00  0.00    -0.744 OA
ENDBRANCH  77  80
ENDBRANCH  49  73
BRANCH  61  84
ATOM     84  C   UNL     1      -7.012  15.591  -5.921  1.00  0.00     0.023 A 
ATOM     85  C   UNL     1      -7.293  16.809  -5.271  1.00  0.00     0.012 A 
ATOM     86  C   UNL     1      -7.496  15.371  -7.224  1.00  0.00     0.148 A 
ATOM     87  C   UNL     1      -8.066  17.784  -5.899  1.00  0.00     0.002 A 
ATOM     88  C   UNL     1      -8.230  16.364  -7.860  1.00  0.00     0.091 A 
ATOM     89  F   UNL     1      -7.233  14.196  -7.815  1.00  0.00    -0.205 F 
ATOM     90  C   UNL     1      -8.524  17.567  -7.196  1.00  0.00     0.022 A 
BRANCH  88  91
ATOM     91  S   UNL     1      -8.787  16.205  -9.561  1.00  0.00     0.127 S 
ATOM     92  O   UNL     1     -10.215  15.948  -9.384  1.00  0.00    -0.237 OA
ATOM     93  O   UNL     1      -8.467  17.519 -10.119  1.00  0.00    -0.237 OA
ATOM     94  O   UNL     1      -8.018  15.107 -10.130  1.00  0.00    -0.744 OA
ENDBRANCH  88  91
ENDBRANCH  61  84
ENDBRANCH  35  36
ENDBRANCH  28  30
ENDBRANCH  27  28
ENDBRANCH  26  27
ENDBRANCH   1  26
TORSDOF 18
