REMARK SMILES O=C(C[C@H](C(=O)OCCOC(=O)c1ccc(-c2c3nc(c(-c4cccc(S(=O)(=O)[O-])c4F)c4ccc([nH]4)c(-c4cccc(S(=O)(=O)[O-])c4F)c4nc(c(-c5cccc(S(=O)(=O)[O-])c5F)c5ccc2[nH]5)C=C4)C=C3)cc1)c1ccccc1)Nc1ccc(Cl)cc1Cl
REMARK SMILES IDX 8 1 7 2 5 3 6 4 4 5 3 6 2 7 1 8 82 9 83 11 84 12 89 13 85 14
REMARK SMILES IDX 88 15 90 16 86 17 87 18 76 19 77 20 81 21 78 22 80 23 79 24
REMARK SMILES IDX 9 25 10 26 11 27 12 28 13 29 14 30 75 31 15 32 74 33 16 34
REMARK SMILES IDX 17 35 18 36 68 37 19 38 73 39 67 40 69 41 20 42 72 43 66 44
REMARK SMILES IDX 65 45 21 47 53 48 33 49 52 50 34 51 37 52 51 53 70 54 35 55
REMARK SMILES IDX 36 56 50 58 71 59 38 60 22 61 23 62 31 63 24 64 26 65 32 66
REMARK SMILES IDX 25 67 27 68 28 69 29 70 30 71 54 72 55 73 63 74 56 75 58 76
REMARK SMILES IDX 64 77 57 78 59 79 60 80 61 81 62 82 39 83 40 84 48 85 41 86
REMARK SMILES IDX 43 87 49 88 42 89 44 90 45 91 46 92 47 93
REMARK H PARENT 82 10 69 46 37 57
REMARK Flexibility Score: inf
ROOT
ATOM      1  C   UNL     1       2.708   2.640  -1.144  1.00  0.00     0.274 C 
ENDROOT
BRANCH   1   2
ATOM      2  O   UNL     1       3.644   2.187  -0.139  1.00  0.00    -0.462 OA
BRANCH   2   3
ATOM      3  C   UNL     1       3.076   1.704   1.007  1.00  0.00     0.314 C 
ATOM      4  O   UNL     1       1.869   1.587   1.182  1.00  0.00    -0.252 OA
BRANCH   3   5
ATOM      5  C   UNL     1       4.104   1.385   2.086  1.00  0.00     0.138 C 
BRANCH   5   6
ATOM      6  C   UNL     1       5.093   0.304   1.596  1.00  0.00     0.120 C 
BRANCH   6   7
ATOM      7  C   UNL     1       6.501   0.780   1.322  1.00  0.00     0.225 C 
ATOM      8  O   UNL     1       7.426   0.417   2.044  1.00  0.00    -0.275 OA
ATOM      9  N   UNL     1       6.583   1.708   0.300  1.00  0.00    -0.325 N 
ATOM     10  H   UNL     1       5.802   1.841  -0.284  1.00  0.00     0.169 HD
BRANCH   9  11
ATOM     11  C   UNL     1       7.745   2.470   0.064  1.00  0.00     0.060 A 
ATOM     12  C   UNL     1       7.549   3.854  -0.041  1.00  0.00     0.029 A 
ATOM     13  C   UNL     1       9.051   1.954  -0.012  1.00  0.00     0.066 A 
ATOM     14  C   UNL     1       8.642   4.718  -0.117  1.00  0.00     0.023 A 
ATOM     15  C   UNL     1      10.143   2.822  -0.095  1.00  0.00     0.043 A 
ATOM     16  Cl  UNL     1       9.387   0.266  -0.195  1.00  0.00    -0.082 Cl
ATOM     17  C   UNL     1       9.934   4.198  -0.125  1.00  0.00     0.042 A 
ATOM     18  Cl  UNL     1      11.280   5.267  -0.195  1.00  0.00    -0.084 Cl
ENDBRANCH   9  11
ENDBRANCH   6   7
ENDBRANCH   5   6
BRANCH   5  19
ATOM     19  C   UNL     1       4.706   2.605   2.778  1.00  0.00    -0.033 A 
ATOM     20  C   UNL     1       5.639   2.417   3.812  1.00  0.00     0.004 A 
ATOM     21  C   UNL     1       4.362   3.923   2.435  1.00  0.00     0.004 A 
ATOM     22  C   UNL     1       6.263   3.503   4.427  1.00  0.00     0.000 A 
ATOM     23  C   UNL     1       4.979   5.010   3.059  1.00  0.00     0.000 A 
ATOM     24  C   UNL     1       5.939   4.800   4.045  1.00  0.00     0.000 A 
ENDBRANCH   5  19
ENDBRANCH   3   5
ENDBRANCH   2   3
ENDBRANCH   1   2
BRANCH   1  25
ATOM     25  C   UNL     1       2.512   1.628  -2.275  1.00  0.00     0.275 C 
BRANCH  25  26
ATOM     26  O   UNL     1       1.942   0.400  -1.796  1.00  0.00    -0.458 OA
BRANCH  26  27
ATOM     27  C   UNL     1       2.853  -0.554  -1.498  1.00  0.00     0.338 C 
ATOM     28  O   UNL     1       4.064  -0.469  -1.614  1.00  0.00    -0.246 OA
BRANCH  27  29
ATOM     29  C   UNL     1       2.193  -1.709  -0.876  1.00  0.00     0.060 A 
ATOM     30  C   UNL     1       2.319  -1.883   0.505  1.00  0.00     0.016 A 
ATOM     31  C   UNL     1       1.586  -2.686  -1.663  1.00  0.00     0.016 A 
ATOM     32  C   UNL     1       1.902  -3.067   1.101  1.00  0.00     0.010 A 
ATOM     33  C   UNL     1       1.131  -3.861  -1.057  1.00  0.00     0.010 A 
ATOM     34  C   UNL     1       1.321  -4.072   0.321  1.00  0.00    -0.014 A 
BRANCH  34  35
ATOM     35  C   UNL     1       0.977  -5.374   0.938  1.00  0.00     0.031 A 
ATOM     36  C   UNL     1       1.784  -6.593   0.591  1.00  0.00     0.074 A 
ATOM     37  C   UNL     1      -0.051  -5.457   1.803  1.00  0.00     0.049 A 
ATOM     38  N   UNL     1       1.578  -7.840   0.921  1.00  0.00    -0.248 NA
ATOM     39  C   UNL     1       2.981  -6.381  -0.242  1.00  0.00     0.031 C 
ATOM     40  C   UNL     1      -0.887  -4.334   2.232  1.00  0.00     0.029 A 
ATOM     41  N   UNL     1      -0.581  -6.539   2.458  1.00  0.00    -0.354 N 
ATOM     42  C   UNL     1       2.588  -8.568   0.303  1.00  0.00     0.074 A 
ATOM     43  C   UNL     1       3.409  -7.623  -0.422  1.00  0.00     0.031 C 
ATOM     44  C   UNL     1      -1.839  -4.790   3.062  1.00  0.00     0.029 A 
ATOM     45  C   UNL     1      -1.705  -6.238   3.190  1.00  0.00     0.049 A 
ATOM     46  H   UNL     1      -0.193  -7.442   2.410  1.00  0.00     0.167 HD
ATOM     47  C   UNL     1       2.817  -9.901   0.349  1.00  0.00     0.034 A 
ATOM     48  C   UNL     1      -2.549  -7.045   3.862  1.00  0.00     0.034 A 
ATOM     49  C   UNL     1       2.023 -10.827   1.110  1.00  0.00     0.049 A 
ATOM     50  C   UNL     1      -2.266  -8.523   3.898  1.00  0.00     0.074 A 
ATOM     51  C   UNL     1       2.171 -12.198   1.224  1.00  0.00     0.029 A 
ATOM     52  N   UNL     1       0.940 -10.474   1.900  1.00  0.00    -0.354 N 
ATOM     53  N   UNL     1      -1.274  -9.187   3.355  1.00  0.00    -0.248 NA
ATOM     54  C   UNL     1      -3.202  -9.360   4.663  1.00  0.00     0.031 C 
ATOM     55  C   UNL     1       1.178 -12.674   2.087  1.00  0.00     0.029 A 
ATOM     56  C   UNL     1       0.417 -11.598   2.515  1.00  0.00     0.049 A 
ATOM     57  H   UNL     1       0.593  -9.559   2.007  1.00  0.00     0.167 HD
ATOM     58  C   UNL     1      -1.447 -10.511   3.739  1.00  0.00     0.074 A 
ATOM     59  C   UNL     1      -2.626 -10.552   4.579  1.00  0.00     0.031 C 
ATOM     60  C   UNL     1      -0.712 -11.601   3.408  1.00  0.00     0.034 A 
BRANCH  47  61
ATOM     61  C   UNL     1       3.998 -10.437  -0.413  1.00  0.00     0.023 A 
ATOM     62  C   UNL     1       5.295 -10.262   0.109  1.00  0.00     0.012 A 
ATOM     63  C   UNL     1       3.823 -11.166  -1.606  1.00  0.00     0.148 A 
ATOM     64  C   UNL     1       6.403 -10.788  -0.554  1.00  0.00     0.002 A 
ATOM     65  C   UNL     1       4.929 -11.717  -2.243  1.00  0.00     0.091 A 
ATOM     66  F   UNL     1       2.583 -11.300  -2.097  1.00  0.00    -0.205 F 
ATOM     67  C   UNL     1       6.219 -11.523  -1.722  1.00  0.00     0.022 A 
BRANCH  65  68
ATOM     68  S   UNL     1       4.792 -12.735  -3.717  1.00  0.00     0.127 S 
ATOM     69  O   UNL     1       5.357 -11.854  -4.738  1.00  0.00    -0.237 OA
ATOM     70  O   UNL     1       5.626 -13.887  -3.376  1.00  0.00    -0.237 OA
ATOM     71  O   UNL     1       3.375 -13.035  -3.867  1.00  0.00    -0.744 OA
ENDBRANCH  65  68
ENDBRANCH  47  61
BRANCH  48  72
ATOM     72  C   UNL     1      -3.721  -6.469   4.579  1.00  0.00     0.023 A 
ATOM     73  C   UNL     1      -3.744  -6.478   5.987  1.00  0.00     0.012 A 
ATOM     74  C   UNL     1      -4.801  -5.897   3.880  1.00  0.00     0.148 A 
ATOM     75  C   UNL     1      -4.834  -5.955   6.684  1.00  0.00     0.002 A 
ATOM     76  C   UNL     1      -5.858  -5.328   4.581  1.00  0.00     0.091 A 
ATOM     77  F   UNL     1      -4.778  -5.917   2.539  1.00  0.00    -0.205 F 
ATOM     78  C   UNL     1      -5.885  -5.370   5.982  1.00  0.00     0.022 A 
BRANCH  76  79
ATOM     79  S   UNL     1      -7.174  -4.440   3.739  1.00  0.00     0.127 S 
ATOM     80  O   UNL     1      -8.207  -5.465   3.628  1.00  0.00    -0.237 OA
ATOM     81  O   UNL     1      -7.476  -3.360   4.680  1.00  0.00    -0.237 OA
ATOM     82  O   UNL     1      -6.580  -3.985   2.489  1.00  0.00    -0.744 OA
ENDBRANCH  76  79
ENDBRANCH  48  72
BRANCH  60  83
ATOM     83  C   UNL     1      -1.130 -12.925   3.987  1.00  0.00     0.023 A 
ATOM     84  C   UNL     1      -2.253 -13.591   3.459  1.00  0.00     0.012 A 
ATOM     85  C   UNL     1      -0.368 -13.542   4.997  1.00  0.00     0.148 A 
ATOM     86  C   UNL     1      -2.626 -14.842   3.945  1.00  0.00     0.002 A 
ATOM     87  C   UNL     1      -0.722 -14.808   5.449  1.00  0.00     0.091 A 
ATOM     88  F   UNL     1       0.684 -12.881   5.503  1.00  0.00    -0.205 F 
ATOM     89  C   UNL     1      -1.855 -15.456   4.930  1.00  0.00     0.022 A 
BRANCH  87  90
ATOM     90  S   UNL     1       0.270 -15.701   6.651  1.00  0.00     0.127 S 
ATOM     91  O   UNL     1      -0.484 -15.481   7.883  1.00  0.00    -0.237 OA
ATOM     92  O   UNL     1       0.223 -17.073   6.144  1.00  0.00    -0.237 OA
ATOM     93  O   UNL     1       1.592 -15.090   6.602  1.00  0.00    -0.744 OA
ENDBRANCH  87  90
ENDBRANCH  60  83
ENDBRANCH  34  35
ENDBRANCH  27  29
ENDBRANCH  26  27
ENDBRANCH  25  26
ENDBRANCH   1  25
TORSDOF 18
