REMARK SMILES O=C(CC[NH2+]C[C@H](O)Cn1c2ccccc2c2ccccc21)OCCOC(=O)c1ccc(-c2c3nc(c(-c4cccc(S(=O)(=O)[O-])c4F)c4ccc([nH]4)c(-c4cccc(S(=O)(=O)[O-])c4F)c4nc(c(-c5cccc(S(=O)(=O)[O-])c5F)c5ccc2[nH]5)C=C4)C=C3)cc1
REMARK SMILES IDX 23 1 2 2 1 3 3 4 4 5 5 6 6 9 7 10 9 11 10 12 11 13 22 14
REMARK SMILES IDX 12 15 16 16 17 17 21 18 13 19 15 20 18 21 20 22 14 23 19 24
REMARK SMILES IDX 8 25 24 27 25 28 26 29 27 30 28 31 29 32 30 33 91 34 31 35
REMARK SMILES IDX 90 36 32 37 33 38 34 39 84 40 35 41 89 42 83 43 85 44 36 45
REMARK SMILES IDX 88 46 82 47 81 48 37 50 69 51 49 52 68 53 50 54 53 55 67 56
REMARK SMILES IDX 86 57 51 58 52 59 66 61 87 62 54 63 38 64 39 65 47 66 40 67
REMARK SMILES IDX 42 68 48 69 41 70 43 71 44 72 45 73 46 74 70 75 71 76 79 77
REMARK SMILES IDX 72 78 74 79 80 80 73 81 75 82 76 83 77 84 78 85 55 86 56 87
REMARK SMILES IDX 64 88 57 89 59 90 65 91 58 92 60 93 61 94 62 95 63 96
REMARK H PARENT 5 7 5 8 8 26 85 49 53 60
REMARK Flexibility Score: inf
ROOT
ATOM      1  O   UNL     1       7.293  -5.219  -0.828  1.00  0.00    -0.462 OA
ENDROOT
BRANCH   1   2
ATOM      2  C   UNL     1       7.012  -4.820   0.436  1.00  0.00     0.311 C 
ATOM      3  O   UNL     1       7.767  -4.038   1.008  1.00  0.00    -0.252 OA
BRANCH   2   4
ATOM      4  C   UNL     1       5.894  -5.511   1.186  1.00  0.00     0.184 C 
BRANCH   4   5
ATOM      5  C   UNL     1       4.397  -5.315   0.947  1.00  0.00     0.272 C 
BRANCH   5   6
ATOM      6  N   UNL     1       3.938  -4.145   0.204  1.00  0.00    -0.344 N 
ATOM      7  H   UNL     1       3.382  -4.471  -0.587  1.00  0.00     0.346 HD
ATOM      8  H   UNL     1       4.776  -3.635  -0.075  1.00  0.00     0.346 HD
BRANCH   6   9
ATOM      9  C   UNL     1       3.116  -3.199   0.984  1.00  0.00     0.294 C 
BRANCH   9  10
ATOM     10  C   UNL     1       3.998  -2.147   1.708  1.00  0.00     0.189 C 
BRANCH  10  11
ATOM     11  C   UNL     1       4.760  -2.891   2.786  1.00  0.00     0.160 C 
BRANCH  11  12
ATOM     12  N   UNL     1       5.450  -2.333   3.908  1.00  0.00    -0.338 N 
ATOM     13  C   UNL     1       5.965  -3.229   4.830  1.00  0.00     0.049 A 
ATOM     14  C   UNL     1       5.838  -1.051   4.184  1.00  0.00     0.049 A 
ATOM     15  C   UNL     1       5.706  -4.600   5.040  1.00  0.00     0.027 A 
ATOM     16  C   UNL     1       6.933  -2.531   5.526  1.00  0.00     0.007 A 
ATOM     17  C   UNL     1       6.777  -1.148   5.217  1.00  0.00     0.007 A 
ATOM     18  C   UNL     1       5.470   0.186   3.643  1.00  0.00     0.027 A 
ATOM     19  C   UNL     1       6.420  -5.255   6.026  1.00  0.00     0.002 A 
ATOM     20  C   UNL     1       7.756  -3.263   6.379  1.00  0.00     0.011 A 
ATOM     21  C   UNL     1       7.316   0.031   5.770  1.00  0.00     0.011 A 
ATOM     22  C   UNL     1       5.983   1.343   4.237  1.00  0.00     0.002 A 
ATOM     23  C   UNL     1       7.440  -4.592   6.676  1.00  0.00     0.001 A 
ATOM     24  C   UNL     1       6.879   1.270   5.298  1.00  0.00     0.001 A 
ENDBRANCH  11  12
ENDBRANCH  10  11
BRANCH  10  25
ATOM     25  O   UNL     1       4.880  -1.635   0.694  1.00  0.00    -0.385 OA
ATOM     26  H   UNL     1       5.365  -2.369   0.287  1.00  0.00     0.211 HD
ENDBRANCH  10  25
ENDBRANCH   9  10
ENDBRANCH   6   9
ENDBRANCH   5   6
ENDBRANCH   4   5
ENDBRANCH   2   4
ENDBRANCH   1   2
BRANCH   1  27
ATOM     27  C   UNL     1       6.265  -5.526  -1.775  1.00  0.00     0.274 C 
BRANCH  27  28
ATOM     28  C   UNL     1       6.011  -7.025  -1.965  1.00  0.00     0.275 C 
BRANCH  28  29
ATOM     29  O   UNL     1       6.205  -7.767  -0.749  1.00  0.00    -0.458 OA
BRANCH  29  30
ATOM     30  C   UNL     1       7.373  -8.459  -0.654  1.00  0.00     0.338 C 
ATOM     31  O   UNL     1       8.043  -8.859  -1.598  1.00  0.00    -0.246 OA
BRANCH  30  32
ATOM     32  C   UNL     1       7.868  -8.386   0.747  1.00  0.00     0.060 A 
ATOM     33  C   UNL     1       7.019  -8.485   1.856  1.00  0.00     0.016 A 
ATOM     34  C   UNL     1       9.193  -7.972   0.924  1.00  0.00     0.016 A 
ATOM     35  C   UNL     1       7.450  -7.987   3.091  1.00  0.00     0.010 A 
ATOM     36  C   UNL     1       9.634  -7.523   2.170  1.00  0.00     0.010 A 
ATOM     37  C   UNL     1       8.749  -7.462   3.247  1.00  0.00    -0.014 A 
BRANCH  37  38
ATOM     38  C   UNL     1       9.194  -7.036   4.590  1.00  0.00     0.031 A 
ATOM     39  C   UNL     1       8.948  -8.038   5.659  1.00  0.00     0.074 A 
ATOM     40  C   UNL     1       9.806  -5.877   4.929  1.00  0.00     0.049 A 
ATOM     41  N   UNL     1       8.242  -7.882   6.736  1.00  0.00    -0.248 NA
ATOM     42  C   UNL     1       9.434  -9.406   5.438  1.00  0.00     0.031 C 
ATOM     43  C   UNL     1      10.127  -4.751   4.052  1.00  0.00     0.029 A 
ATOM     44  N   UNL     1      10.273  -5.461   6.163  1.00  0.00    -0.354 N 
ATOM     45  C   UNL     1       8.382  -9.066   7.434  1.00  0.00     0.074 A 
ATOM     46  C   UNL     1       8.995 -10.016   6.538  1.00  0.00     0.031 C 
ATOM     47  C   UNL     1      10.827  -3.828   4.747  1.00  0.00     0.029 A 
ATOM     48  C   UNL     1      10.961  -4.257   6.135  1.00  0.00     0.049 A 
ATOM     49  H   UNL     1      10.130  -5.976   6.990  1.00  0.00     0.167 HD
ATOM     50  C   UNL     1       8.241  -9.129   8.781  1.00  0.00     0.034 A 
ATOM     51  C   UNL     1      11.586  -3.612   7.152  1.00  0.00     0.034 A 
ATOM     52  C   UNL     1       7.487  -8.060   9.366  1.00  0.00     0.049 A 
ATOM     53  C   UNL     1      10.923  -3.940   8.461  1.00  0.00     0.074 A 
ATOM     54  C   UNL     1       6.164  -7.686   9.377  1.00  0.00     0.029 A 
ATOM     55  N   UNL     1       8.203  -7.036   9.931  1.00  0.00    -0.354 N 
ATOM     56  N   UNL     1       9.827  -3.410   8.953  1.00  0.00    -0.248 NA
ATOM     57  C   UNL     1      11.452  -5.059   9.231  1.00  0.00     0.031 C 
ATOM     58  C   UNL     1       6.133  -6.331   9.805  1.00  0.00     0.029 A 
ATOM     59  C   UNL     1       7.439  -5.895  10.056  1.00  0.00     0.049 A 
ATOM     60  H   UNL     1       9.144  -7.106  10.212  1.00  0.00     0.167 HD
ATOM     61  C   UNL     1       9.339  -4.336   9.876  1.00  0.00     0.074 A 
ATOM     62  C   UNL     1      10.455  -5.246  10.096  1.00  0.00     0.031 C 
ATOM     63  C   UNL     1       8.005  -4.528  10.161  1.00  0.00     0.034 A 
BRANCH  50  64
ATOM     64  C   UNL     1       9.132 -10.022   9.591  1.00  0.00     0.023 A 
ATOM     65  C   UNL     1       8.702 -10.490  10.843  1.00  0.00     0.012 A 
ATOM     66  C   UNL     1      10.488 -10.224   9.238  1.00  0.00     0.148 A 
ATOM     67  C   UNL     1       9.583 -11.167  11.694  1.00  0.00     0.002 A 
ATOM     68  C   UNL     1      11.335 -10.960  10.049  1.00  0.00     0.091 A 
ATOM     69  F   UNL     1      10.986  -9.599   8.161  1.00  0.00    -0.205 F 
ATOM     70  C   UNL     1      10.892 -11.423  11.289  1.00  0.00     0.022 A 
BRANCH  68  71
ATOM     71  S   UNL     1      13.010 -11.342   9.532  1.00  0.00     0.127 S 
ATOM     72  O   UNL     1      13.783 -10.373  10.303  1.00  0.00    -0.237 OA
ATOM     73  O   UNL     1      13.150 -12.734   9.962  1.00  0.00    -0.237 OA
ATOM     74  O   UNL     1      13.011 -11.167   8.085  1.00  0.00    -0.744 OA
ENDBRANCH  68  71
ENDBRANCH  50  64
BRANCH  51  75
ATOM     75  C   UNL     1      12.967  -3.008   7.075  1.00  0.00     0.023 A 
ATOM     76  C   UNL     1      13.548  -2.456   8.239  1.00  0.00     0.012 A 
ATOM     77  C   UNL     1      13.829  -3.189   5.962  1.00  0.00     0.148 A 
ATOM     78  C   UNL     1      14.925  -2.186   8.319  1.00  0.00     0.002 A 
ATOM     79  C   UNL     1      15.193  -2.910   6.040  1.00  0.00     0.091 A 
ATOM     80  F   UNL     1      13.352  -3.716   4.830  1.00  0.00    -0.205 F 
ATOM     81  C   UNL     1      15.751  -2.429   7.226  1.00  0.00     0.022 A 
BRANCH  79  82
ATOM     82  S   UNL     1      16.300  -3.212   4.651  1.00  0.00     0.127 S 
ATOM     83  O   UNL     1      17.191  -2.051   4.705  1.00  0.00    -0.237 OA
ATOM     84  O   UNL     1      16.924  -4.477   5.028  1.00  0.00    -0.237 OA
ATOM     85  O   UNL     1      15.451  -3.249   3.467  1.00  0.00    -0.744 OA
ENDBRANCH  79  82
ENDBRANCH  51  75
BRANCH  63  86
ATOM     86  C   UNL     1       6.978  -3.382  10.171  1.00  0.00     0.023 A 
ATOM     87  C   UNL     1       6.948  -2.366   9.209  1.00  0.00     0.012 A 
ATOM     88  C   UNL     1       5.906  -3.386  11.094  1.00  0.00     0.148 A 
ATOM     89  C   UNL     1       5.814  -1.577   8.979  1.00  0.00     0.002 A 
ATOM     90  C   UNL     1       4.821  -2.512  10.943  1.00  0.00     0.091 A 
ATOM     91  F   UNL     1       5.936  -4.272  12.101  1.00  0.00    -0.205 F 
ATOM     92  C   UNL     1       4.733  -1.669   9.832  1.00  0.00     0.022 A 
BRANCH  90  93
ATOM     93  S   UNL     1       3.544  -2.301  12.186  1.00  0.00     0.127 S 
ATOM     94  O   UNL     1       3.584  -0.855  12.415  1.00  0.00    -0.237 OA
ATOM     95  O   UNL     1       2.345  -2.773  11.495  1.00  0.00    -0.237 OA
ATOM     96  O   UNL     1       3.960  -3.102  13.330  1.00  0.00    -0.744 OA
ENDBRANCH  90  93
ENDBRANCH  63  86
ENDBRANCH  37  38
ENDBRANCH  30  32
ENDBRANCH  29  30
ENDBRANCH  28  29
ENDBRANCH  27  28
ENDBRANCH   1  27
TORSDOF 21
