REMARK SMILES Cc1ccccc1OCC(=O)N1C[C@H](O)C[C@H]1C(=O)OCCOC(=O)c1ccc(-c2c3nc(c(-c4cccc(S(=O)(=O)[O-])c4F)c4ccc([nH]4)c(-c4cccc(S(=O)(=O)[O-])c4F)c4nc(c(-c5cccc(S(=O)(=O)[O-])c5F)c5ccc2[nH]5)C=C4)C=C3)cc1
REMARK SMILES IDX 21 1 20 2 18 3 19 4 17 5 12 6 13 7 14 8 16 9 10 10 11 11
REMARK SMILES IDX 9 12 8 13 7 14 1 15 2 16 3 17 4 18 6 19 5 20 15 21 22 23
REMARK SMILES IDX 23 24 24 25 25 26 26 27 27 28 88 29 28 30 87 31 29 32 30 33
REMARK SMILES IDX 31 34 81 35 32 36 86 37 80 38 82 39 33 40 85 41 79 42 78 43
REMARK SMILES IDX 34 45 66 46 46 47 65 48 47 49 50 50 64 51 83 52 48 53 49 54
REMARK SMILES IDX 63 56 84 57 51 58 35 59 36 60 44 61 37 62 39 63 45 64 38 65
REMARK SMILES IDX 40 66 41 67 42 68 43 69 67 70 68 71 76 72 69 73 71 74 77 75
REMARK SMILES IDX 70 76 72 77 73 78 74 79 75 80 52 81 53 82 61 83 54 84 56 85
REMARK SMILES IDX 62 86 55 87 57 88 58 89 59 90 60 91
REMARK H PARENT 15 22 82 44 50 55
REMARK Flexibility Score: inf
ROOT
ATOM      1  C   UNL     1       3.462  -1.558   2.629  1.00  0.00     0.274 C 
ENDROOT
BRANCH   1   2
ATOM      2  O   UNL     1       3.088  -0.192   2.500  1.00  0.00    -0.461 OA
BRANCH   2   3
ATOM      3  C   UNL     1       2.208   0.267   3.434  1.00  0.00     0.329 C 
ATOM      4  O   UNL     1       1.636  -0.463   4.232  1.00  0.00    -0.250 OA
BRANCH   3   5
ATOM      5  C   UNL     1       2.128   1.806   3.407  1.00  0.00     0.198 C 
ATOM      6  N   UNL     1       1.642   2.292   2.117  1.00  0.00    -0.323 N 
ATOM      7  C   UNL     1       0.371   2.978   2.278  1.00  0.00     0.152 C 
ATOM      8  C   UNL     1       0.445   3.514   3.704  1.00  0.00     0.136 C 
ATOM      9  C   UNL     1       1.165   2.396   4.451  1.00  0.00     0.070 C 
BRANCH   6  10
ATOM     10  C   UNL     1       2.458   2.309   1.013  1.00  0.00     0.261 C 
ATOM     11  O   UNL     1       3.649   1.997   1.074  1.00  0.00    -0.271 OA
BRANCH  10  12
ATOM     12  C   UNL     1       1.874   2.773  -0.327  1.00  0.00     0.329 C 
BRANCH  12  13
ATOM     13  O   UNL     1       0.653   2.325  -0.880  1.00  0.00    -0.484 OA
BRANCH  13  14
ATOM     14  C   UNL     1       0.161   1.093  -0.562  1.00  0.00     0.122 A 
ATOM     15  C   UNL     1       2.290  -0.320  -0.877  1.00  0.00     0.048 C 
ATOM     16  C   UNL     1       0.844  -0.128  -0.532  1.00  0.00    -0.009 A 
ATOM     17  C   UNL     1       0.127  -1.287  -0.161  1.00  0.00     0.007 A 
ATOM     18  C   UNL     1      -1.242  -1.246   0.104  1.00  0.00     0.001 A 
ATOM     19  C   UNL     1      -1.224   1.115  -0.329  1.00  0.00     0.047 A 
ATOM     20  C   UNL     1      -1.923  -0.042   0.006  1.00  0.00     0.004 A 
ENDBRANCH  13  14
ENDBRANCH  12  13
ENDBRANCH  10  12
ENDBRANCH   6  10
BRANCH   8  21
ATOM     21  O   UNL     1       1.181   4.737   3.720  1.00  0.00    -0.391 OA
ATOM     22  H   UNL     1       2.058   4.592   3.332  1.00  0.00     0.211 HD
ENDBRANCH   8  21
ENDBRANCH   3   5
ENDBRANCH   2   3
ENDBRANCH   1   2
BRANCH   1  23
ATOM     23  C   UNL     1       4.629  -1.916   1.693  1.00  0.00     0.275 C 
BRANCH  23  24
ATOM     24  O   UNL     1       5.495  -0.866   1.162  1.00  0.00    -0.458 OA
BRANCH  24  25
ATOM     25  C   UNL     1       6.212   0.109   1.795  1.00  0.00     0.338 C 
ATOM     26  O   UNL     1       6.992   0.830   1.214  1.00  0.00    -0.246 OA
BRANCH  25  27
ATOM     27  C   UNL     1       6.041   0.203   3.251  1.00  0.00     0.060 A 
ATOM     28  C   UNL     1       5.628   1.399   3.857  1.00  0.00     0.016 A 
ATOM     29  C   UNL     1       6.222  -0.954   3.991  1.00  0.00     0.016 A 
ATOM     30  C   UNL     1       5.241   1.397   5.201  1.00  0.00     0.010 A 
ATOM     31  C   UNL     1       5.735  -0.983   5.271  1.00  0.00     0.010 A 
ATOM     32  C   UNL     1       5.254   0.188   5.890  1.00  0.00    -0.014 A 
BRANCH  32  33
ATOM     33  C   UNL     1       5.013   0.014   7.319  1.00  0.00     0.031 A 
ATOM     34  C   UNL     1       3.679   0.042   7.947  1.00  0.00     0.074 A 
ATOM     35  C   UNL     1       6.121  -0.409   7.966  1.00  0.00     0.049 A 
ATOM     36  N   UNL     1       3.473  -0.111   9.209  1.00  0.00    -0.248 NA
ATOM     37  C   UNL     1       2.448   0.271   7.210  1.00  0.00     0.031 C 
ATOM     38  C   UNL     1       6.281  -1.095   9.231  1.00  0.00     0.029 A 
ATOM     39  N   UNL     1       7.435  -0.099   7.580  1.00  0.00    -0.354 N 
ATOM     40  C   UNL     1       2.111  -0.257   9.410  1.00  0.00     0.074 A 
ATOM     41  C   UNL     1       1.513   0.080   8.148  1.00  0.00     0.031 C 
ATOM     42  C   UNL     1       7.541  -0.884   9.661  1.00  0.00     0.029 A 
ATOM     43  C   UNL     1       8.118   0.123   8.772  1.00  0.00     0.049 A 
ATOM     44  H   UNL     1       7.795  -0.051   6.665  1.00  0.00     0.167 HD
ATOM     45  C   UNL     1       1.688  -0.775  10.597  1.00  0.00     0.034 A 
ATOM     46  C   UNL     1       8.491   1.389   9.136  1.00  0.00     0.034 A 
ATOM     47  C   UNL     1       2.811  -0.784  11.544  1.00  0.00     0.049 A 
ATOM     48  C   UNL     1       7.873   1.754  10.468  1.00  0.00     0.074 A 
ATOM     49  C   UNL     1       3.732  -1.759  11.887  1.00  0.00     0.029 A 
ATOM     50  N   UNL     1       3.322   0.428  11.999  1.00  0.00    -0.354 N 
ATOM     51  N   UNL     1       6.733   1.291  10.903  1.00  0.00    -0.248 NA
ATOM     52  C   UNL     1       8.543   2.613  11.434  1.00  0.00     0.031 C 
ATOM     53  C   UNL     1       4.877  -1.096  12.411  1.00  0.00     0.029 A 
ATOM     54  C   UNL     1       4.626   0.268  12.438  1.00  0.00     0.049 A 
ATOM     55  H   UNL     1       2.826   1.279  12.008  1.00  0.00     0.167 HD
ATOM     56  C   UNL     1       6.515   1.738  12.178  1.00  0.00     0.074 A 
ATOM     57  C   UNL     1       7.686   2.554  12.467  1.00  0.00     0.031 C 
ATOM     58  C   UNL     1       5.401   1.412  12.903  1.00  0.00     0.034 A 
BRANCH  45  59
ATOM     59  C   UNL     1       0.373  -1.498  10.886  1.00  0.00     0.023 A 
ATOM     60  C   UNL     1       0.286  -2.168  12.132  1.00  0.00     0.012 A 
ATOM     61  C   UNL     1      -0.728  -1.689  10.013  1.00  0.00     0.148 A 
ATOM     62  C   UNL     1      -0.776  -3.017  12.469  1.00  0.00     0.002 A 
ATOM     63  C   UNL     1      -1.804  -2.523  10.358  1.00  0.00     0.091 A 
ATOM     64  F   UNL     1      -0.747  -1.101   8.818  1.00  0.00    -0.205 F 
ATOM     65  C   UNL     1      -1.821  -3.201  11.579  1.00  0.00     0.022 A 
BRANCH  63  66
ATOM     66  S   UNL     1      -3.220  -2.802   9.272  1.00  0.00     0.127 S 
ATOM     67  O   UNL     1      -3.049  -4.207   8.900  1.00  0.00    -0.237 OA
ATOM     68  O   UNL     1      -4.354  -2.545  10.160  1.00  0.00    -0.237 OA
ATOM     69  O   UNL     1      -3.090  -1.854   8.172  1.00  0.00    -0.744 OA
ENDBRANCH  63  66
ENDBRANCH  45  59
BRANCH  46  70
ATOM     70  C   UNL     1       8.689   2.351   7.990  1.00  0.00     0.023 A 
ATOM     71  C   UNL     1       9.581   1.964   6.955  1.00  0.00     0.012 A 
ATOM     72  C   UNL     1       7.793   3.405   7.730  1.00  0.00     0.148 A 
ATOM     73  C   UNL     1       9.478   2.499   5.667  1.00  0.00     0.002 A 
ATOM     74  C   UNL     1       7.705   3.944   6.441  1.00  0.00     0.091 A 
ATOM     75  F   UNL     1       7.004   3.841   8.719  1.00  0.00    -0.205 F 
ATOM     76  C   UNL     1       8.520   3.469   5.403  1.00  0.00     0.022 A 
BRANCH  74  77
ATOM     77  S   UNL     1       6.446   5.162   6.018  1.00  0.00     0.127 S 
ATOM     78  O   UNL     1       7.155   6.415   6.253  1.00  0.00    -0.237 OA
ATOM     79  O   UNL     1       6.162   4.864   4.613  1.00  0.00    -0.237 OA
ATOM     80  O   UNL     1       5.332   4.863   6.907  1.00  0.00    -0.744 OA
ENDBRANCH  74  77
ENDBRANCH  46  70
BRANCH  58  81
ATOM     81  C   UNL     1       4.965   2.140  14.156  1.00  0.00     0.023 A 
ATOM     82  C   UNL     1       5.388   3.456  14.429  1.00  0.00     0.012 A 
ATOM     83  C   UNL     1       3.975   1.598  15.014  1.00  0.00     0.148 A 
ATOM     84  C   UNL     1       4.932   4.167  15.541  1.00  0.00     0.002 A 
ATOM     85  C   UNL     1       3.433   2.357  16.047  1.00  0.00     0.091 A 
ATOM     86  F   UNL     1       3.557   0.335  14.845  1.00  0.00    -0.205 F 
ATOM     87  C   UNL     1       3.936   3.626  16.339  1.00  0.00     0.022 A 
BRANCH  85  88
ATOM     88  S   UNL     1       1.960   1.809  16.922  1.00  0.00     0.127 S 
ATOM     89  O   UNL     1       2.530   1.151  18.095  1.00  0.00    -0.237 OA
ATOM     90  O   UNL     1       1.275   3.073  17.205  1.00  0.00    -0.237 OA
ATOM     91  O   UNL     1       1.254   0.951  15.980  1.00  0.00    -0.744 OA
ENDBRANCH  85  88
ENDBRANCH  58  81
ENDBRANCH  32  33
ENDBRANCH  25  27
ENDBRANCH  24  25
ENDBRANCH  23  24
ENDBRANCH   1  23
TORSDOF 19
