REMARK SMILES O=C(OCCOC(=O)c1ccc(-n2cc(CSc3nc4ccccc4c(=O)n3-c3ccccc3)nn2)cc1)c1ccc(-c2c3nc(c(-c4cccc(S(=O)(=O)[O-])c4F)c4ccc([nH]4)c(-c4cccc(S(=O)(=O)[O-])c4F)c4nc(c(-c5cccc(S(=O)(=O)[O-])c5F)c5ccc2[nH]5)C=C4)C=C3)cc1
REMARK SMILES IDX 5 1 4 2 3 3 2 4 1 5 39 6 40 7 101 8 41 9 100 10 42 11 43 12
REMARK SMILES IDX 44 13 94 14 45 15 99 16 93 17 95 18 46 19 98 20 92 21 91 22
REMARK SMILES IDX 47 24 79 25 59 26 78 27 60 28 63 29 77 30 96 31 61 32 62 33
REMARK SMILES IDX 76 35 97 36 64 37 48 38 49 39 57 40 50 41 52 42 58 43 51 44
REMARK SMILES IDX 53 45 54 46 55 47 56 48 80 49 81 50 89 51 82 52 84 53 90 54
REMARK SMILES IDX 83 55 85 56 86 57 87 58 88 59 65 60 66 61 74 62 67 63 69 64
REMARK SMILES IDX 75 65 68 66 70 67 71 68 72 69 73 70 6 71 7 72 8 73 9 74
REMARK SMILES IDX 10 75 38 76 11 77 37 78 12 79 13 80 14 81 36 82 15 83 35 84
REMARK SMILES IDX 16 85 17 86 18 87 19 88 28 89 20 90 26 91 21 92 25 93 27 94
REMARK SMILES IDX 22 95 24 96 23 97 29 98 30 99 34 100 31 101 33 102 32 103
REMARK H PARENT 95 23 63 34
REMARK Flexibility Score: inf
ROOT
ATOM      1  C   UNL     1       4.468   0.235   1.310  1.00  0.00     0.275 C 
ENDROOT
BRANCH   1   2
ATOM      2  C   UNL     1       4.647   0.821  -0.090  1.00  0.00     0.275 C 
BRANCH   2   3
ATOM      3  O   UNL     1       3.459   1.085  -0.864  1.00  0.00    -0.458 OA
BRANCH   3   4
ATOM      4  C   UNL     1       2.358   0.325  -0.675  1.00  0.00     0.338 C 
ATOM      5  O   UNL     1       1.460   0.612   0.100  1.00  0.00    -0.246 OA
BRANCH   4   6
ATOM      6  C   UNL     1       2.233  -0.748  -1.690  1.00  0.00     0.060 A 
ATOM      7  C   UNL     1       3.341  -1.353  -2.291  1.00  0.00     0.016 A 
ATOM      8  C   UNL     1       0.941  -1.165  -2.033  1.00  0.00     0.016 A 
ATOM      9  C   UNL     1       3.154  -2.298  -3.291  1.00  0.00     0.010 A 
ATOM     10  C   UNL     1       0.755  -2.135  -3.007  1.00  0.00     0.010 A 
ATOM     11  C   UNL     1       1.858  -2.660  -3.679  1.00  0.00    -0.014 A 
BRANCH  11  12
ATOM     12  C   UNL     1       1.699  -3.664  -4.732  1.00  0.00     0.031 A 
ATOM     13  C   UNL     1       2.398  -4.959  -4.472  1.00  0.00     0.074 A 
ATOM     14  C   UNL     1       0.888  -3.507  -5.801  1.00  0.00     0.049 A 
ATOM     15  N   UNL     1       3.405  -5.467  -5.105  1.00  0.00    -0.248 NA
ATOM     16  C   UNL     1       2.007  -5.713  -3.274  1.00  0.00     0.031 C 
ATOM     17  C   UNL     1      -0.081  -2.438  -6.064  1.00  0.00     0.029 A 
ATOM     18  N   UNL     1       0.675  -4.360  -6.842  1.00  0.00    -0.354 N 
ATOM     19  C   UNL     1       3.634  -6.715  -4.518  1.00  0.00     0.074 A 
ATOM     20  C   UNL     1       2.868  -6.732  -3.304  1.00  0.00     0.031 C 
ATOM     21  C   UNL     1      -0.942  -2.837  -7.029  1.00  0.00     0.029 A 
ATOM     22  C   UNL     1      -0.485  -4.105  -7.567  1.00  0.00     0.049 A 
ATOM     23  H   UNL     1       1.291  -5.096  -7.062  1.00  0.00     0.167 HD
ATOM     24  C   UNL     1       4.262  -7.724  -5.184  1.00  0.00     0.034 A 
ATOM     25  C   UNL     1      -1.051  -4.905  -8.506  1.00  0.00     0.034 A 
ATOM     26  C   UNL     1       4.965  -7.228  -6.338  1.00  0.00     0.049 A 
ATOM     27  C   UNL     1       0.004  -5.826  -8.983  1.00  0.00     0.074 A 
ATOM     28  C   UNL     1       5.980  -6.317  -6.545  1.00  0.00     0.029 A 
ATOM     29  N   UNL     1       4.352  -7.393  -7.555  1.00  0.00    -0.354 N 
ATOM     30  N   UNL     1       1.055  -5.428  -9.643  1.00  0.00    -0.248 NA
ATOM     31  C   UNL     1       0.114  -7.122  -8.336  1.00  0.00     0.031 C 
ATOM     32  C   UNL     1       5.578  -5.599  -7.709  1.00  0.00     0.029 A 
ATOM     33  C   UNL     1       4.402  -6.181  -8.188  1.00  0.00     0.049 A 
ATOM     34  H   UNL     1       3.953  -8.222  -7.905  1.00  0.00     0.167 HD
ATOM     35  C   UNL     1       2.091  -6.181  -9.112  1.00  0.00     0.074 A 
ATOM     36  C   UNL     1       1.441  -7.269  -8.381  1.00  0.00     0.031 C 
ATOM     37  C   UNL     1       3.365  -5.695  -9.068  1.00  0.00     0.034 A 
BRANCH  24  38
ATOM     38  C   UNL     1       3.961  -9.203  -5.033  1.00  0.00     0.023 A 
ATOM     39  C   UNL     1       4.786 -10.102  -5.752  1.00  0.00     0.012 A 
ATOM     40  C   UNL     1       2.768  -9.732  -4.485  1.00  0.00     0.148 A 
ATOM     41  C   UNL     1       4.408 -11.428  -5.984  1.00  0.00     0.002 A 
ATOM     42  C   UNL     1       2.432 -11.072  -4.656  1.00  0.00     0.091 A 
ATOM     43  F   UNL     1       1.878  -8.924  -3.907  1.00  0.00    -0.205 F 
ATOM     44  C   UNL     1       3.229 -11.914  -5.436  1.00  0.00     0.022 A 
BRANCH  42  45
ATOM     45  S   UNL     1       0.936 -11.782  -3.950  1.00  0.00     0.127 S 
ATOM     46  O   UNL     1       0.130 -12.009  -5.146  1.00  0.00    -0.237 OA
ATOM     47  O   UNL     1       1.455 -12.995  -3.315  1.00  0.00    -0.237 OA
ATOM     48  O   UNL     1       0.421 -10.792  -3.013  1.00  0.00    -0.744 OA
ENDBRANCH  42  45
ENDBRANCH  24  38
BRANCH  25  49
ATOM     49  C   UNL     1      -2.478  -5.133  -8.838  1.00  0.00     0.023 A 
ATOM     50  C   UNL     1      -2.830  -5.686 -10.087  1.00  0.00     0.012 A 
ATOM     51  C   UNL     1      -3.461  -5.101  -7.824  1.00  0.00     0.148 A 
ATOM     52  C   UNL     1      -4.106  -6.220 -10.308  1.00  0.00     0.002 A 
ATOM     53  C   UNL     1      -4.728  -5.634  -8.048  1.00  0.00     0.091 A 
ATOM     54  F   UNL     1      -3.120  -4.634  -6.616  1.00  0.00    -0.205 F 
ATOM     55  C   UNL     1      -5.051  -6.205  -9.286  1.00  0.00     0.022 A 
BRANCH  53  56
ATOM     56  S   UNL     1      -5.989  -5.688  -6.767  1.00  0.00     0.127 S 
ATOM     57  O   UNL     1      -7.137  -5.092  -7.450  1.00  0.00    -0.237 OA
ATOM     58  O   UNL     1      -6.104  -7.122  -6.516  1.00  0.00    -0.237 OA
ATOM     59  O   UNL     1      -5.469  -4.894  -5.661  1.00  0.00    -0.744 OA
ENDBRANCH  53  56
ENDBRANCH  25  49
BRANCH  37  60
ATOM     60  C   UNL     1       3.678  -4.416  -9.798  1.00  0.00     0.023 A 
ATOM     61  C   UNL     1       3.130  -3.170  -9.427  1.00  0.00     0.012 A 
ATOM     62  C   UNL     1       4.729  -4.450 -10.727  1.00  0.00     0.148 A 
ATOM     63  C   UNL     1       3.625  -1.983  -9.977  1.00  0.00     0.002 A 
ATOM     64  C   UNL     1       5.256  -3.269 -11.225  1.00  0.00     0.091 A 
ATOM     65  F   UNL     1       5.232  -5.647 -11.066  1.00  0.00    -0.205 F 
ATOM     66  C   UNL     1       4.702  -2.031 -10.861  1.00  0.00     0.022 A 
BRANCH  64  67
ATOM     67  S   UNL     1       6.737  -3.266 -12.236  1.00  0.00     0.127 S 
ATOM     68  O   UNL     1       6.205  -2.930 -13.555  1.00  0.00    -0.237 OA
ATOM     69  O   UNL     1       7.539  -2.212 -11.612  1.00  0.00    -0.237 OA
ATOM     70  O   UNL     1       7.312  -4.600 -12.114  1.00  0.00    -0.744 OA
ENDBRANCH  64  67
ENDBRANCH  37  60
ENDBRANCH  11  12
ENDBRANCH   4   6
ENDBRANCH   3   4
ENDBRANCH   2   3
ENDBRANCH   1   2
BRANCH   1  71
ATOM     71  O   UNL     1       3.964  -1.106   1.221  1.00  0.00    -0.458 OA
BRANCH  71  72
ATOM     72  C   UNL     1       2.892  -1.397   1.998  1.00  0.00     0.338 C 
ATOM     73  O   UNL     1       2.362  -0.691   2.843  1.00  0.00    -0.246 OA
BRANCH  72  74
ATOM     74  C   UNL     1       2.424  -2.733   1.608  1.00  0.00     0.060 A 
ATOM     75  C   UNL     1       1.162  -2.886   1.022  1.00  0.00     0.018 A 
ATOM     76  C   UNL     1       3.267  -3.830   1.801  1.00  0.00     0.018 A 
ATOM     77  C   UNL     1       0.738  -4.151   0.606  1.00  0.00     0.029 A 
ATOM     78  C   UNL     1       2.861  -5.084   1.360  1.00  0.00     0.029 A 
ATOM     79  C   UNL     1       1.597  -5.243   0.769  1.00  0.00     0.066 A 
BRANCH  79  80
ATOM     80  N   UNL     1       1.197  -6.543   0.399  1.00  0.00    -0.220 N 
ATOM     81  C   UNL     1      -0.023  -7.142   0.625  1.00  0.00     0.141 A 
ATOM     82  N   UNL     1       2.089  -7.455  -0.018  1.00  0.00    -0.062 NA
ATOM     83  C   UNL     1       0.190  -8.486   0.415  1.00  0.00     0.093 A 
ATOM     84  N   UNL     1       1.472  -8.619  -0.088  1.00  0.00    -0.134 NA
BRANCH  83  85
ATOM     85  C   UNL     1      -0.485  -9.773   0.738  1.00  0.00     0.138 C 
BRANCH  85  86
ATOM     86  S   UNL     1      -2.084 -10.113   1.457  1.00  0.00    -0.081 SA
BRANCH  86  87
ATOM     87  C   UNL     1      -3.042  -8.723   1.840  1.00  0.00     0.176 A 
ATOM     88  N   UNL     1      -4.289  -8.879   1.502  1.00  0.00    -0.223 NA
ATOM     89  N   UNL     1      -2.605  -7.580   2.494  1.00  0.00    -0.255 N 
ATOM     90  C   UNL     1      -5.160  -7.795   1.620  1.00  0.00     0.079 A 
ATOM     91  C   UNL     1      -3.235  -6.401   2.058  1.00  0.00     0.266 A 
ATOM     92  C   UNL     1      -6.541  -7.961   1.533  1.00  0.00     0.029 A 
ATOM     93  C   UNL     1      -4.651  -6.511   1.697  1.00  0.00     0.066 A 
ATOM     94  O   UNL     1      -2.707  -5.295   1.938  1.00  0.00    -0.268 OA
ATOM     95  C   UNL     1      -7.380  -6.843   1.441  1.00  0.00     0.002 A 
ATOM     96  C   UNL     1      -5.462  -5.386   1.530  1.00  0.00     0.016 A 
ATOM     97  C   UNL     1      -6.836  -5.558   1.391  1.00  0.00     0.001 A 
BRANCH  89  98
ATOM     98  C   UNL     1      -1.523  -7.470   3.463  1.00  0.00     0.051 A 
ATOM     99  C   UNL     1      -1.298  -6.248   4.127  1.00  0.00     0.027 A 
ATOM    100  C   UNL     1      -0.646  -8.504   3.803  1.00  0.00     0.027 A 
ATOM    101  C   UNL     1      -0.137  -6.000   4.863  1.00  0.00     0.002 A 
ATOM    102  C   UNL     1       0.551  -8.254   4.488  1.00  0.00     0.002 A 
ATOM    103  C   UNL     1       0.824  -6.989   4.984  1.00  0.00     0.000 A 
ENDBRANCH  89  98
ENDBRANCH  86  87
ENDBRANCH  85  86
ENDBRANCH  83  85
ENDBRANCH  79  80
ENDBRANCH  72  74
ENDBRANCH  71  72
ENDBRANCH   1  71
TORSDOF 19
