REMARK SMILES COCC[C@@]1(C(=O)OCCOC(=O)c2ccc(-c3c4nc(c(-c5cccc(S(=O)(=O)[O-])c5F)c5ccc([nH]5)c(-c5cccc(S(=O)(=O)[O-])c5F)c5nc(c(-c6cccc(S(=O)(=O)[O-])c6F)c6ccc3[nH]6)C=C5)C=C4)cc2)CCCN(C(=O)NCc2ccc(OC)cc2)C1
REMARK SMILES IDX 9 1 8 2 6 3 7 4 5 5 77 6 93 7 78 8 80 9 79 10 4 11 3 12 2 13
REMARK SMILES IDX 1 14 81 15 82 16 83 17 84 19 85 20 86 21 92 22 87 23 91 24
REMARK SMILES IDX 88 25 89 26 90 27 10 28 11 29 12 30 13 31 14 32 15 33 76 34
REMARK SMILES IDX 16 35 75 36 17 37 18 38 19 39 69 40 20 41 74 42 68 43 70 44
REMARK SMILES IDX 21 45 73 46 67 47 66 48 22 50 54 51 34 52 53 53 35 54 38 55
REMARK SMILES IDX 52 56 71 57 36 58 37 59 51 61 72 62 39 63 23 64 24 65 32 66
REMARK SMILES IDX 25 67 27 68 33 69 26 70 28 71 29 72 30 73 31 74 55 75 56 76
REMARK SMILES IDX 64 77 57 78 59 79 65 80 58 81 60 82 61 83 62 84 63 85 40 86
REMARK SMILES IDX 41 87 49 88 42 89 44 90 50 91 43 92 45 93 46 94 47 95 48 96
REMARK H PARENT 83 18 70 49 38 60
REMARK Flexibility Score: inf
ROOT
ATOM      1  C   UNL     1      -2.011   2.283   2.641  1.00  0.00     0.274 C 
ENDROOT
BRANCH   1   2
ATOM      2  O   UNL     1      -0.984   1.350   3.029  1.00  0.00    -0.462 OA
BRANCH   2   3
ATOM      3  C   UNL     1      -0.177   0.911   2.027  1.00  0.00     0.314 C 
ATOM      4  O   UNL     1      -0.246   1.306   0.869  1.00  0.00    -0.252 OA
BRANCH   3   5
ATOM      5  C   UNL     1       0.877  -0.096   2.520  1.00  0.00     0.088 C 
ATOM      6  C   UNL     1       1.644  -0.642   1.279  1.00  0.00     0.022 C 
ATOM      7  C   UNL     1       0.187  -1.254   3.275  1.00  0.00     0.140 C 
ATOM      8  C   UNL     1       0.817  -1.629   0.445  1.00  0.00     0.023 C 
ATOM      9  N   UNL     1      -0.563  -2.149   2.383  1.00  0.00    -0.324 N 
ATOM     10  C   UNL     1       0.269  -2.734   1.338  1.00  0.00     0.121 C 
BRANCH   5  11
ATOM     11  C   UNL     1       1.826   0.677   3.481  1.00  0.00     0.049 C 
BRANCH  11  12
ATOM     12  C   UNL     1       3.044  -0.090   4.008  1.00  0.00     0.161 C 
BRANCH  12  13
ATOM     13  O   UNL     1       4.263   0.611   3.760  1.00  0.00    -0.385 OA
ATOM     14  C   UNL     1       4.735   0.495   2.424  1.00  0.00     0.194 C 
ENDBRANCH  12  13
ENDBRANCH  11  12
ENDBRANCH   5  11
BRANCH   9  15
ATOM     15  C   UNL     1      -1.891  -2.324   2.638  1.00  0.00     0.317 C 
ATOM     16  O   UNL     1      -2.434  -1.827   3.632  1.00  0.00    -0.249 OA
ATOM     17  N   UNL     1      -2.723  -3.026   1.859  1.00  0.00    -0.334 N 
ATOM     18  H   UNL     1      -3.632  -3.050   2.237  1.00  0.00     0.165 HD
BRANCH  17  19
ATOM     19  C   UNL     1      -2.652  -3.760   0.615  1.00  0.00     0.153 C 
BRANCH  19  20
ATOM     20  C   UNL     1      -2.304  -5.222   0.794  1.00  0.00    -0.028 A 
ATOM     21  C   UNL     1      -1.790  -5.948  -0.289  1.00  0.00     0.009 A 
ATOM     22  C   UNL     1      -2.557  -5.910   1.991  1.00  0.00     0.009 A 
ATOM     23  C   UNL     1      -1.534  -7.319  -0.171  1.00  0.00     0.047 A 
ATOM     24  C   UNL     1      -2.301  -7.282   2.107  1.00  0.00     0.047 A 
ATOM     25  C   UNL     1      -1.798  -7.995   1.022  1.00  0.00     0.118 A 
BRANCH  25  26
ATOM     26  O   UNL     1      -1.528  -9.336   0.998  1.00  0.00    -0.497 OA
ATOM     27  C   UNL     1      -1.928 -10.088   2.138  1.00  0.00     0.278 C 
ENDBRANCH  25  26
ENDBRANCH  19  20
ENDBRANCH  17  19
ENDBRANCH   9  15
ENDBRANCH   3   5
ENDBRANCH   2   3
ENDBRANCH   1   2
BRANCH   1  28
ATOM     28  C   UNL     1      -1.608   3.723   2.955  1.00  0.00     0.275 C 
BRANCH  28  29
ATOM     29  O   UNL     1      -0.489   4.142   2.154  1.00  0.00    -0.458 OA
BRANCH  29  30
ATOM     30  C   UNL     1       0.689   4.251   2.810  1.00  0.00     0.338 C 
ATOM     31  O   UNL     1       0.904   4.029   3.989  1.00  0.00    -0.246 OA
BRANCH  30  32
ATOM     32  C   UNL     1       1.739   4.673   1.872  1.00  0.00     0.060 A 
ATOM     33  C   UNL     1       2.465   3.705   1.178  1.00  0.00     0.016 A 
ATOM     34  C   UNL     1       2.074   6.023   1.760  1.00  0.00     0.016 A 
ATOM     35  C   UNL     1       3.570   4.076   0.414  1.00  0.00     0.010 A 
ATOM     36  C   UNL     1       3.138   6.400   0.934  1.00  0.00     0.010 A 
ATOM     37  C   UNL     1       3.907   5.429   0.268  1.00  0.00    -0.014 A 
BRANCH  37  38
ATOM     38  C   UNL     1       5.024   5.834  -0.626  1.00  0.00     0.031 A 
ATOM     39  C   UNL     1       6.242   6.525  -0.079  1.00  0.00     0.074 A 
ATOM     40  C   UNL     1       4.910   5.624  -1.953  1.00  0.00     0.049 A 
ATOM     41  N   UNL     1       7.248   7.054  -0.728  1.00  0.00    -0.248 NA
ATOM     42  C   UNL     1       6.343   6.643   1.384  1.00  0.00     0.031 C 
ATOM     43  C   UNL     1       3.772   4.977  -2.610  1.00  0.00     0.029 A 
ATOM     44  N   UNL     1       5.746   5.958  -2.990  1.00  0.00    -0.354 N 
ATOM     45  C   UNL     1       8.078   7.608   0.239  1.00  0.00     0.074 A 
ATOM     46  C   UNL     1       7.459   7.348   1.522  1.00  0.00     0.031 C 
ATOM     47  C   UNL     1       3.973   4.974  -3.936  1.00  0.00     0.029 A 
ATOM     48  C   UNL     1       5.225   5.665  -4.228  1.00  0.00     0.049 A 
ATOM     49  H   UNL     1       6.632   6.368  -2.859  1.00  0.00     0.167 HD
ATOM     50  C   UNL     1       9.255   8.259   0.074  1.00  0.00     0.034 A 
ATOM     51  C   UNL     1       5.678   5.952  -5.464  1.00  0.00     0.034 A 
ATOM     52  C   UNL     1       9.894   8.473  -1.198  1.00  0.00     0.049 A 
ATOM     53  C   UNL     1       6.977   6.690  -5.617  1.00  0.00     0.074 A 
ATOM     54  C   UNL     1      11.125   9.054  -1.454  1.00  0.00     0.029 A 
ATOM     55  N   UNL     1       9.356   8.123  -2.426  1.00  0.00    -0.354 N 
ATOM     56  N   UNL     1       7.805   7.101  -4.688  1.00  0.00    -0.248 NA
ATOM     57  C   UNL     1       7.413   6.989  -6.988  1.00  0.00     0.031 C 
ATOM     58  C   UNL     1      11.323   9.069  -2.840  1.00  0.00     0.029 A 
ATOM     59  C   UNL     1      10.220   8.489  -3.445  1.00  0.00     0.049 A 
ATOM     60  H   UNL     1       8.487   7.678  -2.556  1.00  0.00     0.167 HD
ATOM     61  C   UNL     1       8.867   7.693  -5.360  1.00  0.00     0.074 A 
ATOM     62  C   UNL     1       8.593   7.559  -6.776  1.00  0.00     0.031 C 
ATOM     63  C   UNL     1       9.959   8.312  -4.850  1.00  0.00     0.034 A 
BRANCH  50  64
ATOM     64  C   UNL     1       9.964   8.755   1.306  1.00  0.00     0.023 A 
ATOM     65  C   UNL     1      10.668   7.841   2.114  1.00  0.00     0.012 A 
ATOM     66  C   UNL     1      10.008  10.129   1.614  1.00  0.00     0.148 A 
ATOM     67  C   UNL     1      11.389   8.283   3.223  1.00  0.00     0.002 A 
ATOM     68  C   UNL     1      10.756  10.567   2.702  1.00  0.00     0.091 A 
ATOM     69  F   UNL     1       9.313  10.980   0.846  1.00  0.00    -0.205 F 
ATOM     70  C   UNL     1      11.442   9.645   3.510  1.00  0.00     0.022 A 
BRANCH  68  71
ATOM     71  S   UNL     1      10.940  12.307   3.108  1.00  0.00     0.127 S 
ATOM     72  O   UNL     1      10.067  12.432   4.274  1.00  0.00    -0.237 OA
ATOM     73  O   UNL     1      12.370  12.409   3.405  1.00  0.00    -0.237 OA
ATOM     74  O   UNL     1      10.516  13.040   1.923  1.00  0.00    -0.744 OA
ENDBRANCH  68  71
ENDBRANCH  50  64
BRANCH  51  75
ATOM     75  C   UNL     1       4.896   5.516  -6.654  1.00  0.00     0.023 A 
ATOM     76  C   UNL     1       5.397   4.481  -7.466  1.00  0.00     0.012 A 
ATOM     77  C   UNL     1       3.643   6.083  -6.956  1.00  0.00     0.148 A 
ATOM     78  C   UNL     1       4.670   4.031  -8.569  1.00  0.00     0.002 A 
ATOM     79  C   UNL     1       2.899   5.591  -8.021  1.00  0.00     0.091 A 
ATOM     80  F   UNL     1       3.194   7.085  -6.186  1.00  0.00    -0.205 F 
ATOM     81  C   UNL     1       3.417   4.575  -8.838  1.00  0.00     0.022 A 
BRANCH  79  82
ATOM     82  S   UNL     1       1.219   6.141  -8.341  1.00  0.00     0.127 S 
ATOM     83  O   UNL     1       1.411   7.060  -9.459  1.00  0.00    -0.237 OA
ATOM     84  O   UNL     1       0.543   4.888  -8.683  1.00  0.00    -0.237 OA
ATOM     85  O   UNL     1       0.765   6.738  -7.092  1.00  0.00    -0.744 OA
ENDBRANCH  79  82
ENDBRANCH  51  75
BRANCH  63  86
ATOM     86  C   UNL     1      10.945   8.894  -5.827  1.00  0.00     0.023 A 
ATOM     87  C   UNL     1      10.625  10.090  -6.500  1.00  0.00     0.012 A 
ATOM     88  C   UNL     1      12.204   8.298  -6.035  1.00  0.00     0.148 A 
ATOM     89  C   UNL     1      11.533  10.671  -7.384  1.00  0.00     0.002 A 
ATOM     90  C   UNL     1      13.120   8.905  -6.889  1.00  0.00     0.091 A 
ATOM     91  F   UNL     1      12.482   7.148  -5.404  1.00  0.00    -0.205 F 
ATOM     92  C   UNL     1      12.783  10.085  -7.570  1.00  0.00     0.022 A 
BRANCH  90  93
ATOM     93  S   UNL     1      14.781   8.262  -7.124  1.00  0.00     0.127 S 
ATOM     94  O   UNL     1      14.670   7.617  -8.431  1.00  0.00    -0.237 OA
ATOM     95  O   UNL     1      15.594   9.479  -7.112  1.00  0.00    -0.237 OA
ATOM     96  O   UNL     1      15.023   7.368  -5.999  1.00  0.00    -0.744 OA
ENDBRANCH  90  93
ENDBRANCH  63  86
ENDBRANCH  37  38
ENDBRANCH  30  32
ENDBRANCH  29  30
ENDBRANCH  28  29
ENDBRANCH   1  28
TORSDOF 21
