REMARK SMILES Cc1ccc(OCC(=O)NNC(=O)[C@H]2CCCC[C@@H]2C(=O)OCCOC(=O)c2ccc(-c3c4nc(c(-c5cccc(S(=O)(=O)[O-])c5F)c5ccc([nH]5)c(-c5cccc(S(=O)(=O)[O-])c5F)c5nc(c(-c6cccc(S(=O)(=O)[O-])c6F)c6ccc3[nH]6)C=C5)C=C4)cc2)cc1
REMARK SMILES IDX 23 1 22 2 20 3 21 4 19 5 14 6 15 7 16 8 18 9 17 10 12 11
REMARK SMILES IDX 11 12 13 14 10 15 8 16 9 17 7 19 6 20 5 21 1 22 2 23 3 24
REMARK SMILES IDX 92 25 4 26 91 27 24 28 25 29 26 30 27 31 28 32 29 33 90 34
REMARK SMILES IDX 30 35 89 36 31 37 32 38 33 39 83 40 34 41 88 42 82 43 84 44
REMARK SMILES IDX 35 45 87 46 81 47 80 48 36 50 68 51 48 52 67 53 49 54 52 55
REMARK SMILES IDX 66 56 85 57 50 58 51 59 65 61 86 62 53 63 37 64 38 65 46 66
REMARK SMILES IDX 39 67 41 68 47 69 40 70 42 71 43 72 44 73 45 74 69 75 70 76
REMARK SMILES IDX 78 77 71 78 73 79 79 80 72 81 74 82 75 83 76 84 77 85 54 86
REMARK SMILES IDX 55 87 63 88 56 89 58 90 64 91 57 92 59 93 60 94 61 95 62 96
REMARK H PARENT 11 13 10 18 84 49 52 60
REMARK Flexibility Score: inf
ROOT
ATOM      1  C   UNL     1      -7.604   4.554   2.538  1.00  0.00     0.274 C 
ENDROOT
BRANCH   1   2
ATOM      2  O   UNL     1      -7.375   3.998   3.832  1.00  0.00    -0.462 OA
BRANCH   2   3
ATOM      3  C   UNL     1      -6.148   4.245   4.296  1.00  0.00     0.309 C 
ATOM      4  O   UNL     1      -5.651   5.371   4.221  1.00  0.00    -0.252 OA
BRANCH   3   5
ATOM      5  C   UNL     1      -5.372   3.022   4.957  1.00  0.00     0.111 C 
ATOM      6  C   UNL     1      -4.628   0.942   4.536  1.00  0.00     0.094 C 
ATOM      7  C   UNL     1      -4.966  -0.286   6.042  1.00  0.00     0.014 C 
ATOM      8  C   UNL     1      -5.184   0.412   7.685  1.00  0.00     0.001 C 
ATOM      9  C   UNL     1      -5.850   3.342   6.800  1.00  0.00     0.016 C 
ATOM     10  C   UNL     1      -5.569   2.106   8.025  1.00  0.00     0.001 C 
BRANCH   6  11
ATOM     11  C   UNL     1      -2.942   0.303   4.779  1.00  0.00     0.242 C 
ATOM     12  N   UNL     1      -2.052  -0.028   3.823  1.00  0.00    -0.267 N 
ATOM     13  H   UNL     1      -1.489  -0.815   4.006  1.00  0.00     0.191 HD
ATOM     14  O   UNL     1      -2.443   0.121   5.912  1.00  0.00    -0.273 OA
BRANCH  12  15
ATOM     15  N   UNL     1      -1.839   0.602   2.631  1.00  0.00    -0.265 N 
ATOM     16  C   UNL     1      -0.619   1.173   2.334  1.00  0.00     0.276 C 
ATOM     17  O   UNL     1      -0.375   1.590   1.197  1.00  0.00    -0.269 OA
ATOM     18  H   UNL     1      -2.568   0.649   1.971  1.00  0.00     0.191 HD
BRANCH  16  19
ATOM     19  C   UNL     1       0.491   1.196   3.425  1.00  0.00     0.331 C 
BRANCH  19  20
ATOM     20  O   UNL     1       0.288   1.815   4.684  1.00  0.00    -0.484 OA
BRANCH  20  21
ATOM     21  C   UNL     1       0.475   3.166   4.770  1.00  0.00     0.120 A 
ATOM     22  C   UNL     1       0.692   7.421   5.452  1.00  0.00     0.044 C 
ATOM     23  C   UNL     1       0.665   5.942   5.211  1.00  0.00    -0.051 A 
ATOM     24  C   UNL     1       0.785   5.047   6.279  1.00  0.00     0.007 A 
ATOM     25  C   UNL     1       0.487   5.431   3.921  1.00  0.00     0.007 A 
ATOM     26  C   UNL     1       0.682   3.669   6.058  1.00  0.00     0.047 A 
ATOM     27  C   UNL     1       0.396   4.053   3.701  1.00  0.00     0.047 A 
ENDBRANCH  20  21
ENDBRANCH  19  20
ENDBRANCH  16  19
ENDBRANCH  12  15
ENDBRANCH   6  11
ENDBRANCH   3   5
ENDBRANCH   2   3
ENDBRANCH   1   2
BRANCH   1  28
ATOM     28  C   UNL     1      -6.365   4.977   1.653  1.00  0.00     0.275 C 
BRANCH  28  29
ATOM     29  O   UNL     1      -5.296   3.991   1.354  1.00  0.00    -0.458 OA
BRANCH  29  30
ATOM     30  C   UNL     1      -4.096   3.824   2.055  1.00  0.00     0.338 C 
ATOM     31  O   UNL     1      -3.074   4.429   1.794  1.00  0.00    -0.246 OA
BRANCH  30  32
ATOM     32  C   UNL     1      -4.202   2.673   3.056  1.00  0.00     0.060 A 
ATOM     33  C   UNL     1      -3.380   2.596   4.606  1.00  0.00     0.016 A 
ATOM     34  C   UNL     1      -5.701   2.056   2.792  1.00  0.00     0.016 A 
ATOM     35  C   UNL     1      -4.345   1.939   6.042  1.00  0.00     0.010 A 
ATOM     36  C   UNL     1      -6.656   1.591   3.938  1.00  0.00     0.010 A 
ATOM     37  C   UNL     1      -6.192   1.419   5.605  1.00  0.00    -0.014 A 
BRANCH  37  38
ATOM     38  C   UNL     1      -7.551   0.744   6.035  1.00  0.00     0.031 A 
ATOM     39  C   UNL     1      -8.165   0.695   7.356  1.00  0.00     0.074 A 
ATOM     40  C   UNL     1      -8.330  -0.018   5.179  1.00  0.00     0.049 A 
ATOM     41  N   UNL     1      -8.432  -0.438   7.931  1.00  0.00    -0.248 NA
ATOM     42  C   UNL     1      -8.581   1.880   8.081  1.00  0.00     0.031 C 
ATOM     43  C   UNL     1      -9.775  -0.238   5.306  1.00  0.00     0.029 A 
ATOM     44  N   UNL     1      -8.037  -0.640   3.950  1.00  0.00    -0.354 N 
ATOM     45  C   UNL     1      -9.143  -0.112   9.051  1.00  0.00     0.074 A 
ATOM     46  C   UNL     1      -9.003   1.325   9.218  1.00  0.00     0.031 C 
ATOM     47  C   UNL     1     -10.223  -0.967   4.273  1.00  0.00     0.029 A 
ATOM     48  C   UNL     1      -9.103  -1.374   3.447  1.00  0.00     0.049 A 
ATOM     49  H   UNL     1      -7.167  -0.563   3.495  1.00  0.00     0.167 HD
ATOM     50  C   UNL     1     -10.141  -0.887   9.549  1.00  0.00     0.034 A 
ATOM     51  C   UNL     1      -9.057  -2.449   2.613  1.00  0.00     0.034 A 
ATOM     52  C   UNL     1     -10.738  -1.752   8.527  1.00  0.00     0.049 A 
ATOM     53  C   UNL     1      -9.563  -3.657   3.360  1.00  0.00     0.074 A 
ATOM     54  C   UNL     1     -11.882  -1.594   7.756  1.00  0.00     0.029 A 
ATOM     55  N   UNL     1     -10.077  -2.851   8.000  1.00  0.00    -0.354 N 
ATOM     56  N   UNL     1     -10.328  -3.590   4.411  1.00  0.00    -0.248 NA
ATOM     57  C   UNL     1      -9.107  -5.017   3.095  1.00  0.00     0.031 C 
ATOM     58  C   UNL     1     -11.965  -2.669   6.839  1.00  0.00     0.029 A 
ATOM     59  C   UNL     1     -10.873  -3.491   7.047  1.00  0.00     0.049 A 
ATOM     60  H   UNL     1      -9.173  -3.140   8.261  1.00  0.00     0.167 HD
ATOM     61  C   UNL     1     -10.150  -4.737   5.147  1.00  0.00     0.074 A 
ATOM     62  C   UNL     1      -9.473  -5.638   4.228  1.00  0.00     0.031 C 
ATOM     63  C   UNL     1     -10.461  -4.778   6.483  1.00  0.00     0.034 A 
BRANCH  50  64
ATOM     64  C   UNL     1     -10.855  -0.438  10.802  1.00  0.00     0.023 A 
ATOM     65  C   UNL     1     -12.216  -0.743  10.969  1.00  0.00     0.012 A 
ATOM     66  C   UNL     1     -10.230   0.315  11.827  1.00  0.00     0.148 A 
ATOM     67  C   UNL     1     -12.960  -0.201  12.018  1.00  0.00     0.002 A 
ATOM     68  C   UNL     1     -10.988   0.931  12.818  1.00  0.00     0.091 A 
ATOM     69  F   UNL     1      -8.894   0.452  11.819  1.00  0.00    -0.205 F 
ATOM     70  C   UNL     1     -12.359   0.675  12.913  1.00  0.00     0.022 A 
BRANCH  68  71
ATOM     71  S   UNL     1     -10.306   2.204  13.892  1.00  0.00     0.127 S 
ATOM     72  O   UNL     1     -11.320   3.259  13.802  1.00  0.00    -0.237 OA
ATOM     73  O   UNL     1     -10.243   1.531  15.186  1.00  0.00    -0.237 OA
ATOM     74  O   UNL     1      -9.024   2.577  13.305  1.00  0.00    -0.744 OA
ENDBRANCH  68  71
ENDBRANCH  50  64
BRANCH  51  75
ATOM     75  C   UNL     1      -7.916  -2.442   1.663  1.00  0.00     0.023 A 
ATOM     76  C   UNL     1      -8.006  -1.590   0.537  1.00  0.00     0.012 A 
ATOM     77  C   UNL     1      -6.662  -2.911   2.056  1.00  0.00     0.148 A 
ATOM     78  C   UNL     1      -6.854  -1.095  -0.080  1.00  0.00     0.002 A 
ATOM     79  C   UNL     1      -5.524  -2.368   1.477  1.00  0.00     0.091 A 
ATOM     80  F   UNL     1      -6.573  -3.766   3.083  1.00  0.00    -0.205 F 
ATOM     81  C   UNL     1      -5.609  -1.442   0.429  1.00  0.00     0.022 A 
BRANCH  79  82
ATOM     82  S   UNL     1      -3.964  -2.624   2.305  1.00  0.00     0.127 S 
ATOM     83  O   UNL     1      -3.099  -1.645   1.644  1.00  0.00    -0.237 OA
ATOM     84  O   UNL     1      -4.297  -2.295   3.684  1.00  0.00    -0.237 OA
ATOM     85  O   UNL     1      -3.662  -4.017   2.007  1.00  0.00    -0.744 OA
ENDBRANCH  79  82
ENDBRANCH  51  75
BRANCH  63  86
ATOM     86  C   UNL     1     -10.370  -5.989   7.407  1.00  0.00     0.023 A 
ATOM     87  C   UNL     1     -10.098  -7.289   6.949  1.00  0.00     0.012 A 
ATOM     88  C   UNL     1     -10.640  -5.875   8.801  1.00  0.00     0.148 A 
ATOM     89  C   UNL     1      -9.976  -8.383   7.816  1.00  0.00     0.002 A 
ATOM     90  C   UNL     1     -10.505  -6.955   9.666  1.00  0.00     0.091 A 
ATOM     91  F   UNL     1     -11.123  -4.733   9.300  1.00  0.00    -0.205 F 
ATOM     92  C   UNL     1     -10.152  -8.211   9.179  1.00  0.00     0.022 A 
BRANCH  90  93
ATOM     93  S   UNL     1     -10.789  -6.798  11.434  1.00  0.00     0.127 S 
ATOM     94  O   UNL     1     -12.084  -7.461  11.581  1.00  0.00    -0.237 OA
ATOM     95  O   UNL     1      -9.657  -7.541  11.989  1.00  0.00    -0.237 OA
ATOM     96  O   UNL     1     -10.773  -5.371  11.719  1.00  0.00    -0.744 OA
ENDBRANCH  90  93
ENDBRANCH  63  86
ENDBRANCH  37  38
ENDBRANCH  30  32
ENDBRANCH  29  30
ENDBRANCH  28  29
ENDBRANCH   1  28
TORSDOF 19
