REMARK SMILES COc1cc(-c2ccc(F)c(C(F)(F)F)c2)ccc1C(=O)OCCOC(=O)c1ccc(-c2c3nc(c(-c4cccc(S(=O)(=O)[O-])c4F)c4ccc([nH]4)c(-c4cccc(S(=O)(=O)[O-])c4F)c4nc(c(-c5cccc(S(=O)(=O)[O-])c5F)c5ccc2[nH]5)C=C4)C=C3)cc1
REMARK SMILES IDX 24 1 23 2 22 3 20 4 21 5 19 6 3 7 4 8 5 9 18 10 17 11 2 12
REMARK SMILES IDX 1 13 6 14 7 15 16 16 8 17 11 18 9 19 10 20 12 21 13 22 14 23
REMARK SMILES IDX 15 24 25 25 26 26 27 27 28 28 29 29 90 30 30 31 89 32 31 33
REMARK SMILES IDX 32 34 33 35 83 36 34 37 88 38 82 39 84 40 35 41 87 42 81 43
REMARK SMILES IDX 80 44 36 46 68 47 48 48 67 49 49 50 52 51 66 52 85 53 50 54
REMARK SMILES IDX 51 55 65 57 86 58 53 59 37 60 38 61 46 62 39 63 41 64 47 65
REMARK SMILES IDX 40 66 42 67 43 68 44 69 45 70 69 71 70 72 78 73 71 74 73 75
REMARK SMILES IDX 79 76 72 77 74 78 75 79 76 80 77 81 54 82 55 83 63 84 56 85
REMARK SMILES IDX 58 86 64 87 57 88 59 89 60 90 61 91 62 92
REMARK H PARENT 84 45 52 56
REMARK Flexibility Score: inf
ROOT
ATOM      1  C   UNL     1       5.024  -0.003  -0.783  1.00  0.00     0.275 C 
ENDROOT
BRANCH   1   2
ATOM      2  C   UNL     1       3.823  -0.727  -0.178  1.00  0.00     0.275 C 
BRANCH   2   3
ATOM      3  O   UNL     1       2.920   0.213   0.447  1.00  0.00    -0.458 OA
BRANCH   3   4
ATOM      4  C   UNL     1       2.519  -0.081   1.706  1.00  0.00     0.342 C 
ATOM      5  O   UNL     1       2.912  -1.015   2.390  1.00  0.00    -0.246 OA
BRANCH   4   6
ATOM      6  C   UNL     1       1.592   0.946   2.231  1.00  0.00     0.102 A 
ATOM      7  C   UNL     1       0.372   1.337   1.670  1.00  0.00     0.134 A 
ATOM      8  C   UNL     1      -0.366   2.348   2.323  1.00  0.00     0.056 A 
ATOM      9  C   UNL     1       0.067   2.970   3.507  1.00  0.00    -0.015 A 
ATOM     10  C   UNL     1       1.996   1.521   3.454  1.00  0.00     0.020 A 
ATOM     11  C   UNL     1       1.268   2.541   4.066  1.00  0.00     0.010 A 
BRANCH   7  12
ATOM     12  O   UNL     1      -0.305   0.877   0.577  1.00  0.00    -0.496 OA
ATOM     13  C   UNL     1       0.148  -0.249  -0.149  1.00  0.00     0.278 C 
ENDBRANCH   7  12
BRANCH   9  14
ATOM     14  C   UNL     1      -0.739   4.006   4.160  1.00  0.00    -0.017 A 
ATOM     15  C   UNL     1      -1.986   3.688   4.722  1.00  0.00     0.012 A 
ATOM     16  C   UNL     1      -0.286   5.335   4.239  1.00  0.00     0.025 A 
ATOM     17  C   UNL     1      -2.764   4.671   5.332  1.00  0.00     0.040 A 
ATOM     18  C   UNL     1      -1.066   6.333   4.848  1.00  0.00     0.092 A 
ATOM     19  C   UNL     1      -2.302   5.982   5.382  1.00  0.00     0.135 A 
ATOM     20  F   UNL     1      -3.078   6.915   5.950  1.00  0.00    -0.206 F 
BRANCH  18  21
ATOM     21  C   UNL     1      -0.625   7.765   4.904  1.00  0.00     0.419 C 
ATOM     22  F   UNL     1      -1.388   8.572   4.115  1.00  0.00    -0.166 F 
ATOM     23  F   UNL     1      -0.679   8.296   6.155  1.00  0.00    -0.166 F 
ATOM     24  F   UNL     1       0.657   7.947   4.479  1.00  0.00    -0.166 F 
ENDBRANCH  18  21
ENDBRANCH   9  14
ENDBRANCH   4   6
ENDBRANCH   3   4
ENDBRANCH   2   3
ENDBRANCH   1   2
BRANCH   1  25
ATOM     25  O   UNL     1       5.862   0.503   0.269  1.00  0.00    -0.458 OA
BRANCH  25  26
ATOM     26  C   UNL     1       5.646   1.801   0.576  1.00  0.00     0.338 C 
ATOM     27  O   UNL     1       4.917   2.591   0.002  1.00  0.00    -0.246 OA
BRANCH  26  28
ATOM     28  C   UNL     1       6.318   2.127   1.838  1.00  0.00     0.060 A 
ATOM     29  C   UNL     1       5.589   1.944   3.007  1.00  0.00     0.016 A 
ATOM     30  C   UNL     1       7.541   2.787   1.863  1.00  0.00     0.016 A 
ATOM     31  C   UNL     1       6.003   2.546   4.190  1.00  0.00     0.010 A 
ATOM     32  C   UNL     1       8.009   3.301   3.078  1.00  0.00     0.010 A 
ATOM     33  C   UNL     1       7.215   3.248   4.243  1.00  0.00    -0.014 A 
BRANCH  33  34
ATOM     34  C   UNL     1       7.614   3.988   5.479  1.00  0.00     0.031 A 
ATOM     35  C   UNL     1       7.920   5.468   5.409  1.00  0.00     0.074 A 
ATOM     36  C   UNL     1       7.702   3.352   6.666  1.00  0.00     0.049 A 
ATOM     37  N   UNL     1       8.443   6.250   6.319  1.00  0.00    -0.248 NA
ATOM     38  C   UNL     1       7.620   6.155   4.140  1.00  0.00     0.031 C 
ATOM     39  C   UNL     1       7.419   1.934   6.895  1.00  0.00     0.029 A 
ATOM     40  N   UNL     1       8.065   3.817   7.908  1.00  0.00    -0.354 N 
ATOM     41  C   UNL     1       8.627   7.485   5.704  1.00  0.00     0.074 A 
ATOM     42  C   UNL     1       8.143   7.355   4.347  1.00  0.00     0.031 C 
ATOM     43  C   UNL     1       7.591   1.651   8.195  1.00  0.00     0.029 A 
ATOM     44  C   UNL     1       8.081   2.841   8.879  1.00  0.00     0.049 A 
ATOM     45  H   UNL     1       8.292   4.758   8.086  1.00  0.00     0.167 HD
ATOM     46  C   UNL     1       9.148   8.624   6.221  1.00  0.00     0.034 A 
ATOM     47  C   UNL     1       8.484   2.883  10.165  1.00  0.00     0.034 A 
ATOM     48  C   UNL     1       9.533   8.782   7.599  1.00  0.00     0.049 A 
ATOM     49  C   UNL     1       9.018   4.173  10.721  1.00  0.00     0.074 A 
ATOM     50  C   UNL     1      10.007   9.917   8.234  1.00  0.00     0.029 A 
ATOM     51  N   UNL     1       9.471   7.785   8.558  1.00  0.00    -0.354 N 
ATOM     52  N   UNL     1       9.140   5.339  10.135  1.00  0.00    -0.248 NA
ATOM     53  C   UNL     1       9.455   4.158  12.125  1.00  0.00     0.031 C 
ATOM     54  C   UNL     1      10.253   9.599   9.574  1.00  0.00     0.029 A 
ATOM     55  C   UNL     1       9.899   8.276   9.780  1.00  0.00     0.049 A 
ATOM     56  H   UNL     1       9.169   6.862   8.395  1.00  0.00     0.167 HD
ATOM     57  C   UNL     1       9.627   6.204  11.108  1.00  0.00     0.074 A 
ATOM     58  C   UNL     1       9.755   5.433  12.327  1.00  0.00     0.031 C 
ATOM     59  C   UNL     1       9.955   7.515  11.000  1.00  0.00     0.034 A 
BRANCH  46  60
ATOM     60  C   UNL     1       9.329   9.807   5.302  1.00  0.00     0.023 A 
ATOM     61  C   UNL     1       8.213  10.547   4.864  1.00  0.00     0.012 A 
ATOM     62  C   UNL     1      10.624  10.231   4.937  1.00  0.00     0.148 A 
ATOM     63  C   UNL     1       8.381  11.671   4.053  1.00  0.00     0.002 A 
ATOM     64  C   UNL     1      10.786  11.379   4.170  1.00  0.00     0.091 A 
ATOM     65  F   UNL     1      11.673   9.505   5.348  1.00  0.00    -0.205 F 
ATOM     66  C   UNL     1       9.665  12.093   3.717  1.00  0.00     0.022 A 
BRANCH  64  67
ATOM     67  S   UNL     1      12.400  12.052   3.759  1.00  0.00     0.127 S 
ATOM     68  O   UNL     1      12.465  11.806   2.319  1.00  0.00    -0.237 OA
ATOM     69  O   UNL     1      12.251  13.460   4.130  1.00  0.00    -0.237 OA
ATOM     70  O   UNL     1      13.363  11.311   4.561  1.00  0.00    -0.744 OA
ENDBRANCH  64  67
ENDBRANCH  46  60
BRANCH  47  71
ATOM     71  C   UNL     1       8.385   1.668  11.027  1.00  0.00     0.023 A 
ATOM     72  C   UNL     1       7.491   1.664  12.115  1.00  0.00     0.012 A 
ATOM     73  C   UNL     1       9.165   0.522  10.777  1.00  0.00     0.148 A 
ATOM     74  C   UNL     1       7.403   0.557  12.961  1.00  0.00     0.002 A 
ATOM     75  C   UNL     1       9.024  -0.601  11.584  1.00  0.00     0.091 A 
ATOM     76  F   UNL     1      10.027   0.550   9.752  1.00  0.00    -0.205 F 
ATOM     77  C   UNL     1       8.160  -0.579  12.688  1.00  0.00     0.022 A 
BRANCH  75  78
ATOM     78  S   UNL     1       9.853  -2.151  11.215  1.00  0.00     0.127 S 
ATOM     79  O   UNL     1      10.909  -2.174  12.223  1.00  0.00    -0.237 OA
ATOM     80  O   UNL     1       8.782  -3.127  11.421  1.00  0.00    -0.237 OA
ATOM     81  O   UNL     1      10.295  -2.035   9.831  1.00  0.00    -0.744 OA
ENDBRANCH  75  78
ENDBRANCH  47  71
BRANCH  59  82
ATOM     82  C   UNL     1      10.416   8.220  12.249  1.00  0.00     0.023 A 
ATOM     83  C   UNL     1      11.681   7.933  12.798  1.00  0.00     0.012 A 
ATOM     84  C   UNL     1       9.604   9.199  12.854  1.00  0.00     0.148 A 
ATOM     85  C   UNL     1      12.111   8.577  13.959  1.00  0.00     0.002 A 
ATOM     86  C   UNL     1      10.062   9.874  13.979  1.00  0.00     0.091 A 
ATOM     87  F   UNL     1       8.394   9.443  12.330  1.00  0.00    -0.205 F 
ATOM     88  C   UNL     1      11.307   9.553  14.542  1.00  0.00     0.022 A 
BRANCH  86  89
ATOM     89  S   UNL     1       9.132  11.215  14.729  1.00  0.00     0.127 S 
ATOM     90  O   UNL     1       8.551  10.558  15.899  1.00  0.00    -0.237 OA
ATOM     91  O   UNL     1      10.179  12.190  15.036  1.00  0.00    -0.237 OA
ATOM     92  O   UNL     1       8.182  11.654  13.716  1.00  0.00    -0.744 OA
ENDBRANCH  86  89
ENDBRANCH  59  82
ENDBRANCH  33  34
ENDBRANCH  26  28
ENDBRANCH  25  26
ENDBRANCH   1  25
TORSDOF 17
