REMARK SMILES Nc1ccc(SCc2ccc(C(=O)OCCOC(=O)c3ccc(-c4c5nc(c(-c6cccc(S(=O)(=O)[O-])c6F)c6ccc([nH]6)c(-c6cccc(S(=O)(=O)[O-])c6F)c6nc(c(-c7cccc(S(=O)(=O)[O-])c7F)c7ccc4[nH]7)C=C6)C=C5)cc3)o2)cc1
REMARK SMILES IDX 15 1 14 2 12 3 13 4 11 5 8 6 9 7 83 8 10 9 7 10 6 11 5 12
REMARK SMILES IDX 2 13 3 14 85 15 4 16 84 17 1 18 16 21 17 22 18 23 19 24
REMARK SMILES IDX 20 25 21 26 82 27 22 28 81 29 23 30 24 31 25 32 75 33 26 34
REMARK SMILES IDX 80 35 74 36 76 37 27 38 79 39 73 40 72 41 28 43 60 44 40 45
REMARK SMILES IDX 59 46 41 47 44 48 58 49 77 50 42 51 43 52 57 54 78 55 45 56
REMARK SMILES IDX 29 57 30 58 38 59 31 60 33 61 39 62 32 63 34 64 35 65 36 66
REMARK SMILES IDX 37 67 61 68 62 69 70 70 63 71 65 72 71 73 64 74 66 75 67 76
REMARK SMILES IDX 68 77 69 78 46 79 47 80 55 81 48 82 50 83 56 84 49 85 51 86
REMARK SMILES IDX 52 87 53 88 54 89
REMARK H PARENT 1 19 1 20 76 42 44 53
REMARK Flexibility Score: inf
ROOT
ATOM      1  C   UNL     1      -1.713   3.506   6.531  1.00  0.00     0.275 C 
ENDROOT
BRANCH   1   2
ATOM      2  O   UNL     1      -2.337   3.880   5.288  1.00  0.00    -0.456 OA
BRANCH   2   3
ATOM      3  C   UNL     1      -1.952   3.159   4.190  1.00  0.00     0.374 C 
ATOM      4  O   UNL     1      -1.045   2.341   4.190  1.00  0.00    -0.242 OA
BRANCH   3   5
ATOM      5  C   UNL     1      -2.810   3.473   3.068  1.00  0.00     0.211 A 
ATOM      6  C   UNL     1      -3.732   3.039   1.100  1.00  0.00     0.115 A 
ATOM      7  C   UNL     1      -4.330   4.190   1.574  1.00  0.00     0.047 A 
ATOM      8  O   UNL     1      -2.778   2.635   1.985  1.00  0.00    -0.453 OA
ATOM      9  C   UNL     1      -3.744   4.464   2.836  1.00  0.00     0.058 A 
BRANCH   6  10
ATOM     10  C   UNL     1      -3.927   2.251  -0.154  1.00  0.00     0.150 C 
BRANCH  10  11
ATOM     11  S   UNL     1      -3.558   0.473  -0.056  1.00  0.00    -0.118 SA
BRANCH  11  12
ATOM     12  C   UNL     1      -1.772   0.363  -0.127  1.00  0.00     0.008 A 
ATOM     13  C   UNL     1       1.039  -0.009  -0.115  1.00  0.00     0.031 A 
ATOM     14  C   UNL     1       0.177  -1.104  -0.125  1.00  0.00     0.026 A 
ATOM     15  C   UNL     1       0.486   1.267  -0.190  1.00  0.00     0.026 A 
ATOM     16  C   UNL     1      -1.212  -0.921  -0.114  1.00  0.00     0.017 A 
ATOM     17  C   UNL     1      -0.902   1.454  -0.187  1.00  0.00     0.017 A 
BRANCH  13  18
ATOM     18  N   UNL     1       2.413  -0.187  -0.183  1.00  0.00    -0.399 N 
ATOM     19  H   UNL     1       2.796  -1.093  -0.130  1.00  0.00     0.156 HD
ATOM     20  H   UNL     1       3.006   0.592  -0.286  1.00  0.00     0.156 HD
ENDBRANCH  13  18
ENDBRANCH  11  12
ENDBRANCH  10  11
ENDBRANCH   6  10
ENDBRANCH   3   5
ENDBRANCH   2   3
ENDBRANCH   1   2
BRANCH   1  21
ATOM     21  C   UNL     1      -2.613   2.575   7.351  1.00  0.00     0.275 C 
BRANCH  21  22
ATOM     22  O   UNL     1      -2.679   1.252   6.787  1.00  0.00    -0.458 OA
BRANCH  22  23
ATOM     23  C   UNL     1      -3.706   1.038   5.931  1.00  0.00     0.338 C 
ATOM     24  O   UNL     1      -4.578   1.834   5.624  1.00  0.00    -0.246 OA
BRANCH  23  25
ATOM     25  C   UNL     1      -3.555  -0.282   5.296  1.00  0.00     0.060 A 
ATOM     26  C   UNL     1      -3.392  -0.321   3.911  1.00  0.00     0.016 A 
ATOM     27  C   UNL     1      -3.640  -1.468   6.030  1.00  0.00     0.016 A 
ATOM     28  C   UNL     1      -3.321  -1.544   3.252  1.00  0.00     0.010 A 
ATOM     29  C   UNL     1      -3.565  -2.699   5.362  1.00  0.00     0.010 A 
ATOM     30  C   UNL     1      -3.417  -2.743   3.966  1.00  0.00    -0.014 A 
BRANCH  30  31
ATOM     31  C   UNL     1      -3.406  -4.025   3.220  1.00  0.00     0.031 A 
ATOM     32  C   UNL     1      -4.682  -4.796   3.034  1.00  0.00     0.074 A 
ATOM     33  C   UNL     1      -2.261  -4.473   2.671  1.00  0.00     0.049 A 
ATOM     34  N   UNL     1      -4.873  -5.943   2.436  1.00  0.00    -0.248 NA
ATOM     35  C   UNL     1      -5.905  -4.196   3.591  1.00  0.00     0.031 C 
ATOM     36  C   UNL     1      -0.966  -3.799   2.757  1.00  0.00     0.029 A 
ATOM     37  N   UNL     1      -2.002  -5.605   1.938  1.00  0.00    -0.354 N 
ATOM     38  C   UNL     1      -6.226  -6.223   2.576  1.00  0.00     0.074 A 
ATOM     39  C   UNL     1      -6.811  -5.125   3.316  1.00  0.00     0.031 C 
ATOM     40  C   UNL     1      -0.047  -4.534   2.109  1.00  0.00     0.029 A 
ATOM     41  C   UNL     1      -0.680  -5.743   1.588  1.00  0.00     0.049 A 
ATOM     42  H   UNL     1      -2.698  -6.255   1.686  1.00  0.00     0.167 HD
ATOM     43  C   UNL     1      -6.921  -7.291   2.118  1.00  0.00     0.034 A 
ATOM     44  C   UNL     1      -0.048  -6.738   0.934  1.00  0.00     0.034 A 
ATOM     45  C   UNL     1      -6.351  -8.359   1.342  1.00  0.00     0.049 A 
ATOM     46  C   UNL     1      -0.845  -7.917   0.441  1.00  0.00     0.074 A 
ATOM     47  C   UNL     1      -6.983  -9.470   0.812  1.00  0.00     0.029 A 
ATOM     48  N   UNL     1      -5.016  -8.447   0.977  1.00  0.00    -0.354 N 
ATOM     49  N   UNL     1      -2.137  -8.127   0.515  1.00  0.00    -0.248 NA
ATOM     50  C   UNL     1      -0.102  -8.984  -0.244  1.00  0.00     0.031 C 
ATOM     51  C   UNL     1      -6.028 -10.235   0.133  1.00  0.00     0.029 A 
ATOM     52  C   UNL     1      -4.803  -9.595   0.234  1.00  0.00     0.049 A 
ATOM     53  H   UNL     1      -4.322  -7.789   1.213  1.00  0.00     0.167 HD
ATOM     54  C   UNL     1      -2.365  -9.336  -0.133  1.00  0.00     0.074 A 
ATOM     55  C   UNL     1      -1.081  -9.800  -0.616  1.00  0.00     0.031 C 
ATOM     56  C   UNL     1      -3.529 -10.014  -0.292  1.00  0.00     0.034 A 
BRANCH  43  57
ATOM     57  C   UNL     1      -8.395  -7.343   2.418  1.00  0.00     0.023 A 
ATOM     58  C   UNL     1      -9.282  -6.542   1.673  1.00  0.00     0.012 A 
ATOM     59  C   UNL     1      -8.905  -8.219   3.396  1.00  0.00     0.148 A 
ATOM     60  C   UNL     1     -10.655  -6.596   1.912  1.00  0.00     0.002 A 
ATOM     61  C   UNL     1     -10.277  -8.292   3.605  1.00  0.00     0.091 A 
ATOM     62  F   UNL     1      -8.041  -8.952   4.113  1.00  0.00    -0.205 F 
ATOM     63  C   UNL     1     -11.153  -7.476   2.869  1.00  0.00     0.022 A 
BRANCH  61  64
ATOM     64  S   UNL     1     -11.010  -9.444   4.772  1.00  0.00     0.127 S 
ATOM     65  O   UNL     1     -11.326  -8.566   5.897  1.00  0.00    -0.237 OA
ATOM     66  O   UNL     1     -12.177  -9.936   4.037  1.00  0.00    -0.237 OA
ATOM     67  O   UNL     1      -9.990 -10.453   5.026  1.00  0.00    -0.744 OA
ENDBRANCH  61  64
ENDBRANCH  43  57
BRANCH  44  68
ATOM     68  C   UNL     1       1.416  -6.638   0.672  1.00  0.00     0.023 A 
ATOM     69  C   UNL     1       1.870  -6.446  -0.647  1.00  0.00     0.012 A 
ATOM     70  C   UNL     1       2.355  -6.694   1.720  1.00  0.00     0.148 A 
ATOM     71  C   UNL     1       3.234  -6.330  -0.919  1.00  0.00     0.002 A 
ATOM     72  C   UNL     1       3.707  -6.520   1.448  1.00  0.00     0.091 A 
ATOM     73  F   UNL     1       1.908  -6.906   2.966  1.00  0.00    -0.205 F 
ATOM     74  C   UNL     1       4.151  -6.353   0.128  1.00  0.00     0.022 A 
BRANCH  72  75
ATOM     75  S   UNL     1       4.932  -6.393   2.757  1.00  0.00     0.127 S 
ATOM     76  O   UNL     1       5.553  -7.714   2.718  1.00  0.00    -0.237 OA
ATOM     77  O   UNL     1       5.779  -5.299   2.279  1.00  0.00    -0.237 OA
ATOM     78  O   UNL     1       4.177  -6.076   3.962  1.00  0.00    -0.744 OA
ENDBRANCH  72  75
ENDBRANCH  44  68
BRANCH  56  79
ATOM     79  C   UNL     1      -3.479 -11.326  -1.029  1.00  0.00     0.023 A 
ATOM     80  C   UNL     1      -2.966 -12.464  -0.377  1.00  0.00     0.012 A 
ATOM     81  C   UNL     1      -4.012 -11.452  -2.326  1.00  0.00     0.148 A 
ATOM     82  C   UNL     1      -2.964 -13.705  -1.013  1.00  0.00     0.002 A 
ATOM     83  C   UNL     1      -4.042 -12.700  -2.940  1.00  0.00     0.091 A 
ATOM     84  F   UNL     1      -4.475 -10.353  -2.939  1.00  0.00    -0.205 F 
ATOM     85  C   UNL     1      -3.512 -13.825  -2.288  1.00  0.00     0.022 A 
BRANCH  83  86
ATOM     86  S   UNL     1      -4.808 -12.956  -4.545  1.00  0.00     0.127 S 
ATOM     87  O   UNL     1      -3.644 -13.012  -5.427  1.00  0.00    -0.237 OA
ATOM     88  O   UNL     1      -5.498 -14.235  -4.365  1.00  0.00    -0.237 OA
ATOM     89  O   UNL     1      -5.697 -11.820  -4.744  1.00  0.00    -0.744 OA
ENDBRANCH  83  86
ENDBRANCH  56  79
ENDBRANCH  30  31
ENDBRANCH  23  25
ENDBRANCH  22  23
ENDBRANCH  21  22
ENDBRANCH   1  21
TORSDOF 18
