REMARK SMILES CCOC(=O)c1ccc(-c2ccc(C(=O)OCCOC(=O)c3ccc(-c4c5nc(c(-c6cccc(S(=O)(=O)[O-])c6F)c6ccc([nH]6)c(-c6cccc(S(=O)(=O)[O-])c6F)c6nc(c(-c7cccc(S(=O)(=O)[O-])c7F)c7ccc4[nH]7)C=C6)C=C5)cc3)o2)cc1
REMARK SMILES IDX 17 1 16 2 14 3 15 4 13 5 10 6 11 7 85 8 12 9 9 10 6 11 7 12
REMARK SMILES IDX 87 13 8 14 86 15 4 16 5 17 3 18 2 19 1 20 18 21 19 22 20 23
REMARK SMILES IDX 21 24 22 25 23 26 84 27 24 28 83 29 25 30 26 31 27 32 77 33
REMARK SMILES IDX 28 34 82 35 76 36 78 37 29 38 81 39 75 40 74 41 30 43 62 44
REMARK SMILES IDX 42 45 61 46 43 47 46 48 60 49 79 50 44 51 45 52 59 54 80 55
REMARK SMILES IDX 47 56 31 57 32 58 40 59 33 60 35 61 41 62 34 63 36 64 37 65
REMARK SMILES IDX 38 66 39 67 63 68 64 69 72 70 65 71 67 72 73 73 66 74 68 75
REMARK SMILES IDX 69 76 70 77 71 78 48 79 49 80 57 81 50 82 52 83 58 84 51 85
REMARK SMILES IDX 53 86 54 87 55 88 56 89
REMARK H PARENT 78 42 46 53
REMARK Flexibility Score: inf
ROOT
ATOM      1  C   UNL     1       6.987  -5.542  11.059  1.00  0.00     0.275 C 
ENDROOT
BRANCH   1   2
ATOM      2  O   UNL     1       6.570  -6.006   9.761  1.00  0.00    -0.456 OA
BRANCH   2   3
ATOM      3  C   UNL     1       5.415  -5.454   9.276  1.00  0.00     0.374 C 
ATOM      4  O   UNL     1       4.688  -4.707   9.912  1.00  0.00    -0.242 OA
BRANCH   3   5
ATOM      5  C   UNL     1       5.241  -5.821   7.888  1.00  0.00     0.212 A 
ATOM      6  C   UNL     1       4.559  -5.436   5.826  1.00  0.00     0.135 A 
ATOM      7  C   UNL     1       5.344  -6.566   5.766  1.00  0.00     0.052 A 
ATOM      8  O   UNL     1       4.431  -5.026   7.115  1.00  0.00    -0.449 OA
ATOM      9  C   UNL     1       5.796  -6.805   7.089  1.00  0.00     0.059 A 
BRANCH   6  10
ATOM     10  C   UNL     1       3.965  -4.575   4.821  1.00  0.00     0.017 A 
ATOM     11  C   UNL     1       2.978  -3.005   2.714  1.00  0.00     0.060 A 
ATOM     12  C   UNL     1       4.183  -2.662   3.334  1.00  0.00     0.016 A 
ATOM     13  C   UNL     1       2.245  -4.107   3.173  1.00  0.00     0.016 A 
ATOM     14  C   UNL     1       4.668  -3.440   4.387  1.00  0.00     0.013 A 
ATOM     15  C   UNL     1       2.742  -4.892   4.222  1.00  0.00     0.013 A 
BRANCH  11  16
ATOM     16  C   UNL     1       2.577  -2.264   1.496  1.00  0.00     0.338 C 
ATOM     17  O   UNL     1       3.384  -1.870   0.669  1.00  0.00    -0.246 OA
BRANCH  16  18
ATOM     18  O   UNL     1       1.230  -2.140   1.441  1.00  0.00    -0.462 OA
BRANCH  18  19
ATOM     19  C   UNL     1       0.715  -1.536   0.243  1.00  0.00     0.230 C 
ATOM     20  C   UNL     1       0.900  -0.029   0.232  1.00  0.00     0.049 C 
ENDBRANCH  18  19
ENDBRANCH  16  18
ENDBRANCH  11  16
ENDBRANCH   6  10
ENDBRANCH   3   5
ENDBRANCH   2   3
ENDBRANCH   1   2
BRANCH   1  21
ATOM     21  C   UNL     1       8.064  -4.456  10.954  1.00  0.00     0.275 C 
BRANCH  21  22
ATOM     22  O   UNL     1       7.531  -3.219  10.447  1.00  0.00    -0.458 OA
BRANCH  22  23
ATOM     23  C   UNL     1       7.691  -3.012   9.118  1.00  0.00     0.338 C 
ATOM     24  O   UNL     1       8.257  -3.747   8.325  1.00  0.00    -0.246 OA
BRANCH  23  25
ATOM     25  C   UNL     1       6.928  -1.819   8.713  1.00  0.00     0.060 A 
ATOM     26  C   UNL     1       5.853  -2.010   7.845  1.00  0.00     0.016 A 
ATOM     27  C   UNL     1       7.268  -0.535   9.140  1.00  0.00     0.016 A 
ATOM     28  C   UNL     1       5.095  -0.929   7.409  1.00  0.00     0.010 A 
ATOM     29  C   UNL     1       6.508   0.557   8.698  1.00  0.00     0.010 A 
ATOM     30  C   UNL     1       5.417   0.365   7.832  1.00  0.00    -0.014 A 
BRANCH  30  31
ATOM     31  C   UNL     1       4.591   1.504   7.368  1.00  0.00     0.031 A 
ATOM     32  C   UNL     1       5.098   2.422   6.296  1.00  0.00     0.074 A 
ATOM     33  C   UNL     1       3.372   1.695   7.906  1.00  0.00     0.049 A 
ATOM     34  N   UNL     1       4.519   3.471   5.771  1.00  0.00    -0.248 NA
ATOM     35  C   UNL     1       6.426   2.123   5.738  1.00  0.00     0.031 C 
ATOM     36  C   UNL     1       2.772   0.861   8.949  1.00  0.00     0.029 A 
ATOM     37  N   UNL     1       2.425   2.658   7.661  1.00  0.00    -0.354 N 
ATOM     38  C   UNL     1       5.420   3.976   4.843  1.00  0.00     0.074 A 
ATOM     39  C   UNL     1       6.587   3.119   4.876  1.00  0.00     0.031 C 
ATOM     40  C   UNL     1       1.565   1.357   9.265  1.00  0.00     0.029 A 
ATOM     41  C   UNL     1       1.317   2.555   8.469  1.00  0.00     0.049 A 
ATOM     42  H   UNL     1       2.529   3.354   6.973  1.00  0.00     0.167 HD
ATOM     43  C   UNL     1       5.280   5.047   4.026  1.00  0.00     0.034 A 
ATOM     44  C   UNL     1       0.232   3.348   8.567  1.00  0.00     0.034 A 
ATOM     45  C   UNL     1       4.105   5.876   3.970  1.00  0.00     0.049 A 
ATOM     46  C   UNL     1       0.110   4.539   7.657  1.00  0.00     0.074 A 
ATOM     47  C   UNL     1       3.850   6.951   3.137  1.00  0.00     0.029 A 
ATOM     48  N   UNL     1       2.991   5.727   4.782  1.00  0.00    -0.354 N 
ATOM     49  N   UNL     1       0.919   4.934   6.704  1.00  0.00    -0.248 NA
ATOM     50  C   UNL     1      -1.083   5.382   7.820  1.00  0.00     0.031 C 
ATOM     51  C   UNL     1       2.586   7.461   3.454  1.00  0.00     0.029 A 
ATOM     52  C   UNL     1       2.052   6.700   4.481  1.00  0.00     0.049 A 
ATOM     53  H   UNL     1       2.884   5.032   5.471  1.00  0.00     0.167 HD
ATOM     54  C   UNL     1       0.328   6.060   6.144  1.00  0.00     0.074 A 
ATOM     55  C   UNL     1      -0.924   6.266   6.844  1.00  0.00     0.031 C 
ATOM     56  C   UNL     1       0.791   6.866   5.157  1.00  0.00     0.034 A 
BRANCH  43  57
ATOM     57  C   UNL     1       6.414   5.365   3.092  1.00  0.00     0.023 A 
ATOM     58  C   UNL     1       6.576   4.602   1.918  1.00  0.00     0.012 A 
ATOM     59  C   UNL     1       7.277   6.450   3.339  1.00  0.00     0.148 A 
ATOM     60  C   UNL     1       7.592   4.904   1.012  1.00  0.00     0.002 A 
ATOM     61  C   UNL     1       8.268   6.763   2.416  1.00  0.00     0.091 A 
ATOM     62  F   UNL     1       7.123   7.144   4.476  1.00  0.00    -0.205 F 
ATOM     63  C   UNL     1       8.430   5.989   1.255  1.00  0.00     0.022 A 
BRANCH  61  64
ATOM     64  S   UNL     1       9.358   8.178   2.617  1.00  0.00     0.127 S 
ATOM     65  O   UNL     1      10.602   7.536   3.039  1.00  0.00    -0.237 OA
ATOM     66  O   UNL     1       9.391   8.742   1.267  1.00  0.00    -0.237 OA
ATOM     67  O   UNL     1       8.722   9.031   3.611  1.00  0.00    -0.744 OA
ENDBRANCH  61  64
ENDBRANCH  43  57
BRANCH  44  68
ATOM     68  C   UNL     1      -0.842   3.012   9.544  1.00  0.00     0.023 A 
ATOM     69  C   UNL     1      -2.086   2.551   9.074  1.00  0.00     0.012 A 
ATOM     70  C   UNL     1      -0.624   3.106  10.932  1.00  0.00     0.148 A 
ATOM     71  C   UNL     1      -3.100   2.206   9.969  1.00  0.00     0.002 A 
ATOM     72  C   UNL     1      -1.619   2.710  11.819  1.00  0.00     0.091 A 
ATOM     73  F   UNL     1       0.556   3.575  11.363  1.00  0.00    -0.205 F 
ATOM     74  C   UNL     1      -2.862   2.272  11.340  1.00  0.00     0.022 A 
BRANCH  72  75
ATOM     75  S   UNL     1      -1.333   2.643  13.591  1.00  0.00     0.127 S 
ATOM     76  O   UNL     1      -1.937   3.893  14.042  1.00  0.00    -0.237 OA
ATOM     77  O   UNL     1      -2.059   1.433  13.980  1.00  0.00    -0.237 OA
ATOM     78  O   UNL     1       0.113   2.538  13.740  1.00  0.00    -0.744 OA
ENDBRANCH  72  75
ENDBRANCH  44  68
BRANCH  56  79
ATOM     79  C   UNL     1      -0.054   8.051   4.775  1.00  0.00     0.023 A 
ATOM     80  C   UNL     1      -0.076   9.178   5.620  1.00  0.00     0.012 A 
ATOM     81  C   UNL     1      -0.763   8.083   3.559  1.00  0.00     0.148 A 
ATOM     82  C   UNL     1      -0.810  10.312   5.271  1.00  0.00     0.002 A 
ATOM     83  C   UNL     1      -1.461   9.231   3.200  1.00  0.00     0.091 A 
ATOM     84  F   UNL     1      -0.749   6.992   2.779  1.00  0.00    -0.205 F 
ATOM     85  C   UNL     1      -1.492  10.342   4.057  1.00  0.00     0.022 A 
BRANCH  83  86
ATOM     86  S   UNL     1      -2.297   9.382   1.616  1.00  0.00     0.127 S 
ATOM     87  O   UNL     1      -3.690   9.141   1.989  1.00  0.00    -0.237 OA
ATOM     88  O   UNL     1      -2.000  10.763   1.232  1.00  0.00    -0.237 OA
ATOM     89  O   UNL     1      -1.692   8.377   0.753  1.00  0.00    -0.744 OA
ENDBRANCH  83  86
ENDBRANCH  56  79
ENDBRANCH  30  31
ENDBRANCH  23  25
ENDBRANCH  22  23
ENDBRANCH  21  22
ENDBRANCH   1  21
TORSDOF 18
