REMARK SMILES Cc1ccc(S(=O)(=O)n2cc(C(=O)C(=O)N[C@@H](Cc3cnc[nH]3)C(=O)OCCOC(=O)c3ccc(-c4c5nc(c(-c6cccc(S(=O)(=O)[O-])c6F)c6ccc([nH]6)c(-c6cccc(S(=O)(=O)[O-])c6F)c6nc(c(-c7cccc(S(=O)(=O)[O-])c7F)c7ccc4[nH]7)C=C6)C=C5)cc3)c3ccccc32)cc1
REMARK SMILES IDX 27 1 26 2 24 3 25 4 17 5 16 6 14 7 15 8 12 10 13 11 11 12
REMARK SMILES IDX 9 13 10 14 100 15 95 16 99 17 96 18 98 19 97 20 6 21 7 22
REMARK SMILES IDX 8 23 5 24 1 25 2 26 3 27 102 28 4 29 101 30 18 31 19 32
REMARK SMILES IDX 20 33 23 34 21 35 22 36 28 38 29 39 30 40 31 41 32 42 33 43
REMARK SMILES IDX 94 44 34 45 93 46 35 47 36 48 37 49 87 50 38 51 92 52 86 53
REMARK SMILES IDX 88 54 39 55 91 56 85 57 84 58 40 60 72 61 52 62 71 63 53 64
REMARK SMILES IDX 56 65 70 66 89 67 54 68 55 69 69 71 90 72 57 73 41 74 42 75
REMARK SMILES IDX 50 76 43 77 45 78 51 79 44 80 46 81 47 82 48 83 49 84 73 85
REMARK SMILES IDX 74 86 82 87 75 88 77 89 83 90 76 91 78 92 79 93 80 94 81 95
REMARK SMILES IDX 58 96 59 97 67 98 60 99 62 100 68 101 61 102 63 103 64 104
REMARK SMILES IDX 65 105 66 106
REMARK H PARENT 16 9 23 37 88 59 56 70
REMARK Flexibility Score: inf
ROOT
ATOM      1  C   UNL     1      -6.002   8.817   6.745  1.00  0.00     0.274 C 
ENDROOT
BRANCH   1   2
ATOM      2  O   UNL     1      -7.158   8.315   6.061  1.00  0.00    -0.461 OA
BRANCH   2   3
ATOM      3  C   UNL     1      -7.016   7.987   4.642  1.00  0.00     0.329 C 
ATOM      4  O   UNL     1      -6.140   8.802   4.241  1.00  0.00    -0.250 OA
BRANCH   3   5
ATOM      5  C   UNL     1      -8.024   6.278   3.682  1.00  0.00     0.198 C 
BRANCH   5   6
ATOM      6  N   UNL     1      -7.567   4.642   3.680  1.00  0.00    -0.335 N 
ATOM      7  C   UNL     1      -7.019   3.749   2.779  1.00  0.00     0.293 C 
ATOM      8  O   UNL     1      -6.930   2.577   3.147  1.00  0.00    -0.265 OA
ATOM      9  H   UNL     1      -7.739   4.218   4.551  1.00  0.00     0.164 HD
BRANCH   7  10
ATOM     10  C   UNL     1      -6.527   4.139   1.363  1.00  0.00     0.252 C 
ATOM     11  O   UNL     1      -7.086   5.074   0.800  1.00  0.00    -0.283 OA
BRANCH  10  12
ATOM     12  C   UNL     1      -5.493   3.338   0.653  1.00  0.00     0.054 A 
ATOM     13  N   UNL     1      -4.222   1.612  -0.011  1.00  0.00    -0.240 N 
ATOM     14  C   UNL     1      -5.069   2.056   0.972  1.00  0.00     0.117 A 
ATOM     15  C   UNL     1      -4.024   2.577  -0.972  1.00  0.00     0.065 A 
ATOM     16  C   UNL     1      -4.761   3.696  -0.546  1.00  0.00     0.012 A 
ATOM     17  C   UNL     1      -3.267   2.581  -2.161  1.00  0.00     0.028 A 
ATOM     18  C   UNL     1      -4.676   4.873  -1.325  1.00  0.00     0.011 A 
ATOM     19  C   UNL     1      -3.198   3.763  -2.899  1.00  0.00     0.002 A 
ATOM     20  C   UNL     1      -3.882   4.898  -2.480  1.00  0.00     0.001 A 
BRANCH  13  21
ATOM     21  S   UNL     1      -3.586   0.031  -0.067  1.00  0.00     0.268 S 
ATOM     22  O   UNL     1      -3.915  -0.476  -1.387  1.00  0.00    -0.201 OA
ATOM     23  O   UNL     1      -4.041  -0.637   1.139  1.00  0.00    -0.201 OA
BRANCH  21  24
ATOM     24  C   UNL     1      -1.813   0.098   0.033  1.00  0.00     0.088 A 
ATOM     25  C   UNL     1       2.491  -0.026   0.011  1.00  0.00     0.044 C 
ATOM     26  C   UNL     1       0.991   0.021   0.035  1.00  0.00    -0.051 A 
ATOM     27  C   UNL     1       0.256  -1.168  -0.026  1.00  0.00     0.005 A 
ATOM     28  C   UNL     1       0.309   1.242   0.123  1.00  0.00     0.005 A 
ATOM     29  C   UNL     1      -1.140  -1.131  -0.034  1.00  0.00     0.022 A 
ATOM     30  C   UNL     1      -1.090   1.284   0.137  1.00  0.00     0.022 A 
ENDBRANCH  21  24
ENDBRANCH  13  21
ENDBRANCH  10  12
ENDBRANCH   7  10
ENDBRANCH   5   6
BRANCH   5  31
ATOM     31  C   UNL     1      -9.750   5.849   3.466  1.00  0.00     0.092 C 
BRANCH  31  32
ATOM     32  C   UNL     1     -10.483   5.240   4.642  1.00  0.00     0.037 A 
ATOM     33  C   UNL     1     -10.444   3.997   5.237  1.00  0.00     0.134 A 
ATOM     34  N   UNL     1     -11.431   5.917   5.386  1.00  0.00    -0.348 N 
ATOM     35  N   UNL     1     -11.097   4.008   6.444  1.00  0.00    -0.245 NA
ATOM     36  C   UNL     1     -11.672   5.186   6.514  1.00  0.00     0.196 A 
ATOM     37  H   UNL     1     -11.856   6.772   5.146  1.00  0.00     0.167 HD
ENDBRANCH  31  32
ENDBRANCH   5  31
ENDBRANCH   3   5
ENDBRANCH   2   3
ENDBRANCH   1   2
BRANCH   1  38
ATOM     38  C   UNL     1      -5.003   7.675   6.979  1.00  0.00     0.275 C 
BRANCH  38  39
ATOM     39  O   UNL     1      -4.299   7.190   5.802  1.00  0.00    -0.458 OA
BRANCH  39  40
ATOM     40  C   UNL     1      -4.682   6.077   5.108  1.00  0.00     0.338 C 
ATOM     41  O   UNL     1      -3.912   5.206   4.738  1.00  0.00    -0.246 OA
BRANCH  40  42
ATOM     42  C   UNL     1      -6.037   6.187   4.540  1.00  0.00     0.060 A 
ATOM     43  C   UNL     1      -6.165   7.051   2.963  1.00  0.00     0.016 A 
ATOM     44  C   UNL     1      -7.431   6.184   5.679  1.00  0.00     0.016 A 
ATOM     45  C   UNL     1      -7.597   8.125   2.634  1.00  0.00     0.010 A 
ATOM     46  C   UNL     1      -8.848   7.252   5.333  1.00  0.00     0.010 A 
ATOM     47  C   UNL     1      -8.889   8.271   3.845  1.00  0.00    -0.014 A 
BRANCH  47  48
ATOM     48  C   UNL     1      -9.693   9.478   4.068  1.00  0.00     0.031 A 
ATOM     49  C   UNL     1     -11.133   9.286   4.271  1.00  0.00     0.074 A 
ATOM     50  C   UNL     1      -9.084  10.583   4.548  1.00  0.00     0.049 A 
ATOM     51  N   UNL     1     -11.747   9.515   5.383  1.00  0.00    -0.248 NA
ATOM     52  C   UNL     1     -11.955   8.671   3.225  1.00  0.00     0.031 C 
ATOM     53  C   UNL     1      -9.645  11.621   5.405  1.00  0.00     0.029 A 
ATOM     54  N   UNL     1      -7.835  11.084   4.244  1.00  0.00    -0.354 N 
ATOM     55  C   UNL     1     -13.072   9.228   5.159  1.00  0.00     0.074 A 
ATOM     56  C   UNL     1     -13.127   8.568   3.857  1.00  0.00     0.031 C 
ATOM     57  C   UNL     1      -8.864  12.713   5.360  1.00  0.00     0.029 A 
ATOM     58  C   UNL     1      -7.847  12.479   4.351  1.00  0.00     0.049 A 
ATOM     59  H   UNL     1      -7.053  10.542   3.991  1.00  0.00     0.167 HD
ATOM     60  C   UNL     1     -14.050  10.104   5.498  1.00  0.00     0.034 A 
ATOM     61  C   UNL     1      -7.704  13.226   3.209  1.00  0.00     0.034 A 
ATOM     62  C   UNL     1     -13.633  11.490   5.407  1.00  0.00     0.049 A 
ATOM     63  C   UNL     1      -9.039  13.774   2.706  1.00  0.00     0.074 A 
ATOM     64  C   UNL     1     -13.071  12.417   6.262  1.00  0.00     0.029 A 
ATOM     65  N   UNL     1     -13.550  12.038   4.140  1.00  0.00    -0.354 N 
ATOM     66  N   UNL     1     -10.180  13.634   3.329  1.00  0.00    -0.248 NA
ATOM     67  C   UNL     1      -9.201  14.467   1.429  1.00  0.00     0.031 C 
ATOM     68  C   UNL     1     -12.541  13.479   5.458  1.00  0.00     0.029 A 
ATOM     69  C   UNL     1     -12.835  13.223   4.127  1.00  0.00     0.049 A 
ATOM     70  H   UNL     1     -13.953  11.632   3.340  1.00  0.00     0.167 HD
ATOM     71  C   UNL     1     -11.207  14.034   2.520  1.00  0.00     0.074 A 
ATOM     72  C   UNL     1     -10.538  14.563   1.341  1.00  0.00     0.031 C 
ATOM     73  C   UNL     1     -12.528  13.869   2.846  1.00  0.00     0.034 A 
BRANCH  60  74
ATOM     74  C   UNL     1     -15.281   9.549   6.155  1.00  0.00     0.023 A 
ATOM     75  C   UNL     1     -16.213  10.461   6.681  1.00  0.00     0.012 A 
ATOM     76  C   UNL     1     -15.518   8.164   6.382  1.00  0.00     0.148 A 
ATOM     77  C   UNL     1     -17.304  10.032   7.443  1.00  0.00     0.002 A 
ATOM     78  C   UNL     1     -16.619   7.740   7.126  1.00  0.00     0.091 A 
ATOM     79  F   UNL     1     -14.640   7.261   5.916  1.00  0.00    -0.205 F 
ATOM     80  C   UNL     1     -17.505   8.675   7.670  1.00  0.00     0.022 A 
BRANCH  78  81
ATOM     81  S   UNL     1     -16.970   6.006   7.465  1.00  0.00     0.127 S 
ATOM     82  O   UNL     1     -16.740   5.931   8.908  1.00  0.00    -0.237 OA
ATOM     83  O   UNL     1     -18.372   5.886   7.065  1.00  0.00    -0.237 OA
ATOM     84  O   UNL     1     -16.036   5.242   6.649  1.00  0.00    -0.744 OA
ENDBRANCH  78  81
ENDBRANCH  60  74
BRANCH  61  85
ATOM     85  C   UNL     1      -6.594  12.669   2.362  1.00  0.00     0.023 A 
ATOM     86  C   UNL     1      -5.340  12.537   3.016  1.00  0.00     0.012 A 
ATOM     87  C   UNL     1      -6.842  11.886   1.224  1.00  0.00     0.148 A 
ATOM     88  C   UNL     1      -4.492  11.472   2.715  1.00  0.00     0.002 A 
ATOM     89  C   UNL     1      -5.949  10.871   0.881  1.00  0.00     0.091 A 
ATOM     90  F   UNL     1      -7.976  12.075   0.537  1.00  0.00    -0.205 F 
ATOM     91  C   UNL     1      -4.822  10.611   1.675  1.00  0.00     0.022 A 
BRANCH  89  92
ATOM     92  S   UNL     1      -6.298   9.770  -0.501  1.00  0.00     0.127 S 
ATOM     93  O   UNL     1      -5.714  10.505  -1.618  1.00  0.00    -0.237 OA
ATOM     94  O   UNL     1      -5.585   8.546  -0.133  1.00  0.00    -0.237 OA
ATOM     95  O   UNL     1      -7.750   9.638  -0.501  1.00  0.00    -0.744 OA
ENDBRANCH  89  92
ENDBRANCH  61  85
BRANCH  73  96
ATOM     96  C   UNL     1     -13.637  14.367   1.941  1.00  0.00     0.023 A 
ATOM     97  C   UNL     1     -13.513  15.614   1.295  1.00  0.00     0.012 A 
ATOM     98  C   UNL     1     -14.872  13.693   1.793  1.00  0.00     0.148 A 
ATOM     99  C   UNL     1     -14.518  16.120   0.466  1.00  0.00     0.002 A 
ATOM    100  C   UNL     1     -15.920  14.266   1.081  1.00  0.00     0.091 A 
ATOM    101  F   UNL     1     -15.021  12.460   2.292  1.00  0.00    -0.205 F 
ATOM    102  C   UNL     1     -15.732  15.455   0.375  1.00  0.00     0.022 A 
BRANCH 100 103
ATOM    103  S   UNL     1     -17.592  13.608   1.151  1.00  0.00     0.127 S 
ATOM    104  O   UNL     1     -18.362  14.797   1.523  1.00  0.00    -0.237 OA
ATOM    105  O   UNL     1     -17.794  13.152  -0.222  1.00  0.00    -0.237 OA
ATOM    106  O   UNL     1     -17.563  12.567   2.169  1.00  0.00    -0.744 OA
ENDBRANCH 100 103
ENDBRANCH  73  96
ENDBRANCH  47  48
ENDBRANCH  40  42
ENDBRANCH  39  40
ENDBRANCH  38  39
ENDBRANCH   1  38
TORSDOF 21
