REMARK SMILES O=C(OCCOC(=O)c1c(F)cccc1N1CC[C@@H]([NH+]2CCCCC2)C1)c1ccc(-c2c3nc(c(-c4cccc(S(=O)(=O)[O-])c4F)c4ccc([nH]4)c(-c4cccc(S(=O)(=O)[O-])c4F)c4nc(c(-c5cccc(S(=O)(=O)[O-])c5F)c5ccc2[nH]5)C=C4)C=C3)cc1
REMARK SMILES IDX 4 1 3 2 2 3 1 4 27 5 28 6 89 7 29 8 88 9 30 10 31 11 32 12
REMARK SMILES IDX 82 13 33 14 87 15 81 16 83 17 34 18 86 19 80 20 79 21 35 23
REMARK SMILES IDX 67 24 47 25 66 26 48 27 51 28 65 29 84 30 49 31 50 32 64 34
REMARK SMILES IDX 85 35 52 36 36 37 37 38 45 39 38 40 40 41 46 42 39 43 41 44
REMARK SMILES IDX 42 45 43 46 44 47 68 48 69 49 77 50 70 51 72 52 78 53 71 54
REMARK SMILES IDX 73 55 74 56 75 57 76 58 53 59 54 60 62 61 55 62 57 63 63 64
REMARK SMILES IDX 56 65 58 66 59 67 60 68 61 69 5 70 6 71 7 72 8 73 9 74 10 75
REMARK SMILES IDX 15 76 11 77 12 78 14 79 13 80 16 81 17 82 26 83 18 84 19 85
REMARK SMILES IDX 20 86 21 87 25 88 22 90 24 91 23 92
REMARK H PARENT 83 22 51 33 20 89
REMARK Flexibility Score: inf
ROOT
ATOM      1  C   UNL     1       4.560  -1.895   0.701  1.00  0.00     0.275 C 
ENDROOT
BRANCH   1   2
ATOM      2  O   UNL     1       5.349  -0.733   0.441  1.00  0.00    -0.458 OA
BRANCH   2   3
ATOM      3  C   UNL     1       4.663   0.433   0.536  1.00  0.00     0.338 C 
ATOM      4  O   UNL     1       3.848   0.725   1.396  1.00  0.00    -0.246 OA
BRANCH   3   5
ATOM      5  C   UNL     1       4.887   1.188  -0.720  1.00  0.00     0.060 A 
ATOM      6  C   UNL     1       5.878   0.791  -1.626  1.00  0.00     0.016 A 
ATOM      7  C   UNL     1       3.993   2.205  -1.062  1.00  0.00     0.016 A 
ATOM      8  C   UNL     1       5.981   1.415  -2.858  1.00  0.00     0.010 A 
ATOM      9  C   UNL     1       4.034   2.768  -2.332  1.00  0.00     0.010 A 
ATOM     10  C   UNL     1       5.065   2.409  -3.211  1.00  0.00    -0.014 A 
BRANCH  10  11
ATOM     11  C   UNL     1       5.328   3.221  -4.411  1.00  0.00     0.031 A 
ATOM     12  C   UNL     1       5.794   4.633  -4.201  1.00  0.00     0.074 A 
ATOM     13  C   UNL     1       5.209   2.683  -5.638  1.00  0.00     0.049 A 
ATOM     14  N   UNL     1       6.107   5.537  -5.087  1.00  0.00    -0.248 NA
ATOM     15  C   UNL     1       5.941   5.090  -2.804  1.00  0.00     0.031 C 
ATOM     16  C   UNL     1       4.808   1.305  -5.925  1.00  0.00     0.029 A 
ATOM     17  N   UNL     1       5.396   3.236  -6.875  1.00  0.00    -0.354 N 
ATOM     18  C   UNL     1       6.495   6.653  -4.357  1.00  0.00     0.074 A 
ATOM     19  C   UNL     1       6.299   6.353  -2.960  1.00  0.00     0.031 C 
ATOM     20  C   UNL     1       4.710   1.140  -7.255  1.00  0.00     0.029 A 
ATOM     21  C   UNL     1       5.063   2.393  -7.909  1.00  0.00     0.049 A 
ATOM     22  H   UNL     1       5.737   4.149  -7.011  1.00  0.00     0.167 HD
ATOM     23  C   UNL     1       7.042   7.801  -4.812  1.00  0.00     0.034 A 
ATOM     24  C   UNL     1       5.053   2.620  -9.235  1.00  0.00     0.034 A 
ATOM     25  C   UNL     1       7.282   8.051  -6.202  1.00  0.00     0.049 A 
ATOM     26  C   UNL     1       5.607   3.933  -9.719  1.00  0.00     0.074 A 
ATOM     27  C   UNL     1       7.864   9.155  -6.791  1.00  0.00     0.029 A 
ATOM     28  N   UNL     1       6.959   7.166  -7.221  1.00  0.00    -0.354 N 
ATOM     29  N   UNL     1       6.061   4.942  -9.014  1.00  0.00    -0.248 NA
ATOM     30  C   UNL     1       5.724   4.110 -11.171  1.00  0.00     0.031 C 
ATOM     31  C   UNL     1       7.890   8.938  -8.172  1.00  0.00     0.029 A 
ATOM     32  C   UNL     1       7.339   7.692  -8.439  1.00  0.00     0.049 A 
ATOM     33  H   UNL     1       6.524   6.292  -7.094  1.00  0.00     0.167 HD
ATOM     34  C   UNL     1       6.581   5.845  -9.931  1.00  0.00     0.074 A 
ATOM     35  C   UNL     1       6.380   5.260 -11.243  1.00  0.00     0.031 C 
ATOM     36  C   UNL     1       7.173   7.045  -9.715  1.00  0.00     0.034 A 
BRANCH  23  37
ATOM     37  C   UNL     1       7.495   8.809  -3.792  1.00  0.00     0.023 A 
ATOM     38  C   UNL     1       8.640   8.533  -3.014  1.00  0.00     0.012 A 
ATOM     39  C   UNL     1       6.824  10.034  -3.625  1.00  0.00     0.148 A 
ATOM     40  C   UNL     1       9.095   9.449  -2.068  1.00  0.00     0.002 A 
ATOM     41  C   UNL     1       7.308  10.960  -2.709  1.00  0.00     0.091 A 
ATOM     42  F   UNL     1       5.729  10.267  -4.362  1.00  0.00    -0.205 F 
ATOM     43  C   UNL     1       8.436  10.665  -1.923  1.00  0.00     0.022 A 
BRANCH  41  44
ATOM     44  S   UNL     1       6.573  12.582  -2.480  1.00  0.00     0.127 S 
ATOM     45  O   UNL     1       6.229  12.555  -1.058  1.00  0.00    -0.237 OA
ATOM     46  O   UNL     1       7.684  13.468  -2.822  1.00  0.00    -0.237 OA
ATOM     47  O   UNL     1       5.432  12.641  -3.383  1.00  0.00    -0.744 OA
ENDBRANCH  41  44
ENDBRANCH  23  37
BRANCH  24  48
ATOM     48  C   UNL     1       4.601   1.561 -10.179  1.00  0.00     0.023 A 
ATOM     49  C   UNL     1       5.543   0.894 -10.984  1.00  0.00     0.012 A 
ATOM     50  C   UNL     1       3.243   1.195 -10.268  1.00  0.00     0.148 A 
ATOM     51  C   UNL     1       5.139  -0.089 -11.889  1.00  0.00     0.002 A 
ATOM     52  C   UNL     1       2.851   0.188 -11.145  1.00  0.00     0.091 A 
ATOM     53  F   UNL     1       2.358   1.842  -9.495  1.00  0.00    -0.205 F 
ATOM     54  C   UNL     1       3.795  -0.446 -11.966  1.00  0.00     0.022 A 
BRANCH  52  55
ATOM     55  S   UNL     1       1.156  -0.402 -11.238  1.00  0.00     0.127 S 
ATOM     56  O   UNL     1       0.708   0.174 -12.503  1.00  0.00    -0.237 OA
ATOM     57  O   UNL     1       1.338  -1.854 -11.253  1.00  0.00    -0.237 OA
ATOM     58  O   UNL     1       0.502   0.107 -10.040  1.00  0.00    -0.744 OA
ENDBRANCH  52  55
ENDBRANCH  24  48
BRANCH  36  59
ATOM     59  C   UNL     1       7.690   7.783 -10.917  1.00  0.00     0.023 A 
ATOM     60  C   UNL     1       6.785   8.411 -11.793  1.00  0.00     0.012 A 
ATOM     61  C   UNL     1       9.076   7.933 -11.116  1.00  0.00     0.148 A 
ATOM     62  C   UNL     1       7.254   9.156 -12.872  1.00  0.00     0.002 A 
ATOM     63  C   UNL     1       9.535   8.723 -12.161  1.00  0.00     0.091 A 
ATOM     64  F   UNL     1       9.917   7.307 -10.280  1.00  0.00    -0.205 F 
ATOM     65  C   UNL     1       8.626   9.324 -13.046  1.00  0.00     0.022 A 
BRANCH  63  66
ATOM     66  S   UNL     1      11.279   9.086 -12.382  1.00  0.00     0.127 S 
ATOM     67  O   UNL     1      11.630   8.199 -13.490  1.00  0.00    -0.237 OA
ATOM     68  O   UNL     1      11.262  10.509 -12.721  1.00  0.00    -0.237 OA
ATOM     69  O   UNL     1      11.913   8.781 -11.106  1.00  0.00    -0.744 OA
ENDBRANCH  63  66
ENDBRANCH  36  59
ENDBRANCH  10  11
ENDBRANCH   3   5
ENDBRANCH   2   3
ENDBRANCH   1   2
BRANCH   1  70
ATOM     70  C   UNL     1       3.840  -2.377  -0.573  1.00  0.00     0.275 C 
BRANCH  70  71
ATOM     71  O   UNL     1       3.205  -1.314  -1.316  1.00  0.00    -0.458 OA
BRANCH  71  72
ATOM     72  C   UNL     1       1.921  -1.521  -1.729  1.00  0.00     0.343 C 
ATOM     73  O   UNL     1       1.204  -2.443  -1.394  1.00  0.00    -0.246 OA
BRANCH  72  74
ATOM     74  C   UNL     1       1.527  -0.451  -2.679  1.00  0.00     0.119 A 
ATOM     75  C   UNL     1       2.063  -0.559  -3.964  1.00  0.00     0.139 A 
ATOM     76  C   UNL     1       0.571   0.552  -2.366  1.00  0.00     0.055 A 
ATOM     77  F   UNL     1       2.965  -1.512  -4.248  1.00  0.00    -0.206 F 
ATOM     78  C   UNL     1       1.672   0.311  -4.973  1.00  0.00     0.040 A 
ATOM     79  C   UNL     1       0.196   1.417  -3.411  1.00  0.00     0.027 A 
ATOM     80  C   UNL     1       0.746   1.308  -4.695  1.00  0.00     0.005 A 
BRANCH  76  81
ATOM     81  N   UNL     1       0.066   0.730  -1.095  1.00  0.00    -0.365 N 
ATOM     82  C   UNL     1       1.011   0.902  -0.017  1.00  0.00     0.123 C 
ATOM     83  C   UNL     1      -1.203   1.353  -0.691  1.00  0.00     0.181 C 
ATOM     84  C   UNL     1       0.173   0.660   1.205  1.00  0.00     0.088 C 
ATOM     85  C   UNL     1      -1.138   1.385   0.894  1.00  0.00     0.205 C 
BRANCH  85  86
ATOM     86  N   UNL     1      -1.351   2.686   1.567  1.00  0.00    -0.331 N 
ATOM     87  C   UNL     1      -0.501   3.817   1.197  1.00  0.00     0.262 C 
ATOM     88  C   UNL     1      -1.524   2.602   3.024  1.00  0.00     0.262 C 
ATOM     89  H   UNL     1      -2.250   2.925   1.148  1.00  0.00     0.348 HD
ATOM     90  C   UNL     1       0.836   3.913   1.934  1.00  0.00     0.062 C 
ATOM     91  C   UNL     1      -0.243   2.650   3.864  1.00  0.00     0.062 C 
ATOM     92  C   UNL     1       0.705   3.768   3.444  1.00  0.00     0.012 C 
ENDBRANCH  85  86
ENDBRANCH  76  81
ENDBRANCH  72  74
ENDBRANCH  71  72
ENDBRANCH  70  71
ENDBRANCH   1  70
TORSDOF 16
