REMARK SMILES CC(C)(C)SSC[C@H]([NH3+])C(=O)OCCOC(=O)c1ccc(-c2c3nc(c(-c4cccc(S(=O)(=O)[O-])c4F)c4ccc([nH]4)c(-c4cccc(S(=O)(=O)[O-])c4F)c4nc(c(-c5cccc(S(=O)(=O)[O-])c5F)c5ccc2[nH]5)C=C4)C=C3)cc1
REMARK SMILES IDX 13 1 12 2 10 3 11 4 8 5 7 6 6 7 5 8 2 9 1 10 3 11 4 12 9 13
REMARK SMILES IDX 14 17 15 18 16 19 17 20 18 21 19 22 80 23 20 24 79 25 21 26
REMARK SMILES IDX 22 27 23 28 73 29 24 30 78 31 72 32 74 33 25 34 77 35 71 36
REMARK SMILES IDX 70 37 26 39 58 40 38 41 57 42 39 43 42 44 56 45 75 46 40 47
REMARK SMILES IDX 41 48 55 50 76 51 43 52 27 53 28 54 36 55 29 56 31 57 37 58
REMARK SMILES IDX 30 59 32 60 33 61 34 62 35 63 59 64 60 65 68 66 61 67 63 68
REMARK SMILES IDX 69 69 62 70 64 71 65 72 66 73 67 74 44 75 45 76 53 77 46 78
REMARK SMILES IDX 48 79 54 80 47 81 49 82 50 83 51 84 52 85
REMARK H PARENT 9 14 9 15 9 16 74 38 42 49
REMARK Flexibility Score: inf
ROOT
ATOM      1  C   UNL     1       2.367  -6.594  -6.252  1.00  0.00     0.274 C 
ENDROOT
BRANCH   1   2
ATOM      2  O   UNL     1       2.064  -5.918  -5.017  1.00  0.00    -0.458 OA
BRANCH   2   3
ATOM      3  C   UNL     1       1.192  -4.880  -5.070  1.00  0.00     0.365 C 
ATOM      4  O   UNL     1       0.706  -4.428  -6.099  1.00  0.00    -0.245 OA
BRANCH   3   5
ATOM      5  C   UNL     1       0.890  -4.302  -3.683  1.00  0.00     0.302 C 
BRANCH   5   6
ATOM      6  C   UNL     1       1.906  -3.209  -3.333  1.00  0.00     0.159 C 
BRANCH   6   7
ATOM      7  S   UNL     1       3.661  -3.707  -3.041  1.00  0.00    -0.087 SA
BRANCH   7   8
ATOM      8  S   UNL     1       3.619  -4.819  -1.307  1.00  0.00    -0.088 SA
BRANCH   8   9
ATOM      9  C   UNL     1       4.541  -6.394  -1.666  1.00  0.00     0.018 C 
ATOM     10  C   UNL     1       4.351  -7.306  -0.445  1.00  0.00     0.023 C 
ATOM     11  C   UNL     1       6.027  -6.052  -1.831  1.00  0.00     0.023 C 
ATOM     12  C   UNL     1       4.038  -7.130  -2.909  1.00  0.00     0.023 C 
ENDBRANCH   8   9
ENDBRANCH   7   8
ENDBRANCH   6   7
ENDBRANCH   5   6
BRANCH   5  13
ATOM     13  N   UNL     1       0.729  -5.323  -2.625  1.00  0.00    -0.345 N 
ATOM     14  H   UNL     1       1.609  -5.823  -2.497  1.00  0.00     0.345 HD
ATOM     15  H   UNL     1       0.000  -5.983  -2.897  1.00  0.00     0.345 HD
ATOM     16  H   UNL     1       0.466  -4.868  -1.751  1.00  0.00     0.345 HD
ENDBRANCH   5  13
ENDBRANCH   3   5
ENDBRANCH   2   3
ENDBRANCH   1   2
BRANCH   1  17
ATOM     17  C   UNL     1       1.953  -8.063  -6.153  1.00  0.00     0.275 C 
BRANCH  17  18
ATOM     18  O   UNL     1       0.521  -8.187  -6.095  1.00  0.00    -0.458 OA
BRANCH  18  19
ATOM     19  C   UNL     1      -0.005  -8.115  -4.851  1.00  0.00     0.338 C 
ATOM     20  O   UNL     1       0.595  -8.035  -3.792  1.00  0.00    -0.246 OA
BRANCH  19  21
ATOM     21  C   UNL     1      -1.460  -7.968  -4.940  1.00  0.00     0.060 A 
ATOM     22  C   UNL     1      -2.025  -6.768  -4.498  1.00  0.00     0.016 A 
ATOM     23  C   UNL     1      -2.260  -9.025  -5.367  1.00  0.00     0.016 A 
ATOM     24  C   UNL     1      -3.403  -6.629  -4.448  1.00  0.00     0.010 A 
ATOM     25  C   UNL     1      -3.647  -8.873  -5.343  1.00  0.00     0.010 A 
ATOM     26  C   UNL     1      -4.223  -7.682  -4.869  1.00  0.00    -0.014 A 
BRANCH  26  27
ATOM     27  C   UNL     1      -5.691  -7.532  -4.797  1.00  0.00     0.031 A 
ATOM     28  C   UNL     1      -6.471  -8.321  -3.790  1.00  0.00     0.074 A 
ATOM     29  C   UNL     1      -6.305  -6.694  -5.651  1.00  0.00     0.049 A 
ATOM     30  N   UNL     1      -7.765  -8.409  -3.638  1.00  0.00    -0.248 NA
ATOM     31  C   UNL     1      -5.694  -9.125  -2.831  1.00  0.00     0.031 C 
ATOM     32  C   UNL     1      -5.629  -5.874  -6.659  1.00  0.00     0.029 A 
ATOM     33  N   UNL     1      -7.634  -6.410  -5.823  1.00  0.00    -0.354 N 
ATOM     34  C   UNL     1      -7.963  -9.309  -2.599  1.00  0.00     0.074 A 
ATOM     35  C   UNL     1      -6.654  -9.742  -2.157  1.00  0.00     0.031 C 
ATOM     36  C   UNL     1      -6.550  -5.194  -7.358  1.00  0.00     0.029 A 
ATOM     37  C   UNL     1      -7.877  -5.563  -6.879  1.00  0.00     0.049 A 
ATOM     38  H   UNL     1      -8.344  -6.776  -5.249  1.00  0.00     0.167 HD
ATOM     39  C   UNL     1      -9.132  -9.725  -2.059  1.00  0.00     0.034 A 
ATOM     40  C   UNL     1      -9.042  -5.159  -7.418  1.00  0.00     0.034 A 
ATOM     41  C   UNL     1     -10.422  -9.256  -2.488  1.00  0.00     0.049 A 
ATOM     42  C   UNL     1     -10.325  -5.637  -6.798  1.00  0.00     0.074 A 
ATOM     43  C   UNL     1     -11.669  -9.587  -1.990  1.00  0.00     0.029 A 
ATOM     44  N   UNL     1     -10.630  -8.352  -3.520  1.00  0.00    -0.354 N 
ATOM     45  N   UNL     1     -10.497  -6.426  -5.764  1.00  0.00    -0.248 NA
ATOM     46  C   UNL     1     -11.574  -5.152  -7.400  1.00  0.00     0.031 C 
ATOM     47  C   UNL     1     -12.632  -8.892  -2.730  1.00  0.00     0.029 A 
ATOM     48  C   UNL     1     -11.984  -8.115  -3.678  1.00  0.00     0.049 A 
ATOM     49  H   UNL     1      -9.918  -7.940  -4.061  1.00  0.00     0.167 HD
ATOM     50  C   UNL     1     -11.870  -6.513  -5.575  1.00  0.00     0.074 A 
ATOM     51  C   UNL     1     -12.482  -5.675  -6.587  1.00  0.00     0.031 C 
ATOM     52  C   UNL     1     -12.564  -7.235  -4.661  1.00  0.00     0.034 A 
BRANCH  39  53
ATOM     53  C   UNL     1      -9.064 -10.717  -0.929  1.00  0.00     0.023 A 
ATOM     54  C   UNL     1      -8.649 -10.290   0.349  1.00  0.00     0.012 A 
ATOM     55  C   UNL     1      -9.446 -12.059  -1.118  1.00  0.00     0.148 A 
ATOM     56  C   UNL     1      -8.586 -11.190   1.413  1.00  0.00     0.002 A 
ATOM     57  C   UNL     1      -9.418 -12.942  -0.044  1.00  0.00     0.091 A 
ATOM     58  F   UNL     1      -9.812 -12.454  -2.346  1.00  0.00    -0.205 F 
ATOM     59  C   UNL     1      -8.979 -12.511   1.219  1.00  0.00     0.022 A 
BRANCH  57  60
ATOM     60  S   UNL     1      -9.967 -14.647  -0.180  1.00  0.00     0.127 S 
ATOM     61  O   UNL     1      -8.697 -15.370  -0.150  1.00  0.00    -0.237 OA
ATOM     62  O   UNL     1     -10.786 -14.806   1.023  1.00  0.00    -0.237 OA
ATOM     63  O   UNL     1     -10.708 -14.729  -1.431  1.00  0.00    -0.744 OA
ENDBRANCH  57  60
ENDBRANCH  39  53
BRANCH  40  64
ATOM     64  C   UNL     1      -9.034  -4.234  -8.585  1.00  0.00     0.023 A 
ATOM     65  C   UNL     1      -9.458  -2.903  -8.417  1.00  0.00     0.012 A 
ATOM     66  C   UNL     1      -8.556  -4.650  -9.844  1.00  0.00     0.148 A 
ATOM     67  C   UNL     1      -9.428  -2.007  -9.487  1.00  0.00     0.002 A 
ATOM     68  C   UNL     1      -8.475  -3.738 -10.890  1.00  0.00     0.091 A 
ATOM     69  F   UNL     1      -8.173  -5.926  -9.989  1.00  0.00    -0.205 F 
ATOM     70  C   UNL     1      -8.925  -2.421 -10.719  1.00  0.00     0.022 A 
BRANCH  68  71
ATOM     71  S   UNL     1      -7.713  -4.152 -12.464  1.00  0.00     0.127 S 
ATOM     72  O   UNL     1      -8.877  -4.287 -13.335  1.00  0.00    -0.237 OA
ATOM     73  O   UNL     1      -6.884  -2.974 -12.722  1.00  0.00    -0.237 OA
ATOM     74  O   UNL     1      -6.955  -5.372 -12.220  1.00  0.00    -0.744 OA
ENDBRANCH  68  71
ENDBRANCH  40  64
BRANCH  52  75
ATOM     75  C   UNL     1     -14.065  -7.134  -4.698  1.00  0.00     0.023 A 
ATOM     76  C   UNL     1     -14.780  -7.793  -5.717  1.00  0.00     0.012 A 
ATOM     77  C   UNL     1     -14.766  -6.453  -3.685  1.00  0.00     0.148 A 
ATOM     78  C   UNL     1     -16.173  -7.752  -5.742  1.00  0.00     0.002 A 
ATOM     79  C   UNL     1     -16.155  -6.454  -3.692  1.00  0.00     0.091 A 
ATOM     80  F   UNL     1     -14.064  -5.814  -2.738  1.00  0.00    -0.205 F 
ATOM     81  C   UNL     1     -16.860  -7.094  -4.724  1.00  0.00     0.022 A 
BRANCH  79  82
ATOM     82  S   UNL     1     -17.119  -5.710  -2.371  1.00  0.00     0.127 S 
ATOM     83  O   UNL     1     -17.592  -4.480  -3.003  1.00  0.00    -0.237 OA
ATOM     84  O   UNL     1     -18.158  -6.715  -2.138  1.00  0.00    -0.237 OA
ATOM     85  O   UNL     1     -16.197  -5.531  -1.258  1.00  0.00    -0.744 OA
ENDBRANCH  79  82
ENDBRANCH  52  75
ENDBRANCH  26  27
ENDBRANCH  19  21
ENDBRANCH  18  19
ENDBRANCH  17  18
ENDBRANCH   1  17
TORSDOF 19
