REMARK SMILES O=C(Cc1ccc(-c2ccn(C(F)F)c(=O)c2)cc1)OCCOC(=O)c1ccc(-c2c3nc(c(-c4cccc(S(=O)(=O)[O-])c4F)c4ccc([nH]4)c(-c4cccc(S(=O)(=O)[O-])c4F)c4nc(c(-c5cccc(S(=O)(=O)[O-])c5F)c5ccc2[nH]5)C=C4)C=C3)cc1
REMARK SMILES IDX 21 1 20 2 2 3 1 4 3 5 4 6 5 7 19 8 6 9 18 10 7 11 8 12 9 13
REMARK SMILES IDX 17 14 10 15 15 16 11 17 16 18 12 19 13 20 14 21 22 22 23 23
REMARK SMILES IDX 24 24 25 25 26 26 27 27 88 28 28 29 87 30 29 31 30 32 31 33
REMARK SMILES IDX 81 34 32 35 86 36 80 37 82 38 33 39 85 40 79 41 78 42 34 44
REMARK SMILES IDX 66 45 46 46 65 47 47 48 50 49 64 50 83 51 48 52 49 53 63 55
REMARK SMILES IDX 84 56 51 57 35 58 36 59 44 60 37 61 39 62 45 63 38 64 40 65
REMARK SMILES IDX 41 66 42 67 43 68 67 69 68 70 76 71 69 72 71 73 77 74 70 75
REMARK SMILES IDX 72 76 73 77 74 78 75 79 52 80 53 81 61 82 54 83 56 84 62 85
REMARK SMILES IDX 55 86 57 87 58 88 59 89 60 90
REMARK H PARENT 82 43 50 54
REMARK Flexibility Score: inf
ROOT
ATOM      1  C   UNL     1       4.349   0.416  -0.853  1.00  0.00     0.274 C 
ENDROOT
BRANCH   1   2
ATOM      2  O   UNL     1       2.981  -0.022  -1.008  1.00  0.00    -0.462 OA
BRANCH   2   3
ATOM      3  C   UNL     1       2.215  -0.593  -0.048  1.00  0.00     0.310 C 
ATOM      4  O   UNL     1       1.137  -1.103  -0.351  1.00  0.00    -0.252 OA
BRANCH   3   5
ATOM      5  C   UNL     1       2.688  -0.579   1.386  1.00  0.00     0.158 C 
BRANCH   5   6
ATOM      6  C   UNL     1       3.654  -1.666   1.765  1.00  0.00    -0.037 A 
ATOM      7  C   UNL     1       3.365  -3.009   1.508  1.00  0.00     0.005 A 
ATOM      8  C   UNL     1       4.841  -1.333   2.435  1.00  0.00     0.005 A 
ATOM      9  C   UNL     1       4.276  -4.001   1.871  1.00  0.00     0.009 A 
ATOM     10  C   UNL     1       5.755  -2.323   2.788  1.00  0.00     0.009 A 
ATOM     11  C   UNL     1       5.483  -3.662   2.496  1.00  0.00    -0.018 A 
BRANCH  11  12
ATOM     12  C   UNL     1       6.461  -4.700   2.852  1.00  0.00    -0.011 A 
ATOM     13  C   UNL     1       6.820  -5.002   4.223  1.00  0.00     0.027 A 
ATOM     14  C   UNL     1       7.056  -5.370   1.851  1.00  0.00     0.080 A 
ATOM     15  C   UNL     1       7.728  -5.947   4.490  1.00  0.00     0.095 A 
ATOM     16  C   UNL     1       8.066  -6.424   2.134  1.00  0.00     0.255 A 
ATOM     17  N   UNL     1       8.343  -6.653   3.472  1.00  0.00    -0.258 N 
ATOM     18  O   UNL     1       8.580  -7.010   1.185  1.00  0.00    -0.269 OA
BRANCH  17  19
ATOM     19  C   UNL     1       9.311  -7.671   3.774  1.00  0.00     0.451 C 
ATOM     20  F   UNL     1       8.925  -8.874   3.282  1.00  0.00    -0.185 F 
ATOM     21  F   UNL     1      10.519  -7.371   3.232  1.00  0.00    -0.185 F 
ENDBRANCH  17  19
ENDBRANCH  11  12
ENDBRANCH   5   6
ENDBRANCH   3   5
ENDBRANCH   2   3
ENDBRANCH   1   2
BRANCH   1  22
ATOM     22  C   UNL     1       4.448   1.941  -0.790  1.00  0.00     0.275 C 
BRANCH  22  23
ATOM     23  O   UNL     1       3.998   2.409   0.492  1.00  0.00    -0.458 OA
BRANCH  23  24
ATOM     24  C   UNL     1       2.716   2.850   0.547  1.00  0.00     0.338 C 
ATOM     25  O   UNL     1       1.963   3.015  -0.397  1.00  0.00    -0.246 OA
BRANCH  24  26
ATOM     26  C   UNL     1       2.287   2.888   1.966  1.00  0.00     0.060 A 
ATOM     27  C   UNL     1       0.985   2.467   2.265  1.00  0.00     0.016 A 
ATOM     28  C   UNL     1       3.162   3.253   2.996  1.00  0.00     0.016 A 
ATOM     29  C   UNL     1       0.547   2.436   3.590  1.00  0.00     0.010 A 
ATOM     30  C   UNL     1       2.720   3.225   4.322  1.00  0.00     0.010 A 
ATOM     31  C   UNL     1       1.403   2.841   4.622  1.00  0.00    -0.014 A 
BRANCH  31  32
ATOM     32  C   UNL     1       0.869   3.019   5.994  1.00  0.00     0.031 A 
ATOM     33  C   UNL     1       0.402   4.387   6.409  1.00  0.00     0.074 A 
ATOM     34  C   UNL     1       0.800   1.992   6.860  1.00  0.00     0.049 A 
ATOM     35  N   UNL     1      -0.148   4.768   7.532  1.00  0.00    -0.248 NA
ATOM     36  C   UNL     1       0.582   5.470   5.427  1.00  0.00     0.031 C 
ATOM     37  C   UNL     1       1.246   0.626   6.593  1.00  0.00     0.029 A 
ATOM     38  N   UNL     1       0.345   1.952   8.155  1.00  0.00    -0.354 N 
ATOM     39  C   UNL     1      -0.387   6.129   7.391  1.00  0.00     0.074 A 
ATOM     40  C   UNL     1       0.113   6.517   6.090  1.00  0.00     0.031 C 
ATOM     41  C   UNL     1       1.065  -0.114   7.703  1.00  0.00     0.029 A 
ATOM     42  C   UNL     1       0.492   0.724   8.755  1.00  0.00     0.049 A 
ATOM     43  H   UNL     1      -0.051   2.730   8.610  1.00  0.00     0.167 HD
ATOM     44  C   UNL     1      -0.997   6.978   8.250  1.00  0.00     0.034 A 
ATOM     45  C   UNL     1       0.197   0.327  10.010  1.00  0.00     0.034 A 
ATOM     46  C   UNL     1      -1.494   6.602   9.544  1.00  0.00     0.049 A 
ATOM     47  C   UNL     1      -0.461   1.299  10.959  1.00  0.00     0.074 A 
ATOM     48  C   UNL     1      -2.150   7.387  10.475  1.00  0.00     0.029 A 
ATOM     49  N   UNL     1      -1.380   5.336  10.095  1.00  0.00    -0.354 N 
ATOM     50  N   UNL     1      -0.826   2.541  10.751  1.00  0.00    -0.248 NA
ATOM     51  C   UNL     1      -0.787   0.799  12.304  1.00  0.00     0.031 C 
ATOM     52  C   UNL     1      -2.423   6.596  11.597  1.00  0.00     0.029 A 
ATOM     53  C   UNL     1      -1.948   5.317  11.357  1.00  0.00     0.049 A 
ATOM     54  H   UNL     1      -0.957   4.564   9.654  1.00  0.00     0.167 HD
ATOM     55  C   UNL     1      -1.460   2.955  11.919  1.00  0.00     0.074 A 
ATOM     56  C   UNL     1      -1.447   1.826  12.824  1.00  0.00     0.031 C 
ATOM     57  C   UNL     1      -1.990   4.167  12.222  1.00  0.00     0.034 A 
BRANCH  44  58
ATOM     58  C   UNL     1      -1.210   8.391   7.784  1.00  0.00     0.023 A 
ATOM     59  C   UNL     1      -2.218   8.651   6.832  1.00  0.00     0.012 A 
ATOM     60  C   UNL     1      -0.453   9.457   8.303  1.00  0.00     0.148 A 
ATOM     61  C   UNL     1      -2.453   9.950   6.385  1.00  0.00     0.002 A 
ATOM     62  C   UNL     1      -0.717  10.754   7.878  1.00  0.00     0.091 A 
ATOM     63  F   UNL     1       0.519   9.182   9.184  1.00  0.00    -0.205 F 
ATOM     64  C   UNL     1      -1.710  11.001   6.915  1.00  0.00     0.022 A 
BRANCH  62  65
ATOM     65  S   UNL     1       0.145  12.181   8.546  1.00  0.00     0.127 S 
ATOM     66  O   UNL     1       1.021  12.543   7.432  1.00  0.00    -0.237 OA
ATOM     67  O   UNL     1      -0.952  13.119   8.789  1.00  0.00    -0.237 OA
ATOM     68  O   UNL     1       0.819  11.713   9.748  1.00  0.00    -0.744 OA
ENDBRANCH  62  65
ENDBRANCH  44  58
BRANCH  45  69
ATOM     69  C   UNL     1       0.460  -1.079  10.433  1.00  0.00     0.023 A 
ATOM     70  C   UNL     1      -0.625  -1.944  10.678  1.00  0.00     0.012 A 
ATOM     71  C   UNL     1       1.772  -1.560  10.605  1.00  0.00     0.148 A 
ATOM     72  C   UNL     1      -0.408  -3.248  11.123  1.00  0.00     0.002 A 
ATOM     73  C   UNL     1       1.982  -2.877  10.998  1.00  0.00     0.091 A 
ATOM     74  F   UNL     1       2.793  -0.718  10.390  1.00  0.00    -0.205 F 
ATOM     75  C   UNL     1       0.893  -3.718  11.275  1.00  0.00     0.022 A 
BRANCH  73  76
ATOM     76  S   UNL     1       3.628  -3.592  11.097  1.00  0.00     0.127 S 
ATOM     77  O   UNL     1       3.872  -3.590  12.537  1.00  0.00    -0.237 OA
ATOM     78  O   UNL     1       3.426  -4.917  10.508  1.00  0.00    -0.237 OA
ATOM     79  O   UNL     1       4.479  -2.715  10.303  1.00  0.00    -0.744 OA
ENDBRANCH  73  76
ENDBRANCH  45  69
BRANCH  57  80
ATOM     80  C   UNL     1      -2.632   4.338  13.575  1.00  0.00     0.023 A 
ATOM     81  C   UNL     1      -1.823   4.428  14.724  1.00  0.00     0.012 A 
ATOM     82  C   UNL     1      -4.027   4.495  13.699  1.00  0.00     0.148 A 
ATOM     83  C   UNL     1      -2.393   4.642  15.979  1.00  0.00     0.002 A 
ATOM     84  C   UNL     1      -4.584   4.752  14.947  1.00  0.00     0.091 A 
ATOM     85  F   UNL     1      -4.785   4.386  12.598  1.00  0.00    -0.205 F 
ATOM     86  C   UNL     1      -3.770   4.816  16.089  1.00  0.00     0.022 A 
BRANCH  84  87
ATOM     87  S   UNL     1      -6.338   5.083  15.162  1.00  0.00     0.127 S 
ATOM     88  O   UNL     1      -6.820   3.807  15.687  1.00  0.00    -0.237 OA
ATOM     89  O   UNL     1      -6.335   6.179  16.132  1.00  0.00    -0.237 OA
ATOM     90  O   UNL     1      -6.835   5.451  13.843  1.00  0.00    -0.744 OA
ENDBRANCH  84  87
ENDBRANCH  57  80
ENDBRANCH  31  32
ENDBRANCH  24  26
ENDBRANCH  23  24
ENDBRANCH  22  23
ENDBRANCH   1  22
TORSDOF 17
