REMARK SMILES O=C(Cc1ccccc1)Nc1cccc(C(=O)Nc2ccccc2C(=O)OCCOC(=O)c2ccc(-c3c4nc(c(-c5cccc(S(=O)(=O)[O-])c5F)c5ccc([nH]5)c(-c5cccc(S(=O)(=O)[O-])c5F)c5nc(c(-c6cccc(S(=O)(=O)[O-])c6F)c6ccc3[nH]6)C=C5)C=C4)cc2)c1
REMARK SMILES IDX 28 1 27 2 25 3 26 4 24 5 19 6 20 7 21 8 23 9 22 10 18 11
REMARK SMILES IDX 16 12 17 13 15 15 11 16 12 17 96 18 13 19 14 20 10 21 1 22
REMARK SMILES IDX 2 23 3 25 4 26 5 27 9 28 6 29 8 30 7 31 29 32 30 33 31 34
REMARK SMILES IDX 32 35 33 36 34 37 95 38 35 39 94 40 36 41 37 42 38 43 88 44
REMARK SMILES IDX 39 45 93 46 87 47 89 48 40 49 92 50 86 51 85 52 41 54 73 55
REMARK SMILES IDX 53 56 72 57 54 58 57 59 71 60 90 61 55 62 56 63 70 65 91 66
REMARK SMILES IDX 58 67 42 68 43 69 51 70 44 71 46 72 52 73 45 74 47 75 48 76
REMARK SMILES IDX 49 77 50 78 74 79 75 80 83 81 76 82 78 83 84 84 77 85 79 86
REMARK SMILES IDX 80 87 81 88 82 89 59 90 60 91 68 92 61 93 63 94 69 95 62 96
REMARK SMILES IDX 64 97 65 98 66 99 67 100
REMARK H PARENT 18 14 10 24 89 53 57 64
REMARK Flexibility Score: inf
ROOT
ATOM      1  C   UNL     1       2.009   5.484  -2.149  1.00  0.00     0.275 C 
ENDROOT
BRANCH   1   2
ATOM      2  O   UNL     1       1.153   5.116  -1.042  1.00  0.00    -0.458 OA
BRANCH   2   3
ATOM      3  C   UNL     1       1.445   3.908  -0.500  1.00  0.00     0.340 C 
ATOM      4  O   UNL     1       2.411   3.229  -0.796  1.00  0.00    -0.246 OA
BRANCH   3   5
ATOM      5  C   UNL     1       0.461   3.450   0.510  1.00  0.00     0.083 A 
ATOM      6  C   UNL     1      -0.918   3.331   0.285  1.00  0.00     0.056 A 
ATOM      7  C   UNL     1      -1.735   2.884   1.344  1.00  0.00     0.027 A 
ATOM      8  C   UNL     1      -1.192   2.445   2.555  1.00  0.00     0.002 A 
ATOM      9  C   UNL     1       0.985   3.032   1.750  1.00  0.00     0.018 A 
ATOM     10  C   UNL     1       0.175   2.509   2.755  1.00  0.00     0.001 A 
BRANCH   6  11
ATOM     11  N   UNL     1      -1.610   3.574  -0.919  1.00  0.00    -0.321 N 
ATOM     12  C   UNL     1      -1.288   3.392  -2.246  1.00  0.00     0.255 C 
ATOM     13  O   UNL     1      -1.997   3.929  -3.100  1.00  0.00    -0.269 OA
ATOM     14  H   UNL     1      -2.509   3.952  -0.783  1.00  0.00     0.170 HD
BRANCH  12  15
ATOM     15  C   UNL     1      -0.173   2.516  -2.697  1.00  0.00     0.042 A 
ATOM     16  C   UNL     1       1.497   0.815  -2.270  1.00  0.00     0.041 A 
ATOM     17  C   UNL     1       2.160   1.192  -3.446  1.00  0.00     0.026 A 
ATOM     18  C   UNL     1       0.278   1.419  -1.952  1.00  0.00     0.040 A 
ATOM     19  C   UNL     1       1.634   2.185  -4.273  1.00  0.00     0.003 A 
ATOM     20  C   UNL     1       0.476   2.857  -3.892  1.00  0.00     0.014 A 
BRANCH  16  21
ATOM     21  N   UNL     1       2.196  -0.032  -1.385  1.00  0.00    -0.326 N 
ATOM     22  O   UNL     1       0.650  -0.412   0.311  1.00  0.00    -0.274 OA
ATOM     23  C   UNL     1       1.796  -0.466  -0.132  1.00  0.00     0.228 C 
ATOM     24  H   UNL     1       3.074  -0.354  -1.695  1.00  0.00     0.169 HD
BRANCH  23  25
ATOM     25  C   UNL     1       2.947  -0.931   0.755  1.00  0.00     0.135 C 
BRANCH  25  26
ATOM     26  C   UNL     1       3.864  -1.940   0.111  1.00  0.00    -0.039 A 
ATOM     27  C   UNL     1       3.495  -3.291   0.054  1.00  0.00     0.004 A 
ATOM     28  C   UNL     1       5.089  -1.541  -0.447  1.00  0.00     0.004 A 
ATOM     29  C   UNL     1       4.336  -4.225  -0.550  1.00  0.00     0.000 A 
ATOM     30  C   UNL     1       5.924  -2.478  -1.054  1.00  0.00     0.000 A 
ATOM     31  C   UNL     1       5.548  -3.818  -1.105  1.00  0.00     0.000 A 
ENDBRANCH  25  26
ENDBRANCH  23  25
ENDBRANCH  16  21
ENDBRANCH  12  15
ENDBRANCH   6  11
ENDBRANCH   3   5
ENDBRANCH   2   3
ENDBRANCH   1   2
BRANCH   1  32
ATOM     32  C   UNL     1       3.207   6.353  -1.758  1.00  0.00     0.275 C 
BRANCH  32  33
ATOM     33  O   UNL     1       4.194   5.612  -1.017  1.00  0.00    -0.458 OA
BRANCH  33  34
ATOM     34  C   UNL     1       4.080   5.731   0.323  1.00  0.00     0.338 C 
ATOM     35  O   UNL     1       3.274   6.418   0.934  1.00  0.00    -0.246 OA
BRANCH  34  36
ATOM     36  C   UNL     1       5.009   4.837   1.026  1.00  0.00     0.060 A 
ATOM     37  C   UNL     1       4.546   3.570   1.355  1.00  0.00     0.016 A 
ATOM     38  C   UNL     1       6.170   5.323   1.615  1.00  0.00     0.016 A 
ATOM     39  C   UNL     1       5.101   2.864   2.402  1.00  0.00     0.010 A 
ATOM     40  C   UNL     1       6.830   4.535   2.566  1.00  0.00     0.010 A 
ATOM     41  C   UNL     1       6.262   3.328   3.016  1.00  0.00    -0.014 A 
BRANCH  41  42
ATOM     42  C   UNL     1       6.818   2.565   4.161  1.00  0.00     0.031 A 
ATOM     43  C   UNL     1       7.003   3.243   5.490  1.00  0.00     0.074 A 
ATOM     44  C   UNL     1       7.108   1.256   4.015  1.00  0.00     0.049 A 
ATOM     45  N   UNL     1       7.617   2.808   6.558  1.00  0.00    -0.248 NA
ATOM     46  C   UNL     1       6.441   4.598   5.633  1.00  0.00     0.031 C 
ATOM     47  C   UNL     1       6.909   0.472   2.791  1.00  0.00     0.029 A 
ATOM     48  N   UNL     1       7.631   0.349   4.900  1.00  0.00    -0.354 N 
ATOM     49  C   UNL     1       7.604   3.866   7.459  1.00  0.00     0.074 A 
ATOM     50  C   UNL     1       6.900   4.957   6.823  1.00  0.00     0.031 C 
ATOM     51  C   UNL     1       7.272  -0.798   3.011  1.00  0.00     0.029 A 
ATOM     52  C   UNL     1       7.840  -0.893   4.348  1.00  0.00     0.049 A 
ATOM     53  H   UNL     1       7.836   0.566   5.838  1.00  0.00     0.167 HD
ATOM     54  C   UNL     1       8.139   3.917   8.702  1.00  0.00     0.034 A 
ATOM     55  C   UNL     1       8.476  -1.972   4.838  1.00  0.00     0.034 A 
ATOM     56  C   UNL     1       8.773   2.795   9.340  1.00  0.00     0.049 A 
ATOM     57  C   UNL     1       9.068  -1.882   6.215  1.00  0.00     0.074 A 
ATOM     58  C   UNL     1       9.310   2.718  10.612  1.00  0.00     0.029 A 
ATOM     59  N   UNL     1       8.955   1.550   8.754  1.00  0.00    -0.354 N 
ATOM     60  N   UNL     1       9.032  -0.884   7.065  1.00  0.00    -0.248 NA
ATOM     61  C   UNL     1       9.777  -3.069   6.704  1.00  0.00     0.031 C 
ATOM     62  C   UNL     1       9.850   1.438  10.780  1.00  0.00     0.029 A 
ATOM     63  C   UNL     1       9.608   0.702   9.630  1.00  0.00     0.049 A 
ATOM     64  H   UNL     1       8.661   1.307   7.846  1.00  0.00     0.167 HD
ATOM     65  C   UNL     1       9.688  -1.331   8.204  1.00  0.00     0.074 A 
ATOM     66  C   UNL     1      10.084  -2.702   7.941  1.00  0.00     0.031 C 
ATOM     67  C   UNL     1       9.956  -0.669   9.357  1.00  0.00     0.034 A 
BRANCH  54  68
ATOM     68  C   UNL     1       8.085   5.232   9.438  1.00  0.00     0.023 A 
ATOM     69  C   UNL     1       6.863   5.730   9.933  1.00  0.00     0.012 A 
ATOM     70  C   UNL     1       9.270   5.961   9.667  1.00  0.00     0.148 A 
ATOM     71  C   UNL     1       6.816   6.950  10.609  1.00  0.00     0.002 A 
ATOM     72  C   UNL     1       9.222   7.150  10.386  1.00  0.00     0.091 A 
ATOM     73  F   UNL     1      10.419   5.486   9.167  1.00  0.00    -0.205 F 
ATOM     74  C   UNL     1       7.995   7.654  10.845  1.00  0.00     0.022 A 
BRANCH  72  75
ATOM     75  S   UNL     1      10.697   8.084  10.811  1.00  0.00     0.127 S 
ATOM     76  O   UNL     1      10.538   9.279   9.984  1.00  0.00    -0.237 OA
ATOM     77  O   UNL     1      10.514   8.306  12.245  1.00  0.00    -0.237 OA
ATOM     78  O   UNL     1      11.827   7.232  10.467  1.00  0.00    -0.744 OA
ENDBRANCH  72  75
ENDBRANCH  54  68
BRANCH  55  79
ATOM     79  C   UNL     1       8.590  -3.211   4.016  1.00  0.00     0.023 A 
ATOM     80  C   UNL     1       7.924  -4.380   4.430  1.00  0.00     0.012 A 
ATOM     81  C   UNL     1       9.319  -3.229   2.809  1.00  0.00     0.148 A 
ATOM     82  C   UNL     1       8.007  -5.551   3.674  1.00  0.00     0.002 A 
ATOM     83  C   UNL     1       9.340  -4.377   2.027  1.00  0.00     0.091 A 
ATOM     84  F   UNL     1       9.962  -2.112   2.438  1.00  0.00    -0.205 F 
ATOM     85  C   UNL     1       8.703  -5.546   2.468  1.00  0.00     0.022 A 
BRANCH  83  86
ATOM     86  S   UNL     1      10.088  -4.414   0.393  1.00  0.00     0.127 S 
ATOM     87  O   UNL     1      11.263  -5.250   0.622  1.00  0.00    -0.237 OA
ATOM     88  O   UNL     1       9.035  -5.036  -0.412  1.00  0.00    -0.237 OA
ATOM     89  O   UNL     1      10.356  -3.024   0.050  1.00  0.00    -0.744 OA
ENDBRANCH  83  86
ENDBRANCH  55  79
BRANCH  67  90
ATOM     90  C   UNL     1      10.671  -1.440  10.434  1.00  0.00     0.023 A 
ATOM     91  C   UNL     1      12.026  -1.792  10.272  1.00  0.00     0.012 A 
ATOM     92  C   UNL     1      10.003  -1.789  11.624  1.00  0.00     0.148 A 
ATOM     93  C   UNL     1      12.689  -2.526  11.254  1.00  0.00     0.002 A 
ATOM     94  C   UNL     1      10.687  -2.469  12.623  1.00  0.00     0.091 A 
ATOM     95  F   UNL     1       8.709  -1.461  11.751  1.00  0.00    -0.205 F 
ATOM     96  C   UNL     1      12.023  -2.855  12.433  1.00  0.00     0.022 A 
BRANCH  94  97
ATOM     97  S   UNL     1       9.938  -2.840  14.212  1.00  0.00     0.127 S 
ATOM     98  O   UNL     1       9.701  -4.278  14.101  1.00  0.00    -0.237 OA
ATOM     99  O   UNL     1      10.998  -2.466  15.149  1.00  0.00    -0.237 OA
ATOM    100  O   UNL     1       8.743  -2.011  14.294  1.00  0.00    -0.744 OA
ENDBRANCH  94  97
ENDBRANCH  67  90
ENDBRANCH  41  42
ENDBRANCH  34  36
ENDBRANCH  33  34
ENDBRANCH  32  33
ENDBRANCH   1  32
TORSDOF 19
