REMARK SMILES O=Cc1ccc2c(c1)C=C(C(=O)OCCOC(=O)c1ccc(-c3c4nc(c(-c5cccc(S(=O)(=O)[O-])c5F)c5ccc([nH]5)c(-c5cccc(S(=O)(=O)[O-])c5F)c5nc(c(-c6cccc(S(=O)(=O)[O-])c6F)c6ccc3[nH]6)C=C5)C=C4)cc1)[C@H](C(F)(F)F)O2
REMARK SMILES IDX 15 1 14 2 13 3 11 4 12 5 10 6 3 7 4 8 8 9 5 10 7 11 6 12
REMARK SMILES IDX 9 13 87 14 82 15 2 16 1 17 83 18 84 19 85 20 86 21 16 22
REMARK SMILES IDX 17 23 18 24 19 25 20 26 81 27 21 28 80 29 22 30 23 31 24 32
REMARK SMILES IDX 74 33 25 34 79 35 73 36 75 37 26 38 78 39 72 40 71 41 27 43
REMARK SMILES IDX 59 44 39 45 58 46 40 47 43 48 57 49 76 50 41 51 42 52 56 54
REMARK SMILES IDX 77 55 44 56 28 57 29 58 37 59 30 60 32 61 38 62 31 63 33 64
REMARK SMILES IDX 34 65 35 66 36 67 60 68 61 69 69 70 62 71 64 72 70 73 63 74
REMARK SMILES IDX 65 75 66 76 67 77 68 78 45 79 46 80 54 81 47 82 49 83 55 84
REMARK SMILES IDX 48 85 50 86 51 87 52 88 53 89
REMARK H PARENT 75 42 43 53
REMARK Flexibility Score: inf
ROOT
ATOM      1  C   UNL     1       9.626   6.409   0.779  1.00  0.00     0.275 C 
ENDROOT
BRANCH   1   2
ATOM      2  C   UNL     1       9.718   4.879   0.800  1.00  0.00     0.275 C 
BRANCH   2   3
ATOM      3  O   UNL     1       8.439   4.261   1.061  1.00  0.00    -0.459 OA
BRANCH   3   4
ATOM      4  C   UNL     1       8.311   3.668   2.279  1.00  0.00     0.338 C 
ATOM      5  O   UNL     1       9.177   3.624   3.130  1.00  0.00    -0.246 OA
BRANCH   4   6
ATOM      6  C   UNL     1       6.964   3.075   2.469  1.00  0.00     0.087 C 
ATOM      7  C   UNL     1       2.960   0.895   0.870  1.00  0.00     0.015 A 
ATOM      8  C   UNL     1       2.491   0.794   2.183  1.00  0.00     0.015 A 
ATOM      9  C   UNL     1       4.206   1.478   0.597  1.00  0.00     0.023 A 
ATOM     10  C   UNL     1       3.297   1.227   3.233  1.00  0.00     0.048 A 
ATOM     11  C   UNL     1       5.004   1.937   1.651  1.00  0.00     0.018 A 
ATOM     12  C   UNL     1       4.549   1.779   2.964  1.00  0.00     0.128 A 
ATOM     13  C   UNL     1       6.323   2.524   1.422  1.00  0.00     0.027 C 
ATOM     14  O   UNL     1       5.330   2.064   4.045  1.00  0.00    -0.475 OA
ATOM     15  C   UNL     1       6.338   3.097   3.856  1.00  0.00     0.316 C 
BRANCH   7  16
ATOM     16  C   UNL     1       2.156   0.344  -0.239  1.00  0.00     0.260 C 
ATOM     17  O   UNL     1       1.033  -0.114  -0.073  1.00  0.00    -0.298 OA
ENDBRANCH   7  16
BRANCH  15  18
ATOM     18  C   UNL     1       7.265   3.055   5.087  1.00  0.00     0.430 C 
ATOM     19  F   UNL     1       7.960   4.204   5.233  1.00  0.00    -0.167 F 
ATOM     20  F   UNL     1       6.529   2.921   6.221  1.00  0.00    -0.167 F 
ATOM     21  F   UNL     1       8.126   2.016   5.047  1.00  0.00    -0.167 F 
ENDBRANCH  15  18
ENDBRANCH   4   6
ENDBRANCH   3   4
ENDBRANCH   2   3
ENDBRANCH   1   2
BRANCH   1  22
ATOM     22  O   UNL     1       9.175   6.932   2.040  1.00  0.00    -0.458 OA
BRANCH  22  23
ATOM     23  C   UNL     1       7.842   7.160   2.113  1.00  0.00     0.338 C 
ATOM     24  O   UNL     1       7.031   7.024   1.209  1.00  0.00    -0.246 OA
BRANCH  23  25
ATOM     25  C   UNL     1       7.439   7.402   3.513  1.00  0.00     0.060 A 
ATOM     26  C   UNL     1       6.324   6.693   3.968  1.00  0.00     0.016 A 
ATOM     27  C   UNL     1       8.097   8.291   4.365  1.00  0.00     0.016 A 
ATOM     28  C   UNL     1       5.903   6.807   5.291  1.00  0.00     0.010 A 
ATOM     29  C   UNL     1       7.640   8.449   5.682  1.00  0.00     0.010 A 
ATOM     30  C   UNL     1       6.549   7.698   6.155  1.00  0.00    -0.014 A 
BRANCH  30  31
ATOM     31  C   UNL     1       5.982   7.910   7.509  1.00  0.00     0.031 A 
ATOM     32  C   UNL     1       4.923   8.958   7.700  1.00  0.00     0.074 A 
ATOM     33  C   UNL     1       6.357   7.135   8.544  1.00  0.00     0.049 A 
ATOM     34  N   UNL     1       4.259   9.277   8.780  1.00  0.00    -0.248 NA
ATOM     35  C   UNL     1       4.552   9.739   6.509  1.00  0.00     0.031 C 
ATOM     36  C   UNL     1       7.334   6.049   8.480  1.00  0.00     0.029 A 
ATOM     37  N   UNL     1       5.957   7.151   9.858  1.00  0.00    -0.354 N 
ATOM     38  C   UNL     1       3.393  10.296   8.404  1.00  0.00     0.074 A 
ATOM     39  C   UNL     1       3.625  10.550   6.998  1.00  0.00     0.031 C 
ATOM     40  C   UNL     1       7.478   5.520   9.709  1.00  0.00     0.029 A 
ATOM     41  C   UNL     1       6.620   6.241  10.648  1.00  0.00     0.049 A 
ATOM     42  H   UNL     1       5.261   7.757  10.203  1.00  0.00     0.167 HD
ATOM     43  C   UNL     1       2.477  10.952   9.156  1.00  0.00     0.034 A 
ATOM     44  C   UNL     1       6.553   6.030  11.979  1.00  0.00     0.034 A 
ATOM     45  C   UNL     1       2.260  10.719  10.558  1.00  0.00     0.049 A 
ATOM     46  C   UNL     1       5.588   6.843  12.809  1.00  0.00     0.074 A 
ATOM     47  C   UNL     1       1.362  11.345  11.405  1.00  0.00     0.029 A 
ATOM     48  N   UNL     1       2.958   9.800  11.326  1.00  0.00    -0.354 N 
ATOM     49  N   UNL     1       4.710   7.737  12.423  1.00  0.00    -0.248 NA
ATOM     50  C   UNL     1       5.583   6.591  14.259  1.00  0.00     0.031 C 
ATOM     51  C   UNL     1       1.541  10.829  12.692  1.00  0.00     0.029 A 
ATOM     52  C   UNL     1       2.520   9.851  12.639  1.00  0.00     0.049 A 
ATOM     53  H   UNL     1       3.662   9.201  10.989  1.00  0.00     0.167 HD
ATOM     54  C   UNL     1       4.019   8.116  13.570  1.00  0.00     0.074 A 
ATOM     55  C   UNL     1       4.567   7.340  14.663  1.00  0.00     0.031 C 
ATOM     56  C   UNL     1       3.027   9.031  13.710  1.00  0.00     0.034 A 
BRANCH  43  57
ATOM     57  C   UNL     1       1.632  11.989   8.466  1.00  0.00     0.023 A 
ATOM     58  C   UNL     1       0.615  11.580   7.579  1.00  0.00     0.012 A 
ATOM     59  C   UNL     1       1.810  13.360   8.730  1.00  0.00     0.148 A 
ATOM     60  C   UNL     1      -0.190  12.522   6.940  1.00  0.00     0.002 A 
ATOM     61  C   UNL     1       0.976  14.291   8.124  1.00  0.00     0.091 A 
ATOM     62  F   UNL     1       2.796  13.727   9.562  1.00  0.00    -0.205 F 
ATOM     63  C   UNL     1      -0.016  13.875   7.220  1.00  0.00     0.022 A 
BRANCH  61  64
ATOM     64  S   UNL     1       1.071  16.050   8.471  1.00  0.00     0.127 S 
ATOM     65  O   UNL     1       1.548  16.577   7.193  1.00  0.00    -0.237 OA
ATOM     66  O   UNL     1      -0.321  16.376   8.783  1.00  0.00    -0.237 OA
ATOM     67  O   UNL     1       1.996  16.193   9.586  1.00  0.00    -0.744 OA
ENDBRANCH  61  64
ENDBRANCH  43  57
BRANCH  44  68
ATOM     68  C   UNL     1       7.409   4.995  12.631  1.00  0.00     0.023 A 
ATOM     69  C   UNL     1       6.809   3.872  13.235  1.00  0.00     0.012 A 
ATOM     70  C   UNL     1       8.808   5.144  12.702  1.00  0.00     0.148 A 
ATOM     71  C   UNL     1       7.579   2.945  13.939  1.00  0.00     0.002 A 
ATOM     72  C   UNL     1       9.575   4.188  13.357  1.00  0.00     0.091 A 
ATOM     73  F   UNL     1       9.361   6.228  12.140  1.00  0.00    -0.205 F 
ATOM     74  C   UNL     1       8.961   3.099  13.995  1.00  0.00     0.022 A 
BRANCH  72  75
ATOM     75  S   UNL     1      11.370   4.248  13.393  1.00  0.00     0.127 S 
ATOM     76  O   UNL     1      11.630   4.553  14.798  1.00  0.00    -0.237 OA
ATOM     77  O   UNL     1      11.726   2.890  12.982  1.00  0.00    -0.237 OA
ATOM     78  O   UNL     1      11.749   5.285  12.443  1.00  0.00    -0.744 OA
ENDBRANCH  72  75
ENDBRANCH  44  68
BRANCH  56  79
ATOM     79  C   UNL     1       2.420   9.211  15.080  1.00  0.00     0.023 A 
ATOM     80  C   UNL     1       3.162   9.821  16.111  1.00  0.00     0.012 A 
ATOM     81  C   UNL     1       1.083   8.833  15.325  1.00  0.00     0.148 A 
ATOM     82  C   UNL     1       2.600  10.013  17.373  1.00  0.00     0.002 A 
ATOM     83  C   UNL     1       0.512   9.077  16.569  1.00  0.00     0.091 A 
ATOM     84  F   UNL     1       0.395   8.240  14.339  1.00  0.00    -0.205 F 
ATOM     85  C   UNL     1       1.274   9.653  17.599  1.00  0.00     0.022 A 
BRANCH  83  86
ATOM     86  S   UNL     1      -1.218   8.741  16.920  1.00  0.00     0.127 S 
ATOM     87  O   UNL     1      -1.121   7.589  17.816  1.00  0.00    -0.237 OA
ATOM     88  O   UNL     1      -1.649   9.981  17.566  1.00  0.00    -0.237 OA
ATOM     89  O   UNL     1      -1.846   8.479  15.632  1.00  0.00    -0.744 OA
ENDBRANCH  83  86
ENDBRANCH  56  79
ENDBRANCH  30  31
ENDBRANCH  23  25
ENDBRANCH  22  23
ENDBRANCH   1  22
TORSDOF 16
