REMARK SMILES CC(C)CN(C)c1cc2c(cc1Cl)C=C(C(=O)OCCOC(=O)c1ccc(-c3c4nc(c(-c5cccc(S(=O)(=O)[O-])c5F)c5ccc([nH]5)c(-c5cccc(S(=O)(=O)[O-])c5F)c5nc(c(-c6cccc(S(=O)(=O)[O-])c6F)c6ccc3[nH]6)C=C5)C=C4)cc1)[C@@H](C(F)(F)F)O2
REMARK SMILES IDX 19 1 18 2 16 3 17 4 15 5 7 6 8 7 12 8 9 9 11 10 13 11 10 12
REMARK SMILES IDX 92 13 14 14 87 15 5 16 6 17 4 18 2 19 1 20 3 21 88 22 89 23
REMARK SMILES IDX 90 24 91 25 20 26 21 27 22 28 23 29 24 30 25 31 86 32 26 33
REMARK SMILES IDX 85 34 27 35 28 36 29 37 79 38 30 39 84 40 78 41 80 42 31 43
REMARK SMILES IDX 83 44 77 45 76 46 32 48 64 49 44 50 63 51 45 52 48 53 62 54
REMARK SMILES IDX 81 55 46 56 47 57 61 59 82 60 49 61 33 62 34 63 42 64 35 65
REMARK SMILES IDX 37 66 43 67 36 68 38 69 39 70 40 71 41 72 65 73 66 74 74 75
REMARK SMILES IDX 67 76 69 77 75 78 68 79 70 80 71 81 72 82 73 83 50 84 51 85
REMARK SMILES IDX 59 86 52 87 54 88 60 89 53 90 55 91 56 92 57 93 58 94
REMARK H PARENT 80 47 48 58
REMARK Flexibility Score: inf
ROOT
ATOM      1  C   UNL     1      -1.481  -2.623   8.970  1.00  0.00     0.275 C 
ENDROOT
BRANCH   1   2
ATOM      2  O   UNL     1      -1.812  -2.083   7.671  1.00  0.00    -0.459 OA
BRANCH   2   3
ATOM      3  C   UNL     1      -1.006  -1.077   7.256  1.00  0.00     0.338 C 
ATOM      4  O   UNL     1      -0.066  -0.611   7.884  1.00  0.00    -0.246 OA
BRANCH   3   5
ATOM      5  C   UNL     1      -1.360  -0.614   5.902  1.00  0.00     0.087 C 
ATOM      6  C   UNL     1      -1.155   1.318   1.245  1.00  0.00     0.059 A 
ATOM      7  C   UNL     1      -2.180   0.724   2.016  1.00  0.00     0.074 A 
ATOM      8  C   UNL     1       0.096   1.522   1.864  1.00  0.00     0.065 A 
ATOM      9  C   UNL     1      -1.939   0.288   3.324  1.00  0.00     0.130 A 
ATOM     10  C   UNL     1       0.362   1.000   3.124  1.00  0.00     0.034 A 
ATOM     11  Cl  UNL     1       1.353   2.462   1.137  1.00  0.00    -0.082 Cl
ATOM     12  C   UNL     1      -0.651   0.373   3.843  1.00  0.00     0.019 A 
ATOM     13  O   UNL     1      -2.982  -0.248   4.039  1.00  0.00    -0.475 OA
ATOM     14  C   UNL     1      -0.348  -0.194   5.136  1.00  0.00     0.027 C 
ATOM     15  C   UNL     1      -2.790  -0.421   5.482  1.00  0.00     0.316 C 
BRANCH   6  16
ATOM     16  N   UNL     1      -1.367   1.666  -0.092  1.00  0.00    -0.373 N 
ATOM     17  C   UNL     1      -2.352   2.703  -0.346  1.00  0.00     0.143 C 
BRANCH  16  18
ATOM     18  C   UNL     1      -1.154   0.625  -1.119  1.00  0.00     0.119 C 
BRANCH  18  19
ATOM     19  C   UNL     1       0.338   0.408  -1.461  1.00  0.00     0.002 C 
ATOM     20  C   UNL     1       0.953  -0.747  -0.664  1.00  0.00     0.009 C 
ATOM     21  C   UNL     1       0.535   0.128  -2.954  1.00  0.00     0.009 C 
ENDBRANCH  18  19
ENDBRANCH  16  18
ENDBRANCH   6  16
BRANCH  15  22
ATOM     22  C   UNL     1      -3.387   0.768   6.257  1.00  0.00     0.430 C 
ATOM     23  F   UNL     1      -4.676   0.998   5.911  1.00  0.00    -0.167 F 
ATOM     24  F   UNL     1      -3.384   0.530   7.593  1.00  0.00    -0.167 F 
ATOM     25  F   UNL     1      -2.703   1.917   6.056  1.00  0.00    -0.167 F 
ENDBRANCH  15  22
ENDBRANCH   3   5
ENDBRANCH   2   3
ENDBRANCH   1   2
BRANCH   1  26
ATOM     26  C   UNL     1      -0.710  -3.941   8.869  1.00  0.00     0.275 C 
BRANCH  26  27
ATOM     27  O   UNL     1       0.580  -3.741   8.263  1.00  0.00    -0.458 OA
BRANCH  27  28
ATOM     28  C   UNL     1       0.713  -4.231   7.008  1.00  0.00     0.338 C 
ATOM     29  O   UNL     1      -0.128  -4.826   6.356  1.00  0.00    -0.246 OA
BRANCH  28  30
ATOM     30  C   UNL     1       2.037  -3.876   6.473  1.00  0.00     0.060 A 
ATOM     31  C   UNL     1       3.014  -4.838   6.248  1.00  0.00     0.016 A 
ATOM     32  C   UNL     1       2.240  -2.569   6.047  1.00  0.00     0.016 A 
ATOM     33  C   UNL     1       4.205  -4.465   5.609  1.00  0.00     0.010 A 
ATOM     34  C   UNL     1       3.364  -2.230   5.297  1.00  0.00     0.010 A 
ATOM     35  C   UNL     1       4.385  -3.163   5.091  1.00  0.00    -0.014 A 
BRANCH  35  36
ATOM     36  C   UNL     1       5.619  -2.787   4.335  1.00  0.00     0.031 A 
ATOM     37  C   UNL     1       6.460  -1.594   4.743  1.00  0.00     0.074 A 
ATOM     38  C   UNL     1       5.973  -3.493   3.239  1.00  0.00     0.049 A 
ATOM     39  N   UNL     1       7.577  -1.159   4.215  1.00  0.00    -0.248 NA
ATOM     40  C   UNL     1       5.978  -0.759   5.858  1.00  0.00     0.031 C 
ATOM     41  C   UNL     1       5.196  -4.586   2.645  1.00  0.00     0.029 A 
ATOM     42  N   UNL     1       7.084  -3.411   2.433  1.00  0.00    -0.354 N 
ATOM     43  C   UNL     1       7.892   0.017   4.889  1.00  0.00     0.074 A 
ATOM     44  C   UNL     1       6.835   0.252   5.843  1.00  0.00     0.031 C 
ATOM     45  C   UNL     1       5.889  -5.122   1.629  1.00  0.00     0.029 A 
ATOM     46  C   UNL     1       7.144  -4.396   1.472  1.00  0.00     0.049 A 
ATOM     47  H   UNL     1       7.771  -2.713   2.534  1.00  0.00     0.167 HD
ATOM     48  C   UNL     1       8.986   0.805   4.767  1.00  0.00     0.034 A 
ATOM     49  C   UNL     1       8.113  -4.705   0.586  1.00  0.00     0.034 A 
ATOM     50  C   UNL     1      10.101   0.508   3.914  1.00  0.00     0.049 A 
ATOM     51  C   UNL     1       9.376  -3.891   0.559  1.00  0.00     0.074 A 
ATOM     52  C   UNL     1      11.315   1.168   3.830  1.00  0.00     0.029 A 
ATOM     53  N   UNL     1      10.151  -0.545   3.017  1.00  0.00    -0.354 N 
ATOM     54  N   UNL     1       9.715  -2.878   1.317  1.00  0.00    -0.248 NA
ATOM     55  C   UNL     1      10.399  -4.276  -0.425  1.00  0.00     0.031 C 
ATOM     56  C   UNL     1      12.103   0.510   2.884  1.00  0.00     0.029 A 
ATOM     57  C   UNL     1      11.378  -0.558   2.380  1.00  0.00     0.049 A 
ATOM     58  H   UNL     1       9.423  -1.187   2.857  1.00  0.00     0.167 HD
ATOM     59  C   UNL     1      10.996  -2.518   0.919  1.00  0.00     0.074 A 
ATOM     60  C   UNL     1      11.382  -3.431  -0.136  1.00  0.00     0.031 C 
ATOM     61  C   UNL     1      11.773  -1.508   1.376  1.00  0.00     0.034 A 
BRANCH  48  62
ATOM     62  C   UNL     1       9.104   2.015   5.656  1.00  0.00     0.023 A 
ATOM     63  C   UNL     1       9.474   1.837   7.005  1.00  0.00     0.012 A 
ATOM     64  C   UNL     1       8.986   3.318   5.135  1.00  0.00     0.148 A 
ATOM     65  C   UNL     1       9.712   2.937   7.826  1.00  0.00     0.002 A 
ATOM     66  C   UNL     1       9.257   4.411   5.952  1.00  0.00     0.091 A 
ATOM     67  F   UNL     1       8.634   3.462   3.849  1.00  0.00    -0.205 F 
ATOM     68  C   UNL     1       9.614   4.221   7.298  1.00  0.00     0.022 A 
BRANCH  66  69
ATOM     69  S   UNL     1       9.226   6.108   5.362  1.00  0.00     0.127 S 
ATOM     70  O   UNL     1       8.191   6.697   6.211  1.00  0.00    -0.237 OA
ATOM     71  O   UNL     1      10.586   6.557   5.660  1.00  0.00    -0.237 OA
ATOM     72  O   UNL     1       8.895   6.040   3.946  1.00  0.00    -0.744 OA
ENDBRANCH  66  69
ENDBRANCH  48  62
BRANCH  49  73
ATOM     73  C   UNL     1       7.977  -5.926  -0.257  1.00  0.00     0.023 A 
ATOM     74  C   UNL     1       8.726  -7.069   0.084  1.00  0.00     0.012 A 
ATOM     75  C   UNL     1       7.087  -5.984  -1.346  1.00  0.00     0.148 A 
ATOM     76  C   UNL     1       8.602  -8.247  -0.652  1.00  0.00     0.002 A 
ATOM     77  C   UNL     1       6.940  -7.173  -2.052  1.00  0.00     0.091 A 
ATOM     78  F   UNL     1       6.391  -4.882  -1.655  1.00  0.00    -0.205 F 
ATOM     79  C   UNL     1       7.703  -8.302  -1.713  1.00  0.00     0.022 A 
BRANCH  77  80
ATOM     80  S   UNL     1       5.737  -7.376  -3.371  1.00  0.00     0.127 S 
ATOM     81  O   UNL     1       6.599  -7.531  -4.540  1.00  0.00    -0.237 OA
ATOM     82  O   UNL     1       5.038  -8.593  -2.955  1.00  0.00    -0.237 OA
ATOM     83  O   UNL     1       4.918  -6.172  -3.347  1.00  0.00    -0.744 OA
ENDBRANCH  77  80
ENDBRANCH  49  73
BRANCH  61  84
ATOM     84  C   UNL     1      13.132  -1.321   0.765  1.00  0.00     0.023 A 
ATOM     85  C   UNL     1      13.242  -0.658  -0.471  1.00  0.00     0.012 A 
ATOM     86  C   UNL     1      14.295  -1.664   1.481  1.00  0.00     0.148 A 
ATOM     87  C   UNL     1      14.495  -0.340  -0.991  1.00  0.00     0.002 A 
ATOM     88  C   UNL     1      15.540  -1.314   0.974  1.00  0.00     0.091 A 
ATOM     89  F   UNL     1      14.158  -2.301   2.653  1.00  0.00    -0.205 F 
ATOM     90  C   UNL     1      15.642  -0.656  -0.264  1.00  0.00     0.022 A 
BRANCH  88  91
ATOM     91  S   UNL     1      17.068  -1.604   1.872  1.00  0.00     0.127 S 
ATOM     92  O   UNL     1      17.718  -2.612   1.036  1.00  0.00    -0.237 OA
ATOM     93  O   UNL     1      17.700  -0.285   1.841  1.00  0.00    -0.237 OA
ATOM     94  O   UNL     1      16.677  -2.059   3.200  1.00  0.00    -0.744 OA
ENDBRANCH  88  91
ENDBRANCH  61  84
ENDBRANCH  35  36
ENDBRANCH  28  30
ENDBRANCH  27  28
ENDBRANCH  26  27
ENDBRANCH   1  26
TORSDOF 18
