REMARK SMILES CCn1cc(C(=O)/C=C/c2cccc(O[C@H](C)C(=O)OCCOC(=O)c3ccc(-c4c5nc(c(-c6cccc(S(=O)(=O)[O-])c6F)c6ccc([nH]6)c(-c6cccc(S(=O)(=O)[O-])c6F)c6nc(c(-c7cccc(S(=O)(=O)[O-])c7F)c7ccc4[nH]7)C=C6)C=C5)cc3)c2)cn1
REMARK SMILES IDX 20 1 18 2 19 3 16 4 17 5 15 6 14 7 10 8 11 9 89 10 12 11
REMARK SMILES IDX 13 12 9 13 8 14 6 15 7 16 5 17 3 18 4 19 91 20 90 21 2 22
REMARK SMILES IDX 1 23 21 24 22 25 23 26 24 27 25 28 26 29 27 30 88 31 28 32
REMARK SMILES IDX 87 33 29 34 30 35 31 36 81 37 32 38 86 39 80 40 82 41 33 42
REMARK SMILES IDX 85 43 79 44 78 45 34 47 66 48 46 49 65 50 47 51 50 52 64 53
REMARK SMILES IDX 83 54 48 55 49 56 63 58 84 59 51 60 35 61 36 62 44 63 37 64
REMARK SMILES IDX 39 65 45 66 38 67 40 68 41 69 42 70 43 71 67 72 68 73 76 74
REMARK SMILES IDX 69 75 71 76 77 77 70 78 72 79 73 80 74 81 75 82 52 83 53 84
REMARK SMILES IDX 61 85 54 86 56 87 62 88 55 89 57 90 58 91 59 92 60 93
REMARK H PARENT 82 46 50 57
REMARK Flexibility Score: inf
ROOT
ATOM      1  O   UNL     1      -2.463   7.609  -1.945  1.00  0.00    -0.459 OA
ENDROOT
BRANCH   1   2
ATOM      2  C   UNL     1      -2.848   8.810  -2.463  1.00  0.00     0.347 C 
ATOM      3  O   UNL     1      -3.231   8.963  -3.619  1.00  0.00    -0.248 OA
BRANCH   2   4
ATOM      4  C   UNL     1      -2.801   9.949  -1.427  1.00  0.00     0.279 C 
ATOM      5  C   UNL     1      -2.452   9.495   0.001  1.00  0.00     0.066 C 
BRANCH   4   6
ATOM      6  O   UNL     1      -2.056  11.047  -2.006  1.00  0.00    -0.479 OA
BRANCH   6   7
ATOM      7  C   UNL     1      -0.946  11.483  -1.347  1.00  0.00     0.121 A 
ATOM      8  C   UNL     1       1.454  11.823  -1.357  1.00  0.00    -0.022 A 
ATOM      9  C   UNL     1       1.371  12.212  -0.010  1.00  0.00     0.008 A 
ATOM     10  C   UNL     1       0.281  11.428  -2.014  1.00  0.00     0.054 A 
ATOM     11  C   UNL     1       0.139  12.330   0.628  1.00  0.00     0.004 A 
ATOM     12  C   UNL     1      -1.024  12.027  -0.066  1.00  0.00     0.046 A 
BRANCH   8  13
ATOM     13  C   UNL     1       2.791  11.829  -1.971  1.00  0.00     0.012 C 
ATOM     14  C   UNL     1       3.072  11.858  -3.283  1.00  0.00     0.053 C 
BRANCH  14  15
ATOM     15  C   UNL     1       4.440  11.949  -3.875  1.00  0.00     0.189 C 
ATOM     16  O   UNL     1       4.581  12.513  -4.957  1.00  0.00    -0.289 OA
BRANCH  15  17
ATOM     17  C   UNL     1       5.568  11.370  -3.160  1.00  0.00     0.060 A 
ATOM     18  N   UNL     1       6.935  10.316  -1.778  1.00  0.00    -0.272 N 
ATOM     19  C   UNL     1       5.615  10.494  -2.092  1.00  0.00     0.120 A 
ATOM     20  N   UNL     1       7.765  10.941  -2.629  1.00  0.00    -0.181 NA
ATOM     21  C   UNL     1       6.937  11.566  -3.472  1.00  0.00     0.147 A 
BRANCH  18  22
ATOM     22  C   UNL     1       7.424   9.576  -0.629  1.00  0.00     0.141 C 
ATOM     23  C   UNL     1       8.935   9.481  -0.493  1.00  0.00     0.029 C 
ENDBRANCH  18  22
ENDBRANCH  15  17
ENDBRANCH  14  15
ENDBRANCH   8  13
ENDBRANCH   6   7
ENDBRANCH   4   6
ENDBRANCH   2   4
ENDBRANCH   1   2
BRANCH   1  24
ATOM     24  C   UNL     1      -2.823   6.433  -2.693  1.00  0.00     0.274 C 
BRANCH  24  25
ATOM     25  C   UNL     1      -4.075   5.774  -2.115  1.00  0.00     0.275 C 
BRANCH  25  26
ATOM     26  O   UNL     1      -5.258   6.547  -2.348  1.00  0.00    -0.458 OA
BRANCH  26  27
ATOM     27  C   UNL     1      -5.520   7.427  -1.360  1.00  0.00     0.338 C 
ATOM     28  O   UNL     1      -4.755   7.800  -0.490  1.00  0.00    -0.246 OA
BRANCH  27  29
ATOM     29  C   UNL     1      -6.930   7.769  -1.267  1.00  0.00     0.060 A 
ATOM     30  C   UNL     1      -7.244   8.920  -0.531  1.00  0.00     0.016 A 
ATOM     31  C   UNL     1      -7.869   6.778  -1.557  1.00  0.00     0.016 A 
ATOM     32  C   UNL     1      -8.489   9.013   0.047  1.00  0.00     0.010 A 
ATOM     33  C   UNL     1      -9.107   6.868  -0.966  1.00  0.00     0.010 A 
ATOM     34  C   UNL     1      -9.379   7.952  -0.126  1.00  0.00    -0.014 A 
BRANCH  34  35
ATOM     35  C   UNL     1     -10.667   8.038   0.531  1.00  0.00     0.031 A 
ATOM     36  C   UNL     1     -11.619   8.956  -0.135  1.00  0.00     0.074 A 
ATOM     37  C   UNL     1     -11.000   7.207   1.535  1.00  0.00     0.049 A 
ATOM     38  N   UNL     1     -12.246   9.963   0.377  1.00  0.00    -0.248 NA
ATOM     39  C   UNL     1     -11.799   8.804  -1.589  1.00  0.00     0.031 C 
ATOM     40  C   UNL     1     -10.221   6.067   2.028  1.00  0.00     0.029 A 
ATOM     41  N   UNL     1     -12.189   7.087   2.189  1.00  0.00    -0.354 N 
ATOM     42  C   UNL     1     -13.072  10.428  -0.643  1.00  0.00     0.074 A 
ATOM     43  C   UNL     1     -12.617   9.817  -1.862  1.00  0.00     0.031 C 
ATOM     44  C   UNL     1     -11.052   5.223   2.676  1.00  0.00     0.029 A 
ATOM     45  C   UNL     1     -12.377   5.817   2.726  1.00  0.00     0.049 A 
ATOM     46  H   UNL     1     -12.843   7.818   2.272  1.00  0.00     0.167 HD
ATOM     47  C   UNL     1     -14.241  11.068  -0.379  1.00  0.00     0.034 A 
ATOM     48  C   UNL     1     -13.563   5.255   3.058  1.00  0.00     0.034 A 
ATOM     49  C   UNL     1     -14.297  11.562   0.970  1.00  0.00     0.049 A 
ATOM     50  C   UNL     1     -14.562   6.341   3.185  1.00  0.00     0.074 A 
ATOM     51  C   UNL     1     -13.524  12.412   1.734  1.00  0.00     0.029 A 
ATOM     52  N   UNL     1     -15.110  10.889   1.848  1.00  0.00    -0.354 N 
ATOM     53  N   UNL     1     -14.551   7.238   4.131  1.00  0.00    -0.248 NA
ATOM     54  C   UNL     1     -15.391   6.661   2.034  1.00  0.00     0.031 C 
ATOM     55  C   UNL     1     -13.600  11.894   3.059  1.00  0.00     0.029 A 
ATOM     56  C   UNL     1     -14.431  10.772   3.031  1.00  0.00     0.049 A 
ATOM     57  H   UNL     1     -16.015  10.553   1.661  1.00  0.00     0.167 HD
ATOM     58  C   UNL     1     -14.992   8.400   3.513  1.00  0.00     0.074 A 
ATOM     59  C   UNL     1     -15.628   7.952   2.278  1.00  0.00     0.031 C 
ATOM     60  C   UNL     1     -14.532   9.625   3.908  1.00  0.00     0.034 A 
BRANCH  47  61
ATOM     61  C   UNL     1     -15.480  10.930  -1.228  1.00  0.00     0.023 A 
ATOM     62  C   UNL     1     -16.546  11.817  -0.969  1.00  0.00     0.012 A 
ATOM     63  C   UNL     1     -15.753   9.824  -2.066  1.00  0.00     0.148 A 
ATOM     64  C   UNL     1     -17.827  11.590  -1.484  1.00  0.00     0.002 A 
ATOM     65  C   UNL     1     -17.001   9.657  -2.652  1.00  0.00     0.091 A 
ATOM     66  F   UNL     1     -14.860   8.837  -2.195  1.00  0.00    -0.205 F 
ATOM     67  C   UNL     1     -18.052  10.518  -2.339  1.00  0.00     0.022 A 
BRANCH  65  68
ATOM     68  S   UNL     1     -17.298   8.328  -3.822  1.00  0.00     0.127 S 
ATOM     69  O   UNL     1     -17.917   7.318  -2.971  1.00  0.00    -0.237 OA
ATOM     70  O   UNL     1     -18.197   8.963  -4.787  1.00  0.00    -0.237 OA
ATOM     71  O   UNL     1     -15.983   8.004  -4.364  1.00  0.00    -0.744 OA
ENDBRANCH  65  68
ENDBRANCH  47  61
BRANCH  48  72
ATOM     72  C   UNL     1     -13.959   3.827   3.027  1.00  0.00     0.023 A 
ATOM     73  C   UNL     1     -15.079   3.407   3.768  1.00  0.00     0.012 A 
ATOM     74  C   UNL     1     -13.403   2.924   2.093  1.00  0.00     0.148 A 
ATOM     75  C   UNL     1     -15.643   2.141   3.569  1.00  0.00     0.002 A 
ATOM     76  C   UNL     1     -13.952   1.657   1.916  1.00  0.00     0.091 A 
ATOM     77  F   UNL     1     -12.401   3.333   1.304  1.00  0.00    -0.205 F 
ATOM     78  C   UNL     1     -15.081   1.267   2.642  1.00  0.00     0.022 A 
BRANCH  76  79
ATOM     79  S   UNL     1     -13.258   0.486   0.740  1.00  0.00     0.127 S 
ATOM     80  O   UNL     1     -13.354  -0.779   1.469  1.00  0.00    -0.237 OA
ATOM     81  O   UNL     1     -14.172   0.613  -0.391  1.00  0.00    -0.237 OA
ATOM     82  O   UNL     1     -11.889   0.932   0.508  1.00  0.00    -0.744 OA
ENDBRANCH  76  79
ENDBRANCH  48  72
BRANCH  60  83
ATOM     83  C   UNL     1     -13.789   9.720   5.218  1.00  0.00     0.023 A 
ATOM     84  C   UNL     1     -12.593   9.008   5.450  1.00  0.00     0.012 A 
ATOM     85  C   UNL     1     -14.203  10.671   6.167  1.00  0.00     0.148 A 
ATOM     86  C   UNL     1     -11.850   9.209   6.614  1.00  0.00     0.002 A 
ATOM     87  C   UNL     1     -13.433  10.906   7.301  1.00  0.00     0.091 A 
ATOM     88  F   UNL     1     -15.336  11.352   5.935  1.00  0.00    -0.205 F 
ATOM     89  C   UNL     1     -12.263  10.168   7.535  1.00  0.00     0.022 A 
BRANCH  87  90
ATOM     90  S   UNL     1     -13.842  12.227   8.445  1.00  0.00     0.127 S 
ATOM     91  O   UNL     1     -14.562  11.513   9.496  1.00  0.00    -0.237 OA
ATOM     92  O   UNL     1     -12.525  12.730   8.839  1.00  0.00    -0.237 OA
ATOM     93  O   UNL     1     -14.630  13.182   7.673  1.00  0.00    -0.744 OA
ENDBRANCH  87  90
ENDBRANCH  60  83
ENDBRANCH  34  35
ENDBRANCH  27  29
ENDBRANCH  26  27
ENDBRANCH  25  26
ENDBRANCH  24  25
ENDBRANCH   1  24
TORSDOF 20
