REMARK SMILES Cc1cc(Br)cc2c1O[C@H](C(F)(F)F)C(C(=O)OCCOC(=O)c1ccc(-c3c4nc(c(-c5cccc(S(=O)(=O)[O-])c5F)c5ccc([nH]5)c(-c5cccc(S(=O)(=O)[O-])c5F)c5nc(c(-c6cccc(S(=O)(=O)[O-])c6F)c6ccc3[nH]6)C=C5)C=C4)cc1)=C2
REMARK SMILES IDX 20 1 19 2 18 3 16 4 17 5 15 6 1 7 2 8 3 9 8 10 4 11 7 12
REMARK SMILES IDX 9 13 5 14 6 15 87 16 10 17 11 18 12 19 13 20 14 21 21 22
REMARK SMILES IDX 22 23 23 24 24 25 25 26 86 27 26 28 85 29 27 30 28 31 29 32
REMARK SMILES IDX 79 33 30 34 84 35 78 36 80 37 31 38 83 39 77 40 76 41 32 43
REMARK SMILES IDX 64 44 44 45 63 46 45 47 48 48 62 49 81 50 46 51 47 52 61 54
REMARK SMILES IDX 82 55 49 56 33 57 34 58 42 59 35 60 37 61 43 62 36 63 38 64
REMARK SMILES IDX 39 65 40 66 41 67 65 68 66 69 74 70 67 71 69 72 75 73 68 74
REMARK SMILES IDX 70 75 71 76 72 77 73 78 50 79 51 80 59 81 52 82 54 83 60 84
REMARK SMILES IDX 53 85 55 86 56 87 57 88 58 89
REMARK H PARENT 80 42 48 53
REMARK Flexibility Score: inf
ROOT
ATOM      1  C   UNL     1      -0.588  -6.418   6.228  1.00  0.00     0.275 C 
ENDROOT
BRANCH   1   2
ATOM      2  C   UNL     1      -1.292  -6.264   4.880  1.00  0.00     0.275 C 
BRANCH   2   3
ATOM      3  O   UNL     1      -0.740  -5.167   4.119  1.00  0.00    -0.459 OA
BRANCH   3   4
ATOM      4  C   UNL     1      -1.504  -4.051   4.071  1.00  0.00     0.338 C 
ATOM      5  O   UNL     1      -2.609  -3.904   4.569  1.00  0.00    -0.246 OA
BRANCH   4   6
ATOM      6  C   UNL     1      -0.821  -2.982   3.319  1.00  0.00     0.087 C 
ATOM      7  C   UNL     1       1.155  -0.014  -0.401  1.00  0.00     0.048 C 
ATOM      8  C   UNL     1       0.655   0.178   1.001  1.00  0.00    -0.007 A 
ATOM      9  C   UNL     1       0.655   1.473   1.550  1.00  0.00     0.023 A 
ATOM     10  C   UNL     1       0.224  -0.900   1.789  1.00  0.00     0.130 A 
ATOM     11  C   UNL     1       0.221   1.688   2.856  1.00  0.00     0.019 A 
ATOM     12  C   UNL     1      -0.230  -0.669   3.090  1.00  0.00     0.019 A 
ATOM     13  O   UNL     1       0.288  -2.154   1.242  1.00  0.00    -0.475 OA
ATOM     14  Br  UNL     1       0.218   3.436   3.573  1.00  0.00    -0.051 Br
ATOM     15  C   UNL     1      -0.223   0.623   3.630  1.00  0.00     0.027 A 
ATOM     16  C   UNL     1      -0.751  -1.768   3.875  1.00  0.00     0.027 C 
ATOM     17  C   UNL     1      -0.380  -3.259   1.914  1.00  0.00     0.316 C 
BRANCH  17  18
ATOM     18  C   UNL     1      -1.557  -3.730   1.045  1.00  0.00     0.430 C 
ATOM     19  F   UNL     1      -1.164  -3.958  -0.233  1.00  0.00    -0.167 F 
ATOM     20  F   UNL     1      -2.076  -4.898   1.497  1.00  0.00    -0.167 F 
ATOM     21  F   UNL     1      -2.562  -2.827   1.003  1.00  0.00    -0.167 F 
ENDBRANCH  17  18
ENDBRANCH   4   6
ENDBRANCH   3   4
ENDBRANCH   2   3
ENDBRANCH   1   2
BRANCH   1  22
ATOM     22  O   UNL     1      -0.882  -5.296   7.079  1.00  0.00    -0.458 OA
BRANCH  22  23
ATOM     23  C   UNL     1       0.110  -4.385   7.193  1.00  0.00     0.338 C 
ATOM     24  O   UNL     1       1.222  -4.436   6.695  1.00  0.00    -0.246 OA
BRANCH  23  25
ATOM     25  C   UNL     1      -0.368  -3.213   7.940  1.00  0.00     0.060 A 
ATOM     26  C   UNL     1      -1.266  -2.363   7.311  1.00  0.00     0.016 A 
ATOM     27  C   UNL     1       0.203  -2.845   9.155  1.00  0.00     0.016 A 
ATOM     28  C   UNL     1      -1.455  -1.073   7.788  1.00  0.00     0.010 A 
ATOM     29  C   UNL     1      -0.132  -1.609   9.724  1.00  0.00     0.010 A 
ATOM     30  C   UNL     1      -0.920  -0.679   9.021  1.00  0.00    -0.014 A 
BRANCH  30  31
ATOM     31  C   UNL     1      -1.195   0.695   9.544  1.00  0.00     0.031 A 
ATOM     32  C   UNL     1      -0.067   1.605   9.969  1.00  0.00     0.074 A 
ATOM     33  C   UNL     1      -2.469   1.144   9.613  1.00  0.00     0.049 A 
ATOM     34  N   UNL     1      -0.129   2.784  10.533  1.00  0.00    -0.248 NA
ATOM     35  C   UNL     1       1.310   1.127   9.752  1.00  0.00     0.031 C 
ATOM     36  C   UNL     1      -3.657   0.375   9.231  1.00  0.00     0.029 A 
ATOM     37  N   UNL     1      -2.984   2.355  10.009  1.00  0.00    -0.354 N 
ATOM     38  C   UNL     1       1.186   3.155  10.800  1.00  0.00     0.074 A 
ATOM     39  C   UNL     1       2.028   2.072  10.343  1.00  0.00     0.031 C 
ATOM     40  C   UNL     1      -4.744   1.148   9.341  1.00  0.00     0.029 A 
ATOM     41  C   UNL     1      -4.356   2.431   9.909  1.00  0.00     0.049 A 
ATOM     42  H   UNL     1      -2.426   3.098  10.334  1.00  0.00     0.167 HD
ATOM     43  C   UNL     1       1.650   4.299  11.357  1.00  0.00     0.034 A 
ATOM     44  C   UNL     1      -5.220   3.403  10.265  1.00  0.00     0.034 A 
ATOM     45  C   UNL     1       0.812   5.405  11.737  1.00  0.00     0.049 A 
ATOM     46  C   UNL     1      -4.679   4.659  10.885  1.00  0.00     0.074 A 
ATOM     47  C   UNL     1       1.194   6.622  12.273  1.00  0.00     0.029 A 
ATOM     48  N   UNL     1      -0.568   5.439  11.608  1.00  0.00    -0.354 N 
ATOM     49  N   UNL     1      -3.431   5.000  11.091  1.00  0.00    -0.248 NA
ATOM     50  C   UNL     1      -5.657   5.666  11.319  1.00  0.00     0.031 C 
ATOM     51  C   UNL     1       0.042   7.381  12.495  1.00  0.00     0.029 A 
ATOM     52  C   UNL     1      -1.054   6.651  12.064  1.00  0.00     0.049 A 
ATOM     53  H   UNL     1      -1.120   4.708  11.246  1.00  0.00     0.167 HD
ATOM     54  C   UNL     1      -3.470   6.267  11.658  1.00  0.00     0.074 A 
ATOM     55  C   UNL     1      -4.866   6.644  11.742  1.00  0.00     0.031 C 
ATOM     56  C   UNL     1      -2.442   7.037  12.088  1.00  0.00     0.034 A 
BRANCH  43  57
ATOM     57  C   UNL     1       3.139   4.445  11.563  1.00  0.00     0.023 A 
ATOM     58  C   UNL     1       3.983   4.648  10.453  1.00  0.00     0.012 A 
ATOM     59  C   UNL     1       3.687   4.484  12.862  1.00  0.00     0.148 A 
ATOM     60  C   UNL     1       5.351   4.859  10.629  1.00  0.00     0.002 A 
ATOM     61  C   UNL     1       5.042   4.743  13.032  1.00  0.00     0.091 A 
ATOM     62  F   UNL     1       2.872   4.276  13.906  1.00  0.00    -0.205 F 
ATOM     63  C   UNL     1       5.877   4.919  11.917  1.00  0.00     0.022 A 
BRANCH  61  64
ATOM     64  S   UNL     1       5.803   4.932  14.649  1.00  0.00     0.127 S 
ATOM     65  O   UNL     1       6.670   3.756  14.707  1.00  0.00    -0.237 OA
ATOM     66  O   UNL     1       6.511   6.205  14.509  1.00  0.00    -0.237 OA
ATOM     67  O   UNL     1       4.710   4.945  15.611  1.00  0.00    -0.744 OA
ENDBRANCH  61  64
ENDBRANCH  43  57
BRANCH  44  68
ATOM     68  C   UNL     1      -6.681   3.223  10.015  1.00  0.00     0.023 A 
ATOM     69  C   UNL     1      -7.323   4.032   9.058  1.00  0.00     0.012 A 
ATOM     70  C   UNL     1      -7.421   2.210  10.660  1.00  0.00     0.148 A 
ATOM     71  C   UNL     1      -8.672   3.842   8.754  1.00  0.00     0.002 A 
ATOM     72  C   UNL     1      -8.745   1.982  10.304  1.00  0.00     0.091 A 
ATOM     73  F   UNL     1      -6.801   1.462  11.584  1.00  0.00    -0.205 F 
ATOM     74  C   UNL     1      -9.378   2.808   9.363  1.00  0.00     0.022 A 
BRANCH  72  75
ATOM     75  S   UNL     1      -9.679   0.574  10.917  1.00  0.00     0.127 S 
ATOM     76  O   UNL     1     -10.674   1.223  11.767  1.00  0.00    -0.237 OA
ATOM     77  O   UNL     1     -10.206  -0.000   9.679  1.00  0.00    -0.237 OA
ATOM     78  O   UNL     1      -8.713  -0.270  11.607  1.00  0.00    -0.744 OA
ENDBRANCH  72  75
ENDBRANCH  44  68
BRANCH  56  79
ATOM     79  C   UNL     1      -2.761   8.387  12.672  1.00  0.00     0.023 A 
ATOM     80  C   UNL     1      -3.302   8.473  13.969  1.00  0.00     0.012 A 
ATOM     81  C   UNL     1      -2.382   9.564  11.997  1.00  0.00     0.148 A 
ATOM     82  C   UNL     1      -3.468   9.713  14.584  1.00  0.00     0.002 A 
ATOM     83  C   UNL     1      -2.501  10.791  12.636  1.00  0.00     0.091 A 
ATOM     84  F   UNL     1      -1.882   9.456  10.757  1.00  0.00    -0.205 F 
ATOM     85  C   UNL     1      -3.052  10.868  13.926  1.00  0.00     0.022 A 
BRANCH  83  86
ATOM     86  S   UNL     1      -1.889  12.320  11.919  1.00  0.00     0.127 S 
ATOM     87  O   UNL     1      -3.126  13.077  11.730  1.00  0.00    -0.237 OA
ATOM     88  O   UNL     1      -1.018  12.829  12.978  1.00  0.00    -0.237 OA
ATOM     89  O   UNL     1      -1.201  11.946  10.691  1.00  0.00    -0.744 OA
ENDBRANCH  83  86
ENDBRANCH  56  79
ENDBRANCH  30  31
ENDBRANCH  23  25
ENDBRANCH  22  23
ENDBRANCH   1  22
TORSDOF 15
