REMARK SMILES CC[C@@H](O)CC[C@H]([NH3+])C(=O)OCCOC(=O)c1ccc(-c2c3nc(c(-c4cccc(S(=O)(=O)[O-])c4F)c4ccc([nH]4)c(-c4cccc(S(=O)(=O)[O-])c4F)c4nc(c(-c5cccc(S(=O)(=O)[O-])c5F)c5ccc2[nH]5)C=C4)C=C3)cc1
REMARK SMILES IDX 12 1 11 2 9 3 10 4 7 5 6 6 5 7 3 8 2 9 1 10 4 11 8 13 13 17
REMARK SMILES IDX 14 18 15 19 16 20 17 21 18 22 79 23 19 24 78 25 20 26 21 27
REMARK SMILES IDX 22 28 72 29 23 30 77 31 71 32 73 33 24 34 76 35 70 36 69 37
REMARK SMILES IDX 25 39 57 40 37 41 56 42 38 43 41 44 55 45 74 46 39 47 40 48
REMARK SMILES IDX 54 50 75 51 42 52 26 53 27 54 35 55 28 56 30 57 36 58 29 59
REMARK SMILES IDX 31 60 32 61 33 62 34 63 58 64 59 65 67 66 60 67 62 68 68 69
REMARK SMILES IDX 61 70 63 71 64 72 65 73 66 74 43 75 44 76 52 77 45 78 47 79
REMARK SMILES IDX 53 80 46 81 48 82 49 83 50 84 51 85
REMARK H PARENT 4 12 8 14 8 15 8 16 73 38 41 49
REMARK Flexibility Score: inf
ROOT
ATOM      1  C   UNL     1       3.295   2.309   6.973  1.00  0.00     0.274 C 
ENDROOT
BRANCH   1   2
ATOM      2  O   UNL     1       2.652   2.915   5.838  1.00  0.00    -0.458 OA
BRANCH   2   3
ATOM      3  C   UNL     1       3.411   3.094   4.721  1.00  0.00     0.364 C 
ATOM      4  O   UNL     1       4.623   2.925   4.666  1.00  0.00    -0.245 OA
BRANCH   3   5
ATOM      5  C   UNL     1       2.555   3.453   3.485  1.00  0.00     0.291 C 
BRANCH   5   6
ATOM      6  C   UNL     1       2.982   4.806   2.905  1.00  0.00     0.080 C 
BRANCH   6   7
ATOM      7  C   UNL     1       2.816   4.928   1.383  1.00  0.00     0.038 C 
BRANCH   7   8
ATOM      8  C   UNL     1       1.412   4.706   0.814  1.00  0.00     0.114 C 
BRANCH   8   9
ATOM      9  C   UNL     1       0.368   5.668   1.386  1.00  0.00     0.028 C 
ATOM     10  C   UNL     1      -1.049   5.290   0.976  1.00  0.00     0.006 C 
ENDBRANCH   8   9
BRANCH   8  11
ATOM     11  O   UNL     1       1.500   4.902  -0.601  1.00  0.00    -0.393 OA
ATOM     12  H   UNL     1       1.794   5.809  -0.783  1.00  0.00     0.210 HD
ENDBRANCH   8  11
ENDBRANCH   7   8
ENDBRANCH   6   7
ENDBRANCH   5   6
BRANCH   5  13
ATOM     13  N   UNL     1       1.103   3.381   3.773  1.00  0.00    -0.346 N 
ATOM     14  H   UNL     1       0.864   4.066   4.490  1.00  0.00     0.345 HD
ATOM     15  H   UNL     1       0.868   2.446   4.104  1.00  0.00     0.345 HD
ATOM     16  H   UNL     1       0.577   3.583   2.922  1.00  0.00     0.345 HD
ENDBRANCH   5  13
ENDBRANCH   3   5
ENDBRANCH   2   3
ENDBRANCH   1   2
BRANCH   1  17
ATOM     17  C   UNL     1       2.786   0.876   7.159  1.00  0.00     0.275 C 
BRANCH  17  18
ATOM     18  O   UNL     1       3.268  -0.003   6.125  1.00  0.00    -0.458 OA
BRANCH  18  19
ATOM     19  C   UNL     1       2.503  -0.074   5.010  1.00  0.00     0.338 C 
ATOM     20  O   UNL     1       1.455   0.510   4.791  1.00  0.00    -0.246 OA
BRANCH  19  21
ATOM     21  C   UNL     1       3.204  -0.869   3.990  1.00  0.00     0.060 A 
ATOM     22  C   UNL     1       3.651  -0.214   2.842  1.00  0.00     0.016 A 
ATOM     23  C   UNL     1       3.380  -2.245   4.130  1.00  0.00     0.016 A 
ATOM     24  C   UNL     1       4.264  -0.924   1.818  1.00  0.00     0.010 A 
ATOM     25  C   UNL     1       4.028  -2.957   3.114  1.00  0.00     0.010 A 
ATOM     26  C   UNL     1       4.474  -2.300   1.953  1.00  0.00    -0.014 A 
BRANCH  26  27
ATOM     27  C   UNL     1       5.212  -3.035   0.899  1.00  0.00     0.031 A 
ATOM     28  C   UNL     1       4.511  -4.044   0.042  1.00  0.00     0.074 A 
ATOM     29  C   UNL     1       6.529  -2.800   0.742  1.00  0.00     0.049 A 
ATOM     30  N   UNL     1       5.015  -4.857  -0.849  1.00  0.00    -0.248 NA
ATOM     31  C   UNL     1       3.052  -4.158   0.206  1.00  0.00     0.031 C 
ATOM     32  C   UNL     1       7.309  -1.830   1.514  1.00  0.00     0.029 A 
ATOM     33  N   UNL     1       7.448  -3.374  -0.099  1.00  0.00    -0.354 N 
ATOM     34  C   UNL     1       3.949  -5.612  -1.319  1.00  0.00     0.074 A 
ATOM     35  C   UNL     1       2.766  -5.155  -0.622  1.00  0.00     0.031 C 
ATOM     36  C   UNL     1       8.592  -1.891   1.126  1.00  0.00     0.029 A 
ATOM     37  C   UNL     1       8.734  -2.937   0.120  1.00  0.00     0.049 A 
ATOM     38  H   UNL     1       7.211  -4.033  -0.791  1.00  0.00     0.167 HD
ATOM     39  C   UNL     1       3.960  -6.591  -2.255  1.00  0.00     0.034 A 
ATOM     40  C   UNL     1       9.902  -3.362  -0.397  1.00  0.00     0.034 A 
ATOM     41  C   UNL     1       5.135  -7.011  -2.970  1.00  0.00     0.049 A 
ATOM     42  C   UNL     1       9.887  -4.473  -1.409  1.00  0.00     0.074 A 
ATOM     43  C   UNL     1       5.237  -7.948  -3.983  1.00  0.00     0.029 A 
ATOM     44  N   UNL     1       6.415  -6.529  -2.741  1.00  0.00    -0.354 N 
ATOM     45  N   UNL     1       8.859  -5.106  -1.921  1.00  0.00    -0.248 NA
ATOM     46  C   UNL     1      11.188  -4.922  -1.923  1.00  0.00     0.031 C 
ATOM     47  C   UNL     1       6.583  -8.049  -4.351  1.00  0.00     0.029 A 
ATOM     48  C   UNL     1       7.317  -7.165  -3.577  1.00  0.00     0.049 A 
ATOM     49  H   UNL     1       6.648  -5.836  -2.082  1.00  0.00     0.167 HD
ATOM     50  C   UNL     1       9.385  -6.018  -2.826  1.00  0.00     0.074 A 
ATOM     51  C   UNL     1      10.823  -5.834  -2.815  1.00  0.00     0.031 C 
ATOM     52  C   UNL     1       8.741  -6.942  -3.580  1.00  0.00     0.034 A 
BRANCH  39  53
ATOM     53  C   UNL     1       2.654  -7.264  -2.580  1.00  0.00     0.023 A 
ATOM     54  C   UNL     1       1.707  -6.597  -3.381  1.00  0.00     0.012 A 
ATOM     55  C   UNL     1       2.393  -8.579  -2.147  1.00  0.00     0.148 A 
ATOM     56  C   UNL     1       0.509  -7.220  -3.731  1.00  0.00     0.002 A 
ATOM     57  C   UNL     1       1.212  -9.206  -2.527  1.00  0.00     0.091 A 
ATOM     58  F   UNL     1       3.295  -9.186  -1.363  1.00  0.00    -0.205 F 
ATOM     59  C   UNL     1       0.267  -8.526  -3.313  1.00  0.00     0.022 A 
BRANCH  57  60
ATOM     60  S   UNL     1       0.838 -10.908  -2.090  1.00  0.00     0.127 S 
ATOM     61  O   UNL     1      -0.188 -10.730  -1.064  1.00  0.00    -0.237 OA
ATOM     62  O   UNL     1       0.345 -11.452  -3.356  1.00  0.00    -0.237 OA
ATOM     63  O   UNL     1       2.092 -11.487  -1.630  1.00  0.00    -0.744 OA
ENDBRANCH  57  60
ENDBRANCH  39  53
BRANCH  40  64
ATOM     64  C   UNL     1      11.177  -2.727   0.037  1.00  0.00     0.023 A 
ATOM     65  C   UNL     1      11.892  -1.919  -0.866  1.00  0.00     0.012 A 
ATOM     66  C   UNL     1      11.657  -2.877   1.354  1.00  0.00     0.148 A 
ATOM     67  C   UNL     1      13.070  -1.284  -0.471  1.00  0.00     0.002 A 
ATOM     68  C   UNL     1      12.800  -2.197   1.757  1.00  0.00     0.091 A 
ATOM     69  F   UNL     1      10.976  -3.671   2.193  1.00  0.00    -0.205 F 
ATOM     70  C   UNL     1      13.517  -1.412   0.842  1.00  0.00     0.022 A 
BRANCH  68  71
ATOM     71  S   UNL     1      13.358  -2.199   3.465  1.00  0.00     0.127 S 
ATOM     72  O   UNL     1      14.493  -3.116   3.409  1.00  0.00    -0.237 OA
ATOM     73  O   UNL     1      13.710  -0.794   3.675  1.00  0.00    -0.237 OA
ATOM     74  O   UNL     1      12.213  -2.648   4.246  1.00  0.00    -0.744 OA
ENDBRANCH  68  71
ENDBRANCH  40  64
BRANCH  52  75
ATOM     75  C   UNL     1       9.583  -7.830  -4.456  1.00  0.00     0.023 A 
ATOM     76  C   UNL     1      10.321  -8.877  -3.869  1.00  0.00     0.012 A 
ATOM     77  C   UNL     1       9.584  -7.680  -5.856  1.00  0.00     0.148 A 
ATOM     78  C   UNL     1      11.067  -9.748  -4.660  1.00  0.00     0.002 A 
ATOM     79  C   UNL     1      10.296  -8.578  -6.642  1.00  0.00     0.091 A 
ATOM     80  F   UNL     1       8.890  -6.666  -6.391  1.00  0.00    -0.205 F 
ATOM     81  C   UNL     1      11.045  -9.606  -6.046  1.00  0.00     0.022 A 
BRANCH  79  82
ATOM     82  S   UNL     1      10.258  -8.528  -8.437  1.00  0.00     0.127 S 
ATOM     83  O   UNL     1      11.597  -8.032  -8.751  1.00  0.00    -0.237 OA
ATOM     84  O   UNL     1      10.030  -9.932  -8.783  1.00  0.00    -0.237 OA
ATOM     85  O   UNL     1       9.162  -7.635  -8.790  1.00  0.00    -0.744 OA
ENDBRANCH  79  82
ENDBRANCH  52  75
ENDBRANCH  26  27
ENDBRANCH  19  21
ENDBRANCH  18  19
ENDBRANCH  17  18
ENDBRANCH   1  17
TORSDOF 20
