REMARK SMILES O=C(OCCOC(=O)c1ccc(-c2c3nc(c(-c4cccc(S(=O)(=O)[O-])c4F)c4ccc([nH]4)c(-c4cccc(S(=O)(=O)[O-])c4F)c4nc(c(-c5cccc(S(=O)(=O)[O-])c5F)c5ccc2[nH]5)C=C4)C=C3)cc1)C1=Cc2cc(Cl)cc(-c3ccc(Cl)cc3)c2O[C@@H]1C(F)(F)F
REMARK SMILES IDX 5 1 4 2 3 3 2 4 1 5 72 6 73 7 89 8 74 9 88 10 75 11 87 12
REMARK SMILES IDX 76 13 79 14 77 15 78 16 90 17 91 18 92 19 93 20 80 21 81 22
REMARK SMILES IDX 86 23 82 24 85 25 83 26 84 27 6 28 7 29 8 30 9 31 10 32
REMARK SMILES IDX 71 33 11 34 70 35 12 36 13 37 14 38 64 39 15 40 69 41 63 42
REMARK SMILES IDX 65 43 16 44 68 45 62 46 61 47 17 49 49 50 29 51 48 52 30 53
REMARK SMILES IDX 33 54 47 55 66 56 31 57 32 58 46 60 67 61 34 62 18 63 19 64
REMARK SMILES IDX 27 65 20 66 22 67 28 68 21 69 23 70 24 71 25 72 26 73 50 74
REMARK SMILES IDX 51 75 59 76 52 77 54 78 60 79 53 80 55 81 56 82 57 83 58 84
REMARK SMILES IDX 35 85 36 86 44 87 37 88 39 89 45 90 38 91 40 92 41 93 42 94
REMARK SMILES IDX 43 95
REMARK H PARENT 65 48 33 59
REMARK Flexibility Score: inf
ROOT
ATOM      1  C   UNL     1       4.718   0.760  -0.396  1.00  0.00     0.275 C 
ENDROOT
BRANCH   1   2
ATOM      2  C   UNL     1       3.934  -0.443   1.224  1.00  0.00     0.275 C 
BRANCH   2   3
ATOM      3  O   UNL     1       3.044   0.051   2.399  1.00  0.00    -0.459 OA
BRANCH   3   4
ATOM      4  C   UNL     1       3.208   1.352   2.676  1.00  0.00     0.338 C 
ATOM      5  O   UNL     1       2.578   2.064   3.414  1.00  0.00    -0.246 OA
BRANCH   4   6
ATOM      6  C   UNL     1       4.056   1.616   1.537  1.00  0.00     0.087 C 
ATOM      7  C   UNL     1       5.429   1.178   1.742  1.00  0.00     0.027 C 
ATOM      8  C   UNL     1       2.836   0.919   0.219  1.00  0.00     0.316 C 
ATOM      9  C   UNL     1       6.138  -0.245   0.912  1.00  0.00     0.019 A 
ATOM     10  O   UNL     1       3.551  -0.672  -0.630  1.00  0.00    -0.475 OA
ATOM     11  C   UNL     1       7.368  -0.643   1.364  1.00  0.00     0.032 A 
ATOM     12  C   UNL     1       5.224  -1.260  -0.172  1.00  0.00     0.135 A 
ATOM     13  C   UNL     1       7.781  -1.889   0.903  1.00  0.00     0.042 A 
ATOM     14  C   UNL     1       5.694  -2.510  -0.517  1.00  0.00     0.026 A 
ATOM     15  Cl  UNL     1       9.306  -2.478   1.480  1.00  0.00    -0.084 Cl
ATOM     16  C   UNL     1       7.002  -2.752   0.039  1.00  0.00     0.033 A 
BRANCH   8  17
ATOM     17  C   UNL     1       2.380   2.371  -0.268  1.00  0.00     0.430 C 
ATOM     18  F   UNL     1       1.098   2.371  -0.658  1.00  0.00    -0.167 F 
ATOM     19  F   UNL     1       2.379   3.223   0.805  1.00  0.00    -0.167 F 
ATOM     20  F   UNL     1       3.163   3.022  -1.141  1.00  0.00    -0.167 F 
ENDBRANCH   8  17
BRANCH  14  21
ATOM     21  C   UNL     1       5.060  -3.627  -1.203  1.00  0.00    -0.015 A 
ATOM     22  C   UNL     1       4.796  -4.811  -0.478  1.00  0.00     0.010 A 
ATOM     23  C   UNL     1       4.938  -3.662  -2.595  1.00  0.00     0.010 A 
ATOM     24  C   UNL     1       4.439  -5.996  -1.124  1.00  0.00     0.021 A 
ATOM     25  C   UNL     1       4.581  -4.851  -3.245  1.00  0.00     0.021 A 
ATOM     26  C   UNL     1       4.338  -6.011  -2.510  1.00  0.00     0.041 A 
ATOM     27  Cl  UNL     1       3.944  -7.479  -3.316  1.00  0.00    -0.084 Cl
ENDBRANCH  14  21
ENDBRANCH   4   6
ENDBRANCH   3   4
ENDBRANCH   2   3
ENDBRANCH   1   2
BRANCH   1  28
ATOM     28  O   UNL     1       3.890   1.081  -1.896  1.00  0.00    -0.458 OA
BRANCH  28  29
ATOM     29  C   UNL     1       2.977   0.582  -2.798  1.00  0.00     0.338 C 
ATOM     30  O   UNL     1       2.545  -0.551  -2.909  1.00  0.00    -0.246 OA
BRANCH  29  31
ATOM     31  C   UNL     1       2.265   1.773  -3.385  1.00  0.00     0.060 A 
ATOM     32  C   UNL     1       0.903   1.962  -3.079  1.00  0.00     0.016 A 
ATOM     33  C   UNL     1       3.008   2.850  -3.865  1.00  0.00     0.016 A 
ATOM     34  C   UNL     1       0.373   3.270  -3.002  1.00  0.00     0.010 A 
ATOM     35  C   UNL     1       2.471   4.144  -3.802  1.00  0.00     0.010 A 
ATOM     36  C   UNL     1       1.185   4.379  -3.283  1.00  0.00    -0.014 A 
BRANCH  36  37
ATOM     37  C   UNL     1       0.666   5.779  -3.244  1.00  0.00     0.031 A 
ATOM     38  C   UNL     1       0.086   6.296  -4.527  1.00  0.00     0.074 A 
ATOM     39  C   UNL     1       0.800   6.615  -2.189  1.00  0.00     0.049 A 
ATOM     40  N   UNL     1      -0.331   7.493  -4.833  1.00  0.00    -0.248 NA
ATOM     41  C   UNL     1       0.002   5.320  -5.628  1.00  0.00     0.031 C 
ATOM     42  C   UNL     1       1.369   6.276  -0.885  1.00  0.00     0.029 A 
ATOM     43  N   UNL     1       0.493   7.958  -2.063  1.00  0.00    -0.354 N 
ATOM     44  C   UNL     1      -0.696   7.423  -6.170  1.00  0.00     0.074 A 
ATOM     45  C   UNL     1      -0.424   6.078  -6.622  1.00  0.00     0.031 C 
ATOM     46  C   UNL     1       1.400   7.380  -0.108  1.00  0.00     0.029 A 
ATOM     47  C   UNL     1       0.867   8.518  -0.856  1.00  0.00     0.049 A 
ATOM     48  H   UNL     1       0.046   8.472  -2.775  1.00  0.00     0.167 HD
ATOM     49  C   UNL     1      -1.227   8.382  -6.958  1.00  0.00     0.034 A 
ATOM     50  C   UNL     1       0.794   9.796  -0.415  1.00  0.00     0.034 A 
ATOM     51  C   UNL     1      -1.494   9.721  -6.529  1.00  0.00     0.049 A 
ATOM     52  C   UNL     1       0.201  10.857  -1.326  1.00  0.00     0.074 A 
ATOM     53  C   UNL     1      -2.070  10.752  -7.246  1.00  0.00     0.029 A 
ATOM     54  N   UNL     1      -1.180  10.222  -5.277  1.00  0.00    -0.354 N 
ATOM     55  N   UNL     1      -0.296  10.730  -2.534  1.00  0.00    -0.248 NA
ATOM     56  C   UNL     1       0.129  12.233  -0.801  1.00  0.00     0.031 C 
ATOM     57  C   UNL     1      -2.079  11.889  -6.434  1.00  0.00     0.029 A 
ATOM     58  C   UNL     1      -1.544  11.553  -5.201  1.00  0.00     0.049 A 
ATOM     59  H   UNL     1      -0.761   9.707  -4.550  1.00  0.00     0.167 HD
ATOM     60  C   UNL     1      -0.781  11.988  -2.886  1.00  0.00     0.074 A 
ATOM     61  C   UNL     1      -0.536  12.863  -1.761  1.00  0.00     0.031 C 
ATOM     62  C   UNL     1      -1.364  12.390  -4.043  1.00  0.00     0.034 A 
BRANCH  49  63
ATOM     63  C   UNL     1      -1.561   7.984  -8.365  1.00  0.00     0.023 A 
ATOM     64  C   UNL     1      -2.642   7.109  -8.600  1.00  0.00     0.012 A 
ATOM     65  C   UNL     1      -0.796   8.454  -9.446  1.00  0.00     0.148 A 
ATOM     66  C   UNL     1      -2.927   6.668  -9.890  1.00  0.00     0.002 A 
ATOM     67  C   UNL     1      -1.118   8.051 -10.734  1.00  0.00     0.091 A 
ATOM     68  F   UNL     1       0.243   9.261  -9.191  1.00  0.00    -0.205 F 
ATOM     69  C   UNL     1      -2.170   7.146 -10.956  1.00  0.00     0.022 A 
BRANCH  67  70
ATOM     70  S   UNL     1      -0.252   8.658 -12.184  1.00  0.00     0.127 S 
ATOM     71  O   UNL     1       0.359   7.433 -12.697  1.00  0.00    -0.237 OA
ATOM     72  O   UNL     1      -1.352   9.179 -12.995  1.00  0.00    -0.237 OA
ATOM     73  O   UNL     1       0.686   9.663 -11.704  1.00  0.00    -0.744 OA
ENDBRANCH  67  70
ENDBRANCH  49  63
BRANCH  50  74
ATOM     74  C   UNL     1       1.244  10.192   0.963  1.00  0.00     0.023 A 
ATOM     75  C   UNL     1       0.289  10.662   1.891  1.00  0.00     0.012 A 
ATOM     76  C   UNL     1       2.603  10.199   1.334  1.00  0.00     0.148 A 
ATOM     77  C   UNL     1       0.679  11.182   3.129  1.00  0.00     0.002 A 
ATOM     78  C   UNL     1       2.982  10.672   2.591  1.00  0.00     0.091 A 
ATOM     79  F   UNL     1       3.508   9.774   0.442  1.00  0.00    -0.205 F 
ATOM     80  C   UNL     1       2.024  11.184   3.480  1.00  0.00     0.022 A 
BRANCH  78  81
ATOM     81  S   UNL     1       4.682  10.634   3.176  1.00  0.00     0.127 S 
ATOM     82  O   UNL     1       5.022  12.054   3.209  1.00  0.00    -0.237 OA
ATOM     83  O   UNL     1       4.536  10.008   4.491  1.00  0.00    -0.237 OA
ATOM     84  O   UNL     1       5.415   9.832   2.206  1.00  0.00    -0.744 OA
ENDBRANCH  78  81
ENDBRANCH  50  74
BRANCH  62  85
ATOM     85  C   UNL     1      -1.844  13.815  -4.153  1.00  0.00     0.023 A 
ATOM     86  C   UNL     1      -0.916  14.866  -4.283  1.00  0.00     0.012 A 
ATOM     87  C   UNL     1      -3.223  14.092  -4.257  1.00  0.00     0.148 A 
ATOM     88  C   UNL     1      -1.354  16.174  -4.492  1.00  0.00     0.002 A 
ATOM     89  C   UNL     1      -3.648  15.388  -4.521  1.00  0.00     0.091 A 
ATOM     90  F   UNL     1      -4.090  13.080  -4.115  1.00  0.00    -0.205 F 
ATOM     91  C   UNL     1      -2.716  16.432  -4.627  1.00  0.00     0.022 A 
BRANCH  89  92
ATOM     92  S   UNL     1      -5.373  15.792  -4.825  1.00  0.00     0.127 S 
ATOM     93  O   UNL     1      -5.722  16.536  -3.616  1.00  0.00    -0.237 OA
ATOM     94  O   UNL     1      -5.291  16.604  -6.040  1.00  0.00    -0.237 OA
ATOM     95  O   UNL     1      -6.061  14.519  -4.995  1.00  0.00    -0.744 OA
ENDBRANCH  89  92
ENDBRANCH  62  85
ENDBRANCH  36  37
ENDBRANCH  29  31
ENDBRANCH  28  29
ENDBRANCH   1  28
TORSDOF 16
