REMARK SMILES CCC1(CC)CCN(c2nc(C(C)C)c(C(=O)OCCOC(=O)c3ccc(-c4c5nc(c(-c6cccc(S(=O)(=O)[O-])c6F)c6ccc([nH]6)c(-c6cccc(S(=O)(=O)[O-])c6F)c6nc(c(-c7cccc(S(=O)(=O)[O-])c7F)c7ccc4[nH]7)C=C6)C=C5)cc3)s2)C1
REMARK SMILES IDX 20 1 19 2 18 3 16 4 17 5 15 6 9 7 10 8 87 9 11 10 8 11 3 12
REMARK SMILES IDX 6 13 88 14 7 15 2 16 1 17 4 18 5 19 12 20 13 21 14 22 21 23
REMARK SMILES IDX 22 24 23 25 24 26 25 27 86 28 26 29 85 30 27 31 28 32 29 33
REMARK SMILES IDX 79 34 30 35 84 36 78 37 80 38 31 39 83 40 77 41 76 42 32 44
REMARK SMILES IDX 64 45 44 46 63 47 45 48 48 49 62 50 81 51 46 52 47 53 61 55
REMARK SMILES IDX 82 56 49 57 33 58 34 59 42 60 35 61 37 62 43 63 36 64 38 65
REMARK SMILES IDX 39 66 40 67 41 68 65 69 66 70 74 71 67 72 69 73 75 74 68 75
REMARK SMILES IDX 70 76 71 77 72 78 73 79 50 80 51 81 59 82 52 83 54 84 60 85
REMARK SMILES IDX 53 86 55 87 56 88 57 89 58 90
REMARK H PARENT 80 43 48 54
REMARK Flexibility Score: inf
ROOT
ATOM      1  C   UNL     1       1.498 -10.580   0.147  1.00  0.00     0.275 C 
ENDROOT
BRANCH   1   2
ATOM      2  C   UNL     1       0.195 -10.318  -0.613  1.00  0.00     0.275 C 
BRANCH   2   3
ATOM      3  O   UNL     1       0.270  -9.091  -1.367  1.00  0.00    -0.458 OA
BRANCH   3   4
ATOM      4  C   UNL     1      -0.548  -8.068  -0.990  1.00  0.00     0.350 C 
ATOM      5  O   UNL     1      -1.340  -8.146  -0.060  1.00  0.00    -0.245 OA
BRANCH   4   6
ATOM      6  C   UNL     1      -0.303  -6.885  -1.792  1.00  0.00     0.137 A 
ATOM      7  C   UNL     1      -0.025  -4.541  -2.435  1.00  0.00     0.186 A 
ATOM      8  N   UNL     1       0.369  -5.328  -3.409  1.00  0.00    -0.224 NA
ATOM      9  S   UNL     1      -0.753  -5.361  -1.122  1.00  0.00    -0.089 S 
ATOM     10  C   UNL     1       0.195  -6.679  -3.074  1.00  0.00     0.071 A 
BRANCH   7  11
ATOM     11  N   UNL     1       0.013  -3.192  -2.449  1.00  0.00    -0.347 N 
ATOM     12  C   UNL     1       0.849  -0.956  -2.409  1.00  0.00    -0.011 C 
ATOM     13  C   UNL     1      -0.154  -1.162  -3.573  1.00  0.00     0.030 C 
ATOM     14  C   UNL     1       1.163  -2.427  -1.995  1.00  0.00     0.126 C 
ATOM     15  C   UNL     1      -0.938  -2.414  -3.200  1.00  0.00     0.119 C 
BRANCH  12  16
ATOM     16  C   UNL     1       0.159  -0.147  -1.270  1.00  0.00     0.005 C 
ATOM     17  C   UNL     1       0.919  -0.061   0.050  1.00  0.00     0.004 C 
ENDBRANCH  12  16
BRANCH  12  18
ATOM     18  C   UNL     1       2.131  -0.248  -2.924  1.00  0.00     0.005 C 
ATOM     19  C   UNL     1       1.902   1.094  -3.616  1.00  0.00     0.004 C 
ENDBRANCH  12  18
ENDBRANCH   7  11
BRANCH  10  20
ATOM     20  C   UNL     1       0.495  -7.681  -4.166  1.00  0.00     0.034 C 
ATOM     21  C   UNL     1       1.840  -8.388  -4.004  1.00  0.00     0.014 C 
ATOM     22  C   UNL     1      -0.653  -8.670  -4.396  1.00  0.00     0.014 C 
ENDBRANCH  10  20
ENDBRANCH   4   6
ENDBRANCH   3   4
ENDBRANCH   2   3
ENDBRANCH   1   2
BRANCH   1  23
ATOM     23  O   UNL     1       1.638  -9.666   1.249  1.00  0.00    -0.458 OA
BRANCH  23  24
ATOM     24  C   UNL     1       2.346  -8.547   0.973  1.00  0.00     0.338 C 
ATOM     25  O   UNL     1       2.933  -8.283  -0.064  1.00  0.00    -0.246 OA
BRANCH  24  26
ATOM     26  C   UNL     1       2.142  -7.571   2.051  1.00  0.00     0.060 A 
ATOM     27  C   UNL     1       1.381  -6.446   1.740  1.00  0.00     0.016 A 
ATOM     28  C   UNL     1       2.728  -7.702   3.307  1.00  0.00     0.016 A 
ATOM     29  C   UNL     1       1.210  -5.426   2.664  1.00  0.00     0.010 A 
ATOM     30  C   UNL     1       2.547  -6.680   4.248  1.00  0.00     0.010 A 
ATOM     31  C   UNL     1       1.802  -5.528   3.926  1.00  0.00    -0.014 A 
BRANCH  31  32
ATOM     32  C   UNL     1       1.696  -4.389   4.870  1.00  0.00     0.031 A 
ATOM     33  C   UNL     1       2.921  -3.583   5.199  1.00  0.00     0.074 A 
ATOM     34  C   UNL     1       0.505  -4.069   5.411  1.00  0.00     0.049 A 
ATOM     35  N   UNL     1       3.066  -2.618   6.068  1.00  0.00    -0.248 NA
ATOM     36  C   UNL     1       4.148  -3.911   4.454  1.00  0.00     0.031 C 
ATOM     37  C   UNL     1      -0.758  -4.756   5.138  1.00  0.00     0.029 A 
ATOM     38  N   UNL     1       0.166  -3.093   6.314  1.00  0.00    -0.354 N 
ATOM     39  C   UNL     1       4.409  -2.263   6.019  1.00  0.00     0.074 A 
ATOM     40  C   UNL     1       5.035  -3.113   5.030  1.00  0.00     0.031 C 
ATOM     41  C   UNL     1      -1.732  -4.189   5.867  1.00  0.00     0.029 A 
ATOM     42  C   UNL     1      -1.155  -3.136   6.696  1.00  0.00     0.049 A 
ATOM     43  H   UNL     1       0.805  -2.427   6.655  1.00  0.00     0.167 HD
ATOM     44  C   UNL     1       5.057  -1.311   6.730  1.00  0.00     0.034 A 
ATOM     45  C   UNL     1      -1.816  -2.431   7.635  1.00  0.00     0.034 A 
ATOM     46  C   UNL     1       4.413  -0.439   7.676  1.00  0.00     0.049 A 
ATOM     47  C   UNL     1      -1.069  -1.385   8.417  1.00  0.00     0.074 A 
ATOM     48  C   UNL     1       4.972   0.584   8.421  1.00  0.00     0.029 A 
ATOM     49  N   UNL     1       3.067  -0.486   8.008  1.00  0.00    -0.354 N 
ATOM     50  N   UNL     1       0.185  -1.017   8.314  1.00  0.00    -0.248 NA
ATOM     51  C   UNL     1      -1.832  -0.642   9.430  1.00  0.00     0.031 C 
ATOM     52  C   UNL     1       3.967   1.141   9.220  1.00  0.00     0.029 A 
ATOM     53  C   UNL     1       2.777   0.484   8.951  1.00  0.00     0.049 A 
ATOM     54  H   UNL     1       2.414  -1.117   7.628  1.00  0.00     0.167 HD
ATOM     55  C   UNL     1       0.355   0.020   9.225  1.00  0.00     0.074 A 
ATOM     56  C   UNL     1      -0.932   0.235   9.854  1.00  0.00     0.031 C 
ATOM     57  C   UNL     1       1.477   0.719   9.525  1.00  0.00     0.034 A 
BRANCH  44  58
ATOM     58  C   UNL     1       6.538  -1.155   6.505  1.00  0.00     0.023 A 
ATOM     59  C   UNL     1       7.011  -0.573   5.312  1.00  0.00     0.012 A 
ATOM     60  C   UNL     1       7.460  -1.542   7.498  1.00  0.00     0.148 A 
ATOM     61  C   UNL     1       8.380  -0.410   5.096  1.00  0.00     0.002 A 
ATOM     62  C   UNL     1       8.819  -1.337   7.294  1.00  0.00     0.091 A 
ATOM     63  F   UNL     1       6.992  -2.115   8.617  1.00  0.00    -0.205 F 
ATOM     64  C   UNL     1       9.281  -0.782   6.090  1.00  0.00     0.022 A 
BRANCH  62  65
ATOM     65  S   UNL     1      10.053  -1.712   8.544  1.00  0.00     0.127 S 
ATOM     66  O   UNL     1      10.716  -2.879   7.964  1.00  0.00    -0.237 OA
ATOM     67  O   UNL     1      10.863  -0.493   8.553  1.00  0.00    -0.237 OA
ATOM     68  O   UNL     1       9.316  -1.959   9.775  1.00  0.00    -0.744 OA
ENDBRANCH  62  65
ENDBRANCH  44  58
BRANCH  45  69
ATOM     69  C   UNL     1      -3.266  -2.683   7.873  1.00  0.00     0.023 A 
ATOM     70  C   UNL     1      -4.210  -1.697   7.527  1.00  0.00     0.012 A 
ATOM     71  C   UNL     1      -3.717  -3.905   8.413  1.00  0.00     0.148 A 
ATOM     72  C   UNL     1      -5.573  -1.912   7.737  1.00  0.00     0.002 A 
ATOM     73  C   UNL     1      -5.079  -4.135   8.565  1.00  0.00     0.091 A 
ATOM     74  F   UNL     1      -2.803  -4.823   8.756  1.00  0.00    -0.205 F 
ATOM     75  C   UNL     1      -6.008  -3.134   8.244  1.00  0.00     0.022 A 
BRANCH  73  76
ATOM     76  S   UNL     1      -5.733  -5.725   9.086  1.00  0.00     0.127 S 
ATOM     77  O   UNL     1      -6.199  -5.429  10.438  1.00  0.00    -0.237 OA
ATOM     78  O   UNL     1      -6.794  -5.953   8.104  1.00  0.00    -0.237 OA
ATOM     79  O   UNL     1      -4.618  -6.658   8.991  1.00  0.00    -0.744 OA
ENDBRANCH  73  76
ENDBRANCH  45  69
BRANCH  57  80
ATOM     80  C   UNL     1       1.360   1.814  10.553  1.00  0.00     0.023 A 
ATOM     81  C   UNL     1       1.218   1.485  11.915  1.00  0.00     0.012 A 
ATOM     82  C   UNL     1       1.468   3.166  10.174  1.00  0.00     0.148 A 
ATOM     83  C   UNL     1       1.154   2.487  12.882  1.00  0.00     0.002 A 
ATOM     84  C   UNL     1       1.452   4.157  11.148  1.00  0.00     0.091 A 
ATOM     85  F   UNL     1       1.583   3.458   8.870  1.00  0.00    -0.205 F 
ATOM     86  C   UNL     1       1.283   3.821  12.500  1.00  0.00     0.022 A 
BRANCH  84  87
ATOM     87  S   UNL     1       1.710   5.891  10.757  1.00  0.00     0.127 S 
ATOM     88  O   UNL     1       0.367   6.440  10.933  1.00  0.00    -0.237 OA
ATOM     89  O   UNL     1       2.675   6.300  11.779  1.00  0.00    -0.237 OA
ATOM     90  O   UNL     1       2.226   5.924   9.395  1.00  0.00    -0.744 OA
ENDBRANCH  84  87
ENDBRANCH  57  80
ENDBRANCH  31  32
ENDBRANCH  24  26
ENDBRANCH  23  24
ENDBRANCH   1  23
TORSDOF 18
