REMARK SMILES Cc1cccc(O[C@H](C)C(=O)NNC(=O)[C@H]2[C@@H]3CC[C@@H](C3)[C@@H]2C(=O)OCCOC(=O)c2ccc(-c3c4nc(c(-c5cccc(S(=O)(=O)[O-])c5F)c5ccc([nH]5)c(-c5cccc(S(=O)(=O)[O-])c5F)c5nc(c(-c6cccc(S(=O)(=O)[O-])c6F)c6ccc3[nH]6)C=C5)C=C4)cc2)c1
REMARK SMILES IDX 26 1 25 2 23 3 24 4 22 5 16 6 17 7 18 8 21 9 20 10 19 11
REMARK SMILES IDX 14 12 13 13 15 15 12 16 10 17 11 18 8 20 9 21 7 22 6 23 1 24
REMARK SMILES IDX 2 25 3 26 94 27 4 28 5 29 27 30 28 31 29 32 30 33 31 34
REMARK SMILES IDX 32 35 93 36 33 37 92 38 34 39 35 40 36 41 86 42 37 43 91 44
REMARK SMILES IDX 85 45 87 46 38 47 90 48 84 49 83 50 39 52 71 53 51 54 70 55
REMARK SMILES IDX 52 56 55 57 69 58 88 59 53 60 54 61 68 63 89 64 56 65 40 66
REMARK SMILES IDX 41 67 49 68 42 69 44 70 50 71 43 72 45 73 46 74 47 75 48 76
REMARK SMILES IDX 72 77 73 78 81 79 74 80 76 81 82 82 75 83 77 84 78 85 79 86
REMARK SMILES IDX 80 87 57 88 58 89 66 90 59 91 61 92 67 93 60 94 62 95 63 96
REMARK SMILES IDX 64 97 65 98
REMARK H PARENT 13 14 12 19 87 51 55 62
REMARK Flexibility Score: inf
ROOT
ATOM      1  C   UNL     1       3.631   4.861  -1.011  1.00  0.00     0.274 C 
ENDROOT
BRANCH   1   2
ATOM      2  O   UNL     1       3.058   3.599  -1.395  1.00  0.00    -0.462 OA
BRANCH   2   3
ATOM      3  C   UNL     1       2.647   3.568  -2.709  1.00  0.00     0.310 C 
ATOM      4  O   UNL     1       2.813   4.500  -3.485  1.00  0.00    -0.252 OA
BRANCH   3   5
ATOM      5  C   UNL     1       1.690   2.442  -3.007  1.00  0.00     0.115 C 
ATOM      6  C   UNL     1       1.860   1.070  -2.357  1.00  0.00     0.098 C 
ATOM      7  C   UNL     1       1.031   0.156  -3.314  1.00  0.00     0.003 C 
ATOM      8  C   UNL     1       1.989  -0.311  -4.410  1.00  0.00     0.005 C 
ATOM      9  C   UNL     1       0.183   1.114  -4.173  1.00  0.00     0.009 C 
ATOM     10  C   UNL     1       1.366   2.046  -4.471  1.00  0.00     0.004 C 
ATOM     11  C   UNL     1       2.348   1.024  -5.100  1.00  0.00     0.005 C 
BRANCH   6  12
ATOM     12  C   UNL     1       1.522   0.920  -0.890  1.00  0.00     0.242 C 
ATOM     13  N   UNL     1       0.778   1.881  -0.267  1.00  0.00    -0.267 N 
ATOM     14  H   UNL     1       1.131   2.317   0.542  1.00  0.00     0.191 HD
ATOM     15  O   UNL     1       1.920  -0.032  -0.218  1.00  0.00    -0.273 OA
BRANCH  13  16
ATOM     16  N   UNL     1      -0.486   2.259  -0.762  1.00  0.00    -0.264 N 
ATOM     17  C   UNL     1      -0.948   3.510  -0.441  1.00  0.00     0.279 C 
ATOM     18  O   UNL     1      -0.964   4.403  -1.291  1.00  0.00    -0.269 OA
ATOM     19  H   UNL     1      -1.019   1.647  -1.319  1.00  0.00     0.191 HD
BRANCH  17  20
ATOM     20  C   UNL     1      -1.734   3.641   0.882  1.00  0.00     0.260 C 
ATOM     21  C   UNL     1      -3.124   3.022   0.691  1.00  0.00     0.064 C 
BRANCH  20  22
ATOM     22  O   UNL     1      -1.203   3.444   2.180  1.00  0.00    -0.481 OA
BRANCH  22  23
ATOM     23  C   UNL     1      -0.561   2.308   2.562  1.00  0.00     0.120 A 
ATOM     24  C   UNL     1       2.425   1.666   4.857  1.00  0.00     0.044 C 
ATOM     25  C   UNL     1       1.283   1.445   3.911  1.00  0.00    -0.047 A 
ATOM     26  C   UNL     1       0.997   0.155   3.459  1.00  0.00     0.003 A 
ATOM     27  C   UNL     1       0.492   2.512   3.462  1.00  0.00     0.049 A 
ATOM     28  C   UNL     1      -0.062  -0.060   2.581  1.00  0.00     0.004 A 
ATOM     29  C   UNL     1      -0.850   1.010   2.147  1.00  0.00     0.046 A 
ENDBRANCH  22  23
ENDBRANCH  20  22
ENDBRANCH  17  20
ENDBRANCH  13  16
ENDBRANCH   6  12
ENDBRANCH   3   5
ENDBRANCH   2   3
ENDBRANCH   1   2
BRANCH   1  30
ATOM     30  C   UNL     1       4.511   4.854   0.255  1.00  0.00     0.275 C 
BRANCH  30  31
ATOM     31  O   UNL     1       4.891   3.579   0.827  1.00  0.00    -0.458 OA
BRANCH  31  32
ATOM     32  C   UNL     1       5.852   2.761   0.317  1.00  0.00     0.338 C 
ATOM     33  O   UNL     1       6.392   1.866   0.952  1.00  0.00    -0.246 OA
BRANCH  32  34
ATOM     34  C   UNL     1       6.187   3.019  -1.081  1.00  0.00     0.060 A 
ATOM     35  C   UNL     1       5.577   2.243  -2.068  1.00  0.00     0.016 A 
ATOM     36  C   UNL     1       6.944   4.148  -1.384  1.00  0.00     0.016 A 
ATOM     37  C   UNL     1       5.629   2.669  -3.387  1.00  0.00     0.010 A 
ATOM     38  C   UNL     1       6.921   4.615  -2.678  1.00  0.00     0.010 A 
ATOM     39  C   UNL     1       6.261   3.879  -3.679  1.00  0.00    -0.014 A 
BRANCH  39  40
ATOM     40  C   UNL     1       6.602   4.247  -5.045  1.00  0.00     0.031 A 
ATOM     41  C   UNL     1       5.629   4.761  -6.025  1.00  0.00     0.074 A 
ATOM     42  C   UNL     1       7.898   3.991  -5.330  1.00  0.00     0.049 A 
ATOM     43  N   UNL     1       5.672   4.467  -7.280  1.00  0.00    -0.248 NA
ATOM     44  C   UNL     1       4.487   5.603  -5.680  1.00  0.00     0.031 C 
ATOM     45  C   UNL     1       8.709   4.378  -6.461  1.00  0.00     0.029 A 
ATOM     46  N   UNL     1       8.710   3.097  -4.612  1.00  0.00    -0.354 N 
ATOM     47  C   UNL     1       4.772   5.298  -7.923  1.00  0.00     0.074 A 
ATOM     48  C   UNL     1       3.947   5.850  -6.881  1.00  0.00     0.031 C 
ATOM     49  C   UNL     1       9.780   3.560  -6.509  1.00  0.00     0.029 A 
ATOM     50  C   UNL     1       9.584   2.505  -5.517  1.00  0.00     0.049 A 
ATOM     51  H   UNL     1       8.667   2.922  -3.644  1.00  0.00     0.167 HD
ATOM     52  C   UNL     1       4.983   5.625  -9.230  1.00  0.00     0.034 A 
ATOM     53  C   UNL     1       9.598   1.153  -5.724  1.00  0.00     0.034 A 
ATOM     54  C   UNL     1       6.202   4.965  -9.712  1.00  0.00     0.049 A 
ATOM     55  C   UNL     1       9.241   0.833  -7.172  1.00  0.00     0.074 A 
ATOM     56  C   UNL     1       7.523   5.384  -9.748  1.00  0.00     0.029 A 
ATOM     57  N   UNL     1       6.226   3.590  -9.880  1.00  0.00    -0.354 N 
ATOM     58  N   UNL     1       8.748   1.696  -8.017  1.00  0.00    -0.248 NA
ATOM     59  C   UNL     1       9.274  -0.521  -7.716  1.00  0.00     0.031 C 
ATOM     60  C   UNL     1       8.347   4.243  -9.922  1.00  0.00     0.029 A 
ATOM     61  C   UNL     1       7.530   3.132 -10.015  1.00  0.00     0.049 A 
ATOM     62  H   UNL     1       5.427   3.016  -9.900  1.00  0.00     0.167 HD
ATOM     63  C   UNL     1       8.332   1.050  -9.152  1.00  0.00     0.074 A 
ATOM     64  C   UNL     1       8.618  -0.347  -8.874  1.00  0.00     0.031 C 
ATOM     65  C   UNL     1       7.766   1.709 -10.211  1.00  0.00     0.034 A 
BRANCH  52  66
ATOM     66  C   UNL     1       4.377   6.840  -9.924  1.00  0.00     0.023 A 
ATOM     67  C   UNL     1       5.196   7.498 -10.873  1.00  0.00     0.012 A 
ATOM     68  C   UNL     1       3.108   7.423  -9.690  1.00  0.00     0.148 A 
ATOM     69  C   UNL     1       4.851   8.713 -11.468  1.00  0.00     0.002 A 
ATOM     70  C   UNL     1       2.771   8.661 -10.264  1.00  0.00     0.091 A 
ATOM     71  F   UNL     1       2.209   6.765  -8.947  1.00  0.00    -0.205 F 
ATOM     72  C   UNL     1       3.649   9.311 -11.141  1.00  0.00     0.022 A 
BRANCH  70  73
ATOM     73  S   UNL     1       1.251   9.559  -9.893  1.00  0.00     0.127 S 
ATOM     74  O   UNL     1       1.764  10.854  -9.437  1.00  0.00    -0.237 OA
ATOM     75  O   UNL     1       0.582   9.601 -11.192  1.00  0.00    -0.237 OA
ATOM     76  O   UNL     1       0.566   8.790  -8.862  1.00  0.00    -0.744 OA
ENDBRANCH  70  73
ENDBRANCH  52  66
BRANCH  53  77
ATOM     77  C   UNL     1       9.128   0.307  -4.557  1.00  0.00     0.023 A 
ATOM     78  C   UNL     1       9.619   0.572  -3.251  1.00  0.00     0.012 A 
ATOM     79  C   UNL     1       7.986  -0.495  -4.659  1.00  0.00     0.148 A 
ATOM     80  C   UNL     1       8.896   0.194  -2.108  1.00  0.00     0.002 A 
ATOM     81  C   UNL     1       7.258  -0.839  -3.526  1.00  0.00     0.091 A 
ATOM     82  F   UNL     1       7.547  -0.888  -5.859  1.00  0.00    -0.205 F 
ATOM     83  C   UNL     1       7.689  -0.481  -2.247  1.00  0.00     0.022 A 
BRANCH  81  84
ATOM     84  S   UNL     1       5.606  -1.474  -3.780  1.00  0.00     0.127 S 
ATOM     85  O   UNL     1       4.945  -1.182  -2.509  1.00  0.00    -0.237 OA
ATOM     86  O   UNL     1       5.123  -0.668  -4.894  1.00  0.00    -0.237 OA
ATOM     87  O   UNL     1       5.846  -2.887  -4.048  1.00  0.00    -0.744 OA
ENDBRANCH  81  84
ENDBRANCH  53  77
BRANCH  65  88
ATOM     88  C   UNL     1       7.403   1.081 -11.550  1.00  0.00     0.023 A 
ATOM     89  C   UNL     1       7.893  -0.178 -11.941  1.00  0.00     0.012 A 
ATOM     90  C   UNL     1       6.638   1.779 -12.525  1.00  0.00     0.148 A 
ATOM     91  C   UNL     1       7.539  -0.778 -13.152  1.00  0.00     0.002 A 
ATOM     92  C   UNL     1       6.317   1.201 -13.748  1.00  0.00     0.091 A 
ATOM     93  F   UNL     1       6.258   3.041 -12.306  1.00  0.00    -0.205 F 
ATOM     94  C   UNL     1       6.738  -0.094 -14.051  1.00  0.00     0.022 A 
BRANCH  92  95
ATOM     95  S   UNL     1       5.409   2.083 -15.024  1.00  0.00     0.127 S 
ATOM     96  O   UNL     1       6.438   2.251 -16.050  1.00  0.00    -0.237 OA
ATOM     97  O   UNL     1       4.360   1.122 -15.364  1.00  0.00    -0.237 OA
ATOM     98  O   UNL     1       4.932   3.316 -14.417  1.00  0.00    -0.744 OA
ENDBRANCH  92  95
ENDBRANCH  65  88
ENDBRANCH  39  40
ENDBRANCH  32  34
ENDBRANCH  31  32
ENDBRANCH  30  31
ENDBRANCH   1  30
TORSDOF 19
