REMARK SMILES CCNC(=O)[C@@H](C)Oc1ccc(OC)cc1/C=C/C(=O)OCCOC(=O)c1ccc(-c2c3nc(c(-c4cccc(S(=O)(=O)[O-])c4F)c4ccc([nH]4)c(-c4cccc(S(=O)(=O)[O-])c4F)c4nc(c(-c5cccc(S(=O)(=O)[O-])c5F)c5ccc2[nH]5)C=C4)C=C3)cc1
REMARK SMILES IDX 22 1 21 2 19 3 20 4 18 5 17 6 16 7 9 8 10 9 11 10 15 11
REMARK SMILES IDX 12 12 8 13 6 14 7 15 4 16 3 17 5 19 2 20 1 21 13 22 14 23
REMARK SMILES IDX 23 24 24 25 25 26 26 27 27 28 28 29 89 30 29 31 88 32 30 33
REMARK SMILES IDX 31 34 32 35 82 36 33 37 87 38 81 39 83 40 34 41 86 42 80 43
REMARK SMILES IDX 79 44 35 46 67 47 47 48 66 49 48 50 51 51 65 52 84 53 49 54
REMARK SMILES IDX 50 55 64 57 85 58 52 59 36 60 37 61 45 62 38 63 40 64 46 65
REMARK SMILES IDX 39 66 41 67 42 68 43 69 44 70 68 71 69 72 77 73 70 74 72 75
REMARK SMILES IDX 78 76 71 77 73 78 74 79 75 80 76 81 53 82 54 83 62 84 55 85
REMARK SMILES IDX 57 86 63 87 56 88 58 89 59 90 60 91 61 92
REMARK H PARENT 3 18 83 45 51 56
REMARK Flexibility Score: inf
ROOT
ATOM      1  C   UNL     1       3.253   2.640  -4.452  1.00  0.00     0.275 C 
ENDROOT
BRANCH   1   2
ATOM      2  O   UNL     1       2.540   2.962  -3.248  1.00  0.00    -0.459 OA
BRANCH   2   3
ATOM      3  C   UNL     1       2.672   2.045  -2.268  1.00  0.00     0.330 C 
ATOM      4  O   UNL     1       3.309   1.002  -2.322  1.00  0.00    -0.247 OA
BRANCH   3   5
ATOM      5  C   UNL     1       1.929   2.379  -1.046  1.00  0.00     0.094 C 
ATOM      6  C   UNL     1       1.036   3.363  -0.874  1.00  0.00     0.019 C 
BRANCH   6   7
ATOM      7  C   UNL     1       0.152   3.256   0.295  1.00  0.00     0.020 A 
ATOM      8  C   UNL     1      -1.232   3.091   0.119  1.00  0.00     0.127 A 
ATOM      9  C   UNL     1      -2.057   2.884   1.227  1.00  0.00     0.051 A 
ATOM     10  C   UNL     1      -1.498   2.749   2.499  1.00  0.00     0.050 A 
ATOM     11  C   UNL     1       0.696   3.163   1.590  1.00  0.00     0.058 A 
ATOM     12  C   UNL     1      -0.119   2.862   2.681  1.00  0.00     0.119 A 
BRANCH   8  13
ATOM     13  O   UNL     1      -1.816   3.269  -1.102  1.00  0.00    -0.480 OA
BRANCH  13  14
ATOM     14  C   UNL     1      -2.003   2.119  -1.925  1.00  0.00     0.258 C 
ATOM     15  C   UNL     1      -3.123   1.199  -1.449  1.00  0.00     0.064 C 
BRANCH  14  16
ATOM     16  C   UNL     1      -0.811   1.366  -2.577  1.00  0.00     0.260 C 
ATOM     17  N   UNL     1      -0.187   0.304  -1.996  1.00  0.00    -0.353 N 
ATOM     18  H   UNL     1       0.483  -0.137  -2.566  1.00  0.00     0.163 HD
ATOM     19  O   UNL     1      -0.392   1.714  -3.688  1.00  0.00    -0.271 OA
BRANCH  17  20
ATOM     20  C   UNL     1      -0.341  -0.286  -0.681  1.00  0.00     0.112 C 
ATOM     21  C   UNL     1       0.719  -1.345  -0.431  1.00  0.00     0.027 C 
ENDBRANCH  17  20
ENDBRANCH  14  16
ENDBRANCH  13  14
ENDBRANCH   8  13
BRANCH  12  22
ATOM     22  O   UNL     1       0.323   2.671   3.961  1.00  0.00    -0.497 OA
ATOM     23  C   UNL     1       1.647   2.151   4.079  1.00  0.00     0.278 C 
ENDBRANCH  12  22
ENDBRANCH   6   7
ENDBRANCH   3   5
ENDBRANCH   2   3
ENDBRANCH   1   2
BRANCH   1  24
ATOM     24  C   UNL     1       4.593   3.374  -4.519  1.00  0.00     0.275 C 
BRANCH  24  25
ATOM     25  O   UNL     1       5.433   3.073  -3.390  1.00  0.00    -0.458 OA
BRANCH  25  26
ATOM     26  C   UNL     1       5.323   3.938  -2.353  1.00  0.00     0.338 C 
ATOM     27  O   UNL     1       4.631   4.940  -2.292  1.00  0.00    -0.246 OA
BRANCH  26  28
ATOM     28  C   UNL     1       6.112   3.451  -1.214  1.00  0.00     0.060 A 
ATOM     29  C   UNL     1       5.444   2.847  -0.146  1.00  0.00     0.016 A 
ATOM     30  C   UNL     1       7.479   3.710  -1.141  1.00  0.00     0.016 A 
ATOM     31  C   UNL     1       6.133   2.512   1.013  1.00  0.00     0.010 A 
ATOM     32  C   UNL     1       8.175   3.365   0.020  1.00  0.00     0.010 A 
ATOM     33  C   UNL     1       7.501   2.786   1.111  1.00  0.00    -0.014 A 
BRANCH  33  34
ATOM     34  C   UNL     1       8.211   2.536   2.385  1.00  0.00     0.031 A 
ATOM     35  C   UNL     1       8.628   3.700   3.237  1.00  0.00     0.074 A 
ATOM     36  C   UNL     1       8.479   1.275   2.767  1.00  0.00     0.049 A 
ATOM     37  N   UNL     1       9.354   3.708   4.324  1.00  0.00    -0.248 NA
ATOM     38  C   UNL     1       8.171   5.032   2.807  1.00  0.00     0.031 C 
ATOM     39  C   UNL     1       8.095   0.071   2.029  1.00  0.00     0.029 A 
ATOM     40  N   UNL     1       9.157   0.797   3.860  1.00  0.00    -0.354 N 
ATOM     41  C   UNL     1       9.486   5.045   4.679  1.00  0.00     0.074 A 
ATOM     42  C   UNL     1       8.757   5.820   3.698  1.00  0.00     0.031 C 
ATOM     43  C   UNL     1       8.564  -1.007   2.677  1.00  0.00     0.029 A 
ATOM     44  C   UNL     1       9.315  -0.568   3.850  1.00  0.00     0.049 A 
ATOM     45  H   UNL     1       9.497   1.376   4.580  1.00  0.00     0.167 HD
ATOM     46  C   UNL     1      10.149   5.576   5.733  1.00  0.00     0.034 A 
ATOM     47  C   UNL     1      10.017  -1.369   4.675  1.00  0.00     0.034 A 
ATOM     48  C   UNL     1      10.835   4.794   6.725  1.00  0.00     0.049 A 
ATOM     49  C   UNL     1      10.749  -0.753   5.836  1.00  0.00     0.074 A 
ATOM     50  C   UNL     1      11.513   5.231   7.849  1.00  0.00     0.029 A 
ATOM     51  N   UNL     1      10.929   3.411   6.713  1.00  0.00    -0.354 N 
ATOM     52  N   UNL     1      10.803   0.506   6.202  1.00  0.00    -0.248 NA
ATOM     53  C   UNL     1      11.498  -1.666   6.711  1.00  0.00     0.031 C 
ATOM     54  C   UNL     1      12.023   4.110   8.513  1.00  0.00     0.029 A 
ATOM     55  C   UNL     1      11.653   2.975   7.808  1.00  0.00     0.049 A 
ATOM     56  H   UNL     1      10.537   2.824   6.026  1.00  0.00     0.167 HD
ATOM     57  C   UNL     1      11.571   0.534   7.360  1.00  0.00     0.074 A 
ATOM     58  C   UNL     1      11.939  -0.838   7.649  1.00  0.00     0.031 C 
ATOM     59  C   UNL     1      11.958   1.599   8.105  1.00  0.00     0.034 A 
BRANCH  46  60
ATOM     60  C   UNL     1      10.141   7.074   5.878  1.00  0.00     0.023 A 
ATOM     61  C   UNL     1       8.979   7.721   6.343  1.00  0.00     0.012 A 
ATOM     62  C   UNL     1      11.291   7.835   5.593  1.00  0.00     0.148 A 
ATOM     63  C   UNL     1       8.953   9.107   6.497  1.00  0.00     0.002 A 
ATOM     64  C   UNL     1      11.269   9.212   5.784  1.00  0.00     0.091 A 
ATOM     65  F   UNL     1      12.377   7.203   5.124  1.00  0.00    -0.205 F 
ATOM     66  C   UNL     1      10.100   9.850   6.227  1.00  0.00     0.022 A 
BRANCH  64  67
ATOM     67  S   UNL     1      12.718  10.243   5.524  1.00  0.00     0.127 S 
ATOM     68  O   UNL     1      12.392  10.896   4.257  1.00  0.00    -0.237 OA
ATOM     69  O   UNL     1      12.685  11.125   6.691  1.00  0.00    -0.237 OA
ATOM     70  O   UNL     1      13.853   9.332   5.488  1.00  0.00    -0.744 OA
ENDBRANCH  64  67
ENDBRANCH  46  60
BRANCH  47  71
ATOM     71  C   UNL     1      10.032  -2.841   4.443  1.00  0.00     0.023 A 
ATOM     72  C   UNL     1       9.361  -3.690   5.343  1.00  0.00     0.012 A 
ATOM     73  C   UNL     1      10.666  -3.399   3.315  1.00  0.00     0.148 A 
ATOM     74  C   UNL     1       9.337  -5.070   5.135  1.00  0.00     0.002 A 
ATOM     75  C   UNL     1      10.590  -4.768   3.084  1.00  0.00     0.091 A 
ATOM     76  F   UNL     1      11.321  -2.579   2.482  1.00  0.00    -0.205 F 
ATOM     77  C   UNL     1       9.938  -5.607   4.000  1.00  0.00     0.022 A 
BRANCH  75  78
ATOM     78  S   UNL     1      11.216  -5.517   1.575  1.00  0.00     0.127 S 
ATOM     79  O   UNL     1      12.457  -6.131   2.039  1.00  0.00    -0.237 OA
ATOM     80  O   UNL     1      10.151  -6.461   1.236  1.00  0.00    -0.237 OA
ATOM     81  O   UNL     1      11.361  -4.417   0.630  1.00  0.00    -0.744 OA
ENDBRANCH  75  78
ENDBRANCH  47  71
BRANCH  59  82
ATOM     82  C   UNL     1      12.803   1.324   9.319  1.00  0.00     0.023 A 
ATOM     83  C   UNL     1      14.166   1.006   9.158  1.00  0.00     0.012 A 
ATOM     84  C   UNL     1      12.271   1.458  10.616  1.00  0.00     0.148 A 
ATOM     85  C   UNL     1      14.981   0.801  10.270  1.00  0.00     0.002 A 
ATOM     86  C   UNL     1      13.098   1.293  11.720  1.00  0.00     0.091 A 
ATOM     87  F   UNL     1      10.966   1.738  10.747  1.00  0.00    -0.205 F 
ATOM     88  C   UNL     1      14.451   0.956  11.549  1.00  0.00     0.022 A 
BRANCH  86  89
ATOM     89  S   UNL     1      12.515   1.563  13.397  1.00  0.00     0.127 S 
ATOM     90  O   UNL     1      12.316   0.194  13.868  1.00  0.00    -0.237 OA
ATOM     91  O   UNL     1      13.642   2.263  14.014  1.00  0.00    -0.237 OA
ATOM     92  O   UNL     1      11.307   2.368  13.270  1.00  0.00    -0.744 OA
ENDBRANCH  86  89
ENDBRANCH  59  82
ENDBRANCH  33  34
ENDBRANCH  26  28
ENDBRANCH  25  26
ENDBRANCH  24  25
ENDBRANCH   1  24
TORSDOF 20
