REMARK SMILES Cc1nsc(NC(=O)[C@@H]2C[NH2+]C[C@H]2C)c1C(=O)OCCOC(=O)c1ccc(-c2c3nc(c(-c4cccc(S(=O)(=O)[O-])c4F)c4ccc([nH]4)c(-c4cccc(S(=O)(=O)[O-])c4F)c4nc(c(-c5cccc(S(=O)(=O)[O-])c5F)c5ccc2[nH]5)C=C4)C=C3)cc1
REMARK SMILES IDX 20 1 19 2 18 3 16 4 17 5 15 6 1 7 2 8 3 9 4 10 5 11 6 12
REMARK SMILES IDX 7 13 8 15 9 16 10 17 13 18 11 19 12 20 14 21 21 24 22 25
REMARK SMILES IDX 23 26 24 27 25 28 86 29 26 30 85 31 27 32 28 33 29 34 79 35
REMARK SMILES IDX 30 36 84 37 78 38 80 39 31 40 83 41 77 42 76 43 32 45 64 46
REMARK SMILES IDX 44 47 63 48 45 49 48 50 62 51 81 52 46 53 47 54 61 56 82 57
REMARK SMILES IDX 49 58 33 59 34 60 42 61 35 62 37 63 43 64 36 65 38 66 39 67
REMARK SMILES IDX 40 68 41 69 65 70 66 71 74 72 67 73 69 74 75 75 68 76 70 77
REMARK SMILES IDX 71 78 72 79 73 80 50 81 51 82 59 83 52 84 54 85 60 86 53 87
REMARK SMILES IDX 55 88 56 89 57 90 58 91
REMARK H PARENT 6 14 11 22 11 23 80 44 48 55
REMARK Flexibility Score: inf
ROOT
ATOM      1  C   UNL     1       1.181   4.510  -1.054  1.00  0.00     0.275 C 
ENDROOT
BRANCH   1   2
ATOM      2  C   UNL     1       2.406   3.697  -0.653  1.00  0.00     0.275 C 
BRANCH   2   3
ATOM      3  O   UNL     1       2.036   2.474   0.013  1.00  0.00    -0.458 OA
BRANCH   3   4
ATOM      4  C   UNL     1       1.849   2.520   1.366  1.00  0.00     0.343 C 
ATOM      5  O   UNL     1       2.184   3.466   2.073  1.00  0.00    -0.246 OA
BRANCH   4   6
ATOM      6  C   UNL     1       1.134   1.359   1.892  1.00  0.00     0.117 A 
ATOM      7  C   UNL     1       1.154  -0.185  -0.242  1.00  0.00     0.069 C 
ATOM      8  C   UNL     1       0.834   0.132   1.179  1.00  0.00     0.068 A 
ATOM      9  N   UNL     1       0.185  -0.800   1.874  1.00  0.00    -0.195 NA
ATOM     10  S   UNL     1      -0.222  -0.173   3.332  1.00  0.00    -0.017 S 
ATOM     11  C   UNL     1       0.534   1.323   3.154  1.00  0.00     0.130 A 
BRANCH  11  12
ATOM     12  N   UNL     1       0.380   2.368   4.048  1.00  0.00    -0.315 N 
ATOM     13  C   UNL     1      -0.126   2.537   5.303  1.00  0.00     0.234 C 
ATOM     14  H   UNL     1       0.729   3.213   3.682  1.00  0.00     0.170 HD
ATOM     15  O   UNL     1      -0.462   3.705   5.553  1.00  0.00    -0.274 OA
BRANCH  13  16
ATOM     16  C   UNL     1      -0.066   1.512   6.451  1.00  0.00     0.142 C 
ATOM     17  C   UNL     1      -0.869   0.226   6.322  1.00  0.00     0.274 C 
ATOM     18  C   UNL     1      -0.606   2.109   7.795  1.00  0.00     0.059 C 
ATOM     19  N   UNL     1      -1.353  -0.117   7.667  1.00  0.00    -0.345 N 
ATOM     20  C   UNL     1      -1.749   1.182   8.206  1.00  0.00     0.264 C 
ATOM     21  C   UNL     1       0.483   2.156   8.870  1.00  0.00     0.015 C 
ATOM     22  H   UNL     1      -0.613  -0.538   8.228  1.00  0.00     0.346 HD
ATOM     23  H   UNL     1      -2.109  -0.801   7.663  1.00  0.00     0.346 HD
ENDBRANCH  13  16
ENDBRANCH  11  12
ENDBRANCH   4   6
ENDBRANCH   3   4
ENDBRANCH   2   3
ENDBRANCH   1   2
BRANCH   1  24
ATOM     24  O   UNL     1       0.596   5.118   0.093  1.00  0.00    -0.458 OA
BRANCH  24  25
ATOM     25  C   UNL     1      -0.391   4.397   0.664  1.00  0.00     0.338 C 
ATOM     26  O   UNL     1      -0.655   3.223   0.464  1.00  0.00    -0.246 OA
BRANCH  25  27
ATOM     27  C   UNL     1      -1.241   5.275   1.459  1.00  0.00     0.060 A 
ATOM     28  C   UNL     1      -2.213   4.656   2.253  1.00  0.00     0.016 A 
ATOM     29  C   UNL     1      -1.283   6.634   1.127  1.00  0.00     0.016 A 
ATOM     30  C   UNL     1      -3.354   5.361   2.544  1.00  0.00     0.010 A 
ATOM     31  C   UNL     1      -2.427   7.330   1.405  1.00  0.00     0.010 A 
ATOM     32  C   UNL     1      -3.475   6.652   2.031  1.00  0.00    -0.014 A 
BRANCH  32  33
ATOM     33  C   UNL     1      -4.737   7.333   2.187  1.00  0.00     0.031 A 
ATOM     34  C   UNL     1      -4.970   7.846   3.558  1.00  0.00     0.074 A 
ATOM     35  C   UNL     1      -5.483   7.599   1.098  1.00  0.00     0.049 A 
ATOM     36  N   UNL     1      -6.000   7.659   4.312  1.00  0.00    -0.248 NA
ATOM     37  C   UNL     1      -3.851   8.531   4.228  1.00  0.00     0.031 C 
ATOM     38  C   UNL     1      -5.131   7.357  -0.307  1.00  0.00     0.029 A 
ATOM     39  N   UNL     1      -6.614   8.344   1.010  1.00  0.00    -0.354 N 
ATOM     40  C   UNL     1      -5.738   8.370   5.482  1.00  0.00     0.074 A 
ATOM     41  C   UNL     1      -4.346   8.719   5.448  1.00  0.00     0.031 C 
ATOM     42  C   UNL     1      -5.847   8.199  -1.083  1.00  0.00     0.029 A 
ATOM     43  C   UNL     1      -6.761   8.944  -0.235  1.00  0.00     0.049 A 
ATOM     44  H   UNL     1      -7.258   8.449   1.747  1.00  0.00     0.167 HD
ATOM     45  C   UNL     1      -6.741   8.818   6.281  1.00  0.00     0.034 A 
ATOM     46  C   UNL     1      -7.461  10.074  -0.497  1.00  0.00     0.034 A 
ATOM     47  C   UNL     1      -7.976   8.135   6.002  1.00  0.00     0.049 A 
ATOM     48  C   UNL     1      -8.392  10.294   0.639  1.00  0.00     0.074 A 
ATOM     49  C   UNL     1      -8.384   6.817   6.054  1.00  0.00     0.029 A 
ATOM     50  N   UNL     1      -8.900   8.794   5.228  1.00  0.00    -0.354 N 
ATOM     51  N   UNL     1      -9.380   9.490   0.925  1.00  0.00    -0.248 NA
ATOM     52  C   UNL     1      -7.944  11.142   1.736  1.00  0.00     0.031 C 
ATOM     53  C   UNL     1      -9.251   6.661   4.936  1.00  0.00     0.029 A 
ATOM     54  C   UNL     1      -9.363   7.900   4.301  1.00  0.00     0.049 A 
ATOM     55  H   UNL     1      -9.178   9.734   5.323  1.00  0.00     0.167 HD
ATOM     56  C   UNL     1      -9.370   9.403   2.313  1.00  0.00     0.074 A 
ATOM     57  C   UNL     1      -8.546  10.525   2.758  1.00  0.00     0.031 C 
ATOM     58  C   UNL     1      -9.764   8.263   2.958  1.00  0.00     0.034 A 
BRANCH  45  59
ATOM     59  C   UNL     1      -6.712  10.111   7.061  1.00  0.00     0.023 A 
ATOM     60  C   UNL     1      -7.813  10.365   7.909  1.00  0.00     0.012 A 
ATOM     61  C   UNL     1      -5.845  11.196   6.796  1.00  0.00     0.148 A 
ATOM     62  C   UNL     1      -8.087  11.648   8.393  1.00  0.00     0.002 A 
ATOM     63  C   UNL     1      -6.082  12.454   7.337  1.00  0.00     0.091 A 
ATOM     64  F   UNL     1      -4.852  11.071   5.912  1.00  0.00    -0.205 F 
ATOM     65  C   UNL     1      -7.221  12.694   8.106  1.00  0.00     0.022 A 
BRANCH  63  66
ATOM     66  S   UNL     1      -4.968  13.830   7.022  1.00  0.00     0.127 S 
ATOM     67  O   UNL     1      -5.694  14.564   5.991  1.00  0.00    -0.237 OA
ATOM     68  O   UNL     1      -4.918  14.485   8.330  1.00  0.00    -0.237 OA
ATOM     69  O   UNL     1      -3.707  13.223   6.614  1.00  0.00    -0.744 OA
ENDBRANCH  63  66
ENDBRANCH  45  59
BRANCH  46  70
ATOM     70  C   UNL     1      -7.135  11.117  -1.499  1.00  0.00     0.023 A 
ATOM     71  C   UNL     1      -8.136  11.988  -1.964  1.00  0.00     0.012 A 
ATOM     72  C   UNL     1      -5.794  11.397  -1.859  1.00  0.00     0.148 A 
ATOM     73  C   UNL     1      -7.814  13.094  -2.764  1.00  0.00     0.002 A 
ATOM     74  C   UNL     1      -5.483  12.475  -2.681  1.00  0.00     0.091 A 
ATOM     75  F   UNL     1      -4.808  10.666  -1.322  1.00  0.00    -0.205 F 
ATOM     76  C   UNL     1      -6.491  13.334  -3.128  1.00  0.00     0.022 A 
BRANCH  74  77
ATOM     77  S   UNL     1      -3.792  12.807  -3.198  1.00  0.00     0.127 S 
ATOM     78  O   UNL     1      -3.965  13.171  -4.605  1.00  0.00    -0.237 OA
ATOM     79  O   UNL     1      -3.416  13.912  -2.321  1.00  0.00    -0.237 OA
ATOM     80  O   UNL     1      -3.069  11.557  -2.995  1.00  0.00    -0.744 OA
ENDBRANCH  74  77
ENDBRANCH  46  70
BRANCH  58  81
ATOM     81  C   UNL     1     -10.393   7.154   2.149  1.00  0.00     0.023 A 
ATOM     82  C   UNL     1      -9.674   6.472   1.144  1.00  0.00     0.012 A 
ATOM     83  C   UNL     1     -11.625   6.629   2.571  1.00  0.00     0.148 A 
ATOM     84  C   UNL     1     -10.174   5.303   0.566  1.00  0.00     0.002 A 
ATOM     85  C   UNL     1     -12.096   5.438   2.031  1.00  0.00     0.091 A 
ATOM     86  F   UNL     1     -12.296   7.280   3.533  1.00  0.00    -0.205 F 
ATOM     87  C   UNL     1     -11.378   4.776   1.022  1.00  0.00     0.022 A 
BRANCH  85  88
ATOM     88  S   UNL     1     -13.558   4.630   2.686  1.00  0.00     0.127 S 
ATOM     89  O   UNL     1     -14.568   4.967   1.685  1.00  0.00    -0.237 OA
ATOM     90  O   UNL     1     -13.162   3.220   2.704  1.00  0.00    -0.237 OA
ATOM     91  O   UNL     1     -13.768   5.201   4.011  1.00  0.00    -0.744 OA
ENDBRANCH  85  88
ENDBRANCH  58  81
ENDBRANCH  32  33
ENDBRANCH  25  27
ENDBRANCH  24  25
ENDBRANCH   1  24
TORSDOF 16
