REMARK SMILES O=C(N[C@@H](Cc1c[nH]c2ccccc12)C(=O)N[C@@H](CS)C(=O)N[C@@H](CO)C(=O)OCCOC(=O)c1ccc(-c2c3nc(c(-c4cccc(S(=O)(=O)[O-])c4F)c4ccc([nH]4)c(-c4cccc(S(=O)(=O)[O-])c4F)c4nc(c(-c5cccc(S(=O)(=O)[O-])c5F)c5ccc2[nH]5)C=C4)C=C3)cc1)c1ccc(F)cc1
REMARK SMILES IDX 29 1 27 2 28 3 24 4 23 5 21 6 22 7 18 9 17 10 15 11 16 12
REMARK SMILES IDX 4 14 3 15 1 16 2 17 98 19 99 20 104 21 100 22 103 23 101 24
REMARK SMILES IDX 102 25 5 26 6 27 7 28 14 29 8 30 9 31 13 32 10 34 12 35
REMARK SMILES IDX 11 36 19 37 20 38 25 40 26 41 30 43 31 44 32 45 33 46 34 47
REMARK SMILES IDX 35 48 36 49 97 50 37 51 96 52 38 53 39 54 40 55 90 56 41 57
REMARK SMILES IDX 95 58 89 59 91 60 42 61 94 62 88 63 87 64 43 66 75 67 55 68
REMARK SMILES IDX 74 69 56 70 59 71 73 72 92 73 57 74 58 75 72 77 93 78 60 79
REMARK SMILES IDX 44 80 45 81 53 82 46 83 48 84 54 85 47 86 49 87 50 88 51 89
REMARK SMILES IDX 52 90 76 91 77 92 85 93 78 94 80 95 86 96 79 97 81 98 82 99
REMARK SMILES IDX 83 100 84 101 61 102 62 103 70 104 63 105 65 106 71 107
REMARK SMILES IDX 64 108 66 109 67 110 68 111 69 112
REMARK H PARENT 23 8 17 13 3 18 8 33 20 39 26 42 91 65 59 76
REMARK Flexibility Score: inf
ROOT
ATOM      1  O   UNL     1       4.598  -0.380  -9.188  1.00  0.00    -0.460 OA
ENDROOT
BRANCH   1   2
ATOM      2  C   UNL     1       5.408   0.680  -8.867  1.00  0.00     0.331 C 
ATOM      3  O   UNL     1       5.386   1.746  -9.475  1.00  0.00    -0.250 OA
BRANCH   2   4
ATOM      4  C   UNL     1       6.229   0.488  -7.545  1.00  0.00     0.218 C 
BRANCH   4   5
ATOM      5  N   UNL     1       6.352  -0.869  -6.959  1.00  0.00    -0.339 N 
ATOM      6  C   UNL     1       5.917  -1.565  -5.876  1.00  0.00     0.244 C 
ATOM      7  O   UNL     1       6.577  -2.619  -5.740  1.00  0.00    -0.273 OA
ATOM      8  H   UNL     1       6.922  -1.438  -7.526  1.00  0.00     0.164 HD
BRANCH   6   9
ATOM      9  C   UNL     1       4.712  -1.216  -4.634  1.00  0.00     0.181 C 
BRANCH   9  10
ATOM     10  N   UNL     1       5.822  -0.606  -3.395  1.00  0.00    -0.342 N 
ATOM     11  C   UNL     1       5.880  -0.415  -2.007  1.00  0.00     0.243 C 
ATOM     12  O   UNL     1       6.837   0.290  -1.635  1.00  0.00    -0.273 OA
ATOM     13  H   UNL     1       6.663  -0.308  -3.812  1.00  0.00     0.164 HD
BRANCH  11  14
ATOM     14  C   UNL     1       4.821  -0.908  -0.836  1.00  0.00     0.176 C 
BRANCH  14  15
ATOM     15  N   UNL     1       3.476  -0.262  -0.622  1.00  0.00    -0.340 N 
ATOM     16  O   UNL     1       1.550   0.247   0.363  1.00  0.00    -0.269 OA
ATOM     17  C   UNL     1       2.773   0.200   0.442  1.00  0.00     0.251 C 
ATOM     18  H   UNL     1       2.984  -0.147  -1.467  1.00  0.00     0.164 HD
BRANCH  17  19
ATOM     19  C   UNL     1       3.449   0.587   1.671  1.00  0.00     0.040 A 
ATOM     20  C   UNL     1       4.562   1.428   1.621  1.00  0.00     0.017 A 
ATOM     21  C   UNL     1       2.925   0.132   2.885  1.00  0.00     0.017 A 
ATOM     22  C   UNL     1       5.213   1.746   2.807  1.00  0.00     0.040 A 
ATOM     23  C   UNL     1       3.586   0.448   4.066  1.00  0.00     0.040 A 
ATOM     24  C   UNL     1       4.734   1.235   4.013  1.00  0.00     0.123 A 
ATOM     25  F   UNL     1       5.399   1.503   5.143  1.00  0.00    -0.207 F 
ENDBRANCH  17  19
ENDBRANCH  14  15
BRANCH  14  26
ATOM     26  C   UNL     1       4.567  -2.414  -0.942  1.00  0.00     0.072 C 
BRANCH  26  27
ATOM     27  C   UNL     1       3.697  -2.710  -2.118  1.00  0.00    -0.020 A 
ATOM     28  C   UNL     1       3.343  -3.971  -2.587  1.00  0.00     0.087 A 
ATOM     29  C   UNL     1       3.376  -1.734  -3.108  1.00  0.00     0.003 A 
ATOM     30  N   UNL     1       2.943  -3.990  -3.916  1.00  0.00    -0.361 N 
ATOM     31  C   UNL     1       3.175  -2.771  -4.498  1.00  0.00     0.046 A 
ATOM     32  C   UNL     1       3.691   0.057  -3.373  1.00  0.00     0.010 A 
ATOM     33  H   UNL     1       2.549  -4.767  -4.374  1.00  0.00     0.166 HD
ATOM     34  C   UNL     1       3.424  -2.144  -6.129  1.00  0.00     0.026 A 
ATOM     35  C   UNL     1       4.029   0.680  -5.020  1.00  0.00     0.001 A 
ATOM     36  C   UNL     1       3.768  -0.409  -6.368  1.00  0.00     0.002 A 
ENDBRANCH  26  27
ENDBRANCH  14  26
ENDBRANCH  11  14
ENDBRANCH   9  10
BRANCH   9  37
ATOM     37  C   UNL     1       2.566  -0.775  -4.772  1.00  0.00     0.101 C 
BRANCH  37  38
ATOM     38  S   UNL     1       1.486   1.047  -4.720  1.00  0.00    -0.177 SA
ATOM     39  H   UNL     1       1.436   1.508  -3.441  1.00  0.00     0.102 HD
ENDBRANCH  37  38
ENDBRANCH   9  37
ENDBRANCH   6   9
ENDBRANCH   4   5
BRANCH   4  40
ATOM     40  C   UNL     1       7.637   1.059  -7.765  1.00  0.00     0.193 C 
BRANCH  40  41
ATOM     41  O   UNL     1       8.441   0.150  -8.521  1.00  0.00    -0.394 OA
ATOM     42  H   UNL     1       8.524  -0.687  -8.039  1.00  0.00     0.210 HD
ENDBRANCH  40  41
ENDBRANCH   4  40
ENDBRANCH   2   4
ENDBRANCH   1   2
BRANCH   1  43
ATOM     43  C   UNL     1       3.589  -0.142 -10.213  1.00  0.00     0.274 C 
BRANCH  43  44
ATOM     44  C   UNL     1       2.215  -0.755  -9.850  1.00  0.00     0.275 C 
BRANCH  44  45
ATOM     45  O   UNL     1       1.424   0.063  -8.940  1.00  0.00    -0.458 OA
BRANCH  45  46
ATOM     46  C   UNL     1       0.321  -0.586  -8.437  1.00  0.00     0.338 C 
ATOM     47  O   UNL     1       0.071  -1.766  -8.649  1.00  0.00    -0.246 OA
BRANCH  46  48
ATOM     48  C   UNL     1      -0.502   0.238  -7.490  1.00  0.00     0.060 A 
ATOM     49  C   UNL     1      -0.482   1.627  -7.434  1.00  0.00     0.016 A 
ATOM     50  C   UNL     1      -1.314  -0.419  -6.559  1.00  0.00     0.016 A 
ATOM     51  C   UNL     1      -1.045   2.299  -6.316  1.00  0.00     0.010 A 
ATOM     52  C   UNL     1      -1.855   0.272  -5.450  1.00  0.00     0.010 A 
ATOM     53  C   UNL     1      -1.524   1.608  -5.179  1.00  0.00    -0.014 A 
BRANCH  53  54
ATOM     54  C   UNL     1      -1.518   2.189  -3.733  1.00  0.00     0.031 A 
ATOM     55  C   UNL     1      -1.855   1.335  -2.497  1.00  0.00     0.074 A 
ATOM     56  C   UNL     1      -0.970   3.378  -3.355  1.00  0.00     0.049 A 
ATOM     57  N   UNL     1      -2.407   1.684  -1.356  1.00  0.00    -0.248 NA
ATOM     58  C   UNL     1      -1.482  -0.089  -2.532  1.00  0.00     0.031 C 
ATOM     59  C   UNL     1      -0.126   4.267  -4.153  1.00  0.00     0.029 A 
ATOM     60  N   UNL     1      -1.073   4.064  -2.150  1.00  0.00    -0.354 N 
ATOM     61  C   UNL     1      -2.610   0.503  -0.637  1.00  0.00     0.074 A 
ATOM     62  C   UNL     1      -2.081  -0.570  -1.451  1.00  0.00     0.031 C 
ATOM     63  C   UNL     1       0.053   5.427  -3.508  1.00  0.00     0.029 A 
ATOM     64  C   UNL     1      -0.666   5.379  -2.244  1.00  0.00     0.049 A 
ATOM     65  H   UNL     1      -1.401   3.654  -1.317  1.00  0.00     0.167 HD
ATOM     66  C   UNL     1      -3.170   0.322   0.587  1.00  0.00     0.034 A 
ATOM     67  C   UNL     1      -0.893   6.459  -1.467  1.00  0.00     0.034 A 
ATOM     68  C   UNL     1      -3.438   1.385   1.525  1.00  0.00     0.049 A 
ATOM     69  C   UNL     1      -1.621   6.314  -0.165  1.00  0.00     0.074 A 
ATOM     70  C   UNL     1      -4.006   1.307   2.787  1.00  0.00     0.029 A 
ATOM     71  N   UNL     1      -3.081   2.709   1.338  1.00  0.00    -0.354 N 
ATOM     72  N   UNL     1      -2.067   5.228   0.411  1.00  0.00    -0.248 NA
ATOM     73  C   UNL     1      -1.850   7.542   0.613  1.00  0.00     0.031 C 
ATOM     74  C   UNL     1      -4.035   2.592   3.342  1.00  0.00     0.029 A 
ATOM     75  C   UNL     1      -3.443   3.463   2.444  1.00  0.00     0.049 A 
ATOM     76  H   UNL     1      -2.635   3.065   0.536  1.00  0.00     0.167 HD
ATOM     77  C   UNL     1      -2.606   5.632   1.626  1.00  0.00     0.074 A 
ATOM     78  C   UNL     1      -2.407   7.063   1.717  1.00  0.00     0.031 C 
ATOM     79  C   UNL     1      -3.222   4.880   2.570  1.00  0.00     0.034 A 
BRANCH  66  80
ATOM     80  C   UNL     1      -3.611  -1.073   0.979  1.00  0.00     0.023 A 
ATOM     81  C   UNL     1      -2.695  -2.076   1.345  1.00  0.00     0.012 A 
ATOM     82  C   UNL     1      -4.995  -1.355   1.042  1.00  0.00     0.148 A 
ATOM     83  C   UNL     1      -3.146  -3.346   1.719  1.00  0.00     0.002 A 
ATOM     84  C   UNL     1      -5.438  -2.603   1.465  1.00  0.00     0.091 A 
ATOM     85  F   UNL     1      -5.860  -0.394   0.686  1.00  0.00    -0.205 F 
ATOM     86  C   UNL     1      -4.514  -3.606   1.789  1.00  0.00     0.022 A 
BRANCH  84  87
ATOM     87  S   UNL     1      -7.182  -2.989   1.676  1.00  0.00     0.127 S 
ATOM     88  O   UNL     1      -7.430  -3.870   0.535  1.00  0.00    -0.237 OA
ATOM     89  O   UNL     1      -7.196  -3.661   2.976  1.00  0.00    -0.237 OA
ATOM     90  O   UNL     1      -7.885  -1.715   1.648  1.00  0.00    -0.744 OA
ENDBRANCH  84  87
ENDBRANCH  66  80
BRANCH  67  91
ATOM     91  C   UNL     1      -0.499   7.809  -1.973  1.00  0.00     0.023 A 
ATOM     92  C   UNL     1       0.516   8.550  -1.342  1.00  0.00     0.012 A 
ATOM     93  C   UNL     1      -1.122   8.338  -3.124  1.00  0.00     0.148 A 
ATOM     94  C   UNL     1       0.898   9.796  -1.844  1.00  0.00     0.002 A 
ATOM     95  C   UNL     1      -0.686   9.542  -3.660  1.00  0.00     0.091 A 
ATOM     96  F   UNL     1      -2.118   7.639  -3.686  1.00  0.00    -0.205 F 
ATOM     97  C   UNL     1       0.312  10.283  -3.012  1.00  0.00     0.022 A 
BRANCH  95  98
ATOM     98  S   UNL     1      -1.270  10.152  -5.246  1.00  0.00     0.127 S 
ATOM     99  O   UNL     1      -2.040  11.329  -4.851  1.00  0.00    -0.237 OA
ATOM    100  O   UNL     1      -0.012  10.441  -5.936  1.00  0.00    -0.237 OA
ATOM    101  O   UNL     1      -2.036   9.062  -5.833  1.00  0.00    -0.744 OA
ENDBRANCH  95  98
ENDBRANCH  67  91
BRANCH  79 102
ATOM    102  C   UNL     1      -3.700   5.582   3.815  1.00  0.00     0.023 A 
ATOM    103  C   UNL     1      -4.792   6.471   3.746  1.00  0.00     0.012 A 
ATOM    104  C   UNL     1      -3.074   5.357   5.057  1.00  0.00     0.148 A 
ATOM    105  C   UNL     1      -5.217   7.165   4.878  1.00  0.00     0.002 A 
ATOM    106  C   UNL     1      -3.535   6.014   6.192  1.00  0.00     0.091 A 
ATOM    107  F   UNL     1      -2.025   4.523   5.105  1.00  0.00    -0.205 F 
ATOM    108  C   UNL     1      -4.594   6.931   6.102  1.00  0.00     0.022 A 
BRANCH 106 109
ATOM    109  S   UNL     1      -2.852   5.708   7.826  1.00  0.00     0.127 S 
ATOM    110  O   UNL     1      -2.076   6.926   8.058  1.00  0.00    -0.237 OA
ATOM    111  O   UNL     1      -4.056   5.588   8.649  1.00  0.00    -0.237 OA
ATOM    112  O   UNL     1      -2.075   4.481   7.713  1.00  0.00    -0.744 OA
ENDBRANCH 106 109
ENDBRANCH  79 102
ENDBRANCH  53  54
ENDBRANCH  46  48
ENDBRANCH  45  46
ENDBRANCH  44  45
ENDBRANCH  43  44
ENDBRANCH   1  43
TORSDOF 26
