REMARK SMILES CCC(CC)(Nc1nc(Cl)nc(OC)n1)C(=O)OCCOC(=O)c1ccc(-c2c3nc(c(-c4cccc(S(=O)(=O)[O-])c4F)c4ccc([nH]4)c(-c4cccc(S(=O)(=O)[O-])c4F)c4nc(c(-c5cccc(S(=O)(=O)[O-])c5F)c5ccc2[nH]5)C=C4)C=C3)cc1
REMARK SMILES IDX 19 1 18 2 16 3 17 4 3 5 2 6 1 7 4 8 5 9 6 10 7 12 8 13 15 14
REMARK SMILES IDX 9 15 12 16 10 17 11 18 13 19 14 20 20 21 21 22 22 23 23 24
REMARK SMILES IDX 24 25 25 26 86 27 26 28 85 29 27 30 28 31 29 32 79 33 30 34
REMARK SMILES IDX 84 35 78 36 80 37 31 38 83 39 77 40 76 41 32 43 64 44 44 45
REMARK SMILES IDX 63 46 45 47 48 48 62 49 81 50 46 51 47 52 61 54 82 55 49 56
REMARK SMILES IDX 33 57 34 58 42 59 35 60 37 61 43 62 36 63 38 64 39 65 40 66
REMARK SMILES IDX 41 67 65 68 66 69 74 70 67 71 69 72 75 73 68 74 70 75 71 76
REMARK SMILES IDX 72 77 73 78 50 79 51 80 59 81 52 82 54 83 60 84 53 85 55 86
REMARK SMILES IDX 56 87 57 88 58 89
REMARK H PARENT 6 11 80 42 48 53
REMARK Flexibility Score: inf
ROOT
ATOM      1  C   UNL     1       4.487   2.386  -1.909  1.00  0.00     0.274 C 
ENDROOT
BRANCH   1   2
ATOM      2  O   UNL     1       3.092   2.707  -1.726  1.00  0.00    -0.460 OA
BRANCH   2   3
ATOM      3  C   UNL     1       2.203   1.685  -1.700  1.00  0.00     0.331 C 
ATOM      4  O   UNL     1       2.550   0.508  -1.744  1.00  0.00    -0.249 OA
BRANCH   3   5
ATOM      5  C   UNL     1       0.702   2.128  -1.717  1.00  0.00     0.137 C 
BRANCH   5   6
ATOM      6  C   UNL     1      -0.092   1.333  -0.621  1.00  0.00     0.037 C 
ATOM      7  C   UNL     1      -0.038  -0.186  -0.636  1.00  0.00     0.007 C 
ENDBRANCH   5   6
BRANCH   5   8
ATOM      8  C   UNL     1       0.199   1.832  -3.151  1.00  0.00     0.037 C 
ATOM      9  C   UNL     1      -1.310   1.870  -3.349  1.00  0.00     0.007 C 
ENDBRANCH   5   8
BRANCH   5  10
ATOM     10  N   UNL     1       0.433   3.538  -1.360  1.00  0.00    -0.338 N 
ATOM     11  H   UNL     1      -0.382   3.673  -0.825  1.00  0.00     0.164 HD
BRANCH  10  12
ATOM     12  C   UNL     1       1.114   4.682  -1.641  1.00  0.00     0.231 A 
ATOM     13  N   UNL     1       1.881   4.812  -2.704  1.00  0.00    -0.182 NA
ATOM     14  N   UNL     1       0.939   5.632  -0.732  1.00  0.00    -0.159 NA
ATOM     15  C   UNL     1       2.562   5.953  -2.727  1.00  0.00     0.230 A 
ATOM     16  C   UNL     1       1.681   6.726  -0.875  1.00  0.00     0.322 A 
ATOM     17  Cl  UNL     1       3.666   6.131  -4.022  1.00  0.00    -0.041 Cl
ATOM     18  N   UNL     1       2.523   6.955  -1.865  1.00  0.00    -0.164 NA
BRANCH  16  19
ATOM     19  O   UNL     1       1.579   7.745   0.049  1.00  0.00    -0.467 OA
ATOM     20  C   UNL     1       0.729   7.423   1.146  1.00  0.00     0.282 C 
ENDBRANCH  16  19
ENDBRANCH  10  12
ENDBRANCH   5  10
ENDBRANCH   3   5
ENDBRANCH   2   3
ENDBRANCH   1   2
BRANCH   1  21
ATOM     21  C   UNL     1       5.281   3.006  -0.768  1.00  0.00     0.275 C 
BRANCH  21  22
ATOM     22  O   UNL     1       4.841   2.391   0.453  1.00  0.00    -0.458 OA
BRANCH  22  23
ATOM     23  C   UNL     1       4.314   3.226   1.375  1.00  0.00     0.338 C 
ATOM     24  O   UNL     1       4.306   4.444   1.365  1.00  0.00    -0.246 OA
BRANCH  23  25
ATOM     25  C   UNL     1       3.662   2.418   2.416  1.00  0.00     0.060 A 
ATOM     26  C   UNL     1       2.576   1.614   2.072  1.00  0.00     0.016 A 
ATOM     27  C   UNL     1       4.050   2.549   3.746  1.00  0.00     0.016 A 
ATOM     28  C   UNL     1       1.809   1.012   3.068  1.00  0.00     0.010 A 
ATOM     29  C   UNL     1       3.332   1.873   4.737  1.00  0.00     0.010 A 
ATOM     30  C   UNL     1       2.172   1.141   4.416  1.00  0.00    -0.014 A 
BRANCH  30  31
ATOM     31  C   UNL     1       1.306   0.594   5.498  1.00  0.00     0.031 A 
ATOM     32  C   UNL     1       0.725   1.526   6.533  1.00  0.00     0.074 A 
ATOM     33  C   UNL     1       1.033  -0.725   5.572  1.00  0.00     0.049 A 
ATOM     34  N   UNL     1       0.090   1.242   7.641  1.00  0.00    -0.248 NA
ATOM     35  C   UNL     1       0.897   2.971   6.298  1.00  0.00     0.031 C 
ATOM     36  C   UNL     1       1.503  -1.743   4.632  1.00  0.00     0.029 A 
ATOM     37  N   UNL     1       0.294  -1.435   6.487  1.00  0.00    -0.354 N 
ATOM     38  C   UNL     1      -0.130   2.459   8.276  1.00  0.00     0.074 A 
ATOM     39  C   UNL     1       0.420   3.489   7.421  1.00  0.00     0.031 C 
ATOM     40  C   UNL     1       1.021  -2.940   5.003  1.00  0.00     0.029 A 
ATOM     41  C   UNL     1       0.263  -2.788   6.241  1.00  0.00     0.049 A 
ATOM     42  H   UNL     1      -0.168  -1.015   7.248  1.00  0.00     0.167 HD
ATOM     43  C   UNL     1      -0.745   2.704   9.457  1.00  0.00     0.034 A 
ATOM     44  C   UNL     1      -0.292  -3.797   6.943  1.00  0.00     0.034 A 
ATOM     45  C   UNL     1      -1.385   1.699  10.261  1.00  0.00     0.049 A 
ATOM     46  C   UNL     1      -1.010  -3.493   8.230  1.00  0.00     0.074 A 
ATOM     47  C   UNL     1      -2.071   1.859  11.453  1.00  0.00     0.029 A 
ATOM     48  N   UNL     1      -1.443   0.352   9.943  1.00  0.00    -0.354 N 
ATOM     49  N   UNL     1      -1.241  -2.331   8.792  1.00  0.00    -0.248 NA
ATOM     50  C   UNL     1      -1.550  -4.639   8.976  1.00  0.00     0.031 C 
ATOM     51  C   UNL     1      -2.552   0.607  11.851  1.00  0.00     0.029 A 
ATOM     52  C   UNL     1      -2.162  -0.331  10.908  1.00  0.00     0.049 A 
ATOM     53  H   UNL     1      -1.033  -0.059   9.148  1.00  0.00     0.167 HD
ATOM     54  C   UNL     1      -1.968  -2.605   9.945  1.00  0.00     0.074 A 
ATOM     55  C   UNL     1      -2.165  -4.039   9.987  1.00  0.00     0.031 C 
ATOM     56  C   UNL     1      -2.408  -1.749  10.900  1.00  0.00     0.034 A 
BRANCH  43  57
ATOM     57  C   UNL     1      -0.784   4.128   9.939  1.00  0.00     0.023 A 
ATOM     58  C   UNL     1      -1.711   5.029   9.378  1.00  0.00     0.012 A 
ATOM     59  C   UNL     1       0.064   4.562  10.976  1.00  0.00     0.148 A 
ATOM     60  C   UNL     1      -1.775   6.348   9.826  1.00  0.00     0.002 A 
ATOM     61  C   UNL     1      -0.029   5.869  11.440  1.00  0.00     0.091 A 
ATOM     62  F   UNL     1       0.962   3.700  11.475  1.00  0.00    -0.205 F 
ATOM     63  C   UNL     1      -0.943   6.765  10.862  1.00  0.00     0.022 A 
BRANCH  61  64
ATOM     64  S   UNL     1       0.962   6.460  12.817  1.00  0.00     0.127 S 
ATOM     65  O   UNL     1       2.061   7.130  12.125  1.00  0.00    -0.237 OA
ATOM     66  O   UNL     1       0.039   7.361  13.509  1.00  0.00    -0.237 OA
ATOM     67  O   UNL     1       1.320   5.270  13.577  1.00  0.00    -0.744 OA
ENDBRANCH  61  64
ENDBRANCH  43  57
BRANCH  44  68
ATOM     68  C   UNL     1      -0.231  -5.191   6.417  1.00  0.00     0.023 A 
ATOM     69  C   UNL     1      -1.413  -5.801   5.957  1.00  0.00     0.012 A 
ATOM     70  C   UNL     1       0.983  -5.899   6.333  1.00  0.00     0.148 A 
ATOM     71  C   UNL     1      -1.391  -7.096   5.438  1.00  0.00     0.002 A 
ATOM     72  C   UNL     1       1.008  -7.167   5.762  1.00  0.00     0.091 A 
ATOM     73  F   UNL     1       2.096  -5.318   6.805  1.00  0.00    -0.205 F 
ATOM     74  C   UNL     1      -0.180  -7.773   5.327  1.00  0.00     0.022 A 
BRANCH  72  75
ATOM     75  S   UNL     1       2.552  -8.032   5.455  1.00  0.00     0.127 S 
ATOM     76  O   UNL     1       2.620  -8.941   6.595  1.00  0.00    -0.237 OA
ATOM     77  O   UNL     1       2.297  -8.678   4.166  1.00  0.00    -0.237 OA
ATOM     78  O   UNL     1       3.567  -6.988   5.403  1.00  0.00    -0.744 OA
ENDBRANCH  72  75
ENDBRANCH  44  68
BRANCH  56  79
ATOM     79  C   UNL     1      -3.164  -2.331  12.063  1.00  0.00     0.023 A 
ATOM     80  C   UNL     1      -2.455  -2.990  13.086  1.00  0.00     0.012 A 
ATOM     81  C   UNL     1      -4.556  -2.164  12.181  1.00  0.00     0.148 A 
ATOM     82  C   UNL     1      -3.125  -3.494  14.200  1.00  0.00     0.002 A 
ATOM     83  C   UNL     1      -5.213  -2.638  13.313  1.00  0.00     0.091 A 
ATOM     84  F   UNL     1      -5.220  -1.556  11.186  1.00  0.00    -0.205 F 
ATOM     85  C   UNL     1      -4.500  -3.309  14.319  1.00  0.00     0.022 A 
BRANCH  83  86
ATOM     86  S   UNL     1      -6.969  -2.357  13.565  1.00  0.00     0.127 S 
ATOM     87  O   UNL     1      -7.551  -3.587  13.030  1.00  0.00    -0.237 OA
ATOM     88  O   UNL     1      -7.069  -2.219  15.019  1.00  0.00    -0.237 OA
ATOM     89  O   UNL     1      -7.273  -1.136  12.829  1.00  0.00    -0.744 OA
ENDBRANCH  83  86
ENDBRANCH  56  79
ENDBRANCH  30  31
ENDBRANCH  23  25
ENDBRANCH  22  23
ENDBRANCH  21  22
ENDBRANCH   1  21
TORSDOF 19
