REMARK SMILES N#CCOc1ccc2[nH]cc([C@H](C(=O)OCCOC(=O)c3ccc(-c4c5nc(c(-c6cccc(S(=O)(=O)[O-])c6F)c6ccc([nH]6)c(-c6cccc(S(=O)(=O)[O-])c6F)c6nc(c(-c7cccc(S(=O)(=O)[O-])c7F)c7ccc4[nH]7)C=C6)C=C5)cc3)[NH+]3CC[NH+]([C@@H]4CCS(=O)(=O)C4)CC3)c2c1
REMARK SMILES IDX 16 1 15 2 13 3 14 4 12 5 11 6 5 7 6 8 98 9 7 10 97 11 8 12
REMARK SMILES IDX 9 13 10 14 4 16 3 17 2 18 1 19 84 20 85 21 96 22 86 24 95 25
REMARK SMILES IDX 87 26 88 28 89 29 94 30 90 31 91 32 92 33 93 34 17 35 18 36
REMARK SMILES IDX 19 37 20 38 21 39 22 40 83 41 23 42 82 43 24 44 25 45 26 46
REMARK SMILES IDX 76 47 27 48 81 49 75 50 77 51 28 52 80 53 74 54 73 55 29 57
REMARK SMILES IDX 61 58 41 59 60 60 42 61 45 62 59 63 78 64 43 65 44 66 58 68
REMARK SMILES IDX 79 69 46 70 30 71 31 72 39 73 32 74 34 75 40 76 33 77 35 78
REMARK SMILES IDX 36 79 37 80 38 81 62 82 63 83 71 84 64 85 66 86 72 87 65 88
REMARK SMILES IDX 67 89 68 90 69 91 70 92 47 93 48 94 56 95 49 96 51 97 57 98
REMARK SMILES IDX 50 99 52 100 53 101 54 102 55 103
REMARK H PARENT 9 15 84 23 87 27 77 56 45 67
REMARK Flexibility Score: inf
ROOT
ATOM      1  C   UNL     1       3.311  -5.589   2.017  1.00  0.00     0.274 C 
ENDROOT
BRANCH   1   2
ATOM      2  O   UNL     1       4.690  -6.038   1.974  1.00  0.00    -0.457 OA
BRANCH   2   3
ATOM      3  C   UNL     1       5.431  -5.533   0.965  1.00  0.00     0.370 C 
ATOM      4  O   UNL     1       4.904  -4.875   0.071  1.00  0.00    -0.245 OA
BRANCH   3   5
ATOM      5  C   UNL     1       6.922  -5.897   0.879  1.00  0.00     0.328 C 
BRANCH   5   6
ATOM      6  C   UNL     1       7.779  -6.079   2.116  1.00  0.00     0.046 A 
ATOM      7  C   UNL     1       5.818  -6.245   5.191  1.00  0.00     0.121 A 
ATOM      8  C   UNL     1       6.726  -7.066   5.872  1.00  0.00     0.048 A 
ATOM      9  C   UNL     1       6.245  -5.503   4.113  1.00  0.00     0.057 A 
ATOM     10  C   UNL     1       8.077  -7.126   5.504  1.00  0.00     0.030 A 
ATOM     11  C   UNL     1       7.403  -5.952   3.481  1.00  0.00     0.013 A 
ATOM     12  C   UNL     1       8.355  -6.633   4.232  1.00  0.00     0.046 A 
ATOM     13  N   UNL     1       9.474  -6.716   3.443  1.00  0.00    -0.361 N 
ATOM     14  C   UNL     1       9.120  -6.453   2.145  1.00  0.00     0.094 A 
ATOM     15  H   UNL     1      10.382  -6.930   3.757  1.00  0.00     0.166 HD
BRANCH   7  16
ATOM     16  O   UNL     1       4.446  -6.320   5.330  1.00  0.00    -0.479 OA
BRANCH  16  17
ATOM     17  C   UNL     1       3.930  -5.620   6.470  1.00  0.00     0.349 C 
BRANCH  17  18
ATOM     18  C   UNL     1       4.634  -6.189   7.691  1.00  0.00     0.104 C 
ATOM     19  N   UNL     1       5.219  -6.661   8.703  1.00  0.00    -0.195 NA
ENDBRANCH  17  18
ENDBRANCH  16  17
ENDBRANCH   7  16
ENDBRANCH   5   6
BRANCH   5  20
ATOM     20  N   UNL     1       7.151  -7.006  -0.088  1.00  0.00    -0.310 N 
ATOM     21  C   UNL     1       6.704  -8.346   0.321  1.00  0.00     0.325 C 
ATOM     22  C   UNL     1       6.673  -6.650  -1.434  1.00  0.00     0.325 C 
ATOM     23  H   UNL     1       8.166  -7.104  -0.105  1.00  0.00     0.349 HD
ATOM     24  C   UNL     1       5.311  -8.837  -0.157  1.00  0.00     0.324 C 
ATOM     25  C   UNL     1       5.226  -7.056  -1.792  1.00  0.00     0.324 C 
ATOM     26  N   UNL     1       4.892  -8.442  -1.505  1.00  0.00    -0.322 N 
ATOM     27  H   UNL     1       3.873  -8.468  -1.474  1.00  0.00     0.348 HD
BRANCH  26  28
ATOM     28  C   UNL     1       4.995  -9.418  -2.586  1.00  0.00     0.200 C 
ATOM     29  C   UNL     1       6.399  -9.844  -3.040  1.00  0.00     0.082 C 
ATOM     30  C   UNL     1       4.206  -9.019  -3.851  1.00  0.00     0.201 C 
ATOM     31  C   UNL     1       6.858  -8.966  -4.192  1.00  0.00     0.143 C 
ATOM     32  S   UNL     1       5.396  -8.480  -5.069  1.00  0.00     0.156 S 
ATOM     33  O   UNL     1       5.397  -7.034  -5.158  1.00  0.00    -0.229 OA
ATOM     34  O   UNL     1       5.283  -9.326  -6.237  1.00  0.00    -0.229 OA
ENDBRANCH  26  28
ENDBRANCH   5  20
ENDBRANCH   3   5
ENDBRANCH   2   3
ENDBRANCH   1   2
BRANCH   1  35
ATOM     35  C   UNL     1       3.100  -4.113   2.446  1.00  0.00     0.275 C 
BRANCH  35  36
ATOM     36  O   UNL     1       3.365  -3.157   1.395  1.00  0.00    -0.458 OA
BRANCH  36  37
ATOM     37  C   UNL     1       4.581  -2.542   1.409  1.00  0.00     0.338 C 
ATOM     38  O   UNL     1       5.408  -2.611   2.305  1.00  0.00    -0.246 OA
BRANCH  37  39
ATOM     39  C   UNL     1       4.878  -1.996   0.058  1.00  0.00     0.060 A 
ATOM     40  C   UNL     1       6.057  -2.423  -0.574  1.00  0.00     0.016 A 
ATOM     41  C   UNL     1       3.991  -1.165  -0.622  1.00  0.00     0.016 A 
ATOM     42  C   UNL     1       6.301  -2.127  -1.911  1.00  0.00     0.010 A 
ATOM     43  C   UNL     1       4.277  -0.796  -1.942  1.00  0.00     0.010 A 
ATOM     44  C   UNL     1       5.418  -1.297  -2.599  1.00  0.00    -0.014 A 
BRANCH  44  45
ATOM     45  C   UNL     1       5.747  -0.844  -3.968  1.00  0.00     0.031 A 
ATOM     46  C   UNL     1       6.500   0.440  -4.131  1.00  0.00     0.074 A 
ATOM     47  C   UNL     1       5.361  -1.553  -5.044  1.00  0.00     0.049 A 
ATOM     48  N   UNL     1       6.742   1.126  -5.214  1.00  0.00    -0.248 NA
ATOM     49  C   UNL     1       7.060   1.027  -2.902  1.00  0.00     0.031 C 
ATOM     50  C   UNL     1       4.707  -2.861  -5.007  1.00  0.00     0.029 A 
ATOM     51  N   UNL     1       5.434  -1.248  -6.381  1.00  0.00    -0.354 N 
ATOM     52  C   UNL     1       7.444   2.248  -4.796  1.00  0.00     0.074 A 
ATOM     53  C   UNL     1       7.608   2.142  -3.363  1.00  0.00     0.031 C 
ATOM     54  C   UNL     1       4.386  -3.220  -6.262  1.00  0.00     0.029 A 
ATOM     55  C   UNL     1       4.764  -2.147  -7.179  1.00  0.00     0.049 A 
ATOM     56  H   UNL     1       5.916  -0.465  -6.732  1.00  0.00     0.167 HD
ATOM     57  C   UNL     1       7.903   3.278  -5.543  1.00  0.00     0.034 A 
ATOM     58  C   UNL     1       4.445  -2.077  -8.487  1.00  0.00     0.034 A 
ATOM     59  C   UNL     1       7.737   3.371  -6.967  1.00  0.00     0.049 A 
ATOM     60  C   UNL     1       4.883  -0.871  -9.282  1.00  0.00     0.074 A 
ATOM     61  C   UNL     1       8.182   4.363  -7.822  1.00  0.00     0.029 A 
ATOM     62  N   UNL     1       7.054   2.447  -7.744  1.00  0.00    -0.354 N 
ATOM     63  N   UNL     1       5.607   0.154  -8.899  1.00  0.00    -0.248 NA
ATOM     64  C   UNL     1       4.469  -0.815 -10.692  1.00  0.00     0.031 C 
ATOM     65  C   UNL     1       7.738   4.055  -9.112  1.00  0.00     0.029 A 
ATOM     66  C   UNL     1       7.040   2.858  -9.065  1.00  0.00     0.049 A 
ATOM     67  H   UNL     1       6.641   1.620  -7.405  1.00  0.00     0.167 HD
ATOM     68  C   UNL     1       5.753   0.963 -10.021  1.00  0.00     0.074 A 
ATOM     69  C   UNL     1       5.063   0.296 -11.107  1.00  0.00     0.031 C 
ATOM     70  C   UNL     1       6.384   2.159 -10.141  1.00  0.00     0.034 A 
BRANCH  57  71
ATOM     71  C   UNL     1       8.614   4.391  -4.826  1.00  0.00     0.023 A 
ATOM     72  C   UNL     1       9.924   4.193  -4.346  1.00  0.00     0.012 A 
ATOM     73  C   UNL     1       7.994   5.644  -4.655  1.00  0.00     0.148 A 
ATOM     74  C   UNL     1      10.596   5.217  -3.681  1.00  0.00     0.002 A 
ATOM     75  C   UNL     1       8.685   6.672  -4.028  1.00  0.00     0.091 A 
ATOM     76  F   UNL     1       6.736   5.800  -5.093  1.00  0.00    -0.205 F 
ATOM     77  C   UNL     1       9.982   6.458  -3.531  1.00  0.00     0.022 A 
BRANCH  75  78
ATOM     78  S   UNL     1       8.005   8.324  -3.845  1.00  0.00     0.127 S 
ATOM     79  O   UNL     1       7.770   8.388  -2.403  1.00  0.00    -0.237 OA
ATOM     80  O   UNL     1       9.105   9.163  -4.320  1.00  0.00    -0.237 OA
ATOM     81  O   UNL     1       6.809   8.362  -4.674  1.00  0.00    -0.744 OA
ENDBRANCH  75  78
ENDBRANCH  57  71
BRANCH  58  82
ATOM     82  C   UNL     1       3.648  -3.164  -9.126  1.00  0.00     0.023 A 
ATOM     83  C   UNL     1       4.245  -3.981 -10.104  1.00  0.00     0.012 A 
ATOM     84  C   UNL     1       2.303  -3.396  -8.769  1.00  0.00     0.148 A 
ATOM     85  C   UNL     1       3.514  -4.991 -10.732  1.00  0.00     0.002 A 
ATOM     86  C   UNL     1       1.595  -4.436  -9.360  1.00  0.00     0.091 A 
ATOM     87  F   UNL     1       1.740  -2.590  -7.857  1.00  0.00    -0.205 F 
ATOM     88  C   UNL     1       2.194  -5.225 -10.354  1.00  0.00     0.022 A 
BRANCH  86  89
ATOM     89  S   UNL     1      -0.074  -4.877  -8.862  1.00  0.00     0.127 S 
ATOM     90  O   UNL     1      -0.852  -4.478 -10.033  1.00  0.00    -0.237 OA
ATOM     91  O   UNL     1       0.037  -6.322  -8.662  1.00  0.00    -0.237 OA
ATOM     92  O   UNL     1      -0.338  -4.122  -7.644  1.00  0.00    -0.744 OA
ENDBRANCH  86  89
ENDBRANCH  58  82
BRANCH  70  93
ATOM     93  C   UNL     1       6.371   2.829 -11.491  1.00  0.00     0.023 A 
ATOM     94  C   UNL     1       5.186   3.435 -11.953  1.00  0.00     0.012 A 
ATOM     95  C   UNL     1       7.551   2.947 -12.252  1.00  0.00     0.148 A 
ATOM     96  C   UNL     1       5.170   4.128 -13.163  1.00  0.00     0.002 A 
ATOM     97  C   UNL     1       7.540   3.680 -13.432  1.00  0.00     0.091 A 
ATOM     98  F   UNL     1       8.665   2.353 -11.798  1.00  0.00    -0.205 F 
ATOM     99  C   UNL     1       6.348   4.262 -13.895  1.00  0.00     0.022 A 
BRANCH  97 100
ATOM    100  S   UNL     1       9.024   3.990 -14.395  1.00  0.00     0.127 S 
ATOM    101  O   UNL     1       8.760   3.218 -15.609  1.00  0.00    -0.237 OA
ATOM    102  O   UNL     1       8.979   5.441 -14.574  1.00  0.00    -0.237 OA
ATOM    103  O   UNL     1      10.138   3.513 -13.587  1.00  0.00    -0.744 OA
ENDBRANCH  97 100
ENDBRANCH  70  93
ENDBRANCH  44  45
ENDBRANCH  37  39
ENDBRANCH  36  37
ENDBRANCH  35  36
ENDBRANCH   1  35
TORSDOF 20
