REMARK SMILES O=C(OCCOC(=O)c1ccc(C[N@@H+]2CCN3C(=O)NC[C@@H]3C2)nc1)c1ccc(-c2c3nc(c(-c4cccc(S(=O)(=O)[O-])c4F)c4ccc([nH]4)c(-c4cccc(S(=O)(=O)[O-])c4F)c4nc(c(-c5cccc(S(=O)(=O)[O-])c5F)c5ccc2[nH]5)C=C4)C=C3)cc1
REMARK SMILES IDX 4 1 3 2 2 3 1 4 26 5 27 6 88 7 28 8 87 9 29 10 30 11 31 12
REMARK SMILES IDX 81 13 32 14 86 15 80 16 82 17 33 18 85 19 79 20 78 21 34 23
REMARK SMILES IDX 66 24 46 25 65 26 47 27 50 28 64 29 83 30 48 31 49 32 63 34
REMARK SMILES IDX 84 35 51 36 35 37 36 38 44 39 37 40 39 41 45 42 38 43 40 44
REMARK SMILES IDX 41 45 42 46 43 47 67 48 68 49 76 50 69 51 71 52 77 53 70 54
REMARK SMILES IDX 72 55 73 56 74 57 75 58 52 59 53 60 61 61 54 62 56 63 62 64
REMARK SMILES IDX 55 65 57 66 58 67 59 68 60 69 5 70 6 71 7 72 8 73 9 74 10 75
REMARK SMILES IDX 25 76 11 77 24 78 12 79 13 80 14 81 15 82 23 83 16 85 22 86
REMARK SMILES IDX 17 87 21 88 18 89 20 90 19 91
REMARK H PARENT 82 22 50 33 14 84 20 92
REMARK Flexibility Score: inf
ROOT
ATOM      1  C   UNL     1       4.104   1.291  -0.873  1.00  0.00     0.275 C 
ENDROOT
BRANCH   1   2
ATOM      2  O   UNL     1       2.958   0.431  -1.014  1.00  0.00    -0.458 OA
BRANCH   2   3
ATOM      3  C   UNL     1       2.748  -0.842  -0.599  1.00  0.00     0.338 C 
ATOM      4  O   UNL     1       1.749  -1.429  -1.014  1.00  0.00    -0.246 OA
BRANCH   3   5
ATOM      5  C   UNL     1       3.584  -1.540   0.432  1.00  0.00     0.060 A 
ATOM      6  C   UNL     1       4.908  -1.238   0.750  1.00  0.00     0.016 A 
ATOM      7  C   UNL     1       2.961  -2.579   1.154  1.00  0.00     0.016 A 
ATOM      8  C   UNL     1       5.568  -1.891   1.788  1.00  0.00     0.010 A 
ATOM      9  C   UNL     1       3.611  -3.227   2.211  1.00  0.00     0.010 A 
ATOM     10  C   UNL     1       4.925  -2.880   2.533  1.00  0.00    -0.014 A 
BRANCH  10  11
ATOM     11  C   UNL     1       5.706  -3.583   3.571  1.00  0.00     0.031 A 
ATOM     12  C   UNL     1       6.252  -4.940   3.262  1.00  0.00     0.074 A 
ATOM     13  C   UNL     1       6.027  -2.953   4.716  1.00  0.00     0.049 A 
ATOM     14  N   UNL     1       7.109  -5.647   3.947  1.00  0.00    -0.248 NA
ATOM     15  C   UNL     1       5.824  -5.560   1.997  1.00  0.00     0.031 C 
ATOM     16  C   UNL     1       5.612  -1.598   5.067  1.00  0.00     0.029 A 
ATOM     17  N   UNL     1       6.771  -3.354   5.793  1.00  0.00    -0.354 N 
ATOM     18  C   UNL     1       7.353  -6.777   3.181  1.00  0.00     0.074 A 
ATOM     19  C   UNL     1       6.515  -6.690   2.006  1.00  0.00     0.031 C 
ATOM     20  C   UNL     1       6.038  -1.302   6.304  1.00  0.00     0.029 A 
ATOM     21  C   UNL     1       6.790  -2.438   6.821  1.00  0.00     0.049 A 
ATOM     22  H   UNL     1       7.248  -4.214   5.830  1.00  0.00     0.167 HD
ATOM     23  C   UNL     1       8.232  -7.775   3.421  1.00  0.00     0.034 A 
ATOM     24  C   UNL     1       7.358  -2.509   8.039  1.00  0.00     0.034 A 
ATOM     25  C   UNL     1       9.029  -7.862   4.613  1.00  0.00     0.049 A 
ATOM     26  C   UNL     1       8.242  -3.688   8.331  1.00  0.00     0.074 A 
ATOM     27  C   UNL     1       9.926  -8.847   4.979  1.00  0.00     0.029 A 
ATOM     28  N   UNL     1       9.004  -6.935   5.646  1.00  0.00    -0.354 N 
ATOM     29  N   UNL     1       8.542  -4.699   7.551  1.00  0.00    -0.248 NA
ATOM     30  C   UNL     1       8.922  -3.707   9.632  1.00  0.00     0.031 C 
ATOM     31  C   UNL     1      10.418  -8.532   6.252  1.00  0.00     0.029 A 
ATOM     32  C   UNL     1       9.857  -7.331   6.659  1.00  0.00     0.049 A 
ATOM     33  H   UNL     1       8.457  -6.116   5.656  1.00  0.00     0.167 HD
ATOM     34  C   UNL     1       9.479  -5.452   8.245  1.00  0.00     0.074 A 
ATOM     35  C   UNL     1       9.711  -4.764   9.501  1.00  0.00     0.031 C 
ATOM     36  C   UNL     1      10.089  -6.607   7.884  1.00  0.00     0.034 A 
BRANCH  23  37
ATOM     37  C   UNL     1       8.367  -8.832   2.362  1.00  0.00     0.023 A 
ATOM     38  C   UNL     1       9.019  -8.523   1.149  1.00  0.00     0.012 A 
ATOM     39  C   UNL     1       7.851 -10.124   2.562  1.00  0.00     0.148 A 
ATOM     40  C   UNL     1       9.124  -9.477   0.138  1.00  0.00     0.002 A 
ATOM     41  C   UNL     1       7.997 -11.082   1.566  1.00  0.00     0.091 A 
ATOM     42  F   UNL     1       7.214 -10.385   3.712  1.00  0.00    -0.205 F 
ATOM     43  C   UNL     1       8.620 -10.757   0.349  1.00  0.00     0.022 A 
BRANCH  41  44
ATOM     44  S   UNL     1       7.433 -12.775   1.760  1.00  0.00     0.127 S 
ATOM     45  O   UNL     1       6.393 -12.859   0.735  1.00  0.00    -0.237 OA
ATOM     46  O   UNL     1       8.647 -13.534   1.462  1.00  0.00    -0.237 OA
ATOM     47  O   UNL     1       6.960 -12.889   3.132  1.00  0.00    -0.744 OA
ENDBRANCH  41  44
ENDBRANCH  23  37
BRANCH  24  48
ATOM     48  C   UNL     1       7.139  -1.426   9.041  1.00  0.00     0.023 A 
ATOM     49  C   UNL     1       8.204  -0.605   9.456  1.00  0.00     0.012 A 
ATOM     50  C   UNL     1       5.858  -1.212   9.590  1.00  0.00     0.148 A 
ATOM     51  C   UNL     1       8.009   0.373  10.435  1.00  0.00     0.002 A 
ATOM     52  C   UNL     1       5.659  -0.202  10.523  1.00  0.00     0.091 A 
ATOM     53  F   UNL     1       4.854  -2.005   9.188  1.00  0.00    -0.205 F 
ATOM     54  C   UNL     1       6.737   0.579  10.964  1.00  0.00     0.022 A 
BRANCH  52  55
ATOM     55  S   UNL     1       4.024   0.210  11.145  1.00  0.00     0.127 S 
ATOM     56  O   UNL     1       4.064  -0.355  12.490  1.00  0.00    -0.237 OA
ATOM     57  O   UNL     1       4.035   1.672  11.087  1.00  0.00    -0.237 OA
ATOM     58  O   UNL     1       3.089  -0.411  10.215  1.00  0.00    -0.744 OA
ENDBRANCH  52  55
ENDBRANCH  24  48
BRANCH  36  59
ATOM     59  C   UNL     1      11.086  -7.183   8.853  1.00  0.00     0.023 A 
ATOM     60  C   UNL     1      10.643  -7.750  10.064  1.00  0.00     0.012 A 
ATOM     61  C   UNL     1      12.457  -7.207   8.534  1.00  0.00     0.148 A 
ATOM     62  C   UNL     1      11.556  -8.293  10.965  1.00  0.00     0.002 A 
ATOM     63  C   UNL     1      13.354  -7.803   9.409  1.00  0.00     0.091 A 
ATOM     64  F   UNL     1      12.858  -6.643   7.386  1.00  0.00    -0.205 F 
ATOM     65  C   UNL     1      12.908  -8.331  10.632  1.00  0.00     0.022 A 
BRANCH  63  66
ATOM     66  S   UNL     1      15.095  -7.991   9.015  1.00  0.00     0.127 S 
ATOM     67  O   UNL     1      15.707  -6.996   9.893  1.00  0.00    -0.237 OA
ATOM     68  O   UNL     1      15.350  -9.381   9.394  1.00  0.00    -0.237 OA
ATOM     69  O   UNL     1      15.213  -7.724   7.588  1.00  0.00    -0.744 OA
ENDBRANCH  63  66
ENDBRANCH  36  59
ENDBRANCH  10  11
ENDBRANCH   3   5
ENDBRANCH   2   3
ENDBRANCH   1   2
BRANCH   1  70
ATOM     70  C   UNL     1       4.125   2.132   0.408  1.00  0.00     0.275 C 
BRANCH  70  71
ATOM     71  O   UNL     1       3.725   1.407   1.578  1.00  0.00    -0.458 OA
BRANCH  71  72
ATOM     72  C   UNL     1       2.399   1.477   1.865  1.00  0.00     0.339 C 
ATOM     73  O   UNL     1       1.557   2.133   1.275  1.00  0.00    -0.246 OA
BRANCH  72  74
ATOM     74  C   UNL     1       2.082   0.508   2.917  1.00  0.00     0.078 A 
ATOM     75  C   UNL     1       2.762   0.455   4.129  1.00  0.00     0.019 A 
ATOM     76  C   UNL     1       1.066  -0.404   2.682  1.00  0.00     0.127 A 
ATOM     77  C   UNL     1       2.401  -0.520   5.058  1.00  0.00     0.031 A 
ATOM     78  N   UNL     1       0.724  -1.383   3.550  1.00  0.00    -0.254 NA
ATOM     79  C   UNL     1       1.389  -1.427   4.737  1.00  0.00     0.095 A 
BRANCH  79  80
ATOM     80  C   UNL     1       0.849  -2.362   5.814  1.00  0.00     0.319 C 
BRANCH  80  81
ATOM     81  N   UNL     1      -0.522  -2.031   6.264  1.00  0.00    -0.327 N 
ATOM     82  C   UNL     1      -1.567  -2.524   5.344  1.00  0.00     0.284 C 
ATOM     83  C   UNL     1      -0.641  -0.611   6.643  1.00  0.00     0.289 C 
ATOM     84  H   UNL     1      -0.699  -2.552   7.123  1.00  0.00     0.348 HD
ATOM     85  C   UNL     1      -2.599  -1.524   4.780  1.00  0.00     0.183 C 
ATOM     86  C   UNL     1      -2.084  -0.157   6.837  1.00  0.00     0.161 C 
ATOM     87  N   UNL     1      -2.878  -0.400   5.647  1.00  0.00    -0.309 N 
ATOM     88  C   UNL     1      -2.217   1.356   7.025  1.00  0.00     0.148 C 
ATOM     89  C   UNL     1      -3.663   0.687   5.319  1.00  0.00     0.318 C 
ATOM     90  N   UNL     1      -3.357   1.704   6.211  1.00  0.00    -0.336 N 
ATOM     91  O   UNL     1      -4.449   0.790   4.393  1.00  0.00    -0.249 OA
ATOM     92  H   UNL     1      -3.852   2.552   6.280  1.00  0.00     0.165 HD
ENDBRANCH  80  81
ENDBRANCH  79  80
ENDBRANCH  72  74
ENDBRANCH  71  72
ENDBRANCH  70  71
ENDBRANCH   1  70
TORSDOF 16
