REMARK SMILES COc1ccc2c(c1)c(CC(=O)OCCOC(=O)c1ccc(-c3c4nc(c(-c5cccc(S(=O)(=O)[O-])c5F)c5ccc([nH]5)c(-c5cccc(S(=O)(=O)[O-])c5F)c5nc(c(-c6cccc(S(=O)(=O)[O-])c6F)c6ccc3[nH]6)C=C5)C=C4)cc1)c(C)n2C(=O)c1ccc(Cl)cc1
REMARK SMILES IDX 14 1 13 2 11 3 12 4 10 5 9 6 3 7 4 8 8 9 5 10 7 11 6 12
REMARK SMILES IDX 84 13 82 14 83 15 2 16 1 17 85 18 86 19 87 20 88 21 93 22
REMARK SMILES IDX 89 23 92 24 90 25 91 26 15 27 16 28 17 29 18 30 19 31 20 32
REMARK SMILES IDX 81 33 21 34 80 35 22 36 23 37 24 38 74 39 25 40 79 41 73 42
REMARK SMILES IDX 75 43 26 44 78 45 72 46 71 47 27 49 59 50 39 51 58 52 40 53
REMARK SMILES IDX 43 54 57 55 76 56 41 57 42 58 56 60 77 61 44 62 28 63 29 64
REMARK SMILES IDX 37 65 30 66 32 67 38 68 31 69 33 70 34 71 35 72 36 73 60 74
REMARK SMILES IDX 61 75 69 76 62 77 64 78 70 79 63 80 65 81 66 82 67 83 68 84
REMARK SMILES IDX 45 85 46 86 54 87 47 88 49 89 55 90 48 91 50 92 51 93 52 94
REMARK SMILES IDX 53 95
REMARK H PARENT 75 48 43 59
REMARK Flexibility Score: inf
ROOT
ATOM      1  C   UNL     1      -1.698   6.017   3.685  1.00  0.00     0.274 C 
ENDROOT
BRANCH   1   2
ATOM      2  O   UNL     1      -1.134   4.906   4.413  1.00  0.00    -0.462 OA
BRANCH   2   3
ATOM      3  C   UNL     1      -1.980   4.290   5.276  1.00  0.00     0.310 C 
ATOM      4  O   UNL     1      -3.144   4.639   5.457  1.00  0.00    -0.252 OA
BRANCH   3   5
ATOM      5  C   UNL     1      -1.370   3.179   6.080  1.00  0.00     0.160 C 
BRANCH   5   6
ATOM      6  C   UNL     1       0.033   2.692   5.817  1.00  0.00    -0.008 A 
ATOM      7  C   UNL     1       1.013   1.168   2.391  1.00  0.00     0.119 A 
ATOM      8  C   UNL     1       2.220   0.645   2.808  1.00  0.00     0.048 A 
ATOM      9  C   UNL     1       0.257   1.939   3.290  1.00  0.00     0.057 A 
ATOM     10  C   UNL     1       2.670   0.871   4.111  1.00  0.00     0.031 A 
ATOM     11  C   UNL     1       0.645   2.135   4.641  1.00  0.00     0.008 A 
ATOM     12  C   UNL     1       1.896   1.629   5.020  1.00  0.00     0.057 A 
ATOM     13  N   UNL     1       2.142   2.054   6.336  1.00  0.00    -0.280 N 
ATOM     14  C   UNL     1       0.934   2.495   6.858  1.00  0.00     0.028 A 
ATOM     15  C   UNL     1       0.668   2.701   8.320  1.00  0.00     0.065 C 
BRANCH   7  16
ATOM     16  O   UNL     1       0.477   1.004   1.142  1.00  0.00    -0.497 OA
ATOM     17  C   UNL     1       1.007  -0.048   0.339  1.00  0.00     0.278 C 
ENDBRANCH   7  16
BRANCH  13  18
ATOM     18  C   UNL     1       3.393   2.053   7.005  1.00  0.00     0.262 C 
ATOM     19  O   UNL     1       3.484   2.519   8.139  1.00  0.00    -0.268 OA
BRANCH  18  20
ATOM     20  C   UNL     1       4.646   1.595   6.403  1.00  0.00     0.040 A 
ATOM     21  C   UNL     1       5.254   2.366   5.407  1.00  0.00     0.015 A 
ATOM     22  C   UNL     1       5.165   0.356   6.789  1.00  0.00     0.015 A 
ATOM     23  C   UNL     1       6.369   1.857   4.744  1.00  0.00     0.021 A 
ATOM     24  C   UNL     1       6.284  -0.143   6.125  1.00  0.00     0.021 A 
ATOM     25  C   UNL     1       6.872   0.602   5.099  1.00  0.00     0.041 A 
ATOM     26  Cl  UNL     1       8.218  -0.043   4.243  1.00  0.00    -0.084 Cl
ENDBRANCH  18  20
ENDBRANCH  13  18
ENDBRANCH   5   6
ENDBRANCH   3   5
ENDBRANCH   2   3
ENDBRANCH   1   2
BRANCH   1  27
ATOM     27  C   UNL     1      -2.064   5.594   2.261  1.00  0.00     0.275 C 
BRANCH  27  28
ATOM     28  O   UNL     1      -3.221   4.748   2.318  1.00  0.00    -0.458 OA
BRANCH  28  29
ATOM     29  C   UNL     1      -3.067   3.462   1.917  1.00  0.00     0.338 C 
ATOM     30  O   UNL     1      -2.216   3.017   1.169  1.00  0.00    -0.246 OA
BRANCH  29  31
ATOM     31  C   UNL     1      -3.924   2.678   2.820  1.00  0.00     0.060 A 
ATOM     32  C   UNL     1      -5.258   3.039   3.006  1.00  0.00     0.016 A 
ATOM     33  C   UNL     1      -3.314   1.737   3.654  1.00  0.00     0.016 A 
ATOM     34  C   UNL     1      -5.937   2.548   4.112  1.00  0.00     0.010 A 
ATOM     35  C   UNL     1      -3.970   1.302   4.791  1.00  0.00     0.010 A 
ATOM     36  C   UNL     1      -5.264   1.740   5.039  1.00  0.00    -0.014 A 
BRANCH  36  37
ATOM     37  C   UNL     1      -6.028   1.071   6.077  1.00  0.00     0.031 A 
ATOM     38  C   UNL     1      -6.665  -0.151   5.546  1.00  0.00     0.074 A 
ATOM     39  C   UNL     1      -6.094   1.364   7.388  1.00  0.00     0.049 A 
ATOM     40  N   UNL     1      -7.866  -0.243   5.081  1.00  0.00    -0.248 NA
ATOM     41  C   UNL     1      -5.822  -1.334   5.309  1.00  0.00     0.031 C 
ATOM     42  C   UNL     1      -5.253   2.282   8.154  1.00  0.00     0.029 A 
ATOM     43  N   UNL     1      -6.895   0.800   8.341  1.00  0.00    -0.354 N 
ATOM     44  C   UNL     1      -8.005  -1.583   4.763  1.00  0.00     0.074 A 
ATOM     45  C   UNL     1      -6.678  -2.139   4.678  1.00  0.00     0.031 C 
ATOM     46  C   UNL     1      -5.447   2.058   9.477  1.00  0.00     0.029 A 
ATOM     47  C   UNL     1      -6.530   1.101   9.648  1.00  0.00     0.049 A 
ATOM     48  H   UNL     1      -7.666   0.228   8.120  1.00  0.00     0.167 HD
ATOM     49  C   UNL     1      -9.187  -2.221   4.962  1.00  0.00     0.034 A 
ATOM     50  C   UNL     1      -7.071   0.557  10.767  1.00  0.00     0.034 A 
ATOM     51  C   UNL     1     -10.245  -1.319   5.312  1.00  0.00     0.049 A 
ATOM     52  C   UNL     1      -8.447   0.124  10.420  1.00  0.00     0.074 A 
ATOM     53  C   UNL     1     -11.041  -0.395   4.676  1.00  0.00     0.029 A 
ATOM     54  N   UNL     1     -10.298  -1.053   6.654  1.00  0.00    -0.354 N 
ATOM     55  N   UNL     1      -9.411   0.948  10.109  1.00  0.00    -0.248 NA
ATOM     56  C   UNL     1      -8.729  -1.290  10.186  1.00  0.00     0.031 C 
ATOM     57  C   UNL     1     -11.489   0.512   5.682  1.00  0.00     0.029 A 
ATOM     58  C   UNL     1     -10.964   0.115   6.909  1.00  0.00     0.049 A 
ATOM     59  H   UNL     1      -9.906  -1.630   7.349  1.00  0.00     0.167 HD
ATOM     60  C   UNL     1     -10.211   0.211   9.259  1.00  0.00     0.074 A 
ATOM     61  C   UNL     1      -9.869  -1.180   9.501  1.00  0.00     0.031 C 
ATOM     62  C   UNL     1     -10.806   0.789   8.180  1.00  0.00     0.034 A 
BRANCH  49  63
ATOM     63  C   UNL     1      -9.261  -3.671   5.335  1.00  0.00     0.023 A 
ATOM     64  C   UNL     1     -10.434  -4.383   5.037  1.00  0.00     0.012 A 
ATOM     65  C   UNL     1      -8.308  -4.292   6.173  1.00  0.00     0.148 A 
ATOM     66  C   UNL     1     -10.623  -5.684   5.513  1.00  0.00     0.002 A 
ATOM     67  C   UNL     1      -8.452  -5.615   6.557  1.00  0.00     0.091 A 
ATOM     68  F   UNL     1      -7.324  -3.556   6.709  1.00  0.00    -0.205 F 
ATOM     69  C   UNL     1      -9.619  -6.313   6.245  1.00  0.00     0.022 A 
BRANCH  67  70
ATOM     70  S   UNL     1      -7.138  -6.479   7.420  1.00  0.00     0.127 S 
ATOM     71  O   UNL     1      -7.657  -6.520   8.783  1.00  0.00    -0.237 OA
ATOM     72  O   UNL     1      -7.117  -7.765   6.722  1.00  0.00    -0.237 OA
ATOM     73  O   UNL     1      -5.947  -5.667   7.203  1.00  0.00    -0.744 OA
ENDBRANCH  67  70
ENDBRANCH  49  63
BRANCH  50  74
ATOM     74  C   UNL     1      -6.492   0.218  12.094  1.00  0.00     0.023 A 
ATOM     75  C   UNL     1      -7.368  -0.199  13.124  1.00  0.00     0.012 A 
ATOM     76  C   UNL     1      -5.114  -0.024  12.267  1.00  0.00     0.148 A 
ATOM     77  C   UNL     1      -6.907  -0.926  14.227  1.00  0.00     0.002 A 
ATOM     78  C   UNL     1      -4.657  -0.735  13.377  1.00  0.00     0.091 A 
ATOM     79  F   UNL     1      -4.261   0.350  11.305  1.00  0.00    -0.205 F 
ATOM     80  C   UNL     1      -5.553  -1.211  14.343  1.00  0.00     0.022 A 
BRANCH  78  81
ATOM     81  S   UNL     1      -2.916  -1.128  13.594  1.00  0.00     0.127 S 
ATOM     82  O   UNL     1      -2.742  -0.986  15.041  1.00  0.00    -0.237 OA
ATOM     83  O   UNL     1      -2.848  -2.501  13.103  1.00  0.00    -0.237 OA
ATOM     84  O   UNL     1      -2.196  -0.132  12.810  1.00  0.00    -0.744 OA
ENDBRANCH  78  81
ENDBRANCH  50  74
BRANCH  62  85
ATOM     85  C   UNL     1     -11.136   2.247   8.255  1.00  0.00     0.023 A 
ATOM     86  C   UNL     1     -10.159   3.259   8.230  1.00  0.00     0.012 A 
ATOM     87  C   UNL     1     -12.496   2.598   8.244  1.00  0.00     0.148 A 
ATOM     88  C   UNL     1     -10.540   4.604   8.196  1.00  0.00     0.002 A 
ATOM     89  C   UNL     1     -12.870   3.931   8.171  1.00  0.00     0.091 A 
ATOM     90  F   UNL     1     -13.403   1.610   8.281  1.00  0.00    -0.205 F 
ATOM     91  C   UNL     1     -11.894   4.940   8.152  1.00  0.00     0.022 A 
BRANCH  89  92
ATOM     92  S   UNL     1     -14.588   4.423   8.012  1.00  0.00     0.127 S 
ATOM     93  O   UNL     1     -14.825   5.125   9.272  1.00  0.00    -0.237 OA
ATOM     94  O   UNL     1     -14.553   5.284   6.828  1.00  0.00    -0.237 OA
ATOM     95  O   UNL     1     -15.350   3.193   7.836  1.00  0.00    -0.744 OA
ENDBRANCH  89  92
ENDBRANCH  62  85
ENDBRANCH  36  37
ENDBRANCH  29  31
ENDBRANCH  28  29
ENDBRANCH  27  28
ENDBRANCH   1  27
TORSDOF 18
