REMARK SMILES O=C(OCCOC(=O)[C@@H]1[C@H](C(=O)NCc2ccccc2Cl)[C@@H]2C=C[C@H]1C2)c1ccc(-c2c3nc(c(-c4cccc(S(=O)(=O)[O-])c4F)c4ccc([nH]4)c(-c4cccc(S(=O)(=O)[O-])c4F)c4nc(c(-c5cccc(S(=O)(=O)[O-])c5F)c5ccc2[nH]5)C=C4)C=C3)cc1
REMARK SMILES IDX 4 1 3 2 2 3 1 4 27 5 28 6 89 7 29 8 88 9 30 10 31 11 32 12
REMARK SMILES IDX 82 13 33 14 87 15 81 16 83 17 34 18 86 19 80 20 79 21 35 23
REMARK SMILES IDX 67 24 47 25 66 26 48 27 51 28 65 29 84 30 49 31 50 32 64 34
REMARK SMILES IDX 85 35 52 36 36 37 37 38 45 39 38 40 40 41 46 42 39 43 41 44
REMARK SMILES IDX 42 45 43 46 44 47 68 48 69 49 77 50 70 51 72 52 78 53 71 54
REMARK SMILES IDX 73 55 74 56 75 57 76 58 53 59 54 60 62 61 55 62 57 63 63 64
REMARK SMILES IDX 56 65 58 66 59 67 60 68 61 69 5 70 6 71 7 72 8 73 9 74 10 75
REMARK SMILES IDX 25 76 22 77 24 78 26 79 23 80 11 81 12 82 13 83 14 85 15 86
REMARK SMILES IDX 16 87 20 88 17 89 19 90 21 91 18 92
REMARK H PARENT 83 22 51 33 13 84
REMARK Flexibility Score: inf
ROOT
ATOM      1  C   UNL     1       3.668  -1.446  -0.376  1.00  0.00     0.275 C 
ENDROOT
BRANCH   1   2
ATOM      2  O   UNL     1       3.175  -1.398   0.980  1.00  0.00    -0.458 OA
BRANCH   2   3
ATOM      3  C   UNL     1       2.450  -0.332   1.382  1.00  0.00     0.338 C 
ATOM      4  O   UNL     1       1.224  -0.312   1.370  1.00  0.00    -0.246 OA
BRANCH   3   5
ATOM      5  C   UNL     1       3.273   0.757   1.983  1.00  0.00     0.060 A 
ATOM      6  C   UNL     1       4.597   0.999   1.600  1.00  0.00     0.016 A 
ATOM      7  C   UNL     1       2.661   1.624   2.899  1.00  0.00     0.016 A 
ATOM      8  C   UNL     1       5.284   2.110   2.093  1.00  0.00     0.010 A 
ATOM      9  C   UNL     1       3.342   2.752   3.381  1.00  0.00     0.010 A 
ATOM     10  C   UNL     1       4.654   3.013   2.965  1.00  0.00    -0.014 A 
BRANCH  10  11
ATOM     11  C   UNL     1       5.476   4.092   3.569  1.00  0.00     0.031 A 
ATOM     12  C   UNL     1       6.167   3.756   4.837  1.00  0.00     0.074 A 
ATOM     13  C   UNL     1       5.634   5.317   3.028  1.00  0.00     0.049 A 
ATOM     14  N   UNL     1       6.958   4.503   5.547  1.00  0.00    -0.248 NA
ATOM     15  C   UNL     1       5.838   2.450   5.432  1.00  0.00     0.031 C 
ATOM     16  C   UNL     1       4.810   5.846   1.969  1.00  0.00     0.029 A 
ATOM     17  N   UNL     1       6.516   6.342   3.260  1.00  0.00    -0.354 N 
ATOM     18  C   UNL     1       7.137   3.808   6.726  1.00  0.00     0.074 A 
ATOM     19  C   UNL     1       6.397   2.570   6.622  1.00  0.00     0.031 C 
ATOM     20  C   UNL     1       5.349   6.961   1.458  1.00  0.00     0.029 A 
ATOM     21  C   UNL     1       6.447   7.357   2.318  1.00  0.00     0.049 A 
ATOM     22  H   UNL     1       7.138   6.356   4.023  1.00  0.00     0.167 HD
ATOM     23  C   UNL     1       7.827   4.201   7.815  1.00  0.00     0.034 A 
ATOM     24  C   UNL     1       7.131   8.514   2.210  1.00  0.00     0.034 A 
ATOM     25  C   UNL     1       8.510   5.459   7.898  1.00  0.00     0.049 A 
ATOM     26  C   UNL     1       7.993   8.871   3.384  1.00  0.00     0.074 A 
ATOM     27  C   UNL     1       9.268   5.957   8.938  1.00  0.00     0.029 A 
ATOM     28  N   UNL     1       8.493   6.433   6.905  1.00  0.00    -0.354 N 
ATOM     29  N   UNL     1       8.223   8.169   4.467  1.00  0.00    -0.248 NA
ATOM     30  C   UNL     1       8.638  10.189   3.367  1.00  0.00     0.031 C 
ATOM     31  C   UNL     1       9.694   7.241   8.582  1.00  0.00     0.029 A 
ATOM     32  C   UNL     1       9.248   7.522   7.298  1.00  0.00     0.049 A 
ATOM     33  H   UNL     1       8.015   6.357   6.048  1.00  0.00     0.167 HD
ATOM     34  C   UNL     1       9.039   8.952   5.262  1.00  0.00     0.074 A 
ATOM     35  C   UNL     1       9.293  10.173   4.519  1.00  0.00     0.031 C 
ATOM     36  C   UNL     1       9.515   8.695   6.503  1.00  0.00     0.034 A 
BRANCH  23  37
ATOM     37  C   UNL     1       7.792   3.261   8.982  1.00  0.00     0.023 A 
ATOM     38  C   UNL     1       8.414   1.998   8.887  1.00  0.00     0.012 A 
ATOM     39  C   UNL     1       7.043   3.585  10.127  1.00  0.00     0.148 A 
ATOM     40  C   UNL     1       8.230   1.044   9.885  1.00  0.00     0.002 A 
ATOM     41  C   UNL     1       6.916   2.651  11.144  1.00  0.00     0.091 A 
ATOM     42  F   UNL     1       6.428   4.775  10.175  1.00  0.00    -0.205 F 
ATOM     43  C   UNL     1       7.486   1.373  11.015  1.00  0.00     0.022 A 
BRANCH  41  44
ATOM     44  S   UNL     1       6.038   2.998  12.668  1.00  0.00     0.127 S 
ATOM     45  O   UNL     1       4.913   2.067  12.582  1.00  0.00    -0.237 OA
ATOM     46  O   UNL     1       7.041   2.653  13.676  1.00  0.00    -0.237 OA
ATOM     47  O   UNL     1       5.681   4.409  12.618  1.00  0.00    -0.744 OA
ENDBRANCH  41  44
ENDBRANCH  23  37
BRANCH  24  48
ATOM     48  C   UNL     1       7.006   9.432   1.030  1.00  0.00     0.023 A 
ATOM     49  C   UNL     1       8.149   9.701   0.245  1.00  0.00     0.012 A 
ATOM     50  C   UNL     1       5.792  10.050   0.672  1.00  0.00     0.148 A 
ATOM     51  C   UNL     1       8.090  10.577  -0.844  1.00  0.00     0.002 A 
ATOM     52  C   UNL     1       5.722  10.860  -0.460  1.00  0.00     0.091 A 
ATOM     53  F   UNL     1       4.719   9.843   1.448  1.00  0.00    -0.205 F 
ATOM     54  C   UNL     1       6.873  11.144  -1.207  1.00  0.00     0.022 A 
BRANCH  52  55
ATOM     55  S   UNL     1       4.163  11.504  -1.083  1.00  0.00     0.127 S 
ATOM     56  O   UNL     1       4.278  12.925  -0.768  1.00  0.00    -0.237 OA
ATOM     57  O   UNL     1       4.249  11.179  -2.508  1.00  0.00    -0.237 OA
ATOM     58  O   UNL     1       3.127  10.774  -0.366  1.00  0.00    -0.744 OA
ENDBRANCH  52  55
ENDBRANCH  24  48
BRANCH  36  59
ATOM     59  C   UNL     1      10.458   9.707   7.078  1.00  0.00     0.023 A 
ATOM     60  C   UNL     1       9.990  10.943   7.563  1.00  0.00     0.012 A 
ATOM     61  C   UNL     1      11.822   9.381   7.182  1.00  0.00     0.148 A 
ATOM     62  C   UNL     1      10.882  11.857   8.119  1.00  0.00     0.002 A 
ATOM     63  C   UNL     1      12.691  10.268   7.793  1.00  0.00     0.091 A 
ATOM     64  F   UNL     1      12.239   8.210   6.679  1.00  0.00    -0.205 F 
ATOM     65  C   UNL     1      12.228  11.513   8.248  1.00  0.00     0.022 A 
BRANCH  63  66
ATOM     66  S   UNL     1      14.407   9.848   8.098  1.00  0.00     0.127 S 
ATOM     67  O   UNL     1      15.097  10.683   7.116  1.00  0.00    -0.237 OA
ATOM     68  O   UNL     1      14.583  10.266   9.489  1.00  0.00    -0.237 OA
ATOM     69  O   UNL     1      14.514   8.411   7.883  1.00  0.00    -0.744 OA
ENDBRANCH  63  66
ENDBRANCH  36  59
ENDBRANCH  10  11
ENDBRANCH   3   5
ENDBRANCH   2   3
ENDBRANCH   1   2
BRANCH   1  70
ATOM     70  C   UNL     1       2.960  -0.589  -1.423  1.00  0.00     0.274 C 
BRANCH  70  71
ATOM     71  O   UNL     1       2.931   0.812  -1.083  1.00  0.00    -0.462 OA
BRANCH  71  72
ATOM     72  C   UNL     1       1.954   1.462  -1.759  1.00  0.00     0.310 C 
ATOM     73  O   UNL     1       1.278   0.934  -2.641  1.00  0.00    -0.252 OA
BRANCH  72  74
ATOM     74  C   UNL     1       1.702   2.892  -1.382  1.00  0.00     0.119 C 
ATOM     75  C   UNL     1       2.117   3.923  -2.460  1.00  0.00     0.100 C 
ATOM     76  C   UNL     1       2.087   3.595  -0.077  1.00  0.00     0.027 C 
ATOM     77  C   UNL     1       2.297   5.224  -1.623  1.00  0.00     0.025 C 
ATOM     78  C   UNL     1       3.492   4.103  -0.090  1.00  0.00    -0.027 C 
ATOM     79  C   UNL     1       1.440   4.966  -0.358  1.00  0.00     0.017 C 
ATOM     80  C   UNL     1       3.609   5.125  -0.951  1.00  0.00    -0.027 C 
BRANCH  75  81
ATOM     81  C   UNL     1       3.192   3.460  -3.494  1.00  0.00     0.224 C 
ATOM     82  O   UNL     1       2.838   3.420  -4.685  1.00  0.00    -0.275 OA
ATOM     83  N   UNL     1       4.468   3.009  -3.296  1.00  0.00    -0.352 N 
ATOM     84  H   UNL     1       4.813   2.494  -4.061  1.00  0.00     0.163 HD
BRANCH  83  85
ATOM     85  C   UNL     1       5.433   3.118  -2.207  1.00  0.00     0.153 C 
BRANCH  85  86
ATOM     86  C   UNL     1       6.498   2.051  -2.041  1.00  0.00    -0.010 A 
ATOM     87  C   UNL     1       6.223   0.726  -2.401  1.00  0.00     0.007 A 
ATOM     88  C   UNL     1       7.637   2.291  -1.238  1.00  0.00     0.046 A 
ATOM     89  C   UNL     1       7.010  -0.329  -1.926  1.00  0.00     0.000 A 
ATOM     90  C   UNL     1       8.429   1.234  -0.773  1.00  0.00     0.021 A 
ATOM     91  Cl  UNL     1       8.077   3.879  -0.714  1.00  0.00    -0.084 Cl
ATOM     92  C   UNL     1       8.098  -0.079  -1.095  1.00  0.00     0.002 A 
ENDBRANCH  85  86
ENDBRANCH  83  85
ENDBRANCH  75  81
ENDBRANCH  72  74
ENDBRANCH  71  72
ENDBRANCH  70  71
ENDBRANCH   1  70
TORSDOF 17
