REMARK SMILES Cc1nc(C)n(CC[C@H]2CCC[C@@]2([NH2+]C(C)C)C(=O)OCCOC(=O)c2ccc(-c3c4nc(c(-c5cccc(S(=O)(=O)[O-])c5F)c5ccc([nH]5)c(-c5cccc(S(=O)(=O)[O-])c5F)c5nc(c(-c6cccc(S(=O)(=O)[O-])c6F)c6ccc3[nH]6)C=C5)C=C4)cc2)n1
REMARK SMILES IDX 21 1 20 2 18 3 19 4 13 5 9 6 10 7 11 8 12 9 8 10 7 11 6 12
REMARK SMILES IDX 1 13 2 14 3 15 89 16 4 17 5 18 14 19 15 22 16 23 17 24 22 25
REMARK SMILES IDX 23 26 24 27 25 28 26 29 27 30 88 31 28 32 87 33 29 34 30 35
REMARK SMILES IDX 31 36 81 37 32 38 86 39 80 40 82 41 33 42 85 43 79 44 78 45
REMARK SMILES IDX 34 47 66 48 46 49 65 50 47 51 50 52 64 53 83 54 48 55 49 56
REMARK SMILES IDX 63 58 84 59 51 60 35 61 36 62 44 63 37 64 39 65 45 66 38 67
REMARK SMILES IDX 40 68 41 69 42 70 43 71 67 72 68 73 76 74 69 75 71 76 77 77
REMARK SMILES IDX 70 78 72 79 73 80 74 81 75 82 52 83 53 84 61 85 54 86 56 87
REMARK SMILES IDX 62 88 55 89 57 90 58 91 59 92 60 93
REMARK H PARENT 14 20 14 21 82 46 50 57
REMARK Flexibility Score: inf
ROOT
ATOM      1  C   UNL     1       2.199   4.286 -10.252  1.00  0.00     0.274 C 
ENDROOT
BRANCH   1   2
ATOM      2  O   UNL     1       1.999   3.070  -9.505  1.00  0.00    -0.457 OA
BRANCH   2   3
ATOM      3  C   UNL     1       1.740   3.151  -8.158  1.00  0.00     0.368 C 
ATOM      4  O   UNL     1       1.515   4.194  -7.547  1.00  0.00    -0.245 OA
BRANCH   3   5
ATOM      5  C   UNL     1       2.066   1.793  -7.486  1.00  0.00     0.197 C 
ATOM      6  C   UNL     1       1.237   1.454  -6.193  1.00  0.00     0.064 C 
ATOM      7  C   UNL     1       1.487  -0.055  -6.044  1.00  0.00     0.011 C 
ATOM      8  C   UNL     1       1.418  -0.599  -7.461  1.00  0.00     0.008 C 
ATOM      9  C   UNL     1       1.736   0.579  -8.386  1.00  0.00     0.081 C 
BRANCH   6  10
ATOM     10  C   UNL     1      -0.266   1.801  -6.221  1.00  0.00     0.034 C 
BRANCH  10  11
ATOM     11  C   UNL     1      -1.191   1.200  -5.138  1.00  0.00     0.147 C 
BRANCH  11  12
ATOM     12  N   UNL     1      -1.246   1.793  -3.812  1.00  0.00    -0.250 N 
ATOM     13  C   UNL     1      -3.277   2.599  -1.034  1.00  0.00     0.092 C 
ATOM     14  C   UNL     1      -2.224   2.311  -2.028  1.00  0.00     0.147 A 
ATOM     15  N   UNL     1      -0.917   2.176  -1.672  1.00  0.00    -0.217 NA
ATOM     16  N   UNL     1      -2.470   2.108  -3.323  1.00  0.00    -0.156 NA
ATOM     17  C   UNL     1      -0.318   1.835  -2.795  1.00  0.00     0.124 A 
ATOM     18  C   UNL     1       1.120   1.527  -2.885  1.00  0.00     0.089 C 
ENDBRANCH  11  12
ENDBRANCH  10  11
ENDBRANCH   6  10
BRANCH   5  19
ATOM     19  N   UNL     1       3.512   1.764  -7.050  1.00  0.00    -0.330 N 
ATOM     20  H   UNL     1       3.866   0.825  -7.232  1.00  0.00     0.347 HD
ATOM     21  H   UNL     1       3.491   2.042  -6.069  1.00  0.00     0.347 HD
BRANCH  19  22
ATOM     22  C   UNL     1       4.435   2.711  -7.684  1.00  0.00     0.176 C 
ATOM     23  C   UNL     1       5.610   2.934  -6.733  1.00  0.00     0.075 C 
ATOM     24  C   UNL     1       4.943   2.211  -9.035  1.00  0.00     0.075 C 
ENDBRANCH  19  22
ENDBRANCH   5  19
ENDBRANCH   3   5
ENDBRANCH   2   3
ENDBRANCH   1   2
BRANCH   1  25
ATOM     25  C   UNL     1       0.943   4.745 -10.975  1.00  0.00     0.275 C 
BRANCH  25  26
ATOM     26  O   UNL     1       0.089   5.423 -10.062  1.00  0.00    -0.458 OA
BRANCH  26  27
ATOM     27  C   UNL     1      -0.679   4.570  -9.356  1.00  0.00     0.338 C 
ATOM     28  O   UNL     1      -0.662   3.348  -9.375  1.00  0.00    -0.246 OA
BRANCH  27  29
ATOM     29  C   UNL     1      -1.730   5.313  -8.675  1.00  0.00     0.060 A 
ATOM     30  C   UNL     1      -2.216   4.668  -7.537  1.00  0.00     0.016 A 
ATOM     31  C   UNL     1      -2.555   5.999  -9.565  1.00  0.00     0.016 A 
ATOM     32  C   UNL     1      -3.551   4.371  -7.489  1.00  0.00     0.010 A 
ATOM     33  C   UNL     1      -3.898   5.751  -9.488  1.00  0.00     0.010 A 
ATOM     34  C   UNL     1      -4.363   4.855  -8.514  1.00  0.00    -0.014 A 
BRANCH  34  35
ATOM     35  C   UNL     1      -5.789   4.625  -8.404  1.00  0.00     0.031 A 
ATOM     36  C   UNL     1      -6.376   5.315  -7.221  1.00  0.00     0.074 A 
ATOM     37  C   UNL     1      -6.465   4.085  -9.436  1.00  0.00     0.049 A 
ATOM     38  N   UNL     1      -7.247   4.880  -6.371  1.00  0.00    -0.248 NA
ATOM     39  C   UNL     1      -5.790   6.626  -6.859  1.00  0.00     0.031 C 
ATOM     40  C   UNL     1      -5.908   3.673 -10.732  1.00  0.00     0.029 A 
ATOM     41  N   UNL     1      -7.810   4.042  -9.644  1.00  0.00    -0.354 N 
ATOM     42  C   UNL     1      -7.469   5.956  -5.511  1.00  0.00     0.074 A 
ATOM     43  C   UNL     1      -6.410   6.899  -5.718  1.00  0.00     0.031 C 
ATOM     44  C   UNL     1      -6.882   3.747 -11.662  1.00  0.00     0.029 A 
ATOM     45  C   UNL     1      -8.124   4.109 -11.000  1.00  0.00     0.049 A 
ATOM     46  H   UNL     1      -8.479   3.972  -8.925  1.00  0.00     0.167 HD
ATOM     47  C   UNL     1      -8.668   6.152  -4.907  1.00  0.00     0.034 A 
ATOM     48  C   UNL     1      -9.272   4.583 -11.539  1.00  0.00     0.034 A 
ATOM     49  C   UNL     1      -9.428   4.940  -4.812  1.00  0.00     0.049 A 
ATOM     50  C   UNL     1     -10.279   4.667 -10.456  1.00  0.00     0.074 A 
ATOM     51  C   UNL     1      -9.199   3.695  -4.261  1.00  0.00     0.029 A 
ATOM     52  N   UNL     1     -10.497   4.795  -5.660  1.00  0.00    -0.354 N 
ATOM     53  N   UNL     1     -10.793   3.634  -9.849  1.00  0.00    -0.248 NA
ATOM     54  C   UNL     1     -10.443   5.939  -9.768  1.00  0.00     0.031 C 
ATOM     55  C   UNL     1      -9.849   2.779  -5.136  1.00  0.00     0.029 A 
ATOM     56  C   UNL     1     -10.456   3.519  -6.153  1.00  0.00     0.049 A 
ATOM     57  H   UNL     1     -11.169   5.482  -5.873  1.00  0.00     0.167 HD
ATOM     58  C   UNL     1     -10.954   4.045  -8.532  1.00  0.00     0.074 A 
ATOM     59  C   UNL     1     -10.852   5.501  -8.575  1.00  0.00     0.031 C 
ATOM     60  C   UNL     1     -10.854   3.158  -7.497  1.00  0.00     0.034 A 
BRANCH  47  61
ATOM     61  C   UNL     1      -9.291   7.519  -4.758  1.00  0.00     0.023 A 
ATOM     62  C   UNL     1     -10.440   7.619  -3.947  1.00  0.00     0.012 A 
ATOM     63  C   UNL     1      -8.980   8.637  -5.571  1.00  0.00     0.148 A 
ATOM     64  C   UNL     1     -11.259   8.752  -3.980  1.00  0.00     0.002 A 
ATOM     65  C   UNL     1      -9.745   9.795  -5.529  1.00  0.00     0.091 A 
ATOM     66  F   UNL     1      -8.027   8.554  -6.506  1.00  0.00    -0.205 F 
ATOM     67  C   UNL     1     -10.906   9.846  -4.761  1.00  0.00     0.022 A 
BRANCH  65  68
ATOM     68  S   UNL     1      -9.269  11.246  -6.476  1.00  0.00     0.127 S 
ATOM     69  O   UNL     1     -10.094  11.102  -7.671  1.00  0.00    -0.237 OA
ATOM     70  O   UNL     1      -9.658  12.337  -5.581  1.00  0.00    -0.237 OA
ATOM     71  O   UNL     1      -7.827  11.120  -6.661  1.00  0.00    -0.744 OA
ENDBRANCH  65  68
ENDBRANCH  47  61
BRANCH  48  72
ATOM     72  C   UNL     1      -9.485   5.216 -12.862  1.00  0.00     0.023 A 
ATOM     73  C   UNL     1     -10.772   5.201 -13.430  1.00  0.00     0.012 A 
ATOM     74  C   UNL     1      -8.493   6.012 -13.483  1.00  0.00     0.148 A 
ATOM     75  C   UNL     1     -11.067   5.957 -14.571  1.00  0.00     0.002 A 
ATOM     76  C   UNL     1      -8.782   6.738 -14.635  1.00  0.00     0.091 A 
ATOM     77  F   UNL     1      -7.293   6.131 -12.899  1.00  0.00    -0.205 F 
ATOM     78  C   UNL     1     -10.073   6.722 -15.176  1.00  0.00     0.022 A 
BRANCH  76  79
ATOM     79  S   UNL     1      -7.534   7.720 -15.481  1.00  0.00     0.127 S 
ATOM     80  O   UNL     1      -7.796   7.407 -16.887  1.00  0.00    -0.237 OA
ATOM     81  O   UNL     1      -7.890   9.078 -15.080  1.00  0.00    -0.237 OA
ATOM     82  O   UNL     1      -6.252   7.226 -14.994  1.00  0.00    -0.744 OA
ENDBRANCH  76  79
ENDBRANCH  48  72
BRANCH  60  83
ATOM     83  C   UNL     1     -10.830   1.683  -7.816  1.00  0.00     0.023 A 
ATOM     84  C   UNL     1      -9.805   1.111  -8.598  1.00  0.00     0.012 A 
ATOM     85  C   UNL     1     -11.730   0.831  -7.154  1.00  0.00     0.148 A 
ATOM     86  C   UNL     1      -9.696  -0.274  -8.740  1.00  0.00     0.002 A 
ATOM     87  C   UNL     1     -11.588  -0.548  -7.257  1.00  0.00     0.091 A 
ATOM     88  F   UNL     1     -12.696   1.384  -6.403  1.00  0.00    -0.205 F 
ATOM     89  C   UNL     1     -10.579  -1.105  -8.057  1.00  0.00     0.022 A 
BRANCH  87  90
ATOM     90  S   UNL     1     -12.605  -1.664  -6.286  1.00  0.00     0.127 S 
ATOM     91  O   UNL     1     -13.627  -2.067  -7.250  1.00  0.00    -0.237 OA
ATOM     92  O   UNL     1     -11.661  -2.723  -5.919  1.00  0.00    -0.237 OA
ATOM     93  O   UNL     1     -13.079  -0.879  -5.152  1.00  0.00    -0.744 OA
ENDBRANCH  87  90
ENDBRANCH  60  83
ENDBRANCH  34  35
ENDBRANCH  27  29
ENDBRANCH  26  27
ENDBRANCH  25  26
ENDBRANCH   1  25
TORSDOF 19
