REMARK SMILES CCCSc1nc(=O)cc(CC(=O)OCCOC(=O)c2ccc(-c3c4nc(c(-c5cccc(S(=O)(=O)[O-])c5F)c5ccc([nH]5)c(-c5cccc(S(=O)(=O)[O-])c5F)c5nc(c(-c6cccc(S(=O)(=O)[O-])c6F)c6ccc3[nH]6)C=C5)C=C4)cc2)[nH]1
REMARK SMILES IDX 15 1 14 2 12 3 13 4 11 5 10 6 5 7 6 8 83 9 7 10 8 12 9 13
REMARK SMILES IDX 4 14 3 15 2 16 1 17 16 18 17 19 18 20 19 21 20 22 21 23
REMARK SMILES IDX 82 24 22 25 81 26 23 27 24 28 25 29 75 30 26 31 80 32 74 33
REMARK SMILES IDX 76 34 27 35 79 36 73 37 72 38 28 40 60 41 40 42 59 43 41 44
REMARK SMILES IDX 44 45 58 46 77 47 42 48 43 49 57 51 78 52 45 53 29 54 30 55
REMARK SMILES IDX 38 56 31 57 33 58 39 59 32 60 34 61 35 62 36 63 37 64 61 65
REMARK SMILES IDX 62 66 70 67 63 68 65 69 71 70 64 71 66 72 67 73 68 74 69 75
REMARK SMILES IDX 46 76 47 77 55 78 48 79 50 80 56 81 49 82 51 83 52 84 53 85
REMARK SMILES IDX 54 86
REMARK H PARENT 83 11 76 39 44 50
REMARK Flexibility Score: inf
ROOT
ATOM      1  C   UNL     1       5.195  -6.290   2.337  1.00  0.00     0.274 C 
ENDROOT
BRANCH   1   2
ATOM      2  O   UNL     1       3.901  -5.839   1.889  1.00  0.00    -0.462 OA
BRANCH   2   3
ATOM      3  C   UNL     1       2.824  -6.492   2.401  1.00  0.00     0.311 C 
ATOM      4  O   UNL     1       2.886  -7.452   3.160  1.00  0.00    -0.252 OA
BRANCH   3   5
ATOM      5  C   UNL     1       1.497  -5.953   1.881  1.00  0.00     0.176 C 
BRANCH   5   6
ATOM      6  C   UNL     1       1.501  -4.503   1.470  1.00  0.00     0.034 A 
ATOM      7  C   UNL     1       1.174  -2.868  -0.227  1.00  0.00     0.169 A 
ATOM      8  N   UNL     1       1.469  -1.867   0.522  1.00  0.00    -0.185 NA
ATOM      9  N   UNL     1       1.203  -4.171   0.169  1.00  0.00    -0.337 N 
ATOM     10  C   UNL     1       1.778  -2.095   1.839  1.00  0.00     0.273 A 
ATOM     11  H   UNL     1       1.009  -4.883  -0.483  1.00  0.00     0.168 HD
ATOM     12  O   UNL     1       2.060  -1.194   2.619  1.00  0.00    -0.267 OA
ATOM     13  C   UNL     1       1.734  -3.499   2.332  1.00  0.00     0.095 A 
BRANCH   7  14
ATOM     14  S   UNL     1       0.653  -2.599  -1.871  1.00  0.00    -0.088 SA
BRANCH  14  15
ATOM     15  C   UNL     1       1.277  -0.916  -2.190  1.00  0.00     0.078 C 
BRANCH  15  16
ATOM     16  C   UNL     1       0.329   0.227  -1.811  1.00  0.00     0.008 C 
ATOM     17  C   UNL     1       0.466   0.738  -0.384  1.00  0.00     0.005 C 
ENDBRANCH  15  16
ENDBRANCH  14  15
ENDBRANCH   7  14
ENDBRANCH   5   6
ENDBRANCH   3   5
ENDBRANCH   2   3
ENDBRANCH   1   2
BRANCH   1  18
ATOM     18  C   UNL     1       5.736  -5.399   3.453  1.00  0.00     0.275 C 
BRANCH  18  19
ATOM     19  O   UNL     1       4.918  -5.523   4.629  1.00  0.00    -0.458 OA
BRANCH  19  20
ATOM     20  C   UNL     1       4.193  -4.428   4.950  1.00  0.00     0.338 C 
ATOM     21  O   UNL     1       4.192  -3.350   4.386  1.00  0.00    -0.246 OA
BRANCH  20  22
ATOM     22  C   UNL     1       3.319  -4.753   6.083  1.00  0.00     0.060 A 
ATOM     23  C   UNL     1       3.762  -4.505   7.380  1.00  0.00     0.016 A 
ATOM     24  C   UNL     1       2.032  -5.244   5.847  1.00  0.00     0.016 A 
ATOM     25  C   UNL     1       2.917  -4.795   8.452  1.00  0.00     0.010 A 
ATOM     26  C   UNL     1       1.174  -5.489   6.917  1.00  0.00     0.010 A 
ATOM     27  C   UNL     1       1.619  -5.292   8.230  1.00  0.00    -0.014 A 
BRANCH  27  28
ATOM     28  C   UNL     1       0.737  -5.592   9.381  1.00  0.00     0.031 A 
ATOM     29  C   UNL     1       0.397  -7.012   9.738  1.00  0.00     0.074 A 
ATOM     30  C   UNL     1       0.247  -4.576  10.116  1.00  0.00     0.049 A 
ATOM     31  N   UNL     1      -0.220  -7.461  10.799  1.00  0.00    -0.248 NA
ATOM     32  C   UNL     1       0.787  -8.063   8.782  1.00  0.00     0.031 C 
ATOM     33  C   UNL     1       0.432  -3.155   9.815  1.00  0.00     0.029 A 
ATOM     34  N   UNL     1      -0.493  -4.580  11.271  1.00  0.00    -0.354 N 
ATOM     35  C   UNL     1      -0.300  -8.838  10.638  1.00  0.00     0.074 A 
ATOM     36  C   UNL     1       0.301  -9.153   9.362  1.00  0.00     0.031 C 
ATOM     37  C   UNL     1      -0.144  -2.425  10.783  1.00  0.00     0.029 A 
ATOM     38  C   UNL     1      -0.739  -3.323  11.769  1.00  0.00     0.049 A 
ATOM     39  H   UNL     1      -0.818  -5.404  11.700  1.00  0.00     0.167 HD
ATOM     40  C   UNL     1      -0.796  -9.759  11.496  1.00  0.00     0.034 A 
ATOM     41  C   UNL     1      -1.344  -2.937  12.909  1.00  0.00     0.034 A 
ATOM     42  C   UNL     1      -1.347  -9.446  12.785  1.00  0.00     0.049 A 
ATOM     43  C   UNL     1      -1.838  -3.981  13.871  1.00  0.00     0.074 A 
ATOM     44  C   UNL     1      -1.779 -10.319  13.767  1.00  0.00     0.029 A 
ATOM     45  N   UNL     1      -1.548  -8.164  13.269  1.00  0.00    -0.354 N 
ATOM     46  N   UNL     1      -1.747  -5.285  13.783  1.00  0.00    -0.248 NA
ATOM     47  C   UNL     1      -2.487  -3.504  15.101  1.00  0.00     0.031 C 
ATOM     48  C   UNL     1      -2.252  -9.564  14.843  1.00  0.00     0.029 A 
ATOM     49  C   UNL     1      -2.109  -8.221  14.531  1.00  0.00     0.049 A 
ATOM     50  H   UNL     1      -1.325  -7.335  12.786  1.00  0.00     0.167 HD
ATOM     51  C   UNL     1      -2.311  -5.786  14.950  1.00  0.00     0.074 A 
ATOM     52  C   UNL     1      -2.727  -4.645  15.739  1.00  0.00     0.031 C 
ATOM     53  C   UNL     1      -2.479  -7.077  15.324  1.00  0.00     0.034 A 
BRANCH  40  54
ATOM     54  C   UNL     1      -0.692 -11.209  11.117  1.00  0.00     0.023 A 
ATOM     55  C   UNL     1       0.545 -11.866  11.271  1.00  0.00     0.012 A 
ATOM     56  C   UNL     1      -1.826 -11.944  10.720  1.00  0.00     0.148 A 
ATOM     57  C   UNL     1       0.656 -13.234  11.029  1.00  0.00     0.002 A 
ATOM     58  C   UNL     1      -1.714 -13.313  10.506  1.00  0.00     0.091 A 
ATOM     59  F   UNL     1      -2.987 -11.292  10.569  1.00  0.00    -0.205 F 
ATOM     60  C   UNL     1      -0.474 -13.958  10.658  1.00  0.00     0.022 A 
BRANCH  58  61
ATOM     61  S   UNL     1      -3.114 -14.351  10.075  1.00  0.00     0.127 S 
ATOM     62  O   UNL     1      -2.748 -14.797   8.731  1.00  0.00    -0.237 OA
ATOM     63  O   UNL     1      -3.051 -15.392  11.101  1.00  0.00    -0.237 OA
ATOM     64  O   UNL     1      -4.290 -13.494  10.142  1.00  0.00    -0.744 OA
ENDBRANCH  58  61
ENDBRANCH  40  54
BRANCH  41  65
ATOM     65  C   UNL     1      -1.407  -1.489  13.240  1.00  0.00     0.023 A 
ATOM     66  C   UNL     1      -0.508  -0.965  14.189  1.00  0.00     0.012 A 
ATOM     67  C   UNL     1      -2.284  -0.621  12.564  1.00  0.00     0.148 A 
ATOM     68  C   UNL     1      -0.485   0.403  14.462  1.00  0.00     0.002 A 
ATOM     69  C   UNL     1      -2.232   0.745  12.815  1.00  0.00     0.091 A 
ATOM     70  F   UNL     1      -3.130  -1.149  11.668  1.00  0.00    -0.205 F 
ATOM     71  C   UNL     1      -1.338   1.258  13.769  1.00  0.00     0.022 A 
BRANCH  69  72
ATOM     72  S   UNL     1      -3.221   1.938  11.908  1.00  0.00     0.127 S 
ATOM     73  O   UNL     1      -4.062   2.493  12.967  1.00  0.00    -0.237 OA
ATOM     74  O   UNL     1      -2.196   2.847  11.395  1.00  0.00    -0.237 OA
ATOM     75  O   UNL     1      -3.925   1.176  10.887  1.00  0.00    -0.744 OA
ENDBRANCH  69  72
ENDBRANCH  41  65
BRANCH  53  76
ATOM     76  C   UNL     1      -3.149  -7.356  16.640  1.00  0.00     0.023 A 
ATOM     77  C   UNL     1      -4.553  -7.295  16.718  1.00  0.00     0.012 A 
ATOM     78  C   UNL     1      -2.408  -7.824  17.742  1.00  0.00     0.148 A 
ATOM     79  C   UNL     1      -5.213  -7.696  17.878  1.00  0.00     0.002 A 
ATOM     80  C   UNL     1      -3.074  -8.254  18.883  1.00  0.00     0.091 A 
ATOM     81  F   UNL     1      -1.072  -7.869  17.639  1.00  0.00    -0.205 F 
ATOM     82  C   UNL     1      -4.476  -8.187  18.953  1.00  0.00     0.022 A 
BRANCH  80  83
ATOM     83  S   UNL     1      -2.224  -8.977  20.290  1.00  0.00     0.127 S 
ATOM     84  O   UNL     1      -2.496  -7.995  21.339  1.00  0.00    -0.237 OA
ATOM     85  O   UNL     1      -2.922 -10.252  20.451  1.00  0.00    -0.237 OA
ATOM     86  O   UNL     1      -0.824  -9.093  19.902  1.00  0.00    -0.744 OA
ENDBRANCH  80  83
ENDBRANCH  53  76
ENDBRANCH  27  28
ENDBRANCH  20  22
ENDBRANCH  19  20
ENDBRANCH  18  19
ENDBRANCH   1  18
TORSDOF 18
