REMARK SMILES C[C@@H]1CCCN(c2cc(Br)ccc2/C=C/C(=O)OCCOC(=O)c2ccc(-c3c4nc(c(-c5cccc(S(=O)(=O)[O-])c5F)c5ccc([nH]5)c(-c5cccc(S(=O)(=O)[O-])c5F)c5nc(c(-c6cccc(S(=O)(=O)[O-])c6F)c6ccc3[nH]6)C=C5)C=C4)cc2)C1
REMARK SMILES IDX 20 1 19 2 18 3 16 4 17 5 15 6 14 7 13 8 7 9 8 10 9 11 12 12
REMARK SMILES IDX 10 13 11 14 6 15 1 16 2 17 3 18 87 19 4 20 5 21 21 22 22 23
REMARK SMILES IDX 23 24 24 25 25 26 86 27 26 28 85 29 27 30 28 31 29 32 79 33
REMARK SMILES IDX 30 34 84 35 78 36 80 37 31 38 83 39 77 40 76 41 32 43 64 44
REMARK SMILES IDX 44 45 63 46 45 47 48 48 62 49 81 50 46 51 47 52 61 54 82 55
REMARK SMILES IDX 49 56 33 57 34 58 42 59 35 60 37 61 43 62 36 63 38 64 39 65
REMARK SMILES IDX 40 66 41 67 65 68 66 69 74 70 67 71 69 72 75 73 68 74 70 75
REMARK SMILES IDX 71 76 72 77 73 78 50 79 51 80 59 81 52 82 54 83 60 84 53 85
REMARK SMILES IDX 55 86 56 87 57 88 58 89
REMARK H PARENT 80 42 48 53
REMARK Flexibility Score: inf
ROOT
ATOM      1  C   UNL     1       0.901   5.519   5.314  1.00  0.00     0.275 C 
ENDROOT
BRANCH   1   2
ATOM      2  C   UNL     1      -0.308   5.184   4.438  1.00  0.00     0.275 C 
BRANCH   2   3
ATOM      3  O   UNL     1       0.098   4.671   3.155  1.00  0.00    -0.459 OA
BRANCH   3   4
ATOM      4  C   UNL     1       0.029   5.548   2.126  1.00  0.00     0.330 C 
ATOM      5  O   UNL     1      -0.424   6.682   2.174  1.00  0.00    -0.247 OA
BRANCH   4   6
ATOM      6  C   UNL     1       0.585   5.006   0.871  1.00  0.00     0.094 C 
ATOM      7  C   UNL     1       1.262   3.854   0.747  1.00  0.00     0.018 C 
BRANCH   7   8
ATOM      8  C   UNL     1       1.836   3.404  -0.538  1.00  0.00    -0.002 A 
ATOM      9  C   UNL     1       1.743   2.058  -0.967  1.00  0.00     0.045 A 
ATOM     10  C   UNL     1       2.369   1.702  -2.178  1.00  0.00     0.042 A 
ATOM     11  C   UNL     1       3.070   2.636  -2.939  1.00  0.00     0.020 A 
ATOM     12  C   UNL     1       2.579   4.325  -1.305  1.00  0.00     0.011 A 
ATOM     13  Br  UNL     1       3.863   2.110  -4.572  1.00  0.00    -0.051 Br
ATOM     14  C   UNL     1       3.186   3.948  -2.503  1.00  0.00     0.016 A 
BRANCH   9  15
ATOM     15  N   UNL     1       1.062   1.071  -0.275  1.00  0.00    -0.371 N 
ATOM     16  C   UNL     1      -2.562   0.017   0.095  1.00  0.00     0.009 C 
ATOM     17  C   UNL     1      -1.102  -0.045  -0.346  1.00  0.00     0.005 C 
ATOM     18  C   UNL     1      -0.422  -1.312   0.201  1.00  0.00     0.007 C 
ATOM     19  C   UNL     1      -0.341   1.220   0.090  1.00  0.00     0.119 C 
ATOM     20  C   UNL     1       1.055  -1.361  -0.194  1.00  0.00     0.022 C 
ATOM     21  C   UNL     1       1.785  -0.089   0.231  1.00  0.00     0.116 C 
ENDBRANCH   9  15
ENDBRANCH   7   8
ENDBRANCH   4   6
ENDBRANCH   3   4
ENDBRANCH   2   3
ENDBRANCH   1   2
BRANCH   1  22
ATOM     22  O   UNL     1       1.632   6.652   4.812  1.00  0.00    -0.458 OA
BRANCH  22  23
ATOM     23  C   UNL     1       2.619   6.356   3.932  1.00  0.00     0.338 C 
ATOM     24  O   UNL     1       2.957   5.248   3.552  1.00  0.00    -0.246 OA
BRANCH  23  25
ATOM     25  C   UNL     1       3.195   7.600   3.393  1.00  0.00     0.060 A 
ATOM     26  C   UNL     1       3.273   7.747   2.005  1.00  0.00     0.016 A 
ATOM     27  C   UNL     1       3.722   8.576   4.242  1.00  0.00     0.016 A 
ATOM     28  C   UNL     1       3.898   8.867   1.457  1.00  0.00     0.010 A 
ATOM     29  C   UNL     1       4.347   9.698   3.691  1.00  0.00     0.010 A 
ATOM     30  C   UNL     1       4.457   9.840   2.297  1.00  0.00    -0.014 A 
BRANCH  30  31
ATOM     31  C   UNL     1       5.213  10.982   1.727  1.00  0.00     0.031 A 
ATOM     32  C   UNL     1       6.713  11.001   1.820  1.00  0.00     0.074 A 
ATOM     33  C   UNL     1       4.555  12.014   1.166  1.00  0.00     0.049 A 
ATOM     34  N   UNL     1       7.552  11.939   1.466  1.00  0.00    -0.248 NA
ATOM     35  C   UNL     1       7.353   9.806   2.394  1.00  0.00     0.031 C 
ATOM     36  C   UNL     1       3.103  12.110   1.022  1.00  0.00     0.029 A 
ATOM     37  N   UNL     1       5.025  13.191   0.640  1.00  0.00    -0.354 N 
ATOM     38  C   UNL     1       8.814  11.467   1.805  1.00  0.00     0.074 A 
ATOM     39  C   UNL     1       8.631  10.159   2.398  1.00  0.00     0.031 C 
ATOM     40  C   UNL     1       2.797  13.295   0.469  1.00  0.00     0.029 A 
ATOM     41  C   UNL     1       4.027  14.053   0.248  1.00  0.00     0.049 A 
ATOM     42  H   UNL     1       5.983  13.400   0.552  1.00  0.00     0.167 HD
ATOM     43  C   UNL     1      10.017  12.062   1.626  1.00  0.00     0.034 A 
ATOM     44  C   UNL     1       4.097  15.317  -0.214  1.00  0.00     0.034 A 
ATOM     45  C   UNL     1      10.197  13.349   1.009  1.00  0.00     0.049 A 
ATOM     46  C   UNL     1       5.447  15.959  -0.396  1.00  0.00     0.074 A 
ATOM     47  C   UNL     1      11.379  14.019   0.744  1.00  0.00     0.029 A 
ATOM     48  N   UNL     1       9.167  14.165   0.565  1.00  0.00    -0.354 N 
ATOM     49  N   UNL     1       6.637  15.456  -0.172  1.00  0.00    -0.248 NA
ATOM     50  C   UNL     1       5.466  17.331  -0.924  1.00  0.00     0.031 C 
ATOM     51  C   UNL     1      11.062  15.246   0.152  1.00  0.00     0.029 A 
ATOM     52  C   UNL     1       9.685  15.332   0.031  1.00  0.00     0.049 A 
ATOM     53  H   UNL     1       8.209  13.945   0.621  1.00  0.00     0.167 HD
ATOM     54  C   UNL     1       7.545  16.432  -0.568  1.00  0.00     0.074 A 
ATOM     55  C   UNL     1       6.768  17.552  -1.058  1.00  0.00     0.031 C 
ATOM     56  C   UNL     1       8.900  16.410  -0.516  1.00  0.00     0.034 A 
BRANCH  43  57
ATOM     57  C   UNL     1      11.243  11.310   2.072  1.00  0.00     0.023 A 
ATOM     58  C   UNL     1      11.695  10.209   1.317  1.00  0.00     0.012 A 
ATOM     59  C   UNL     1      11.977  11.722   3.202  1.00  0.00     0.148 A 
ATOM     60  C   UNL     1      12.842   9.512   1.695  1.00  0.00     0.002 A 
ATOM     61  C   UNL     1      13.141  11.046   3.550  1.00  0.00     0.091 A 
ATOM     62  F   UNL     1      11.518  12.756   3.921  1.00  0.00    -0.205 F 
ATOM     63  C   UNL     1      13.569   9.936   2.804  1.00  0.00     0.022 A 
BRANCH  61  64
ATOM     64  S   UNL     1      14.183  11.561   4.919  1.00  0.00     0.127 S 
ATOM     65  O   UNL     1      13.886  10.536   5.918  1.00  0.00    -0.237 OA
ATOM     66  O   UNL     1      15.524  11.475   4.338  1.00  0.00    -0.237 OA
ATOM     67  O   UNL     1      13.758  12.912   5.259  1.00  0.00    -0.744 OA
ENDBRANCH  61  64
ENDBRANCH  43  57
BRANCH  44  68
ATOM     68  C   UNL     1       2.849  16.044  -0.581  1.00  0.00     0.023 A 
ATOM     69  C   UNL     1       2.578  16.310  -1.937  1.00  0.00     0.012 A 
ATOM     70  C   UNL     1       1.919  16.448   0.398  1.00  0.00     0.148 A 
ATOM     71  C   UNL     1       1.418  16.988  -2.311  1.00  0.00     0.002 A 
ATOM     72  C   UNL     1       0.740  17.077   0.014  1.00  0.00     0.091 A 
ATOM     73  F   UNL     1       2.204  16.203   1.685  1.00  0.00    -0.205 F 
ATOM     74  C   UNL     1       0.494  17.361  -1.338  1.00  0.00     0.022 A 
BRANCH  72  75
ATOM     75  S   UNL     1      -0.559  17.481   1.187  1.00  0.00     0.127 S 
ATOM     76  O   UNL     1      -0.446  18.935   1.269  1.00  0.00    -0.237 OA
ATOM     77  O   UNL     1      -1.754  16.995   0.496  1.00  0.00    -0.237 OA
ATOM     78  O   UNL     1      -0.231  16.749   2.402  1.00  0.00    -0.744 OA
ENDBRANCH  72  75
ENDBRANCH  44  68
BRANCH  56  79
ATOM     79  C   UNL     1       9.644  17.608  -1.043  1.00  0.00     0.023 A 
ATOM     80  C   UNL     1       9.678  18.798  -0.290  1.00  0.00     0.012 A 
ATOM     81  C   UNL     1      10.384  17.524  -2.239  1.00  0.00     0.148 A 
ATOM     82  C   UNL     1      10.418  19.895  -0.732  1.00  0.00     0.002 A 
ATOM     83  C   UNL     1      11.155  18.605  -2.650  1.00  0.00     0.091 A 
ATOM     84  F   UNL     1      10.322  16.390  -2.952  1.00  0.00    -0.205 F 
ATOM     85  C   UNL     1      11.166  19.794  -1.903  1.00  0.00     0.022 A 
BRANCH  83  86
ATOM     86  S   UNL     1      12.222  18.531  -4.094  1.00  0.00     0.127 S 
ATOM     87  O   UNL     1      11.482  19.347  -5.055  1.00  0.00    -0.237 OA
ATOM     88  O   UNL     1      13.458  19.141  -3.601  1.00  0.00    -0.237 OA
ATOM     89  O   UNL     1      12.341  17.119  -4.431  1.00  0.00    -0.744 OA
ENDBRANCH  83  86
ENDBRANCH  56  79
ENDBRANCH  30  31
ENDBRANCH  23  25
ENDBRANCH  22  23
ENDBRANCH   1  22
TORSDOF 16
