REMARK SMILES CCC[C@@H]1CCc2nc3c(F)cccc3c(C(=O)OCCOC(=O)c3ccc(-c4c5nc(c(-c6cccc(S(=O)(=O)[O-])c6F)c6ccc([nH]6)c(-c6cccc(S(=O)(=O)[O-])c6F)c6nc(c(-c7cccc(S(=O)(=O)[O-])c7F)c7ccc4[nH]7)C=C6)C=C5)cc3)c2C1
REMARK SMILES IDX 21 1 20 2 19 3 17 4 18 5 16 6 4 7 5 8 89 9 6 10 88 11 7 12
REMARK SMILES IDX 8 13 15 14 9 15 14 16 10 17 13 18 11 19 12 20 3 21 2 22 1 23
REMARK SMILES IDX 22 24 23 25 24 26 25 27 26 28 87 29 27 30 86 31 28 32 29 33
REMARK SMILES IDX 30 34 80 35 31 36 85 37 79 38 81 39 32 40 84 41 78 42 77 43
REMARK SMILES IDX 33 45 65 46 45 47 64 48 46 49 49 50 63 51 82 52 47 53 48 54
REMARK SMILES IDX 62 56 83 57 50 58 34 59 35 60 43 61 36 62 38 63 44 64 37 65
REMARK SMILES IDX 39 66 40 67 41 68 42 69 66 70 67 71 75 72 68 73 70 74 76 75
REMARK SMILES IDX 69 76 71 77 72 78 73 79 74 80 51 81 52 82 60 83 53 84 55 85
REMARK SMILES IDX 61 86 54 87 56 88 57 89 58 90 59 91
REMARK H PARENT 81 44 49 55
REMARK Flexibility Score: inf
ROOT
ATOM      1  C   UNL     1       5.133   3.495   1.248  1.00  0.00     0.275 C 
ENDROOT
BRANCH   1   2
ATOM      2  C   UNL     1       3.760   4.043   0.846  1.00  0.00     0.275 C 
BRANCH   2   3
ATOM      3  O   UNL     1       2.788   3.831   1.895  1.00  0.00    -0.458 OA
BRANCH   3   4
ATOM      4  C   UNL     1       1.512   3.586   1.487  1.00  0.00     0.339 C 
ATOM      5  O   UNL     1       1.139   3.422   0.339  1.00  0.00    -0.246 OA
BRANCH   4   6
ATOM      6  C   UNL     1       0.588   3.561   2.654  1.00  0.00     0.074 A 
ATOM      7  C   UNL     1      -0.837  -0.050   2.532  1.00  0.00    -0.006 C 
ATOM      8  C   UNL     1      -2.107   0.235   3.343  1.00  0.00     0.010 C 
ATOM      9  C   UNL     1      -0.324   1.264   1.916  1.00  0.00     0.042 C 
ATOM     10  C   UNL     1      -1.836   1.251   4.444  1.00  0.00     0.057 C 
ATOM     11  C   UNL     1      -0.216   2.421   2.885  1.00  0.00    -0.011 A 
ATOM     12  C   UNL     1      -1.048   2.453   3.998  1.00  0.00     0.045 A 
ATOM     13  N   UNL     1      -1.163   3.537   4.794  1.00  0.00    -0.249 NA
ATOM     14  C   UNL     1       0.449   4.731   3.457  1.00  0.00     0.018 A 
ATOM     15  C   UNL     1      -0.477   4.657   4.515  1.00  0.00     0.107 A 
ATOM     16  C   UNL     1       1.120   5.970   3.241  1.00  0.00     0.011 A 
ATOM     17  C   UNL     1      -0.711   5.799   5.282  1.00  0.00     0.149 A 
ATOM     18  C   UNL     1       0.868   7.094   4.030  1.00  0.00     0.004 A 
ATOM     19  F   UNL     1      -1.618   5.764   6.273  1.00  0.00    -0.205 F 
ATOM     20  C   UNL     1      -0.061   7.008   5.051  1.00  0.00     0.041 A 
BRANCH   7  21
ATOM     21  C   UNL     1      -1.079  -1.242   1.562  1.00  0.00     0.003 C 
BRANCH  21  22
ATOM     22  C   UNL     1      -1.132  -1.055   0.041  1.00  0.00    -0.003 C 
ATOM     23  C   UNL     1       0.047  -0.397  -0.659  1.00  0.00     0.004 C 
ENDBRANCH  21  22
ENDBRANCH   7  21
ENDBRANCH   4   6
ENDBRANCH   3   4
ENDBRANCH   2   3
ENDBRANCH   1   2
BRANCH   1  24
ATOM     24  O   UNL     1       5.097   2.057   1.226  1.00  0.00    -0.458 OA
BRANCH  24  25
ATOM     25  C   UNL     1       5.041   1.446   2.434  1.00  0.00     0.338 C 
ATOM     26  O   UNL     1       5.175   1.952   3.531  1.00  0.00    -0.246 OA
BRANCH  25  27
ATOM     27  C   UNL     1       4.506   0.093   2.207  1.00  0.00     0.060 A 
ATOM     28  C   UNL     1       3.127  -0.014   2.260  1.00  0.00     0.016 A 
ATOM     29  C   UNL     1       5.287  -1.043   1.984  1.00  0.00     0.016 A 
ATOM     30  C   UNL     1       2.528  -1.251   2.062  1.00  0.00     0.010 A 
ATOM     31  C   UNL     1       4.663  -2.300   1.804  1.00  0.00     0.010 A 
ATOM     32  C   UNL     1       3.266  -2.414   1.837  1.00  0.00    -0.014 A 
BRANCH  32  33
ATOM     33  C   UNL     1       2.511  -3.704   1.832  1.00  0.00     0.031 A 
ATOM     34  C   UNL     1       2.258  -4.401   3.144  1.00  0.00     0.074 A 
ATOM     35  C   UNL     1       1.851  -4.164   0.748  1.00  0.00     0.049 A 
ATOM     36  N   UNL     1       1.642  -5.532   3.373  1.00  0.00    -0.248 NA
ATOM     37  C   UNL     1       2.726  -3.713   4.358  1.00  0.00     0.031 C 
ATOM     38  C   UNL     1       1.813  -3.518  -0.560  1.00  0.00     0.029 A 
ATOM     39  N   UNL     1       1.036  -5.268   0.595  1.00  0.00    -0.354 N 
ATOM     40  C   UNL     1       1.712  -5.729   4.744  1.00  0.00     0.074 A 
ATOM     41  C   UNL     1       2.365  -4.566   5.306  1.00  0.00     0.031 C 
ATOM     42  C   UNL     1       0.985  -4.208  -1.366  1.00  0.00     0.029 A 
ATOM     43  C   UNL     1       0.491  -5.395  -0.664  1.00  0.00     0.049 A 
ATOM     44  H   UNL     1       0.859  -5.908   1.322  1.00  0.00     0.167 HD
ATOM     45  C   UNL     1       1.300  -6.791   5.471  1.00  0.00     0.034 A 
ATOM     46  C   UNL     1      -0.283  -6.363  -1.205  1.00  0.00     0.034 A 
ATOM     47  C   UNL     1       0.620  -7.944   4.951  1.00  0.00     0.049 A 
ATOM     48  C   UNL     1      -0.650  -7.588  -0.401  1.00  0.00     0.074 A 
ATOM     49  C   UNL     1       0.256  -9.096   5.627  1.00  0.00     0.029 A 
ATOM     50  N   UNL     1       0.191  -8.093   3.646  1.00  0.00    -0.354 N 
ATOM     51  N   UNL     1      -0.479  -7.819   0.876  1.00  0.00    -0.248 NA
ATOM     52  C   UNL     1      -1.296  -8.701  -1.123  1.00  0.00     0.031 C 
ATOM     53  C   UNL     1      -0.379  -9.953   4.725  1.00  0.00     0.029 A 
ATOM     54  C   UNL     1      -0.431  -9.321   3.495  1.00  0.00     0.049 A 
ATOM     55  H   UNL     1       0.310  -7.427   2.931  1.00  0.00     0.167 HD
ATOM     56  C   UNL     1      -0.987  -9.096   1.108  1.00  0.00     0.074 A 
ATOM     57  C   UNL     1      -1.505  -9.582  -0.151  1.00  0.00     0.031 C 
ATOM     58  C   UNL     1      -0.992  -9.804   2.263  1.00  0.00     0.034 A 
BRANCH  45  59
ATOM     59  C   UNL     1       1.637  -6.805   6.931  1.00  0.00     0.023 A 
ATOM     60  C   UNL     1       0.803  -6.155   7.858  1.00  0.00     0.012 A 
ATOM     61  C   UNL     1       2.728  -7.573   7.380  1.00  0.00     0.148 A 
ATOM     62  C   UNL     1       1.053  -6.276   9.224  1.00  0.00     0.002 A 
ATOM     63  C   UNL     1       2.950  -7.715   8.741  1.00  0.00     0.091 A 
ATOM     64  F   UNL     1       3.511  -8.163   6.465  1.00  0.00    -0.205 F 
ATOM     65  C   UNL     1       2.115  -7.065   9.665  1.00  0.00     0.022 A 
BRANCH  63  66
ATOM     66  S   UNL     1       4.252  -8.758   9.402  1.00  0.00     0.127 S 
ATOM     67  O   UNL     1       5.115  -7.773  10.053  1.00  0.00    -0.237 OA
ATOM     68  O   UNL     1       3.513  -9.626  10.318  1.00  0.00    -0.237 OA
ATOM     69  O   UNL     1       4.846  -9.438   8.259  1.00  0.00    -0.744 OA
ENDBRANCH  63  66
ENDBRANCH  45  59
BRANCH  46  70
ATOM     70  C   UNL     1      -0.741  -6.254  -2.623  1.00  0.00     0.023 A 
ATOM     71  C   UNL     1      -2.114  -6.114  -2.909  1.00  0.00     0.012 A 
ATOM     72  C   UNL     1       0.179  -6.302  -3.688  1.00  0.00     0.148 A 
ATOM     73  C   UNL     1      -2.559  -6.024  -4.231  1.00  0.00     0.002 A 
ATOM     74  C   UNL     1      -0.264  -6.154  -4.996  1.00  0.00     0.091 A 
ATOM     75  F   UNL     1       1.474  -6.484  -3.396  1.00  0.00    -0.205 F 
ATOM     76  C   UNL     1      -1.634  -6.028  -5.272  1.00  0.00     0.022 A 
BRANCH  74  77
ATOM     77  S   UNL     1       0.866  -6.036  -6.386  1.00  0.00     0.127 S 
ATOM     78  O   UNL     1       0.519  -7.228  -7.157  1.00  0.00    -0.237 OA
ATOM     79  O   UNL     1       0.458  -4.768  -6.992  1.00  0.00    -0.237 OA
ATOM     80  O   UNL     1       2.204  -6.029  -5.811  1.00  0.00    -0.744 OA
ENDBRANCH  74  77
ENDBRANCH  46  70
BRANCH  58  81
ATOM     81  C   UNL     1      -1.566 -11.198   2.270  1.00  0.00     0.023 A 
ATOM     82  C   UNL     1      -0.797 -12.263   1.763  1.00  0.00     0.012 A 
ATOM     83  C   UNL     1      -2.787 -11.474   2.919  1.00  0.00     0.148 A 
ATOM     84  C   UNL     1      -1.233 -13.582   1.900  1.00  0.00     0.002 A 
ATOM     85  C   UNL     1      -3.201 -12.793   3.078  1.00  0.00     0.091 A 
ATOM     86  F   UNL     1      -3.502 -10.445   3.396  1.00  0.00    -0.205 F 
ATOM     87  C   UNL     1      -2.427 -13.847   2.567  1.00  0.00     0.022 A 
BRANCH  85  88
ATOM     88  S   UNL     1      -4.690 -13.245   3.979  1.00  0.00     0.127 S 
ATOM     89  O   UNL     1      -5.509 -13.838   2.922  1.00  0.00    -0.237 OA
ATOM     90  O   UNL     1      -4.178 -14.200   4.962  1.00  0.00    -0.237 OA
ATOM     91  O   UNL     1      -5.214 -12.008   4.543  1.00  0.00    -0.744 OA
ENDBRANCH  85  88
ENDBRANCH  58  81
ENDBRANCH  32  33
ENDBRANCH  25  27
ENDBRANCH  24  25
ENDBRANCH   1  24
TORSDOF 16
