REMARK SMILES CC1=C(CC(=O)OCCOC(=O)c2ccc(-c3c4nc(c(-c5cccc(S(=O)(=O)[O-])c5F)c5ccc([nH]5)c(-c5cccc(S(=O)(=O)[O-])c5F)c5nc(c(-c6cccc(S(=O)(=O)[O-])c6F)c6ccc3[nH]6)C=C5)C=C4)cc2)c2cc(F)ccc2/C1=C\c1cccc(OCc2ccccc2)c1
REMARK SMILES IDX 8 1 7 2 5 3 6 4 4 5 3 6 1 7 2 8 83 9 76 10 82 11 84 12 77 13
REMARK SMILES IDX 81 14 78 15 80 16 79 17 85 18 86 19 98 20 87 21 89 22 88 23
REMARK SMILES IDX 90 24 91 25 92 26 93 27 97 28 94 29 96 30 95 31 9 32 10 33
REMARK SMILES IDX 11 34 12 35 13 36 14 37 75 38 15 39 74 40 16 41 17 42 18 43
REMARK SMILES IDX 68 44 19 45 73 46 67 47 69 48 20 49 72 50 66 51 65 52 21 54
REMARK SMILES IDX 53 55 33 56 52 57 34 58 37 59 51 60 70 61 35 62 36 63 50 65
REMARK SMILES IDX 71 66 38 67 22 68 23 69 31 70 24 71 26 72 32 73 25 74 27 75
REMARK SMILES IDX 28 76 29 77 30 78 54 79 55 80 63 81 56 82 58 83 64 84 57 85
REMARK SMILES IDX 59 86 60 87 61 88 62 89 39 90 40 91 48 92 41 93 43 94 49 95
REMARK SMILES IDX 42 96 44 97 45 98 46 99 47 100
REMARK H PARENT 69 53 37 64
REMARK Flexibility Score: inf
ROOT
ATOM      1  C   UNL     1       2.039  -1.243   4.988  1.00  0.00     0.274 C 
ENDROOT
BRANCH   1   2
ATOM      2  O   UNL     1       1.365  -0.572   3.904  1.00  0.00    -0.462 OA
BRANCH   2   3
ATOM      3  C   UNL     1       0.243  -1.181   3.438  1.00  0.00     0.310 C 
ATOM      4  O   UNL     1      -0.177  -2.262   3.840  1.00  0.00    -0.252 OA
BRANCH   3   5
ATOM      5  C   UNL     1      -0.484  -0.404   2.349  1.00  0.00     0.159 C 
BRANCH   5   6
ATOM      6  C   UNL     1       0.099   0.915   1.967  1.00  0.00    -0.025 C 
ATOM      7  C   UNL     1       1.550   0.232  -0.013  1.00  0.00     0.045 C 
ATOM      8  C   UNL     1       0.960   1.194   0.963  1.00  0.00    -0.039 C 
ATOM      9  C   UNL     1       1.221   2.640   0.928  1.00  0.00    -0.014 C 
ATOM     10  C   UNL     1      -0.265   2.188   2.614  1.00  0.00    -0.011 A 
ATOM     11  C   UNL     1       0.431   3.251   2.012  1.00  0.00    -0.010 A 
ATOM     12  C   UNL     1       2.005   3.242   0.017  1.00  0.00     0.017 C 
ATOM     13  C   UNL     1      -1.160   2.436   3.643  1.00  0.00     0.048 A 
ATOM     14  C   UNL     1       0.273   4.555   2.470  1.00  0.00     0.012 A 
ATOM     15  C   UNL     1      -1.310   3.741   4.101  1.00  0.00     0.123 A 
ATOM     16  C   UNL     1      -0.600   4.796   3.532  1.00  0.00     0.040 A 
ATOM     17  F   UNL     1      -2.161   3.990   5.105  1.00  0.00    -0.207 F 
BRANCH  12  18
ATOM     18  C   UNL     1       2.183   4.685  -0.127  1.00  0.00    -0.021 A 
ATOM     19  C   UNL     1       3.163   5.370   0.593  1.00  0.00     0.008 A 
ATOM     20  C   UNL     1       1.315   5.385  -0.975  1.00  0.00     0.054 A 
ATOM     21  C   UNL     1       3.259   6.756   0.476  1.00  0.00     0.004 A 
ATOM     22  C   UNL     1       1.432   6.764  -1.128  1.00  0.00     0.120 A 
ATOM     23  C   UNL     1       2.398   7.446  -0.383  1.00  0.00     0.046 A 
BRANCH  22  24
ATOM     24  O   UNL     1       0.680   7.547  -1.961  1.00  0.00    -0.489 OA
BRANCH  24  25
ATOM     25  C   UNL     1      -0.235   6.906  -2.861  1.00  0.00     0.265 C 
BRANCH  25  26
ATOM     26  C   UNL     1       0.465   6.200  -4.003  1.00  0.00    -0.011 A 
ATOM     27  C   UNL     1       1.407   6.880  -4.787  1.00  0.00     0.007 A 
ATOM     28  C   UNL     1       0.199   4.852  -4.282  1.00  0.00     0.007 A 
ATOM     29  C   UNL     1       2.091   6.217  -5.807  1.00  0.00     0.000 A 
ATOM     30  C   UNL     1       0.892   4.186  -5.294  1.00  0.00     0.000 A 
ATOM     31  C   UNL     1       1.840   4.869  -6.054  1.00  0.00     0.000 A 
ENDBRANCH  25  26
ENDBRANCH  24  25
ENDBRANCH  22  24
ENDBRANCH  12  18
ENDBRANCH   5   6
ENDBRANCH   3   5
ENDBRANCH   2   3
ENDBRANCH   1   2
BRANCH   1  32
ATOM     32  C   UNL     1       1.688  -0.593   6.323  1.00  0.00     0.275 C 
BRANCH  32  33
ATOM     33  O   UNL     1       0.265  -0.635   6.516  1.00  0.00    -0.458 OA
BRANCH  33  34
ATOM     34  C   UNL     1      -0.333   0.564   6.704  1.00  0.00     0.338 C 
ATOM     35  O   UNL     1       0.207   1.651   6.806  1.00  0.00    -0.246 OA
BRANCH  34  36
ATOM     36  C   UNL     1      -1.788   0.367   6.809  1.00  0.00     0.060 A 
ATOM     37  C   UNL     1      -2.455   0.877   7.920  1.00  0.00     0.016 A 
ATOM     38  C   UNL     1      -2.505  -0.236   5.771  1.00  0.00     0.016 A 
ATOM     39  C   UNL     1      -3.840   0.742   8.008  1.00  0.00     0.010 A 
ATOM     40  C   UNL     1      -3.898  -0.272   5.814  1.00  0.00     0.010 A 
ATOM     41  C   UNL     1      -4.578   0.177   6.951  1.00  0.00    -0.014 A 
BRANCH  41  42
ATOM     42  C   UNL     1      -6.053   0.037   7.064  1.00  0.00     0.031 A 
ATOM     43  C   UNL     1      -6.690  -1.328   7.095  1.00  0.00     0.074 A 
ATOM     44  C   UNL     1      -6.822   1.139   7.158  1.00  0.00     0.049 A 
ATOM     45  N   UNL     1      -7.938  -1.643   7.330  1.00  0.00    -0.248 NA
ATOM     46  C   UNL     1      -5.828  -2.489   6.811  1.00  0.00     0.031 C 
ATOM     47  C   UNL     1      -6.342   2.518   7.043  1.00  0.00     0.029 A 
ATOM     48  N   UNL     1      -8.169   1.275   7.385  1.00  0.00    -0.354 N 
ATOM     49  C   UNL     1      -8.011  -3.025   7.212  1.00  0.00     0.074 A 
ATOM     50  C   UNL     1      -6.696  -3.490   6.836  1.00  0.00     0.031 C 
ATOM     51  C   UNL     1      -7.369   3.359   7.248  1.00  0.00     0.029 A 
ATOM     52  C   UNL     1      -8.578   2.582   7.503  1.00  0.00     0.049 A 
ATOM     53  H   UNL     1      -8.783   0.509   7.457  1.00  0.00     0.167 HD
ATOM     54  C   UNL     1      -9.063  -3.842   7.446  1.00  0.00     0.034 A 
ATOM     55  C   UNL     1      -9.783   3.098   7.817  1.00  0.00     0.034 A 
ATOM     56  C   UNL     1     -10.353  -3.390   7.882  1.00  0.00     0.049 A 
ATOM     57  C   UNL     1     -10.920   2.169   8.140  1.00  0.00     0.074 A 
ATOM     58  C   UNL     1     -11.457  -4.149   8.227  1.00  0.00     0.029 A 
ATOM     59  N   UNL     1     -10.710  -2.061   8.041  1.00  0.00    -0.354 N 
ATOM     60  N   UNL     1     -10.925   0.858   8.177  1.00  0.00    -0.248 NA
ATOM     61  C   UNL     1     -12.206   2.785   8.501  1.00  0.00     0.031 C 
ATOM     62  C   UNL     1     -12.483  -3.276   8.599  1.00  0.00     0.029 A 
ATOM     63  C   UNL     1     -12.017  -1.976   8.483  1.00  0.00     0.049 A 
ATOM     64  H   UNL     1     -10.120  -1.292   7.866  1.00  0.00     0.167 HD
ATOM     65  C   UNL     1     -12.204   0.493   8.581  1.00  0.00     0.074 A 
ATOM     66  C   UNL     1     -12.943   1.720   8.795  1.00  0.00     0.031 C 
ATOM     67  C   UNL     1     -12.721  -0.748   8.742  1.00  0.00     0.034 A 
BRANCH  54  68
ATOM     68  C   UNL     1      -8.835  -5.324   7.339  1.00  0.00     0.023 A 
ATOM     69  C   UNL     1      -8.171  -5.984   8.393  1.00  0.00     0.012 A 
ATOM     70  C   UNL     1      -9.336  -6.070   6.256  1.00  0.00     0.148 A 
ATOM     71  C   UNL     1      -7.994  -7.366   8.365  1.00  0.00     0.002 A 
ATOM     72  C   UNL     1      -9.181  -7.452   6.249  1.00  0.00     0.091 A 
ATOM     73  F   UNL     1      -9.950  -5.417   5.260  1.00  0.00    -0.205 F 
ATOM     74  C   UNL     1      -8.508  -8.100   7.299  1.00  0.00     0.022 A 
BRANCH  72  75
ATOM     75  S   UNL     1      -9.846  -8.502   4.952  1.00  0.00     0.127 S 
ATOM     76  O   UNL     1      -8.624  -9.026   4.342  1.00  0.00    -0.237 OA
ATOM     77  O   UNL     1     -10.616  -9.483   5.717  1.00  0.00    -0.237 OA
ATOM     78  O   UNL     1     -10.641  -7.633   4.096  1.00  0.00    -0.744 OA
ENDBRANCH  72  75
ENDBRANCH  54  68
BRANCH  55  79
ATOM     79  C   UNL     1      -9.933   4.572   7.954  1.00  0.00     0.023 A 
ATOM     80  C   UNL     1      -9.986   5.137   9.243  1.00  0.00     0.012 A 
ATOM     81  C   UNL     1      -9.958   5.416   6.828  1.00  0.00     0.148 A 
ATOM     82  C   UNL     1     -10.072   6.520   9.409  1.00  0.00     0.002 A 
ATOM     83  C   UNL     1     -10.007   6.794   7.000  1.00  0.00     0.091 A 
ATOM     84  F   UNL     1      -9.913   4.851   5.613  1.00  0.00    -0.205 F 
ATOM     85  C   UNL     1     -10.073   7.348   8.289  1.00  0.00     0.022 A 
BRANCH  83  86
ATOM     86  S   UNL     1      -9.919   7.948   5.626  1.00  0.00     0.127 S 
ATOM     87  O   UNL     1     -11.249   8.552   5.658  1.00  0.00    -0.237 OA
ATOM     88  O   UNL     1      -8.831   8.832   6.045  1.00  0.00    -0.237 OA
ATOM     89  O   UNL     1      -9.624   7.142   4.450  1.00  0.00    -0.744 OA
ENDBRANCH  83  86
ENDBRANCH  55  79
BRANCH  67  90
ATOM     90  C   UNL     1     -14.157  -0.869   9.168  1.00  0.00     0.023 A 
ATOM     91  C   UNL     1     -15.170  -0.720   8.202  1.00  0.00     0.012 A 
ATOM     92  C   UNL     1     -14.492  -1.268  10.476  1.00  0.00     0.148 A 
ATOM     93  C   UNL     1     -16.502  -0.963   8.534  1.00  0.00     0.002 A 
ATOM     94  C   UNL     1     -15.818  -1.539  10.791  1.00  0.00     0.091 A 
ATOM     95  F   UNL     1     -13.506  -1.395  11.376  1.00  0.00    -0.205 F 
ATOM     96  C   UNL     1     -16.823  -1.384   9.822  1.00  0.00     0.022 A 
BRANCH  94  97
ATOM     97  S   UNL     1     -16.325  -2.161  12.398  1.00  0.00     0.127 S 
ATOM     98  O   UNL     1     -17.098  -1.036  12.922  1.00  0.00    -0.237 OA
ATOM     99  O   UNL     1     -17.121  -3.334  12.039  1.00  0.00    -0.237 OA
ATOM    100  O   UNL     1     -15.097  -2.459  13.123  1.00  0.00    -0.744 OA
ENDBRANCH  94  97
ENDBRANCH  67  90
ENDBRANCH  41  42
ENDBRANCH  34  36
ENDBRANCH  33  34
ENDBRANCH  32  33
ENDBRANCH   1  32
TORSDOF 19
