REMARK SMILES C[C@@H](NS(=O)(=O)c1ccc2c(c1)CCC2)C(=O)OCCOC(=O)c1ccc(-c2c3nc(c(-c4cccc(S(=O)(=O)[O-])c4F)c4ccc([nH]4)c(-c4cccc(S(=O)(=O)[O-])c4F)c4nc(c(-c5cccc(S(=O)(=O)[O-])c5F)c5ccc2[nH]5)C=C4)C=C3)cc1
REMARK SMILES IDX 19 1 18 2 16 3 17 4 2 5 1 6 3 7 4 9 5 10 6 11 7 12 8 13
REMARK SMILES IDX 12 14 9 15 11 16 10 17 13 18 15 19 14 20 20 21 21 22 22 23
REMARK SMILES IDX 23 24 24 25 25 26 86 27 26 28 85 29 27 30 28 31 29 32 79 33
REMARK SMILES IDX 30 34 84 35 78 36 80 37 31 38 83 39 77 40 76 41 32 43 64 44
REMARK SMILES IDX 44 45 63 46 45 47 48 48 62 49 81 50 46 51 47 52 61 54 82 55
REMARK SMILES IDX 49 56 33 57 34 58 42 59 35 60 37 61 43 62 36 63 38 64 39 65
REMARK SMILES IDX 40 66 41 67 65 68 66 69 74 70 67 71 69 72 75 73 68 74 70 75
REMARK SMILES IDX 71 76 72 77 73 78 50 79 51 80 59 81 52 82 54 83 60 84 53 85
REMARK SMILES IDX 55 86 56 87 57 88 58 89
REMARK H PARENT 3 8 80 42 48 53
REMARK Flexibility Score: inf
ROOT
ATOM      1  C   UNL     1      -3.043  -0.204   0.532  1.00  0.00     0.274 C 
ENDROOT
BRANCH   1   2
ATOM      2  O   UNL     1      -1.641  -0.103   0.856  1.00  0.00    -0.461 OA
BRANCH   2   3
ATOM      3  C   UNL     1      -0.950  -1.278   0.874  1.00  0.00     0.324 C 
ATOM      4  O   UNL     1      -1.447  -2.370   0.627  1.00  0.00    -0.250 OA
BRANCH   3   5
ATOM      5  C   UNL     1       0.504  -1.111   1.306  1.00  0.00     0.176 C 
ATOM      6  C   UNL     1       1.092   0.233   0.882  1.00  0.00     0.038 C 
BRANCH   5   7
ATOM      7  N   UNL     1       0.686  -1.265   2.769  1.00  0.00    -0.197 NA
ATOM      8  H   UNL     1       0.030  -0.630   3.224  1.00  0.00     0.142 HD
BRANCH   7   9
ATOM      9  S   UNL     1       0.451  -2.800   3.448  1.00  0.00     0.241 S 
ATOM     10  O   UNL     1       0.953  -3.764   2.491  1.00  0.00    -0.207 OA
ATOM     11  O   UNL     1       0.991  -2.707   4.783  1.00  0.00    -0.207 OA
BRANCH   9  12
ATOM     12  C   UNL     1      -1.305  -2.947   3.599  1.00  0.00     0.082 A 
ATOM     13  C   UNL     1      -2.055  -1.822   3.996  1.00  0.00     0.022 A 
ATOM     14  C   UNL     1      -1.926  -4.139   3.211  1.00  0.00     0.025 A 
ATOM     15  C   UNL     1      -3.449  -1.861   3.955  1.00  0.00     0.005 A 
ATOM     16  C   UNL     1      -3.309  -4.157   3.171  1.00  0.00    -0.043 A 
ATOM     17  C   UNL     1      -4.060  -3.025   3.515  1.00  0.00    -0.045 A 
ATOM     18  C   UNL     1      -4.203  -5.295   2.783  1.00  0.00     0.036 C 
ATOM     19  C   UNL     1      -5.523  -3.289   3.337  1.00  0.00     0.036 C 
ATOM     20  C   UNL     1      -5.501  -4.546   2.454  1.00  0.00     0.010 C 
ENDBRANCH   9  12
ENDBRANCH   7   9
ENDBRANCH   5   7
ENDBRANCH   3   5
ENDBRANCH   2   3
ENDBRANCH   1   2
BRANCH   1  21
ATOM     21  C   UNL     1      -3.324  -0.038  -0.967  1.00  0.00     0.275 C 
BRANCH  21  22
ATOM     22  O   UNL     1      -2.921  -1.191  -1.725  1.00  0.00    -0.458 OA
BRANCH  22  23
ATOM     23  C   UNL     1      -1.639  -1.177  -2.163  1.00  0.00     0.338 C 
ATOM     24  O   UNL     1      -0.847  -0.252  -2.060  1.00  0.00    -0.246 OA
BRANCH  23  25
ATOM     25  C   UNL     1      -1.245  -2.526  -2.614  1.00  0.00     0.060 A 
ATOM     26  C   UNL     1      -0.026  -3.031  -2.145  1.00  0.00     0.016 A 
ATOM     27  C   UNL     1      -2.042  -3.286  -3.471  1.00  0.00     0.016 A 
ATOM     28  C   UNL     1       0.394  -4.306  -2.509  1.00  0.00     0.010 A 
ATOM     29  C   UNL     1      -1.607  -4.557  -3.859  1.00  0.00     0.010 A 
ATOM     30  C   UNL     1      -0.389  -5.070  -3.381  1.00  0.00    -0.014 A 
BRANCH  30  31
ATOM     31  C   UNL     1       0.097  -6.391  -3.831  1.00  0.00     0.031 A 
ATOM     32  C   UNL     1       0.770  -6.511  -5.165  1.00  0.00     0.074 A 
ATOM     33  C   UNL     1      -0.084  -7.472  -3.051  1.00  0.00     0.049 A 
ATOM     34  N   UNL     1       1.197  -7.581  -5.780  1.00  0.00    -0.248 NA
ATOM     35  C   UNL     1       0.996  -5.258  -5.907  1.00  0.00     0.031 C 
ATOM     36  C   UNL     1      -0.707  -7.461  -1.728  1.00  0.00     0.029 A 
ATOM     37  N   UNL     1       0.212  -8.793  -3.275  1.00  0.00    -0.354 N 
ATOM     38  C   UNL     1       1.710  -7.141  -6.992  1.00  0.00     0.074 A 
ATOM     39  C   UNL     1       1.551  -5.703  -7.026  1.00  0.00     0.031 C 
ATOM     40  C   UNL     1      -0.787  -8.724  -1.274  1.00  0.00     0.029 A 
ATOM     41  C   UNL     1      -0.248  -9.630  -2.285  1.00  0.00     0.049 A 
ATOM     42  H   UNL     1       0.705  -9.110  -4.066  1.00  0.00     0.167 HD
ATOM     43  C   UNL     1       2.270  -7.873  -7.983  1.00  0.00     0.034 A 
ATOM     44  C   UNL     1      -0.263 -10.976  -2.223  1.00  0.00     0.034 A 
ATOM     45  C   UNL     1       2.452  -9.297  -7.927  1.00  0.00     0.049 A 
ATOM     46  C   UNL     1       0.336 -11.765  -3.358  1.00  0.00     0.074 A 
ATOM     47  C   UNL     1       3.068 -10.122  -8.851  1.00  0.00     0.029 A 
ATOM     48  N   UNL     1       2.005 -10.111  -6.898  1.00  0.00    -0.354 N 
ATOM     49  N   UNL     1       0.933 -11.329  -4.441  1.00  0.00    -0.248 NA
ATOM     50  C   UNL     1       0.276 -13.230  -3.255  1.00  0.00     0.031 C 
ATOM     51  C   UNL     1       2.975 -11.439  -8.390  1.00  0.00     0.029 A 
ATOM     52  C   UNL     1       2.309 -11.432  -7.174  1.00  0.00     0.049 A 
ATOM     53  H   UNL     1       1.540  -9.795  -6.089  1.00  0.00     0.167 HD
ATOM     54  C   UNL     1       1.332 -12.462  -5.140  1.00  0.00     0.074 A 
ATOM     55  C   UNL     1       0.938 -13.605  -4.342  1.00  0.00     0.031 C 
ATOM     56  C   UNL     1       1.947 -12.552  -6.345  1.00  0.00     0.034 A 
BRANCH  43  57
ATOM     57  C   UNL     1       2.753  -7.146  -9.206  1.00  0.00     0.023 A 
ATOM     58  C   UNL     1       3.980  -6.456  -9.162  1.00  0.00     0.012 A 
ATOM     59  C   UNL     1       2.032  -7.210 -10.413  1.00  0.00     0.148 A 
ATOM     60  C   UNL     1       4.479  -5.828 -10.303  1.00  0.00     0.002 A 
ATOM     61  C   UNL     1       2.550  -6.607 -11.554  1.00  0.00     0.091 A 
ATOM     62  F   UNL     1       0.855  -7.851 -10.421  1.00  0.00    -0.205 F 
ATOM     63  C   UNL     1       3.770  -5.913 -11.499  1.00  0.00     0.022 A 
BRANCH  61  64
ATOM     64  S   UNL     1       1.743  -6.706 -13.155  1.00  0.00     0.127 S 
ATOM     65  O   UNL     1       1.312  -5.323 -13.353  1.00  0.00    -0.237 OA
ATOM     66  O   UNL     1       2.838  -7.134 -14.026  1.00  0.00    -0.237 OA
ATOM     67  O   UNL     1       0.668  -7.677 -13.006  1.00  0.00    -0.744 OA
ENDBRANCH  61  64
ENDBRANCH  43  57
BRANCH  44  68
ATOM     68  C   UNL     1      -0.863 -11.661  -1.044  1.00  0.00     0.023 A 
ATOM     69  C   UNL     1      -0.034 -12.370  -0.154  1.00  0.00     0.012 A 
ATOM     70  C   UNL     1      -2.247 -11.601  -0.789  1.00  0.00     0.148 A 
ATOM     71  C   UNL     1      -0.576 -13.026   0.953  1.00  0.00     0.002 A 
ATOM     72  C   UNL     1      -2.773 -12.210   0.345  1.00  0.00     0.091 A 
ATOM     73  F   UNL     1      -3.031 -10.951  -1.662  1.00  0.00    -0.205 F 
ATOM     74  C   UNL     1      -1.942 -12.936   1.210  1.00  0.00     0.022 A 
BRANCH  72  75
ATOM     75  S   UNL     1      -4.500 -12.014   0.801  1.00  0.00     0.127 S 
ATOM     76  O   UNL     1      -5.097 -13.229   0.255  1.00  0.00    -0.237 OA
ATOM     77  O   UNL     1      -4.436 -11.963   2.263  1.00  0.00    -0.237 OA
ATOM     78  O   UNL     1      -4.913 -10.760   0.184  1.00  0.00    -0.744 OA
ENDBRANCH  72  75
ENDBRANCH  44  68
BRANCH  56  79
ATOM     79  C   UNL     1       2.228 -13.930  -6.882  1.00  0.00     0.023 A 
ATOM     80  C   UNL     1       1.167 -14.689  -7.413  1.00  0.00     0.012 A 
ATOM     81  C   UNL     1       3.540 -14.437  -6.940  1.00  0.00     0.148 A 
ATOM     82  C   UNL     1       1.404 -15.942  -7.975  1.00  0.00     0.002 A 
ATOM     83  C   UNL     1       3.775 -15.669  -7.539  1.00  0.00     0.091 A 
ATOM     84  F   UNL     1       4.533 -13.706  -6.411  1.00  0.00    -0.205 F 
ATOM     85  C   UNL     1       2.708 -16.426  -8.049  1.00  0.00     0.022 A 
BRANCH  83  86
ATOM     86  S   UNL     1       5.432 -16.328  -7.758  1.00  0.00     0.127 S 
ATOM     87  O   UNL     1       5.482 -17.360  -6.724  1.00  0.00    -0.237 OA
ATOM     88  O   UNL     1       5.388 -16.840  -9.128  1.00  0.00    -0.237 OA
ATOM     89  O   UNL     1       6.337 -15.203  -7.567  1.00  0.00    -0.744 OA
ENDBRANCH  83  86
ENDBRANCH  56  79
ENDBRANCH  30  31
ENDBRANCH  23  25
ENDBRANCH  22  23
ENDBRANCH  21  22
ENDBRANCH   1  21
TORSDOF 17
