REMARK SMILES O=C(OCCOC(=O)[C@@]1([NH2+]C2CC2)CC[C@H](SC2CCCC2)C1)c1ccc(-c2c3nc(c(-c4cccc(S(=O)(=O)[O-])c4F)c4ccc([nH]4)c(-c4cccc(S(=O)(=O)[O-])c4F)c4nc(c(-c5cccc(S(=O)(=O)[O-])c5F)c5ccc2[nH]5)C=C4)C=C3)cc1
REMARK SMILES IDX 4 1 3 2 2 3 1 4 24 5 25 6 86 7 26 8 85 9 27 10 28 11 29 12
REMARK SMILES IDX 79 13 30 14 84 15 78 16 80 17 31 18 83 19 77 20 76 21 32 23
REMARK SMILES IDX 64 24 44 25 63 26 45 27 48 28 62 29 81 30 46 31 47 32 61 34
REMARK SMILES IDX 82 35 49 36 33 37 34 38 42 39 35 40 37 41 43 42 36 43 38 44
REMARK SMILES IDX 39 45 40 46 41 47 65 48 66 49 74 50 67 51 69 52 75 53 68 54
REMARK SMILES IDX 70 55 71 56 72 57 73 58 50 59 51 60 59 61 52 62 54 63 60 64
REMARK SMILES IDX 53 65 55 66 56 67 57 68 58 69 5 70 6 71 7 72 8 73 9 74 14 75
REMARK SMILES IDX 23 76 15 77 16 78 10 79 11 82 12 83 13 84 17 85 18 86 19 87
REMARK SMILES IDX 22 88 20 89 21 90
REMARK H PARENT 80 22 48 33 10 80 10 81
REMARK Flexibility Score: inf
ROOT
ATOM      1  C   UNL     1       4.505   0.416   1.966  1.00  0.00     0.275 C 
ENDROOT
BRANCH   1   2
ATOM      2  O   UNL     1       4.732   1.242   0.809  1.00  0.00    -0.458 OA
BRANCH   2   3
ATOM      3  C   UNL     1       4.260   0.908  -0.410  1.00  0.00     0.338 C 
ATOM      4  O   UNL     1       3.394   1.567  -0.961  1.00  0.00    -0.246 OA
BRANCH   3   5
ATOM      5  C   UNL     1       4.955  -0.229  -1.088  1.00  0.00     0.060 A 
ATOM      6  C   UNL     1       6.005  -0.960  -0.520  1.00  0.00     0.016 A 
ATOM      7  C   UNL     1       4.451  -0.629  -2.327  1.00  0.00     0.016 A 
ATOM      8  C   UNL     1       6.440  -2.156  -1.107  1.00  0.00     0.010 A 
ATOM      9  C   UNL     1       4.841  -1.851  -2.877  1.00  0.00     0.010 A 
ATOM     10  C   UNL     1       5.818  -2.648  -2.258  1.00  0.00    -0.014 A 
BRANCH  10  11
ATOM     11  C   UNL     1       6.182  -3.966  -2.855  1.00  0.00     0.031 A 
ATOM     12  C   UNL     1       6.675  -3.981  -4.281  1.00  0.00     0.074 A 
ATOM     13  C   UNL     1       5.982  -5.123  -2.178  1.00  0.00     0.049 A 
ATOM     14  N   UNL     1       6.995  -4.998  -5.034  1.00  0.00    -0.248 NA
ATOM     15  C   UNL     1       6.800  -2.677  -4.963  1.00  0.00     0.031 C 
ATOM     16  C   UNL     1       5.454  -5.241  -0.812  1.00  0.00     0.029 A 
ATOM     17  N   UNL     1       6.153  -6.435  -2.558  1.00  0.00    -0.354 N 
ATOM     18  C   UNL     1       7.357  -4.453  -6.261  1.00  0.00     0.074 A 
ATOM     19  C   UNL     1       7.096  -3.038  -6.201  1.00  0.00     0.031 C 
ATOM     20  C   UNL     1       5.308  -6.540  -0.493  1.00  0.00     0.029 A 
ATOM     21  C   UNL     1       5.731  -7.360  -1.619  1.00  0.00     0.049 A 
ATOM     22  H   UNL     1       6.541  -6.694  -3.425  1.00  0.00     0.167 HD
ATOM     23  C   UNL     1       7.961  -5.057  -7.310  1.00  0.00     0.034 A 
ATOM     24  C   UNL     1       5.695  -8.710  -1.674  1.00  0.00     0.034 A 
ATOM     25  C   UNL     1       8.312  -6.444  -7.308  1.00  0.00     0.049 A 
ATOM     26  C   UNL     1       6.268  -9.359  -2.928  1.00  0.00     0.074 A 
ATOM     27  C   UNL     1       9.085  -7.142  -8.214  1.00  0.00     0.029 A 
ATOM     28  N   UNL     1       7.904  -7.343  -6.336  1.00  0.00    -0.354 N 
ATOM     29  N   UNL     1       6.871  -8.795  -3.950  1.00  0.00    -0.248 NA
ATOM     30  C   UNL     1       6.209 -10.827  -3.020  1.00  0.00     0.031 C 
ATOM     31  C   UNL     1       9.131  -8.475  -7.794  1.00  0.00     0.029 A 
ATOM     32  C   UNL     1       8.389  -8.600  -6.628  1.00  0.00     0.049 A 
ATOM     33  H   UNL     1       7.351  -7.118  -5.554  1.00  0.00     0.167 HD
ATOM     34  C   UNL     1       7.369  -9.837  -4.728  1.00  0.00     0.074 A 
ATOM     35  C   UNL     1       6.969 -11.067  -4.080  1.00  0.00     0.031 C 
ATOM     36  C   UNL     1       8.096  -9.790  -5.873  1.00  0.00     0.034 A 
BRANCH  23  37
ATOM     37  C   UNL     1       8.390  -4.186  -8.460  1.00  0.00     0.023 A 
ATOM     38  C   UNL     1       9.452  -3.275  -8.267  1.00  0.00     0.012 A 
ATOM     39  C   UNL     1       7.765  -4.262  -9.717  1.00  0.00     0.148 A 
ATOM     40  C   UNL     1       9.848  -2.414  -9.288  1.00  0.00     0.002 A 
ATOM     41  C   UNL     1       8.194  -3.429 -10.745  1.00  0.00     0.091 A 
ATOM     42  F   UNL     1       6.756  -5.128  -9.878  1.00  0.00    -0.205 F 
ATOM     43  C   UNL     1       9.223  -2.495 -10.527  1.00  0.00     0.022 A 
BRANCH  41  44
ATOM     44  S   UNL     1       7.500  -3.480 -12.400  1.00  0.00     0.127 S 
ATOM     45  O   UNL     1       6.937  -2.136 -12.526  1.00  0.00    -0.237 OA
ATOM     46  O   UNL     1       8.688  -3.722 -13.218  1.00  0.00    -0.237 OA
ATOM     47  O   UNL     1       6.524  -4.560 -12.396  1.00  0.00    -0.744 OA
ENDBRANCH  41  44
ENDBRANCH  23  37
BRANCH  24  48
ATOM     48  C   UNL     1       5.164  -9.582  -0.560  1.00  0.00     0.023 A 
ATOM     49  C   UNL     1       5.993 -10.571   0.006  1.00  0.00     0.012 A 
ATOM     50  C   UNL     1       3.814  -9.559  -0.156  1.00  0.00     0.148 A 
ATOM     51  C   UNL     1       5.466 -11.583   0.818  1.00  0.00     0.002 A 
ATOM     52  C   UNL     1       3.281 -10.583   0.625  1.00  0.00     0.091 A 
ATOM     53  F   UNL     1       3.070  -8.502  -0.485  1.00  0.00    -0.205 F 
ATOM     54  C   UNL     1       4.104 -11.611   1.096  1.00  0.00     0.022 A 
BRANCH  52  55
ATOM     55  S   UNL     1       1.523 -10.708   0.994  1.00  0.00     0.127 S 
ATOM     56  O   UNL     1       1.234 -12.094   0.628  1.00  0.00    -0.237 OA
ATOM     57  O   UNL     1       1.500 -10.430   2.428  1.00  0.00    -0.237 OA
ATOM     58  O   UNL     1       0.875  -9.713   0.151  1.00  0.00    -0.744 OA
ENDBRANCH  52  55
ENDBRANCH  24  48
BRANCH  36  59
ATOM     59  C   UNL     1       8.638 -11.079  -6.427  1.00  0.00     0.023 A 
ATOM     60  C   UNL     1       7.790 -11.968  -7.112  1.00  0.00     0.012 A 
ATOM     61  C   UNL     1      10.026 -11.326  -6.393  1.00  0.00     0.148 A 
ATOM     62  C   UNL     1       8.315 -13.093  -7.745  1.00  0.00     0.002 A 
ATOM     63  C   UNL     1      10.548 -12.416  -7.076  1.00  0.00     0.091 A 
ATOM     64  F   UNL     1      10.812 -10.474  -5.718  1.00  0.00    -0.205 F 
ATOM     65  C   UNL     1       9.693 -13.307  -7.744  1.00  0.00     0.022 A 
BRANCH  63  66
ATOM     66  S   UNL     1      12.317 -12.686  -7.238  1.00  0.00     0.127 S 
ATOM     67  O   UNL     1      12.528 -13.822  -6.344  1.00  0.00    -0.237 OA
ATOM     68  O   UNL     1      12.455 -12.995  -8.662  1.00  0.00    -0.237 OA
ATOM     69  O   UNL     1      12.951 -11.440  -6.829  1.00  0.00    -0.744 OA
ENDBRANCH  63  66
ENDBRANCH  36  59
ENDBRANCH  10  11
ENDBRANCH   3   5
ENDBRANCH   2   3
ENDBRANCH   1   2
BRANCH   1  70
ATOM     70  C   UNL     1       3.251  -0.472   2.083  1.00  0.00     0.274 C 
BRANCH  70  71
ATOM     71  O   UNL     1       2.896  -1.252   0.930  1.00  0.00    -0.457 OA
BRANCH  71  72
ATOM     72  C   UNL     1       1.666  -1.876   1.047  1.00  0.00     0.368 C 
ATOM     73  O   UNL     1       0.952  -1.742   2.038  1.00  0.00    -0.245 OA
BRANCH  72  74
ATOM     74  C   UNL     1       1.318  -2.799  -0.157  1.00  0.00     0.195 C 
ATOM     75  C   UNL     1       2.439  -2.926  -1.175  1.00  0.00     0.082 C 
ATOM     76  C   UNL     1       1.258  -4.284   0.300  1.00  0.00     0.095 C 
ATOM     77  C   UNL     1       2.187  -4.198  -1.950  1.00  0.00     0.022 C 
ATOM     78  C   UNL     1       1.545  -5.156  -0.958  1.00  0.00     0.054 C 
BRANCH  74  79
ATOM     79  N   UNL     1      -0.008  -2.485  -0.727  1.00  0.00    -0.330 N 
ATOM     80  H   UNL     1      -0.668  -2.577   0.046  1.00  0.00     0.347 HD
ATOM     81  H   UNL     1      -0.032  -3.127  -1.519  1.00  0.00     0.347 HD
BRANCH  79  82
ATOM     82  C   UNL     1      -0.342  -1.228  -1.382  1.00  0.00     0.183 C 
ATOM     83  C   UNL     1       0.576  -0.179  -1.917  1.00  0.00     0.071 C 
ATOM     84  C   UNL     1      -0.072  -1.137  -2.867  1.00  0.00     0.071 C 
ENDBRANCH  79  82
ENDBRANCH  74  79
BRANCH  78  85
ATOM     85  S   UNL     1       0.035  -5.873  -1.716  1.00  0.00    -0.155 SA
BRANCH  85  86
ATOM     86  C   UNL     1       0.682  -6.942  -3.080  1.00  0.00     0.047 C 
ATOM     87  C   UNL     1       1.159  -6.239  -4.350  1.00  0.00     0.014 C 
ATOM     88  C   UNL     1       1.852  -7.865  -2.783  1.00  0.00     0.014 C 
ATOM     89  C   UNL     1       1.782  -7.369  -5.168  1.00  0.00     0.001 C 
ATOM     90  C   UNL     1       2.339  -8.356  -4.146  1.00  0.00     0.001 C 
ENDBRANCH  85  86
ENDBRANCH  78  85
ENDBRANCH  72  74
ENDBRANCH  71  72
ENDBRANCH  70  71
ENDBRANCH   1  70
TORSDOF 18
