REMARK SMILES O=C(OCCOC(=O)c1ccc([C@@H]2CC(O)=Nc3c2ncn3-c2cccc(Cl)c2)cc1)c1ccc(-c2c3nc(c(-c4cccc(S(=O)(=O)[O-])c4F)c4ccc([nH]4)c(-c4cccc(S(=O)(=O)[O-])c4F)c4nc(c(-c5cccc(S(=O)(=O)[O-])c5F)c5ccc2[nH]5)C=C4)C=C3)cc1
REMARK SMILES IDX 4 1 3 2 2 3 1 4 32 5 33 6 94 7 34 8 93 9 35 10 36 11 37 12
REMARK SMILES IDX 87 13 38 14 92 15 86 16 88 17 39 18 91 19 85 20 84 21 40 23
REMARK SMILES IDX 72 24 52 25 71 26 53 27 56 28 70 29 89 30 54 31 55 32 69 34
REMARK SMILES IDX 90 35 57 36 41 37 42 38 50 39 43 40 45 41 51 42 44 43 46 44
REMARK SMILES IDX 47 45 48 46 49 47 73 48 74 49 82 50 75 51 77 52 83 53 76 54
REMARK SMILES IDX 78 55 79 56 80 57 81 58 58 59 59 60 67 61 60 62 62 63 68 64
REMARK SMILES IDX 61 65 63 66 64 67 65 68 66 69 5 70 6 71 7 72 8 73 9 74 10 75
REMARK SMILES IDX 31 76 11 77 30 78 12 79 13 80 14 81 19 82 15 83 18 84 20 85
REMARK SMILES IDX 17 86 22 87 21 88 16 89 23 91 24 92 29 93 25 94 27 95 26 96
REMARK SMILES IDX 28 97
REMARK H PARENT 88 22 56 33 16 90
REMARK Flexibility Score: inf
ROOT
ATOM      1  C   UNL     1       4.683   0.659  -0.897  1.00  0.00     0.275 C 
ENDROOT
BRANCH   1   2
ATOM      2  O   UNL     1       3.418   0.337  -1.510  1.00  0.00    -0.458 OA
BRANCH   2   3
ATOM      3  C   UNL     1       2.364  -0.056  -0.760  1.00  0.00     0.338 C 
ATOM      4  O   UNL     1       1.395   0.662  -0.557  1.00  0.00    -0.246 OA
BRANCH   3   5
ATOM      5  C   UNL     1       2.328  -1.512  -0.472  1.00  0.00     0.060 A 
ATOM      6  C   UNL     1       3.466  -2.325  -0.444  1.00  0.00     0.016 A 
ATOM      7  C   UNL     1       1.065  -2.079  -0.249  1.00  0.00     0.016 A 
ATOM      8  C   UNL     1       3.335  -3.698  -0.328  1.00  0.00     0.010 A 
ATOM      9  C   UNL     1       0.935  -3.446  -0.088  1.00  0.00     0.010 A 
ATOM     10  C   UNL     1       2.062  -4.255  -0.210  1.00  0.00    -0.014 A 
BRANCH  10  11
ATOM     11  C   UNL     1       1.948  -5.705  -0.132  1.00  0.00     0.031 A 
ATOM     12  C   UNL     1       2.639  -6.311   1.043  1.00  0.00     0.074 A 
ATOM     13  C   UNL     1       1.161  -6.391  -0.987  1.00  0.00     0.049 A 
ATOM     14  N   UNL     1       3.575  -7.205   1.055  1.00  0.00    -0.248 NA
ATOM     15  C   UNL     1       2.353  -5.733   2.366  1.00  0.00     0.031 C 
ATOM     16  C   UNL     1       0.248  -5.844  -1.998  1.00  0.00     0.029 A 
ATOM     17  N   UNL     1       0.884  -7.723  -1.027  1.00  0.00    -0.354 N 
ATOM     18  C   UNL     1       3.826  -7.468   2.404  1.00  0.00     0.074 A 
ATOM     19  C   UNL     1       3.200  -6.410   3.137  1.00  0.00     0.031 C 
ATOM     20  C   UNL     1      -0.666  -6.783  -2.327  1.00  0.00     0.029 A 
ATOM     21  C   UNL     1      -0.315  -8.027  -1.670  1.00  0.00     0.049 A 
ATOM     22  H   UNL     1       1.476  -8.408  -0.639  1.00  0.00     0.167 HD
ATOM     23  C   UNL     1       4.304  -8.673   2.822  1.00  0.00     0.034 A 
ATOM     24  C   UNL     1      -1.012  -9.189  -1.587  1.00  0.00     0.034 A 
ATOM     25  C   UNL     1       4.938  -9.375   1.736  1.00  0.00     0.049 A 
ATOM     26  C   UNL     1      -0.080 -10.224  -1.088  1.00  0.00     0.074 A 
ATOM     27  C   UNL     1       6.001  -9.117   0.894  1.00  0.00     0.029 A 
ATOM     28  N   UNL     1       4.211 -10.370   1.132  1.00  0.00    -0.354 N 
ATOM     29  N   UNL     1       0.955 -10.639  -1.763  1.00  0.00    -0.248 NA
ATOM     30  C   UNL     1      -0.030 -10.449   0.347  1.00  0.00     0.031 C 
ATOM     31  C   UNL     1       5.574  -9.596  -0.379  1.00  0.00     0.029 A 
ATOM     32  C   UNL     1       4.322 -10.193  -0.219  1.00  0.00     0.049 A 
ATOM     33  H   UNL     1       3.704 -11.081   1.587  1.00  0.00     0.167 HD
ATOM     34  C   UNL     1       1.963 -10.732  -0.813  1.00  0.00     0.074 A 
ATOM     35  C   UNL     1       1.276 -10.697   0.479  1.00  0.00     0.031 C 
ATOM     36  C   UNL     1       3.270 -10.524  -1.151  1.00  0.00     0.034 A 
BRANCH  23  37
ATOM     37  C   UNL     1       3.821  -9.415   4.062  1.00  0.00     0.023 A 
ATOM     38  C   UNL     1       4.390 -10.691   4.294  1.00  0.00     0.012 A 
ATOM     39  C   UNL     1       2.656  -9.100   4.801  1.00  0.00     0.148 A 
ATOM     40  C   UNL     1       3.765 -11.644   5.106  1.00  0.00     0.002 A 
ATOM     41  C   UNL     1       2.068 -10.031   5.652  1.00  0.00     0.091 A 
ATOM     42  F   UNL     1       2.033  -7.937   4.622  1.00  0.00    -0.205 F 
ATOM     43  C   UNL     1       2.595 -11.318   5.775  1.00  0.00     0.022 A 
BRANCH  41  44
ATOM     44  S   UNL     1       0.572  -9.659   6.580  1.00  0.00     0.127 S 
ATOM     45  O   UNL     1      -0.418 -10.459   5.864  1.00  0.00    -0.237 OA
ATOM     46  O   UNL     1       0.922 -10.151   7.912  1.00  0.00    -0.237 OA
ATOM     47  O   UNL     1       0.404  -8.214   6.505  1.00  0.00    -0.744 OA
ENDBRANCH  41  44
ENDBRANCH  23  37
BRANCH  24  48
ATOM     48  C   UNL     1      -2.480  -9.403  -1.601  1.00  0.00     0.023 A 
ATOM     49  C   UNL     1      -3.004 -10.677  -1.901  1.00  0.00     0.012 A 
ATOM     50  C   UNL     1      -3.354  -8.439  -1.049  1.00  0.00     0.148 A 
ATOM     51  C   UNL     1      -4.346 -10.987  -1.639  1.00  0.00     0.002 A 
ATOM     52  C   UNL     1      -4.688  -8.749  -0.797  1.00  0.00     0.091 A 
ATOM     53  F   UNL     1      -2.855  -7.251  -0.686  1.00  0.00    -0.205 F 
ATOM     54  C   UNL     1      -5.186 -10.026  -1.081  1.00  0.00     0.022 A 
BRANCH  52  55
ATOM     55  S   UNL     1      -5.822  -7.568  -0.054  1.00  0.00     0.127 S 
ATOM     56  O   UNL     1      -6.960  -7.624  -0.972  1.00  0.00    -0.237 OA
ATOM     57  O   UNL     1      -6.065  -8.164   1.257  1.00  0.00    -0.237 OA
ATOM     58  O   UNL     1      -5.122  -6.290  -0.046  1.00  0.00    -0.744 OA
ENDBRANCH  52  55
ENDBRANCH  24  48
BRANCH  36  59
ATOM     59  C   UNL     1       3.619 -10.395  -2.611  1.00  0.00     0.023 A 
ATOM     60  C   UNL     1       3.160  -9.329  -3.414  1.00  0.00     0.012 A 
ATOM     61  C   UNL     1       4.593 -11.263  -3.127  1.00  0.00     0.148 A 
ATOM     62  C   UNL     1       3.653  -9.146  -4.710  1.00  0.00     0.002 A 
ATOM     63  C   UNL     1       5.117 -11.049  -4.394  1.00  0.00     0.091 A 
ATOM     64  F   UNL     1       5.021 -12.267  -2.346  1.00  0.00    -0.205 F 
ATOM     65  C   UNL     1       4.643  -9.998  -5.194  1.00  0.00     0.022 A 
BRANCH  63  66
ATOM     66  S   UNL     1       6.487 -12.027  -5.009  1.00  0.00     0.127 S 
ATOM     67  O   UNL     1       5.829 -12.898  -5.980  1.00  0.00    -0.237 OA
ATOM     68  O   UNL     1       7.363 -11.009  -5.593  1.00  0.00    -0.237 OA
ATOM     69  O   UNL     1       7.054 -12.700  -3.846  1.00  0.00    -0.744 OA
ENDBRANCH  63  66
ENDBRANCH  36  59
ENDBRANCH  10  11
ENDBRANCH   3   5
ENDBRANCH   2   3
ENDBRANCH   1   2
BRANCH   1  70
ATOM     70  C   UNL     1       4.645   1.356   0.461  1.00  0.00     0.275 C 
BRANCH  70  71
ATOM     71  O   UNL     1       4.103   0.498   1.478  1.00  0.00    -0.458 OA
BRANCH  71  72
ATOM     72  C   UNL     1       3.026   0.986   2.139  1.00  0.00     0.338 C 
ATOM     73  O   UNL     1       2.493   2.080   1.993  1.00  0.00    -0.246 OA
BRANCH  72  74
ATOM     74  C   UNL     1       2.546  -0.024   3.088  1.00  0.00     0.060 A 
ATOM     75  C   UNL     1       1.287  -0.594   2.905  1.00  0.00     0.016 A 
ATOM     76  C   UNL     1       3.315  -0.341   4.208  1.00  0.00     0.016 A 
ATOM     77  C   UNL     1       0.802  -1.506   3.841  1.00  0.00     0.005 A 
ATOM     78  C   UNL     1       2.805  -1.217   5.168  1.00  0.00     0.005 A 
ATOM     79  C   UNL     1       1.542  -1.812   4.999  1.00  0.00    -0.038 A 
BRANCH  79  80
ATOM     80  C   UNL     1       0.868  -2.656   6.072  1.00  0.00     0.081 C 
ATOM     81  C   UNL     1       0.296  -1.760   7.191  1.00  0.00     0.111 C 
ATOM     82  C   UNL     1       1.845  -3.624   6.614  1.00  0.00     0.093 A 
ATOM     83  C   UNL     1       1.055  -1.817   8.509  1.00  0.00     0.188 C 
ATOM     84  C   UNL     1       2.209  -3.623   7.944  1.00  0.00     0.164 A 
ATOM     85  N   UNL     1       2.498  -4.589   5.909  1.00  0.00    -0.238 NA
ATOM     86  N   UNL     1       1.910  -2.707   8.899  1.00  0.00    -0.198 NA
ATOM     87  N   UNL     1       3.069  -4.696   8.076  1.00  0.00    -0.283 N 
ATOM     88  C   UNL     1       3.196  -5.240   6.817  1.00  0.00     0.206 A 
BRANCH  83  89
ATOM     89  O   UNL     1       0.733  -0.821   9.364  1.00  0.00    -0.496 OA
ATOM     90  H   UNL     1       0.117  -0.164   9.106  1.00  0.00     0.294 HD
ENDBRANCH  83  89
BRANCH  87  91
ATOM     91  C   UNL     1       3.732  -5.130   9.243  1.00  0.00     0.050 A 
ATOM     92  C   UNL     1       5.088  -5.479   9.178  1.00  0.00     0.027 A 
ATOM     93  C   UNL     1       3.033  -5.200  10.453  1.00  0.00     0.047 A 
ATOM     94  C   UNL     1       5.755  -5.862  10.342  1.00  0.00     0.004 A 
ATOM     95  C   UNL     1       3.699  -5.635  11.596  1.00  0.00     0.043 A 
ATOM     96  C   UNL     1       5.059  -5.949  11.549  1.00  0.00     0.020 A 
ATOM     97  Cl  UNL     1       2.843  -5.795  13.082  1.00  0.00    -0.084 Cl
ENDBRANCH  87  91
ENDBRANCH  79  80
ENDBRANCH  72  74
ENDBRANCH  71  72
ENDBRANCH  70  71
ENDBRANCH   1  70
TORSDOF 17
