REMARK SMILES O=C1C[C@@H](c2cccc(O)c2)c2c(c(C(=O)OCCOC(=O)c3ccc(-c4c5nc(c(-c6cccc(S(=O)(=O)[O-])c6F)c6ccc([nH]6)c(-c6cccc(S(=O)(=O)[O-])c6F)c6nc(c(-c7cccc(S(=O)(=O)[O-])c7F)c7ccc4[nH]7)C=C6)C=C5)cc3)cn2-c2cccc(C(F)(F)F)c2)N1
REMARK SMILES IDX 19 1 18 2 17 3 15 4 16 5 14 6 1 7 2 8 3 9 98 10 4 11 13 12
REMARK SMILES IDX 12 14 87 15 86 16 5 17 6 18 11 19 7 20 9 21 8 22 10 23 88 25
REMARK SMILES IDX 89 26 97 27 90 28 92 29 91 30 93 31 94 32 95 33 96 34 20 35
REMARK SMILES IDX 21 36 22 37 23 38 24 39 85 40 25 41 84 42 26 43 27 44 28 45
REMARK SMILES IDX 78 46 29 47 83 48 77 49 79 50 30 51 82 52 76 53 75 54 31 56
REMARK SMILES IDX 63 57 43 58 62 59 44 60 47 61 61 62 80 63 45 64 46 65 60 67
REMARK SMILES IDX 81 68 48 69 32 70 33 71 41 72 34 73 36 74 42 75 35 76 37 77
REMARK SMILES IDX 38 78 39 79 40 80 64 81 65 82 73 83 66 84 68 85 74 86 67 87
REMARK SMILES IDX 69 88 70 89 71 90 72 91 49 92 50 93 58 94 51 95 53 96 59 97
REMARK SMILES IDX 52 98 54 99 55 100 56 101 57 102
REMARK H PARENT 98 13 10 24 79 55 47 66
REMARK Flexibility Score: inf
ROOT
ATOM      1  C   UNL     1       4.741  -5.811   2.855  1.00  0.00     0.275 C 
ENDROOT
BRANCH   1   2
ATOM      2  C   UNL     1       6.034  -5.285   2.241  1.00  0.00     0.275 C 
BRANCH   2   3
ATOM      3  O   UNL     1       6.125  -3.853   2.327  1.00  0.00    -0.458 OA
BRANCH   3   4
ATOM      4  C   UNL     1       5.524  -3.162   1.308  1.00  0.00     0.341 C 
ATOM      5  O   UNL     1       5.109  -3.665   0.277  1.00  0.00    -0.246 OA
BRANCH   4   6
ATOM      6  C   UNL     1       5.364  -1.748   1.613  1.00  0.00     0.102 A 
ATOM      7  O   UNL     1       1.859  -0.231  -1.271  1.00  0.00    -0.275 OA
ATOM      8  C   UNL     1       2.790  -0.015  -0.498  1.00  0.00     0.225 C 
ATOM      9  C   UNL     1       3.329   1.390  -0.265  1.00  0.00     0.115 C 
ATOM     10  N   UNL     1       3.495  -1.046   0.070  1.00  0.00    -0.324 N 
ATOM     11  C   UNL     1       3.899   1.636   1.145  1.00  0.00     0.078 C 
ATOM     12  C   UNL     1       4.447  -0.839   1.039  1.00  0.00     0.078 A 
ATOM     13  H   UNL     1       3.313  -1.967  -0.228  1.00  0.00     0.170 HD
ATOM     14  C   UNL     1       4.608   0.399   1.623  1.00  0.00     0.055 A 
ATOM     15  N   UNL     1       5.596   0.283   2.585  1.00  0.00    -0.317 N 
ATOM     16  C   UNL     1       6.077  -1.014   2.543  1.00  0.00     0.109 A 
BRANCH  11  17
ATOM     17  C   UNL     1       2.813   2.160   2.068  1.00  0.00    -0.035 A 
ATOM     18  C   UNL     1       1.770   1.351   2.543  1.00  0.00     0.005 A 
ATOM     19  C   UNL     1       2.855   3.508   2.469  1.00  0.00     0.050 A 
ATOM     20  C   UNL     1       0.817   1.870   3.424  1.00  0.00     0.004 A 
ATOM     21  C   UNL     1       1.919   4.004   3.368  1.00  0.00     0.115 A 
ATOM     22  C   UNL     1       0.896   3.196   3.849  1.00  0.00     0.046 A 
BRANCH  21  23
ATOM     23  O   UNL     1       2.067   5.293   3.788  1.00  0.00    -0.508 OA
ATOM     24  H   UNL     1       1.455   5.661   4.395  1.00  0.00     0.293 HD
ENDBRANCH  21  23
ENDBRANCH  11  17
BRANCH  15  25
ATOM     25  C   UNL     1       6.109   1.271   3.460  1.00  0.00     0.046 A 
ATOM     26  C   UNL     1       7.495   1.425   3.574  1.00  0.00     0.026 A 
ATOM     27  C   UNL     1       5.251   2.034   4.256  1.00  0.00     0.039 A 
ATOM     28  C   UNL     1       8.016   2.396   4.427  1.00  0.00     0.003 A 
ATOM     29  C   UNL     1       5.767   3.006   5.128  1.00  0.00     0.058 A 
ATOM     30  C   UNL     1       7.158   3.189   5.190  1.00  0.00     0.013 A 
BRANCH  29  31
ATOM     31  C   UNL     1       4.864   3.843   6.002  1.00  0.00     0.416 C 
ATOM     32  F   UNL     1       5.237   3.797   7.314  1.00  0.00    -0.166 F 
ATOM     33  F   UNL     1       4.893   5.163   5.664  1.00  0.00    -0.166 F 
ATOM     34  F   UNL     1       3.556   3.473   5.983  1.00  0.00    -0.166 F 
ENDBRANCH  29  31
ENDBRANCH  15  25
ENDBRANCH   4   6
ENDBRANCH   3   4
ENDBRANCH   2   3
ENDBRANCH   1   2
BRANCH   1  35
ATOM     35  O   UNL     1       3.599  -5.506   2.056  1.00  0.00    -0.458 OA
BRANCH  35  36
ATOM     36  C   UNL     1       2.922  -4.400   2.437  1.00  0.00     0.338 C 
ATOM     37  O   UNL     1       3.350  -3.472   3.107  1.00  0.00    -0.246 OA
BRANCH  36  38
ATOM     38  C   UNL     1       1.506  -4.550   2.106  1.00  0.00     0.060 A 
ATOM     39  C   UNL     1       0.694  -3.415   2.184  1.00  0.00     0.016 A 
ATOM     40  C   UNL     1       0.968  -5.838   1.972  1.00  0.00     0.016 A 
ATOM     41  C   UNL     1      -0.674  -3.587   2.251  1.00  0.00     0.010 A 
ATOM     42  C   UNL     1      -0.395  -6.009   2.054  1.00  0.00     0.010 A 
ATOM     43  C   UNL     1      -1.198  -4.887   2.247  1.00  0.00    -0.014 A 
BRANCH  43  44
ATOM     44  C   UNL     1      -2.641  -5.044   2.237  1.00  0.00     0.031 A 
ATOM     45  C   UNL     1      -3.230  -4.582   0.954  1.00  0.00     0.074 A 
ATOM     46  C   UNL     1      -3.313  -5.660   3.232  1.00  0.00     0.049 A 
ATOM     47  N   UNL     1      -4.034  -3.588   0.774  1.00  0.00    -0.248 NA
ATOM     48  C   UNL     1      -2.699  -5.154  -0.298  1.00  0.00     0.031 C 
ATOM     49  C   UNL     1      -2.741  -6.365   4.383  1.00  0.00     0.029 A 
ATOM     50  N   UNL     1      -4.647  -5.916   3.353  1.00  0.00    -0.354 N 
ATOM     51  C   UNL     1      -4.319  -3.598  -0.589  1.00  0.00     0.074 A 
ATOM     52  C   UNL     1      -3.304  -4.397  -1.213  1.00  0.00     0.031 C 
ATOM     53  C   UNL     1      -3.681  -7.175   4.920  1.00  0.00     0.029 A 
ATOM     54  C   UNL     1      -4.941  -6.963   4.229  1.00  0.00     0.049 A 
ATOM     55  H   UNL     1      -5.338  -5.411   2.868  1.00  0.00     0.167 HD
ATOM     56  C   UNL     1      -5.552  -3.232  -1.033  1.00  0.00     0.034 A 
ATOM     57  C   UNL     1      -6.104  -7.663   4.307  1.00  0.00     0.034 A 
ATOM     58  C   UNL     1      -6.238  -2.438  -0.044  1.00  0.00     0.049 A 
ATOM     59  C   UNL     1      -7.151  -6.858   3.642  1.00  0.00     0.074 A 
ATOM     60  C   UNL     1      -5.965  -1.263   0.628  1.00  0.00     0.029 A 
ATOM     61  N   UNL     1      -7.217  -3.074   0.678  1.00  0.00    -0.354 N 
ATOM     62  N   UNL     1      -7.595  -5.728   4.112  1.00  0.00    -0.248 NA
ATOM     63  C   UNL     1      -7.383  -7.086   2.225  1.00  0.00     0.031 C 
ATOM     64  C   UNL     1      -6.459  -1.472   1.949  1.00  0.00     0.029 A 
ATOM     65  C   UNL     1      -7.083  -2.720   1.990  1.00  0.00     0.049 A 
ATOM     66  H   UNL     1      -7.899  -3.682   0.312  1.00  0.00     0.167 HD
ATOM     67  C   UNL     1      -7.694  -4.918   2.991  1.00  0.00     0.074 A 
ATOM     68  C   UNL     1      -7.664  -5.835   1.852  1.00  0.00     0.031 C 
ATOM     69  C   UNL     1      -7.480  -3.573   3.086  1.00  0.00     0.034 A 
BRANCH  56  70
ATOM     70  C   UNL     1      -6.309  -3.966  -2.124  1.00  0.00     0.023 A 
ATOM     71  C   UNL     1      -7.567  -3.436  -2.490  1.00  0.00     0.012 A 
ATOM     72  C   UNL     1      -6.015  -5.275  -2.580  1.00  0.00     0.148 A 
ATOM     73  C   UNL     1      -8.508  -4.195  -3.194  1.00  0.00     0.002 A 
ATOM     74  C   UNL     1      -6.922  -5.996  -3.346  1.00  0.00     0.091 A 
ATOM     75  F   UNL     1      -4.910  -5.902  -2.176  1.00  0.00    -0.205 F 
ATOM     76  C   UNL     1      -8.185  -5.475  -3.625  1.00  0.00     0.022 A 
BRANCH  74  77
ATOM     77  S   UNL     1      -6.541  -7.642  -3.963  1.00  0.00     0.127 S 
ATOM     78  O   UNL     1      -7.445  -8.468  -3.168  1.00  0.00    -0.237 OA
ATOM     79  O   UNL     1      -6.896  -7.516  -5.377  1.00  0.00    -0.237 OA
ATOM     80  O   UNL     1      -5.118  -7.841  -3.720  1.00  0.00    -0.744 OA
ENDBRANCH  74  77
ENDBRANCH  56  70
BRANCH  57  81
ATOM     81  C   UNL     1      -6.345  -9.091   4.641  1.00  0.00     0.023 A 
ATOM     82  C   UNL     1      -7.649  -9.523   4.968  1.00  0.00     0.012 A 
ATOM     83  C   UNL     1      -5.378 -10.077   4.347  1.00  0.00     0.148 A 
ATOM     84  C   UNL     1      -7.985 -10.884   4.963  1.00  0.00     0.002 A 
ATOM     85  C   UNL     1      -5.714 -11.428   4.350  1.00  0.00     0.091 A 
ATOM     86  F   UNL     1      -4.154  -9.688   3.968  1.00  0.00    -0.205 F 
ATOM     87  C   UNL     1      -7.021 -11.835   4.645  1.00  0.00     0.022 A 
BRANCH  85  88
ATOM     88  S   UNL     1      -4.527 -12.707   3.917  1.00  0.00     0.127 S 
ATOM     89  O   UNL     1      -4.687 -13.654   5.021  1.00  0.00    -0.237 OA
ATOM     90  O   UNL     1      -5.040 -13.173   2.632  1.00  0.00    -0.237 OA
ATOM     91  O   UNL     1      -3.228 -12.049   3.878  1.00  0.00    -0.744 OA
ENDBRANCH  85  88
ENDBRANCH  57  81
BRANCH  69  92
ATOM     92  C   UNL     1      -7.454  -2.957   4.459  1.00  0.00     0.023 A 
ATOM     93  C   UNL     1      -6.498  -3.289   5.443  1.00  0.00     0.012 A 
ATOM     94  C   UNL     1      -8.348  -1.904   4.707  1.00  0.00     0.148 A 
ATOM     95  C   UNL     1      -6.458  -2.598   6.658  1.00  0.00     0.002 A 
ATOM     96  C   UNL     1      -8.273  -1.188   5.893  1.00  0.00     0.091 A 
ATOM     97  F   UNL     1      -9.253  -1.605   3.762  1.00  0.00    -0.205 F 
ATOM     98  C   UNL     1      -7.337  -1.538   6.878  1.00  0.00     0.022 A 
BRANCH  96  99
ATOM     99  S   UNL     1      -9.300   0.254   6.165  1.00  0.00     0.127 S 
ATOM    100  O   UNL     1     -10.330  -0.270   7.059  1.00  0.00    -0.237 OA
ATOM    101  O   UNL     1      -8.367   1.194   6.790  1.00  0.00    -0.237 OA
ATOM    102  O   UNL     1      -9.762   0.670   4.846  1.00  0.00    -0.744 OA
ENDBRANCH  96  99
ENDBRANCH  69  92
ENDBRANCH  43  44
ENDBRANCH  36  38
ENDBRANCH  35  36
ENDBRANCH   1  35
TORSDOF 18
