REMARK SMILES O=C(C[C@@H]1CN(C(=O)NCc2cccs2)CCO1)OCCOC(=O)c1ccc(-c2c3nc(c(-c4cccc(S(=O)(=O)[O-])c4F)c4ccc([nH]4)c(-c4cccc(S(=O)(=O)[O-])c4F)c4nc(c(-c5cccc(S(=O)(=O)[O-])c5F)c5ccc2[nH]5)C=C4)C=C3)cc1
REMARK SMILES IDX 20 1 19 2 2 3 1 4 3 5 4 6 5 7 18 8 6 9 17 10 16 11 7 12 8 13
REMARK SMILES IDX 9 14 10 16 11 17 12 18 15 19 13 20 14 21 21 22 22 23 23 24
REMARK SMILES IDX 24 25 25 26 26 27 87 28 27 29 86 30 28 31 29 32 30 33 80 34
REMARK SMILES IDX 31 35 85 36 79 37 81 38 32 39 84 40 78 41 77 42 33 44 65 45
REMARK SMILES IDX 45 46 64 47 46 48 49 49 63 50 82 51 47 52 48 53 62 55 83 56
REMARK SMILES IDX 50 57 34 58 35 59 43 60 36 61 38 62 44 63 37 64 39 65 40 66
REMARK SMILES IDX 41 67 42 68 66 69 67 70 75 71 68 72 70 73 76 74 69 75 71 76
REMARK SMILES IDX 72 77 73 78 74 79 51 80 52 81 60 82 53 83 55 84 61 85 54 86
REMARK SMILES IDX 56 87 57 88 58 89 59 90
REMARK H PARENT 9 15 81 43 49 54
REMARK Flexibility Score: inf
ROOT
ATOM      1  C   UNL     1       4.548   0.978  -0.525  1.00  0.00     0.274 C 
ENDROOT
BRANCH   1   2
ATOM      2  O   UNL     1       3.206   0.525  -0.811  1.00  0.00    -0.462 OA
BRANCH   2   3
ATOM      3  C   UNL     1       2.470  -0.270  -0.003  1.00  0.00     0.308 C 
ATOM      4  O   UNL     1       1.270  -0.431  -0.217  1.00  0.00    -0.252 OA
BRANCH   3   5
ATOM      5  C   UNL     1       3.133  -0.971   1.152  1.00  0.00     0.156 C 
BRANCH   5   6
ATOM      6  C   UNL     1       3.872  -2.220   0.720  1.00  0.00     0.149 C 
ATOM      7  C   UNL     1       3.337  -3.457   1.461  1.00  0.00     0.154 C 
ATOM      8  O   UNL     1       5.274  -2.034   1.065  1.00  0.00    -0.374 OA
ATOM      9  N   UNL     1       4.095  -4.600   0.979  1.00  0.00    -0.320 N 
ATOM     10  C   UNL     1       6.072  -3.199   0.764  1.00  0.00     0.182 C 
ATOM     11  C   UNL     1       5.496  -4.477   1.397  1.00  0.00     0.150 C 
BRANCH   9  12
ATOM     12  C   UNL     1       3.813  -5.468  -0.029  1.00  0.00     0.317 C 
ATOM     13  O   UNL     1       4.650  -6.293  -0.415  1.00  0.00    -0.249 OA
ATOM     14  N   UNL     1       2.668  -5.485  -0.721  1.00  0.00    -0.333 N 
ATOM     15  H   UNL     1       2.692  -6.195  -1.403  1.00  0.00     0.165 HD
BRANCH  14  16
ATOM     16  C   UNL     1       1.405  -4.779  -0.775  1.00  0.00     0.164 C 
BRANCH  16  17
ATOM     17  C   UNL     1       1.191  -4.282  -2.174  1.00  0.00     0.024 A 
ATOM     18  C   UNL     1       0.611  -4.932  -3.246  1.00  0.00     0.017 A 
ATOM     19  S   UNL     1       1.665  -2.691  -2.599  1.00  0.00    -0.147 S 
ATOM     20  C   UNL     1       0.508  -4.095  -4.397  1.00  0.00     0.012 A 
ATOM     21  C   UNL     1       1.020  -2.839  -4.170  1.00  0.00     0.065 A 
ENDBRANCH  16  17
ENDBRANCH  14  16
ENDBRANCH   9  12
ENDBRANCH   5   6
ENDBRANCH   3   5
ENDBRANCH   2   3
ENDBRANCH   1   2
BRANCH   1  22
ATOM     22  C   UNL     1       4.537   2.300   0.247  1.00  0.00     0.275 C 
BRANCH  22  23
ATOM     23  O   UNL     1       4.072   2.079   1.590  1.00  0.00    -0.458 OA
BRANCH  23  24
ATOM     24  C   UNL     1       2.771   2.381   1.832  1.00  0.00     0.338 C 
ATOM     25  O   UNL     1       2.024   3.005   1.098  1.00  0.00    -0.246 OA
BRANCH  24  26
ATOM     26  C   UNL     1       2.323   1.641   3.040  1.00  0.00     0.060 A 
ATOM     27  C   UNL     1       1.011   1.148   3.061  1.00  0.00     0.016 A 
ATOM     28  C   UNL     1       3.189   1.360   4.104  1.00  0.00     0.016 A 
ATOM     29  C   UNL     1       0.551   0.417   4.160  1.00  0.00     0.010 A 
ATOM     30  C   UNL     1       2.729   0.627   5.202  1.00  0.00     0.010 A 
ATOM     31  C   UNL     1       1.396   0.186   5.253  1.00  0.00    -0.014 A 
BRANCH  31  32
ATOM     32  C   UNL     1       0.829  -0.313   6.530  1.00  0.00     0.031 A 
ATOM     33  C   UNL     1       0.398   0.704   7.553  1.00  0.00     0.074 A 
ATOM     34  C   UNL     1       0.701  -1.626   6.795  1.00  0.00     0.049 A 
ATOM     35  N   UNL     1      -0.180   0.522   8.711  1.00  0.00    -0.248 NA
ATOM     36  C   UNL     1       0.661   2.116   7.226  1.00  0.00     0.031 C 
ATOM     37  C   UNL     1       1.102  -2.717   5.911  1.00  0.00     0.029 A 
ATOM     38  N   UNL     1       0.207  -2.260   7.910  1.00  0.00    -0.354 N 
ATOM     39  C   UNL     1      -0.346   1.791   9.251  1.00  0.00     0.074 A 
ATOM     40  C   UNL     1       0.222   2.733   8.311  1.00  0.00     0.031 C 
ATOM     41  C   UNL     1       0.852  -3.889   6.525  1.00  0.00     0.029 A 
ATOM     42  C   UNL     1       0.276  -3.631   7.845  1.00  0.00     0.049 A 
ATOM     43  H   UNL     1      -0.162  -1.776   8.684  1.00  0.00     0.167 HD
ATOM     44  C   UNL     1      -0.941   2.152  10.411  1.00  0.00     0.034 A 
ATOM     45  C   UNL     1      -0.090  -4.566   8.746  1.00  0.00     0.034 A 
ATOM     46  C   UNL     1      -1.514   1.228  11.348  1.00  0.00     0.049 A 
ATOM     47  C   UNL     1      -0.728  -4.139  10.047  1.00  0.00     0.074 A 
ATOM     48  C   UNL     1      -2.189   1.503  12.524  1.00  0.00     0.029 A 
ATOM     49  N   UNL     1      -1.463  -0.151  11.227  1.00  0.00    -0.354 N 
ATOM     50  N   UNL     1      -1.040  -2.934  10.461  1.00  0.00    -0.248 NA
ATOM     51  C   UNL     1      -1.102  -5.208  10.987  1.00  0.00     0.031 C 
ATOM     52  C   UNL     1      -2.529   0.286  13.126  1.00  0.00     0.029 A 
ATOM     53  C   UNL     1      -2.081  -0.744  12.314  1.00  0.00     0.049 A 
ATOM     54  H   UNL     1      -1.049  -0.637  10.478  1.00  0.00     0.167 HD
ATOM     55  C   UNL     1      -1.686  -3.104  11.683  1.00  0.00     0.074 A 
ATOM     56  C   UNL     1      -1.733  -4.529  11.936  1.00  0.00     0.031 C 
ATOM     57  C   UNL     1      -2.185  -2.165  12.525  1.00  0.00     0.034 A 
BRANCH  44  58
ATOM     58  C   UNL     1      -1.038   3.623  10.703  1.00  0.00     0.023 A 
ATOM     59  C   UNL     1      -1.967   4.407   9.990  1.00  0.00     0.012 A 
ATOM     60  C   UNL     1      -0.234   4.223  11.690  1.00  0.00     0.148 A 
ATOM     61  C   UNL     1      -2.074   5.775  10.232  1.00  0.00     0.002 A 
ATOM     62  C   UNL     1      -0.373   5.581  11.952  1.00  0.00     0.091 A 
ATOM     63  F   UNL     1       0.666   3.466  12.332  1.00  0.00    -0.205 F 
ATOM     64  C   UNL     1      -1.284   6.360  11.219  1.00  0.00     0.022 A 
BRANCH  62  65
ATOM     65  S   UNL     1       0.555   6.406  13.249  1.00  0.00     0.127 S 
ATOM     66  O   UNL     1       1.569   7.122  12.477  1.00  0.00    -0.237 OA
ATOM     67  O   UNL     1      -0.461   7.262  13.863  1.00  0.00    -0.237 OA
ATOM     68  O   UNL     1       1.054   5.346  14.115  1.00  0.00    -0.744 OA
ENDBRANCH  62  65
ENDBRANCH  44  58
BRANCH  45  69
ATOM     69  C   UNL     1       0.066  -6.015   8.432  1.00  0.00     0.023 A 
ATOM     70  C   UNL     1      -1.084  -6.799   8.211  1.00  0.00     0.012 A 
ATOM     71  C   UNL     1       1.333  -6.624   8.369  1.00  0.00     0.148 A 
ATOM     72  C   UNL     1      -0.977  -8.168   7.966  1.00  0.00     0.002 A 
ATOM     73  C   UNL     1       1.436  -7.980   8.078  1.00  0.00     0.091 A 
ATOM     74  F   UNL     1       2.414  -5.866   8.604  1.00  0.00    -0.205 F 
ATOM     75  C   UNL     1       0.282  -8.757   7.892  1.00  0.00     0.022 A 
BRANCH  73  76
ATOM     76  S   UNL     1       3.019  -8.800   7.857  1.00  0.00     0.127 S 
ATOM     77  O   UNL     1       3.108  -9.608   9.070  1.00  0.00    -0.237 OA
ATOM     78  O   UNL     1       2.797  -9.558   6.626  1.00  0.00    -0.237 OA
ATOM     79  O   UNL     1       3.998  -7.729   7.734  1.00  0.00    -0.744 OA
ENDBRANCH  73  76
ENDBRANCH  45  69
BRANCH  57  80
ATOM     80  C   UNL     1      -2.865  -2.632  13.786  1.00  0.00     0.023 A 
ATOM     81  C   UNL     1      -2.095  -3.143  14.849  1.00  0.00     0.012 A 
ATOM     82  C   UNL     1      -4.257  -2.481  13.953  1.00  0.00     0.148 A 
ATOM     83  C   UNL     1      -2.701  -3.522  16.047  1.00  0.00     0.002 A 
ATOM     84  C   UNL     1      -4.848  -2.817  15.166  1.00  0.00     0.091 A 
ATOM     85  F   UNL     1      -4.979  -2.012  12.925  1.00  0.00    -0.205 F 
ATOM     86  C   UNL     1      -4.073  -3.347  16.210  1.00  0.00     0.022 A 
BRANCH  84  87
ATOM     87  S   UNL     1      -6.592  -2.530  15.492  1.00  0.00     0.127 S 
ATOM     88  O   UNL     1      -7.151  -3.871  15.332  1.00  0.00    -0.237 OA
ATOM     89  O   UNL     1      -6.579  -2.036  16.870  1.00  0.00    -0.237 OA
ATOM     90  O   UNL     1      -7.021  -1.546  14.507  1.00  0.00    -0.744 OA
ENDBRANCH  84  87
ENDBRANCH  57  80
ENDBRANCH  31  32
ENDBRANCH  24  26
ENDBRANCH  23  24
ENDBRANCH  22  23
ENDBRANCH   1  22
TORSDOF 18
