REMARK SMILES Nn1c(S[C@@H](C(=O)OCCOC(=O)c2ccc(-c3c4nc(c(-c5cccc(S(=O)(=O)[O-])c5F)c5ccc([nH]5)c(-c5cccc(S(=O)(=O)[O-])c5F)c5nc(c(-c6cccc(S(=O)(=O)[O-])c6F)c6ccc3[nH]6)C=C5)C=C4)cc2)c2ccccc2)nc2ccc(Br)cc2c1=O
REMARK SMILES IDX 9 1 8 2 6 3 7 4 5 5 4 6 3 7 2 8 91 9 83 10 90 11 92 12 84 13
REMARK SMILES IDX 89 14 85 15 87 16 86 17 88 18 1 19 77 22 78 23 82 24 79 25
REMARK SMILES IDX 81 26 80 27 10 28 11 29 12 30 13 31 14 32 15 33 76 34 16 35
REMARK SMILES IDX 75 36 17 37 18 38 19 39 69 40 20 41 74 42 68 43 70 44 21 45
REMARK SMILES IDX 73 46 67 47 66 48 22 50 54 51 34 52 53 53 35 54 38 55 52 56
REMARK SMILES IDX 71 57 36 58 37 59 51 61 72 62 39 63 23 64 24 65 32 66 25 67
REMARK SMILES IDX 27 68 33 69 26 70 28 71 29 72 30 73 31 74 55 75 56 76 64 77
REMARK SMILES IDX 57 78 59 79 65 80 58 81 60 82 61 83 62 84 63 85 40 86 41 87
REMARK SMILES IDX 49 88 42 89 44 90 50 91 43 92 45 93 46 94 47 95 48 96
REMARK H PARENT 1 20 1 21 70 49 38 60
REMARK Flexibility Score: inf
ROOT
ATOM      1  C   UNL     1       4.460   1.371  -0.335  1.00  0.00     0.274 C 
ENDROOT
BRANCH   1   2
ATOM      2  O   UNL     1       3.521   0.523  -1.039  1.00  0.00    -0.461 OA
BRANCH   2   3
ATOM      3  C   UNL     1       3.191  -0.658  -0.430  1.00  0.00     0.324 C 
ATOM      4  O   UNL     1       3.640  -0.977   0.670  1.00  0.00    -0.251 OA
BRANCH   3   5
ATOM      5  C   UNL     1       2.370  -1.618  -1.307  1.00  0.00     0.194 C 
BRANCH   5   6
ATOM      6  S   UNL     1       1.729  -1.015  -2.874  1.00  0.00    -0.066 SA
BRANCH   6   7
ATOM      7  C   UNL     1       0.284  -0.046  -2.740  1.00  0.00     0.191 A 
ATOM      8  N   UNL     1      -0.123   0.595  -1.580  1.00  0.00    -0.202 N 
ATOM      9  C   UNL     1      -1.297   1.350  -1.502  1.00  0.00     0.280 A 
ATOM     10  N   UNL     1      -0.367   0.090  -3.856  1.00  0.00    -0.222 NA
ATOM     11  C   UNL     1      -2.031   1.522  -2.756  1.00  0.00     0.069 A 
ATOM     12  O   UNL     1      -1.691   1.881  -0.465  1.00  0.00    -0.267 OA
ATOM     13  C   UNL     1      -1.512   0.898  -3.890  1.00  0.00     0.079 A 
ATOM     14  C   UNL     1      -3.171   2.331  -2.811  1.00  0.00     0.031 A 
ATOM     15  C   UNL     1      -2.154   1.110  -5.111  1.00  0.00     0.030 A 
ATOM     16  C   UNL     1      -3.794   2.528  -4.037  1.00  0.00     0.018 A 
ATOM     17  C   UNL     1      -3.289   1.925  -5.189  1.00  0.00     0.018 A 
ATOM     18  Br  UNL     1      -5.318   3.639  -4.148  1.00  0.00    -0.051 Br
BRANCH   8  19
ATOM     19  N   UNL     1       0.638   0.577  -0.408  1.00  0.00    -0.334 N 
ATOM     20  H   UNL     1       1.481   0.068  -0.376  1.00  0.00     0.178 HD
ATOM     21  H   UNL     1       0.331   1.072   0.386  1.00  0.00     0.178 HD
ENDBRANCH   8  19
ENDBRANCH   6   7
ENDBRANCH   5   6
BRANCH   5  22
ATOM     22  C   UNL     1       1.607  -2.700  -0.533  1.00  0.00    -0.023 A 
ATOM     23  C   UNL     1       2.328  -3.822  -0.063  1.00  0.00     0.005 A 
ATOM     24  C   UNL     1       0.253  -2.621  -0.183  1.00  0.00     0.005 A 
ATOM     25  C   UNL     1       1.724  -4.810   0.722  1.00  0.00     0.000 A 
ATOM     26  C   UNL     1      -0.350  -3.603   0.616  1.00  0.00     0.000 A 
ATOM     27  C   UNL     1       0.384  -4.695   1.068  1.00  0.00     0.000 A 
ENDBRANCH   5  22
ENDBRANCH   3   5
ENDBRANCH   2   3
ENDBRANCH   1   2
BRANCH   1  28
ATOM     28  C   UNL     1       3.755   2.523   0.383  1.00  0.00     0.275 C 
BRANCH  28  29
ATOM     29  O   UNL     1       2.969   1.986   1.457  1.00  0.00    -0.458 OA
BRANCH  29  30
ATOM     30  C   UNL     1       1.834   2.649   1.773  1.00  0.00     0.338 C 
ATOM     31  O   UNL     1       1.517   3.759   1.357  1.00  0.00    -0.246 OA
BRANCH  30  32
ATOM     32  C   UNL     1       0.926   1.757   2.545  1.00  0.00     0.060 A 
ATOM     33  C   UNL     1      -0.271   2.262   3.054  1.00  0.00     0.016 A 
ATOM     34  C   UNL     1       1.165   0.378   2.616  1.00  0.00     0.016 A 
ATOM     35  C   UNL     1      -1.178   1.401   3.686  1.00  0.00     0.010 A 
ATOM     36  C   UNL     1       0.196  -0.488   3.120  1.00  0.00     0.010 A 
ATOM     37  C   UNL     1      -0.953   0.012   3.736  1.00  0.00    -0.014 A 
BRANCH  37  38
ATOM     38  C   UNL     1      -1.865  -0.878   4.511  1.00  0.00     0.031 A 
ATOM     39  C   UNL     1      -1.337  -1.692   5.672  1.00  0.00     0.074 A 
ATOM     40  C   UNL     1      -3.182  -0.940   4.220  1.00  0.00     0.049 A 
ATOM     41  N   UNL     1      -2.011  -2.313   6.608  1.00  0.00    -0.248 NA
ATOM     42  C   UNL     1       0.123  -1.857   5.796  1.00  0.00     0.031 C 
ATOM     43  C   UNL     1      -3.830  -0.331   3.056  1.00  0.00     0.029 A 
ATOM     44  N   UNL     1      -4.220  -1.528   4.905  1.00  0.00    -0.354 N 
ATOM     45  C   UNL     1      -1.063  -2.936   7.412  1.00  0.00     0.074 A 
ATOM     46  C   UNL     1       0.228  -2.688   6.820  1.00  0.00     0.031 C 
ATOM     47  C   UNL     1      -5.158  -0.526   3.141  1.00  0.00     0.029 A 
ATOM     48  C   UNL     1      -5.458  -1.257   4.370  1.00  0.00     0.049 A 
ATOM     49  H   UNL     1      -4.089  -2.091   5.702  1.00  0.00     0.167 HD
ATOM     50  C   UNL     1      -1.229  -3.592   8.582  1.00  0.00     0.034 A 
ATOM     51  C   UNL     1      -6.696  -1.512   4.843  1.00  0.00     0.034 A 
ATOM     52  C   UNL     1      -2.492  -3.769   9.232  1.00  0.00     0.049 A 
ATOM     53  C   UNL     1      -6.864  -2.157   6.195  1.00  0.00     0.074 A 
ATOM     54  C   UNL     1      -2.745  -4.301  10.483  1.00  0.00     0.029 A 
ATOM     55  N   UNL     1      -3.711  -3.413   8.686  1.00  0.00    -0.354 N 
ATOM     56  N   UNL     1      -5.944  -2.526   7.051  1.00  0.00    -0.248 NA
ATOM     57  C   UNL     1      -8.242  -2.374   6.668  1.00  0.00     0.031 C 
ATOM     58  C   UNL     1      -4.125  -4.265  10.695  1.00  0.00     0.029 A 
ATOM     59  C   UNL     1      -4.725  -3.716   9.573  1.00  0.00     0.049 A 
ATOM     60  H   UNL     1      -3.837  -3.006   7.799  1.00  0.00     0.167 HD
ATOM     61  C   UNL     1      -6.628  -2.992   8.170  1.00  0.00     0.074 A 
ATOM     62  C   UNL     1      -8.040  -2.847   7.893  1.00  0.00     0.031 C 
ATOM     63  C   UNL     1      -6.125  -3.507   9.317  1.00  0.00     0.034 A 
BRANCH  50  64
ATOM     64  C   UNL     1       0.006  -4.053   9.301  1.00  0.00     0.023 A 
ATOM     65  C   UNL     1       0.778  -3.099   9.995  1.00  0.00     0.012 A 
ATOM     66  C   UNL     1       0.372  -5.411   9.342  1.00  0.00     0.148 A 
ATOM     67  C   UNL     1       1.914  -3.485  10.702  1.00  0.00     0.002 A 
ATOM     68  C   UNL     1       1.490  -5.792  10.074  1.00  0.00     0.091 A 
ATOM     69  F   UNL     1      -0.374  -6.295   8.664  1.00  0.00    -0.205 F 
ATOM     70  C   UNL     1       2.264  -4.831  10.748  1.00  0.00     0.022 A 
BRANCH  68  71
ATOM     71  S   UNL     1       2.012  -7.502  10.239  1.00  0.00     0.127 S 
ATOM     72  O   UNL     1       3.324  -7.474   9.593  1.00  0.00    -0.237 OA
ATOM     73  O   UNL     1       2.051  -7.670  11.691  1.00  0.00    -0.237 OA
ATOM     74  O   UNL     1       1.006  -8.301   9.554  1.00  0.00    -0.744 OA
ENDBRANCH  68  71
ENDBRANCH  50  64
BRANCH  51  75
ATOM     75  C   UNL     1      -7.887  -1.022   4.095  1.00  0.00     0.023 A 
ATOM     76  C   UNL     1      -8.556   0.130   4.555  1.00  0.00     0.012 A 
ATOM     77  C   UNL     1      -8.347  -1.671   2.935  1.00  0.00     0.148 A 
ATOM     78  C   UNL     1      -9.677   0.616   3.884  1.00  0.00     0.002 A 
ATOM     79  C   UNL     1      -9.448  -1.164   2.253  1.00  0.00     0.091 A 
ATOM     80  F   UNL     1      -7.694  -2.765   2.520  1.00  0.00    -0.205 F 
ATOM     81  C   UNL     1     -10.121  -0.028   2.732  1.00  0.00     0.022 A 
BRANCH  79  82
ATOM     82  S   UNL     1     -10.059  -1.877   0.722  1.00  0.00     0.127 S 
ATOM     83  O   UNL     1     -11.395  -2.321   1.110  1.00  0.00    -0.237 OA
ATOM     84  O   UNL     1     -10.030  -0.722  -0.176  1.00  0.00    -0.237 OA
ATOM     85  O   UNL     1      -9.123  -2.939   0.377  1.00  0.00    -0.744 OA
ENDBRANCH  79  82
ENDBRANCH  51  75
BRANCH  63  86
ATOM     86  C   UNL     1      -7.073  -3.964  10.390  1.00  0.00     0.023 A 
ATOM     87  C   UNL     1      -7.672  -5.232  10.273  1.00  0.00     0.012 A 
ATOM     88  C   UNL     1      -7.209  -3.234  11.587  1.00  0.00     0.148 A 
ATOM     89  C   UNL     1      -8.389  -5.774  11.338  1.00  0.00     0.002 A 
ATOM     90  C   UNL     1      -7.896  -3.795  12.657  1.00  0.00     0.091 A 
ATOM     91  F   UNL     1      -6.628  -2.029  11.669  1.00  0.00    -0.205 F 
ATOM     92  C   UNL     1      -8.488  -5.064  12.533  1.00  0.00     0.022 A 
BRANCH  90  93
ATOM     93  S   UNL     1      -8.001  -3.004  14.267  1.00  0.00     0.127 S 
ATOM     94  O   UNL     1      -9.436  -2.745  14.379  1.00  0.00    -0.237 OA
ATOM     95  O   UNL     1      -7.499  -4.051  15.158  1.00  0.00    -0.237 OA
ATOM     96  O   UNL     1      -7.164  -1.815  14.190  1.00  0.00    -0.744 OA
ENDBRANCH  90  93
ENDBRANCH  63  86
ENDBRANCH  37  38
ENDBRANCH  30  32
ENDBRANCH  29  30
ENDBRANCH  28  29
ENDBRANCH   1  28
TORSDOF 18
