REMARK SMILES O=C(OCCOC(=O)[C@@H]1CCc2[nH]ncc2C1)c1ccc(-c2c3nc(c(-c4cccc(S(=O)(=O)[O-])c4F)c4ccc([nH]4)c(-c4cccc(S(=O)(=O)[O-])c4F)c4nc(c(-c5cccc(S(=O)(=O)[O-])c5F)c5ccc2[nH]5)C=C4)C=C3)cc1
REMARK SMILES IDX 3 1 2 2 1 3 18 4 19 5 80 6 20 7 79 8 21 9 22 10 23 11 73 12
REMARK SMILES IDX 24 13 78 14 72 15 74 16 25 17 77 18 71 19 70 20 26 22 58 23
REMARK SMILES IDX 38 24 57 25 39 26 42 27 56 28 75 29 40 30 41 31 55 33 76 34
REMARK SMILES IDX 43 35 27 36 28 37 36 38 29 39 31 40 37 41 30 42 32 43 33 44
REMARK SMILES IDX 34 45 35 46 59 47 60 48 68 49 61 50 63 51 69 52 62 53 64 54
REMARK SMILES IDX 65 55 66 56 67 57 44 58 45 59 53 60 46 61 48 62 54 63 47 64
REMARK SMILES IDX 49 65 50 66 51 67 52 68 4 69 5 70 6 71 7 72 8 73 9 74 10 75
REMARK SMILES IDX 17 76 11 77 16 78 12 79 15 80 13 81 14 82
REMARK H PARENT 74 21 42 32 13 83
REMARK Flexibility Score: inf
ROOT
ATOM      1  O   UNL     1       3.194   0.139  -1.453  1.00  0.00    -0.458 OA
ENDROOT
BRANCH   1   2
ATOM      2  C   UNL     1       3.220  -1.077  -0.857  1.00  0.00     0.338 C 
ATOM      3  O   UNL     1       2.491  -1.960  -1.307  1.00  0.00    -0.246 OA
BRANCH   2   4
ATOM      4  C   UNL     1       3.963  -1.372   0.412  1.00  0.00     0.060 A 
ATOM      5  C   UNL     1       5.146  -0.772   0.848  1.00  0.00     0.016 A 
ATOM      6  C   UNL     1       3.393  -2.356   1.240  1.00  0.00     0.016 A 
ATOM      7  C   UNL     1       5.691  -1.070   2.103  1.00  0.00     0.010 A 
ATOM      8  C   UNL     1       3.926  -2.645   2.500  1.00  0.00     0.010 A 
ATOM      9  C   UNL     1       5.078  -1.994   2.951  1.00  0.00    -0.014 A 
BRANCH   9  10
ATOM     10  C   UNL     1       5.724  -2.359   4.236  1.00  0.00     0.031 A 
ATOM     11  C   UNL     1       6.321  -3.732   4.375  1.00  0.00     0.074 A 
ATOM     12  C   UNL     1       5.812  -1.469   5.247  1.00  0.00     0.049 A 
ATOM     13  N   UNL     1       7.018  -4.232   5.360  1.00  0.00    -0.248 NA
ATOM     14  C   UNL     1       6.093  -4.672   3.264  1.00  0.00     0.031 C 
ATOM     15  C   UNL     1       5.224  -0.129   5.254  1.00  0.00     0.029 A 
ATOM     16  N   UNL     1       6.434  -1.556   6.469  1.00  0.00    -0.354 N 
ATOM     17  C   UNL     1       7.303  -5.540   4.989  1.00  0.00     0.074 A 
ATOM     18  C   UNL     1       6.643  -5.781   3.728  1.00  0.00     0.031 C 
ATOM     19  C   UNL     1       5.522   0.484   6.414  1.00  0.00     0.029 A 
ATOM     20  C   UNL     1       6.328  -0.414   7.233  1.00  0.00     0.049 A 
ATOM     21  H   UNL     1       6.913  -2.362   6.771  1.00  0.00     0.167 HD
ATOM     22  C   UNL     1       8.092  -6.447   5.609  1.00  0.00     0.034 A 
ATOM     23  C   UNL     1       6.847  -0.123   8.444  1.00  0.00     0.034 A 
ATOM     24  C   UNL     1       8.771  -6.196   6.845  1.00  0.00     0.049 A 
ATOM     25  C   UNL     1       7.738  -1.148   9.106  1.00  0.00     0.074 A 
ATOM     26  C   UNL     1       9.604  -7.036   7.559  1.00  0.00     0.029 A 
ATOM     27  N   UNL     1       8.694  -5.005   7.551  1.00  0.00    -0.354 N 
ATOM     28  N   UNL     1       8.112  -2.327   8.667  1.00  0.00    -0.248 NA
ATOM     29  C   UNL     1       8.320  -0.784  10.407  1.00  0.00     0.031 C 
ATOM     30  C   UNL     1      10.028  -6.352   8.704  1.00  0.00     0.029 A 
ATOM     31  C   UNL     1       9.473  -5.081   8.690  1.00  0.00     0.049 A 
ATOM     32  H   UNL     1       8.163  -4.221   7.281  1.00  0.00     0.167 HD
ATOM     33  C   UNL     1       9.002  -2.824   9.614  1.00  0.00     0.074 A 
ATOM     34  C   UNL     1       9.132  -1.807  10.636  1.00  0.00     0.031 C 
ATOM     35  C   UNL     1       9.639  -4.021   9.650  1.00  0.00     0.034 A 
BRANCH  22  36
ATOM     36  C   UNL     1       8.291  -7.760   4.903  1.00  0.00     0.023 A 
ATOM     37  C   UNL     1       9.071  -7.796   3.727  1.00  0.00     0.012 A 
ATOM     38  C   UNL     1       7.685  -8.940   5.369  1.00  0.00     0.148 A 
ATOM     39  C   UNL     1       9.199  -8.975   2.995  1.00  0.00     0.002 A 
ATOM     40  C   UNL     1       7.853 -10.122   4.656  1.00  0.00     0.091 A 
ATOM     41  F   UNL     1       6.932  -8.879   6.476  1.00  0.00    -0.205 F 
ATOM     42  C   UNL     1       8.594 -10.137   3.462  1.00  0.00     0.022 A 
BRANCH  40  43
ATOM     43  S   UNL     1       7.160 -11.688   5.194  1.00  0.00     0.127 S 
ATOM     44  O   UNL     1       6.169 -11.946   4.149  1.00  0.00    -0.237 OA
ATOM     45  O   UNL     1       8.329 -12.566   5.157  1.00  0.00    -0.237 OA
ATOM     46  O   UNL     1       6.614 -11.452   6.523  1.00  0.00    -0.744 OA
ENDBRANCH  40  43
ENDBRANCH  22  36
BRANCH  23  47
ATOM     47  C   UNL     1       6.632   1.214   9.080  1.00  0.00     0.023 A 
ATOM     48  C   UNL     1       7.730   2.087   9.237  1.00  0.00     0.012 A 
ATOM     49  C   UNL     1       5.372   1.614   9.566  1.00  0.00     0.148 A 
ATOM     50  C   UNL     1       7.591   3.301   9.912  1.00  0.00     0.002 A 
ATOM     51  C   UNL     1       5.230   2.849  10.196  1.00  0.00     0.091 A 
ATOM     52  F   UNL     1       4.340   0.771   9.424  1.00  0.00    -0.205 F 
ATOM     53  C   UNL     1       6.341   3.683  10.388  1.00  0.00     0.022 A 
BRANCH  51  54
ATOM     54  S   UNL     1       3.643   3.483  10.754  1.00  0.00     0.127 S 
ATOM     55  O   UNL     1       3.767   3.361  12.204  1.00  0.00    -0.237 OA
ATOM     56  O   UNL     1       3.672   4.857  10.248  1.00  0.00    -0.237 OA
ATOM     57  O   UNL     1       2.642   2.636  10.126  1.00  0.00    -0.744 OA
ENDBRANCH  51  54
ENDBRANCH  23  47
BRANCH  35  58
ATOM     58  C   UNL     1      10.568  -4.286  10.805  1.00  0.00     0.023 A 
ATOM     59  C   UNL     1      10.039  -4.543  12.084  1.00  0.00     0.012 A 
ATOM     60  C   UNL     1      11.957  -4.383  10.595  1.00  0.00     0.148 A 
ATOM     61  C   UNL     1      10.882  -4.867  13.145  1.00  0.00     0.002 A 
ATOM     62  C   UNL     1      12.786  -4.759  11.644  1.00  0.00     0.091 A 
ATOM     63  F   UNL     1      12.441  -4.113   9.373  1.00  0.00    -0.205 F 
ATOM     64  C   UNL     1      12.252  -4.990  12.922  1.00  0.00     0.022 A 
BRANCH  62  65
ATOM     65  S   UNL     1      14.544  -5.050  11.417  1.00  0.00     0.127 S 
ATOM     66  O   UNL     1      15.125  -3.858  12.031  1.00  0.00    -0.237 OA
ATOM     67  O   UNL     1      14.754  -6.289  12.167  1.00  0.00    -0.237 OA
ATOM     68  O   UNL     1      14.744  -5.176   9.979  1.00  0.00    -0.744 OA
ENDBRANCH  62  65
ENDBRANCH  35  58
ENDBRANCH   9  10
ENDBRANCH   2   4
ENDBRANCH   1   2
BRANCH   1  69
ATOM     69  C   UNL     1       4.129   1.227  -1.361  1.00  0.00     0.275 C 
BRANCH  69  70
ATOM     70  C   UNL     1       3.746   2.272  -0.313  1.00  0.00     0.274 C 
BRANCH  70  71
ATOM     71  O   UNL     1       3.452   1.687   0.963  1.00  0.00    -0.462 OA
BRANCH  71  72
ATOM     72  C   UNL     1       2.141   1.690   1.359  1.00  0.00     0.309 C 
ATOM     73  O   UNL     1       1.219   2.173   0.729  1.00  0.00    -0.252 OA
BRANCH  72  74
ATOM     74  C   UNL     1       2.005   0.986   2.692  1.00  0.00     0.104 C 
ATOM     75  C   UNL     1       1.058  -0.234   2.586  1.00  0.00     0.022 C 
ATOM     76  C   UNL     1       1.515   1.958   3.790  1.00  0.00     0.054 C 
ATOM     77  C   UNL     1       1.107  -1.083   3.874  1.00  0.00     0.057 C 
ATOM     78  C   UNL     1       1.240   1.188   5.036  1.00  0.00    -0.006 A 
ATOM     79  C   UNL     1       1.060  -0.179   5.041  1.00  0.00     0.038 A 
ATOM     80  C   UNL     1       1.108   1.557   6.386  1.00  0.00     0.138 A 
ATOM     81  N   UNL     1       0.940  -0.551   6.343  1.00  0.00    -0.282 N 
ATOM     82  N   UNL     1       0.851   0.501   7.165  1.00  0.00    -0.184 NA
ATOM     83  H   UNL     1       0.921  -1.488   6.647  1.00  0.00     0.190 HD
ENDBRANCH  72  74
ENDBRANCH  71  72
ENDBRANCH  70  71
ENDBRANCH  69  70
ENDBRANCH   1  69
TORSDOF 14
