REMARK SMILES Cc1cccc(S(=O)(=O)Nc2cc(C(=O)OCCOC(=O)c3ccc(-c4c5nc(c(-c6cccc(S(=O)(=O)[O-])c6F)c6ccc([nH]6)c(-c6cccc(S(=O)(=O)[O-])c6F)c6nc(c(-c7cccc(S(=O)(=O)[O-])c7F)c7ccc4[nH]7)C=C6)C=C5)cc3)ccc2N2CCC[C@H](C[NH+]3CCCC3)C2)c1
REMARK SMILES IDX 17 1 16 2 14 3 15 4 13 5 11 6 12 7 87 8 86 9 85 10 10 11
REMARK SMILES IDX 7 13 8 14 9 15 6 16 1 17 2 18 3 19 100 20 4 21 5 22 88 23
REMARK SMILES IDX 89 24 99 25 90 26 92 27 91 28 93 29 94 30 95 31 98 32 96 34
REMARK SMILES IDX 97 35 18 36 19 37 20 38 21 39 22 40 23 41 84 42 24 43 83 44
REMARK SMILES IDX 25 45 26 46 27 47 77 48 28 49 82 50 76 51 78 52 29 53 81 54
REMARK SMILES IDX 75 55 74 56 30 58 62 59 42 60 61 61 43 62 46 63 60 64 79 65
REMARK SMILES IDX 44 66 45 67 59 69 80 70 47 71 31 72 32 73 40 74 33 75 35 76
REMARK SMILES IDX 41 77 34 78 36 79 37 80 38 81 39 82 63 83 64 84 72 85 65 86
REMARK SMILES IDX 67 87 73 88 66 89 68 90 69 91 70 92 71 93 48 94 49 95 57 96
REMARK SMILES IDX 50 97 52 98 58 99 51 100 53 101 54 102 55 103 56 104
REMARK H PARENT 10 12 94 33 78 57 46 68
REMARK Flexibility Score: inf
ROOT
ATOM      1  C   UNL     1       2.230   1.189  -4.667  1.00  0.00     0.275 C 
ENDROOT
BRANCH   1   2
ATOM      2  O   UNL     1       1.852   2.021  -3.574  1.00  0.00    -0.458 OA
BRANCH   2   3
ATOM      3  C   UNL     1       1.948   3.359  -3.683  1.00  0.00     0.338 C 
ATOM      4  O   UNL     1       2.340   3.997  -4.646  1.00  0.00    -0.246 OA
BRANCH   3   5
ATOM      5  C   UNL     1       1.599   3.907  -2.360  1.00  0.00     0.062 A 
ATOM      6  C   UNL     1       0.174   3.806  -0.369  1.00  0.00     0.073 A 
ATOM      7  C   UNL     1       0.505   3.390  -1.668  1.00  0.00     0.044 A 
ATOM      8  C   UNL     1       0.972   4.811   0.269  1.00  0.00     0.061 A 
ATOM      9  C   UNL     1       2.131   5.229  -0.447  1.00  0.00     0.029 A 
ATOM     10  C   UNL     1       2.429   4.825  -1.748  1.00  0.00     0.018 A 
BRANCH   6  11
ATOM     11  N   UNL     1      -0.845   3.047   0.313  1.00  0.00    -0.277 N 
ATOM     12  H   UNL     1      -0.743   2.897   1.280  1.00  0.00     0.180 HD
BRANCH  11  13
ATOM     13  S   UNL     1      -2.205   2.401  -0.456  1.00  0.00     0.261 S 
ATOM     14  O   UNL     1      -2.484   3.172  -1.651  1.00  0.00    -0.201 OA
ATOM     15  O   UNL     1      -3.176   2.366   0.622  1.00  0.00    -0.201 OA
BRANCH  13  16
ATOM     16  C   UNL     1      -1.957   0.699  -0.973  1.00  0.00     0.088 A 
ATOM     17  C   UNL     1       0.488  -2.189  -1.710  1.00  0.00     0.044 C 
ATOM     18  C   UNL     1      -0.731  -1.327  -1.581  1.00  0.00    -0.050 A 
ATOM     19  C   UNL     1      -1.936  -1.991  -1.806  1.00  0.00     0.003 A 
ATOM     20  C   UNL     1      -0.733   0.047  -1.205  1.00  0.00     0.025 A 
ATOM     21  C   UNL     1      -3.135  -1.332  -1.621  1.00  0.00     0.002 A 
ATOM     22  C   UNL     1      -3.147  -0.013  -1.178  1.00  0.00     0.022 A 
ENDBRANCH  13  16
ENDBRANCH  11  13
ENDBRANCH   6  11
BRANCH   8  23
ATOM     23  N   UNL     1       0.750   5.458   1.500  1.00  0.00    -0.369 N 
ATOM     24  C   UNL     1       0.913   6.931   1.500  1.00  0.00     0.116 C 
ATOM     25  C   UNL     1      -0.042   4.924   2.613  1.00  0.00     0.126 C 
ATOM     26  C   UNL     1       1.494   7.408   2.824  1.00  0.00     0.022 C 
ATOM     27  C   UNL     1       0.392   5.472   4.003  1.00  0.00     0.064 C 
ATOM     28  C   UNL     1       0.564   6.996   3.953  1.00  0.00     0.013 C 
BRANCH  27  29
ATOM     29  C   UNL     1       1.629   4.689   4.524  1.00  0.00     0.267 C 
BRANCH  29  30
ATOM     30  N   UNL     1       2.031   4.837   5.926  1.00  0.00    -0.335 N 
ATOM     31  C   UNL     1       1.032   4.542   6.940  1.00  0.00     0.262 C 
ATOM     32  C   UNL     1       2.740   6.050   6.301  1.00  0.00     0.262 C 
ATOM     33  H   UNL     1       2.711   4.076   5.927  1.00  0.00     0.348 HD
ATOM     34  C   UNL     1       0.614   5.901   7.463  1.00  0.00     0.067 C 
ATOM     35  C   UNL     1       1.879   6.739   7.358  1.00  0.00     0.067 C 
ENDBRANCH  29  30
ENDBRANCH  27  29
ENDBRANCH   8  23
ENDBRANCH   3   5
ENDBRANCH   2   3
ENDBRANCH   1   2
BRANCH   1  36
ATOM     36  C   UNL     1       3.562   1.473  -5.384  1.00  0.00     0.275 C 
BRANCH  36  37
ATOM     37  O   UNL     1       4.801   1.919  -4.744  1.00  0.00    -0.458 OA
BRANCH  37  38
ATOM     38  C   UNL     1       5.057   2.393  -3.499  1.00  0.00     0.338 C 
ATOM     39  O   UNL     1       5.824   3.325  -3.305  1.00  0.00    -0.246 OA
BRANCH  38  40
ATOM     40  C   UNL     1       4.496   1.619  -2.380  1.00  0.00     0.060 A 
ATOM     41  C   UNL     1       4.260   2.173  -1.110  1.00  0.00     0.016 A 
ATOM     42  C   UNL     1       4.178   0.303  -2.625  1.00  0.00     0.016 A 
ATOM     43  C   UNL     1       3.629   1.425  -0.099  1.00  0.00     0.010 A 
ATOM     44  C   UNL     1       3.413  -0.364  -1.707  1.00  0.00     0.010 A 
ATOM     45  C   UNL     1       3.215   0.136  -0.394  1.00  0.00    -0.014 A 
BRANCH  45  46
ATOM     46  C   UNL     1       2.980  -0.944   0.588  1.00  0.00     0.031 A 
ATOM     47  C   UNL     1       1.680  -1.291   1.237  1.00  0.00     0.074 A 
ATOM     48  C   UNL     1       3.932  -1.897   0.389  1.00  0.00     0.049 A 
ATOM     49  N   UNL     1       1.398  -2.514   1.530  1.00  0.00    -0.248 NA
ATOM     50  C   UNL     1       0.561  -0.404   1.559  1.00  0.00     0.031 C 
ATOM     51  C   UNL     1       3.823  -3.349   0.404  1.00  0.00     0.029 A 
ATOM     52  N   UNL     1       5.245  -1.735  -0.055  1.00  0.00    -0.354 N 
ATOM     53  C   UNL     1       0.062  -2.637   1.840  1.00  0.00     0.074 A 
ATOM     54  C   UNL     1      -0.428  -1.282   1.841  1.00  0.00     0.031 C 
ATOM     55  C   UNL     1       5.061  -3.875   0.331  1.00  0.00     0.029 A 
ATOM     56  C   UNL     1       5.991  -2.772   0.482  1.00  0.00     0.049 A 
ATOM     57  H   UNL     1       5.579  -1.018  -0.641  1.00  0.00     0.167 HD
ATOM     58  C   UNL     1      -0.415  -3.909   1.975  1.00  0.00     0.034 A 
ATOM     59  C   UNL     1       6.788  -2.532   1.572  1.00  0.00     0.034 A 
ATOM     60  C   UNL     1       0.721  -4.802   2.273  1.00  0.00     0.049 A 
ATOM     61  C   UNL     1       6.256  -3.244   2.821  1.00  0.00     0.074 A 
ATOM     62  C   UNL     1       1.450  -5.754   1.587  1.00  0.00     0.029 A 
ATOM     63  N   UNL     1       1.428  -4.533   3.438  1.00  0.00    -0.354 N 
ATOM     64  N   UNL     1       5.155  -3.953   2.858  1.00  0.00    -0.248 NA
ATOM     65  C   UNL     1       6.921  -3.235   4.119  1.00  0.00     0.031 C 
ATOM     66  C   UNL     1       2.689  -5.924   2.288  1.00  0.00     0.029 A 
ATOM     67  C   UNL     1       2.684  -5.114   3.415  1.00  0.00     0.049 A 
ATOM     68  H   UNL     1       1.080  -3.996   4.186  1.00  0.00     0.167 HD
ATOM     69  C   UNL     1       4.854  -4.315   4.140  1.00  0.00     0.074 A 
ATOM     70  C   UNL     1       6.057  -3.944   4.869  1.00  0.00     0.031 C 
ATOM     71  C   UNL     1       3.622  -4.807   4.501  1.00  0.00     0.034 A 
BRANCH  58  72
ATOM     72  C   UNL     1      -1.827  -4.461   1.810  1.00  0.00     0.023 A 
ATOM     73  C   UNL     1      -1.971  -5.861   2.005  1.00  0.00     0.012 A 
ATOM     74  C   UNL     1      -2.973  -3.783   1.327  1.00  0.00     0.148 A 
ATOM     75  C   UNL     1      -3.134  -6.565   1.681  1.00  0.00     0.002 A 
ATOM     76  C   UNL     1      -4.148  -4.492   1.004  1.00  0.00     0.091 A 
ATOM     77  F   UNL     1      -2.926  -2.457   1.161  1.00  0.00    -0.205 F 
ATOM     78  C   UNL     1      -4.219  -5.883   1.166  1.00  0.00     0.022 A 
BRANCH  76  79
ATOM     79  S   UNL     1      -5.641  -3.747   0.310  1.00  0.00     0.127 S 
ATOM     80  O   UNL     1      -5.721  -4.394  -1.002  1.00  0.00    -0.237 OA
ATOM     81  O   UNL     1      -6.677  -4.166   1.254  1.00  0.00    -0.237 OA
ATOM     82  O   UNL     1      -5.409  -2.311   0.265  1.00  0.00    -0.744 OA
ENDBRANCH  76  79
ENDBRANCH  58  72
BRANCH  59  83
ATOM     83  C   UNL     1       7.421  -1.156   1.495  1.00  0.00     0.023 A 
ATOM     84  C   UNL     1       8.159  -0.883   0.307  1.00  0.00     0.012 A 
ATOM     85  C   UNL     1       6.953  -0.059   2.246  1.00  0.00     0.148 A 
ATOM     86  C   UNL     1       8.231   0.408  -0.224  1.00  0.00     0.002 A 
ATOM     87  C   UNL     1       7.075   1.239   1.730  1.00  0.00     0.091 A 
ATOM     88  F   UNL     1       6.330  -0.300   3.406  1.00  0.00    -0.205 F 
ATOM     89  C   UNL     1       7.657   1.463   0.471  1.00  0.00     0.022 A 
BRANCH  87  90
ATOM     90  S   UNL     1       6.459   2.705   2.580  1.00  0.00     0.127 S 
ATOM     91  O   UNL     1       7.697   3.448   2.811  1.00  0.00    -0.237 OA
ATOM     92  O   UNL     1       5.572   3.303   1.583  1.00  0.00    -0.237 OA
ATOM     93  O   UNL     1       5.798   2.210   3.776  1.00  0.00    -0.744 OA
ENDBRANCH  87  90
ENDBRANCH  59  83
BRANCH  71  94
ATOM     94  C   UNL     1       3.147  -4.969   5.943  1.00  0.00     0.023 A 
ATOM     95  C   UNL     1       3.757  -4.289   7.013  1.00  0.00     0.012 A 
ATOM     96  C   UNL     1       1.967  -5.698   6.258  1.00  0.00     0.148 A 
ATOM     97  C   UNL     1       3.301  -4.404   8.331  1.00  0.00     0.002 A 
ATOM     98  C   UNL     1       1.435  -5.690   7.546  1.00  0.00     0.091 A 
ATOM     99  F   UNL     1       1.351  -6.421   5.311  1.00  0.00    -0.205 F 
ATOM    100  C   UNL     1       2.126  -5.087   8.596  1.00  0.00     0.022 A 
BRANCH  98 101
ATOM    101  S   UNL     1      -0.236  -6.280   7.863  1.00  0.00     0.127 S 
ATOM    102  O   UNL     1       0.000  -7.662   8.269  1.00  0.00    -0.237 OA
ATOM    103  O   UNL     1      -0.682  -5.395   8.942  1.00  0.00    -0.237 OA
ATOM    104  O   UNL     1      -0.944  -6.085   6.605  1.00  0.00    -0.744 OA
ENDBRANCH  98 101
ENDBRANCH  71  94
ENDBRANCH  45  46
ENDBRANCH  38  40
ENDBRANCH  37  38
ENDBRANCH  36  37
ENDBRANCH   1  36
TORSDOF 20
