REMARK SMILES C[C@@]12CC[C@@H]3c4ccc(O)cc4/C(=N/OCC(=O)OCCOC(=O)c4ccc(-c5c6nc(c(-c7cccc(S(=O)(=O)[O-])c7F)c7ccc([nH]7)c(-c7cccc(S(=O)(=O)[O-])c7F)c7nc(c(-c8cccc(S(=O)(=O)[O-])c8F)c8ccc5[nH]8)C=C7)C=C6)cc4)C[C@H]3[C@@H]1C[C@@H](O)[C@@H]2O
REMARK SMILES IDX 20 1 19 2 17 3 18 4 16 5 15 6 14 7 1 8 2 9 3 10 90 11 94 12
REMARK SMILES IDX 4 13 89 14 91 15 92 16 5 17 88 18 6 19 13 20 7 21 12 22 8 23
REMARK SMILES IDX 11 24 9 25 95 26 93 28 10 30 21 32 22 33 23 34 24 35 25 36
REMARK SMILES IDX 26 37 87 38 27 39 86 40 28 41 29 42 30 43 80 44 31 45 85 46
REMARK SMILES IDX 79 47 81 48 32 49 84 50 78 51 77 52 33 54 65 55 45 56 64 57
REMARK SMILES IDX 46 58 49 59 63 60 82 61 47 62 48 63 62 65 83 66 50 67 34 68
REMARK SMILES IDX 35 69 43 70 36 71 38 72 44 73 37 74 39 75 40 76 41 77 42 78
REMARK SMILES IDX 66 79 67 80 75 81 68 82 70 83 76 84 69 85 71 86 72 87 73 88
REMARK SMILES IDX 74 89 51 90 52 91 60 92 53 93 55 94 61 95 54 96 56 97 57 98
REMARK SMILES IDX 58 99 59 100
REMARK H PARENT 95 27 93 29 10 31 81 53 49 64
REMARK Flexibility Score: inf
ROOT
ATOM      1  C   UNL     1      -2.352   9.072  -1.543  1.00  0.00     0.274 C 
ENDROOT
BRANCH   1   2
ATOM      2  O   UNL     1      -2.630   7.681  -1.329  1.00  0.00    -0.459 OA
BRANCH   2   3
ATOM      3  C   UNL     1      -3.918   7.285  -1.525  1.00  0.00     0.347 C 
ATOM      4  O   UNL     1      -4.861   8.043  -1.724  1.00  0.00    -0.248 OA
BRANCH   3   5
ATOM      5  C   UNL     1      -4.064   5.783  -1.405  1.00  0.00     0.386 C 
BRANCH   5   6
ATOM      6  O   UNL     1      -2.862   5.072  -1.696  1.00  0.00    -0.383 OA
BRANCH   6   7
ATOM      7  N   UNL     1      -2.981   4.564  -2.990  1.00  0.00    -0.090 NA
ATOM      8  C   UNL     1       0.511  -1.084  -0.054  1.00  0.00     0.014 C 
ATOM      9  C   UNL     1       0.231  -0.568  -1.494  1.00  0.00    -0.001 C 
ATOM     10  C   UNL     1      -1.129  -1.155  -1.862  1.00  0.00     0.010 C 
ATOM     11  C   UNL     1       0.288   0.980  -1.505  1.00  0.00     0.004 C 
ATOM     12  C   UNL     1       1.380  -0.951  -2.472  1.00  0.00     0.149 C 
ATOM     13  C   UNL     1      -1.683  -0.640  -3.161  1.00  0.00     0.009 C 
ATOM     14  C   UNL     1      -0.524   1.659  -2.673  1.00  0.00     0.006 C 
ATOM     15  C   UNL     1       1.841   1.239  -1.529  1.00  0.00     0.039 C 
ATOM     16  C   UNL     1       2.538  -0.058  -2.027  1.00  0.00     0.144 C 
ATOM     17  C   UNL     1      -1.791   0.875  -3.129  1.00  0.00     0.024 C 
ATOM     18  C   UNL     1      -1.037   3.092  -2.308  1.00  0.00     0.065 C 
ATOM     19  C   UNL     1      -2.265   1.464  -4.444  1.00  0.00    -0.035 A 
ATOM     20  C   UNL     1      -2.144   3.607  -3.255  1.00  0.00     0.088 C 
ATOM     21  C   UNL     1      -2.668   0.697  -5.547  1.00  0.00     0.008 A 
ATOM     22  C   UNL     1      -2.391   2.858  -4.515  1.00  0.00     0.006 A 
ATOM     23  C   UNL     1      -3.203   1.310  -6.677  1.00  0.00     0.046 A 
ATOM     24  C   UNL     1      -2.933   3.482  -5.645  1.00  0.00     0.056 A 
ATOM     25  C   UNL     1      -3.342   2.691  -6.713  1.00  0.00     0.116 A 
BRANCH  12  26
ATOM     26  O   UNL     1       1.113  -0.676  -3.845  1.00  0.00    -0.390 OA
ATOM     27  H   UNL     1       0.945   0.273  -3.959  1.00  0.00     0.211 HD
ENDBRANCH  12  26
BRANCH  16  28
ATOM     28  O   UNL     1       3.291  -0.691  -0.995  1.00  0.00    -0.390 OA
ATOM     29  H   UNL     1       2.706  -0.901  -0.251  1.00  0.00     0.211 HD
ENDBRANCH  16  28
BRANCH  25  30
ATOM     30  O   UNL     1      -3.928   3.222  -7.821  1.00  0.00    -0.508 OA
ATOM     31  H   UNL     1      -4.193   2.663  -8.525  1.00  0.00     0.293 HD
ENDBRANCH  25  30
ENDBRANCH   6   7
ENDBRANCH   5   6
ENDBRANCH   3   5
ENDBRANCH   2   3
ENDBRANCH   1   2
BRANCH   1  32
ATOM     32  C   UNL     1      -1.842   9.298  -2.965  1.00  0.00     0.275 C 
BRANCH  32  33
ATOM     33  O   UNL     1      -2.921   9.193  -3.911  1.00  0.00    -0.458 OA
BRANCH  33  34
ATOM     34  C   UNL     1      -2.965   8.066  -4.654  1.00  0.00     0.338 C 
ATOM     35  O   UNL     1      -2.162   7.139  -4.660  1.00  0.00    -0.246 OA
BRANCH  34  36
ATOM     36  C   UNL     1      -4.171   8.111  -5.487  1.00  0.00     0.060 A 
ATOM     37  C   UNL     1      -4.212   8.979  -6.580  1.00  0.00     0.016 A 
ATOM     38  C   UNL     1      -5.252   7.272  -5.199  1.00  0.00     0.016 A 
ATOM     39  C   UNL     1      -5.359   9.030  -7.371  1.00  0.00     0.010 A 
ATOM     40  C   UNL     1      -6.393   7.314  -6.006  1.00  0.00     0.010 A 
ATOM     41  C   UNL     1      -6.461   8.201  -7.092  1.00  0.00    -0.014 A 
BRANCH  41  42
ATOM     42  C   UNL     1      -7.658   8.251  -7.970  1.00  0.00     0.031 A 
ATOM     43  C   UNL     1      -8.950   8.853  -7.488  1.00  0.00     0.074 A 
ATOM     44  C   UNL     1      -7.573   7.758  -9.222  1.00  0.00     0.049 A 
ATOM     45  N   UNL     1     -10.053   9.066  -8.159  1.00  0.00    -0.248 NA
ATOM     46  C   UNL     1      -9.018   9.267  -6.077  1.00  0.00     0.031 C 
ATOM     47  C   UNL     1      -6.392   7.106  -9.791  1.00  0.00     0.029 A 
ATOM     48  N   UNL     1      -8.490   7.736 -10.243  1.00  0.00    -0.354 N 
ATOM     49  C   UNL     1     -10.950   9.621  -7.255  1.00  0.00     0.074 A 
ATOM     50  C   UNL     1     -10.270   9.698  -5.980  1.00  0.00     0.031 C 
ATOM     51  C   UNL     1      -6.646   6.775 -11.067  1.00  0.00     0.029 A 
ATOM     52  C   UNL     1      -8.009   7.177 -11.404  1.00  0.00     0.049 A 
ATOM     53  H   UNL     1      -9.405   8.087 -10.154  1.00  0.00     0.167 HD
ATOM     54  C   UNL     1     -12.214  10.051  -7.475  1.00  0.00     0.034 A 
ATOM     55  C   UNL     1      -8.589   7.020 -12.610  1.00  0.00     0.034 A 
ATOM     56  C   UNL     1     -12.875  10.012  -8.752  1.00  0.00     0.049 A 
ATOM     57  C   UNL     1      -9.986   7.527 -12.831  1.00  0.00     0.074 A 
ATOM     58  C   UNL     1     -14.129  10.499  -9.080  1.00  0.00     0.029 A 
ATOM     59  N   UNL     1     -12.347   9.454  -9.903  1.00  0.00    -0.354 N 
ATOM     60  N   UNL     1     -10.767   8.169 -11.997  1.00  0.00    -0.248 NA
ATOM     61  C   UNL     1     -10.573   7.314 -14.163  1.00  0.00     0.031 C 
ATOM     62  C   UNL     1     -14.366  10.221 -10.429  1.00  0.00     0.029 A 
ATOM     63  C   UNL     1     -13.253   9.576 -10.942  1.00  0.00     0.049 A 
ATOM     64  H   UNL     1     -11.460   9.034  -9.973  1.00  0.00     0.167 HD
ATOM     65  C   UNL     1     -11.926   8.457 -12.708  1.00  0.00     0.074 A 
ATOM     66  C   UNL     1     -11.742   7.932 -14.044  1.00  0.00     0.031 C 
ATOM     67  C   UNL     1     -13.044   9.091 -12.281  1.00  0.00     0.034 A 
BRANCH  54  68
ATOM     68  C   UNL     1     -12.969  10.675  -6.333  1.00  0.00     0.023 A 
ATOM     69  C   UNL     1     -12.699  12.014  -5.988  1.00  0.00     0.012 A 
ATOM     70  C   UNL     1     -14.033   9.995  -5.709  1.00  0.00     0.148 A 
ATOM     71  C   UNL     1     -13.478  12.669  -5.035  1.00  0.00     0.002 A 
ATOM     72  C   UNL     1     -14.823  10.664  -4.781  1.00  0.00     0.091 A 
ATOM     73  F   UNL     1     -14.266   8.721  -6.055  1.00  0.00    -0.205 F 
ATOM     74  C   UNL     1     -14.545  11.999  -4.442  1.00  0.00     0.022 A 
BRANCH  72  75
ATOM     75  S   UNL     1     -16.257   9.916  -3.999  1.00  0.00     0.127 S 
ATOM     76  O   UNL     1     -15.866   9.932  -2.589  1.00  0.00    -0.237 OA
ATOM     77  O   UNL     1     -17.321  10.857  -4.348  1.00  0.00    -0.237 OA
ATOM     78  O   UNL     1     -16.392   8.589  -4.584  1.00  0.00    -0.744 OA
ENDBRANCH  72  75
ENDBRANCH  54  68
BRANCH  55  79
ATOM     79  C   UNL     1      -7.804   6.431 -13.728  1.00  0.00     0.023 A 
ATOM     80  C   UNL     1      -7.306   7.279 -14.736  1.00  0.00     0.012 A 
ATOM     81  C   UNL     1      -7.498   5.057 -13.765  1.00  0.00     0.148 A 
ATOM     82  C   UNL     1      -6.521   6.767 -15.769  1.00  0.00     0.002 A 
ATOM     83  C   UNL     1      -6.687   4.559 -14.778  1.00  0.00     0.091 A 
ATOM     84  F   UNL     1      -7.988   4.274 -12.794  1.00  0.00    -0.205 F 
ATOM     85  C   UNL     1      -6.204   5.411 -15.785  1.00  0.00     0.022 A 
BRANCH  83  86
ATOM     86  S   UNL     1      -6.151   2.847 -14.840  1.00  0.00     0.127 S 
ATOM     87  O   UNL     1      -6.776   2.384 -16.077  1.00  0.00    -0.237 OA
ATOM     88  O   UNL     1      -4.696   2.992 -14.903  1.00  0.00    -0.237 OA
ATOM     89  O   UNL     1      -6.649   2.230 -13.620  1.00  0.00    -0.744 OA
ENDBRANCH  83  86
ENDBRANCH  55  79
BRANCH  67  90
ATOM     90  C   UNL     1     -14.173   9.278 -13.257  1.00  0.00     0.023 A 
ATOM     91  C   UNL     1     -15.033   8.197 -13.531  1.00  0.00     0.012 A 
ATOM     92  C   UNL     1     -14.463  10.551 -13.785  1.00  0.00     0.148 A 
ATOM     93  C   UNL     1     -16.165   8.380 -14.324  1.00  0.00     0.002 A 
ATOM     94  C   UNL     1     -15.611  10.734 -14.546  1.00  0.00     0.091 A 
ATOM     95  F   UNL     1     -13.624  11.561 -13.511  1.00  0.00    -0.205 F 
ATOM     96  C   UNL     1     -16.461   9.649 -14.820  1.00  0.00     0.022 A 
BRANCH  94  97
ATOM     97  S   UNL     1     -16.119  12.342 -15.165  1.00  0.00     0.127 S 
ATOM     98  O   UNL     1     -16.002  12.154 -16.611  1.00  0.00    -0.237 OA
ATOM     99  O   UNL     1     -17.493  12.442 -14.673  1.00  0.00    -0.237 OA
ATOM    100  O   UNL     1     -15.194  13.309 -14.591  1.00  0.00    -0.744 OA
ENDBRANCH  94  97
ENDBRANCH  67  90
ENDBRANCH  41  42
ENDBRANCH  34  36
ENDBRANCH  33  34
ENDBRANCH  32  33
ENDBRANCH   1  32
TORSDOF 19
