REMARK SMILES CCSc1cccc(-c2ccc([C@@H](C)C(=O)OCCOC(=O)c3ccc(-c4c5nc(c(-c6cccc(S(=O)(=O)[O-])c6F)c6ccc([nH]6)c(-c6cccc(S(=O)(=O)[O-])c6F)c6nc(c(-c7cccc(S(=O)(=O)[O-])c7F)c7ccc4[nH]7)C=C6)C=C5)cc3)cc2)c1
REMARK SMILES IDX 18 1 17 2 15 3 16 4 13 5 14 6 12 7 9 8 10 9 87 10 11 11
REMARK SMILES IDX 86 12 8 13 4 14 5 15 88 16 6 17 7 18 3 19 2 20 1 21 19 22
REMARK SMILES IDX 20 23 21 24 22 25 23 26 24 27 85 28 25 29 84 30 26 31 27 32
REMARK SMILES IDX 28 33 78 34 29 35 83 36 77 37 79 38 30 39 82 40 76 41 75 42
REMARK SMILES IDX 31 44 63 45 43 46 62 47 44 48 47 49 61 50 80 51 45 52 46 53
REMARK SMILES IDX 60 55 81 56 48 57 32 58 33 59 41 60 34 61 36 62 42 63 35 64
REMARK SMILES IDX 37 65 38 66 39 67 40 68 64 69 65 70 73 71 66 72 68 73 74 74
REMARK SMILES IDX 67 75 69 76 70 77 71 78 72 79 49 80 50 81 58 82 51 83 53 84
REMARK SMILES IDX 59 85 52 86 54 87 55 88 56 89 57 90
REMARK H PARENT 79 43 47 54
REMARK Flexibility Score: inf
ROOT
ATOM      1  C   UNL     1       7.910   7.516  -5.366  1.00  0.00     0.274 C 
ENDROOT
BRANCH   1   2
ATOM      2  O   UNL     1       8.044   6.543  -4.311  1.00  0.00    -0.462 OA
BRANCH   2   3
ATOM      3  C   UNL     1       8.401   7.015  -3.088  1.00  0.00     0.313 C 
ATOM      4  O   UNL     1       8.684   8.187  -2.859  1.00  0.00    -0.252 OA
BRANCH   3   5
ATOM      5  C   UNL     1       8.497   5.938  -2.013  1.00  0.00     0.126 C 
ATOM      6  C   UNL     1       9.960   5.548  -1.810  1.00  0.00     0.025 C 
BRANCH   5   7
ATOM      7  C   UNL     1       7.595   4.724  -2.191  1.00  0.00    -0.034 A 
ATOM      8  C   UNL     1       5.920   2.438  -2.438  1.00  0.00    -0.018 A 
ATOM      9  C   UNL     1       6.990   2.656  -3.320  1.00  0.00     0.009 A 
ATOM     10  C   UNL     1       5.689   3.394  -1.442  1.00  0.00     0.009 A 
ATOM     11  C   UNL     1       7.816   3.779  -3.199  1.00  0.00     0.005 A 
ATOM     12  C   UNL     1       6.518   4.515  -1.315  1.00  0.00     0.005 A 
BRANCH   8  13
ATOM     13  C   UNL     1       5.103   1.218  -2.531  1.00  0.00    -0.017 A 
ATOM     14  C   UNL     1       2.940   0.098  -2.713  1.00  0.00     0.008 A 
ATOM     15  C   UNL     1       3.582  -1.143  -2.708  1.00  0.00     0.015 A 
ATOM     16  C   UNL     1       3.701   1.272  -2.634  1.00  0.00     0.023 A 
ATOM     17  C   UNL     1       4.968  -1.217  -2.599  1.00  0.00     0.002 A 
ATOM     18  C   UNL     1       5.719  -0.046  -2.509  1.00  0.00     0.009 A 
BRANCH  14  19
ATOM     19  S   UNL     1       1.162   0.137  -2.854  1.00  0.00    -0.126 SA
BRANCH  19  20
ATOM     20  C   UNL     1       0.713   0.913  -1.262  1.00  0.00     0.071 C 
ATOM     21  C   UNL     1       1.066   0.034  -0.074  1.00  0.00     0.016 C 
ENDBRANCH  19  20
ENDBRANCH  14  19
ENDBRANCH   8  13
ENDBRANCH   5   7
ENDBRANCH   3   5
ENDBRANCH   2   3
ENDBRANCH   1   2
BRANCH   1  22
ATOM     22  C   UNL     1       6.440   7.824  -5.651  1.00  0.00     0.275 C 
BRANCH  22  23
ATOM     23  O   UNL     1       5.831   8.504  -4.540  1.00  0.00    -0.458 OA
BRANCH  23  24
ATOM     24  C   UNL     1       5.086   7.719  -3.728  1.00  0.00     0.338 C 
ATOM     25  O   UNL     1       4.832   6.536  -3.870  1.00  0.00    -0.246 OA
BRANCH  24  26
ATOM     26  C   UNL     1       4.699   8.477  -2.530  1.00  0.00     0.060 A 
ATOM     27  C   UNL     1       5.298   8.129  -1.319  1.00  0.00     0.016 A 
ATOM     28  C   UNL     1       3.692   9.441  -2.572  1.00  0.00     0.016 A 
ATOM     29  C   UNL     1       4.869   8.713  -0.132  1.00  0.00     0.010 A 
ATOM     30  C   UNL     1       3.273  10.044  -1.379  1.00  0.00     0.010 A 
ATOM     31  C   UNL     1       3.841   9.664  -0.150  1.00  0.00    -0.014 A 
BRANCH  31  32
ATOM     32  C   UNL     1       3.345  10.214   1.135  1.00  0.00     0.031 A 
ATOM     33  C   UNL     1       2.009   9.785   1.675  1.00  0.00     0.074 A 
ATOM     34  C   UNL     1       4.112  11.072   1.833  1.00  0.00     0.049 A 
ATOM     35  N   UNL     1       1.421  10.133   2.790  1.00  0.00    -0.248 NA
ATOM     36  C   UNL     1       1.232   8.842   0.854  1.00  0.00     0.031 C 
ATOM     37  C   UNL     1       5.423  11.566   1.410  1.00  0.00     0.029 A 
ATOM     38  N   UNL     1       3.898  11.684   3.043  1.00  0.00    -0.354 N 
ATOM     39  C   UNL     1       0.194   9.482   2.792  1.00  0.00     0.074 A 
ATOM     40  C   UNL     1       0.118   8.721   1.563  1.00  0.00     0.031 C 
ATOM     41  C   UNL     1       5.896  12.406   2.344  1.00  0.00     0.029 A 
ATOM     42  C   UNL     1       4.915  12.528   3.420  1.00  0.00     0.049 A 
ATOM     43  H   UNL     1       3.093  11.532   3.589  1.00  0.00     0.167 HD
ATOM     44  C   UNL     1      -0.773   9.498   3.740  1.00  0.00     0.034 A 
ATOM     45  C   UNL     1       5.041  13.315   4.506  1.00  0.00     0.034 A 
ATOM     46  C   UNL     1      -0.681  10.222   4.980  1.00  0.00     0.049 A 
ATOM     47  C   UNL     1       3.959  13.299   5.551  1.00  0.00     0.074 A 
ATOM     48  C   UNL     1      -1.592  10.267   6.021  1.00  0.00     0.029 A 
ATOM     49  N   UNL     1       0.386  11.028   5.349  1.00  0.00    -0.354 N 
ATOM     50  N   UNL     1       2.858  12.588   5.589  1.00  0.00    -0.248 NA
ATOM     51  C   UNL     1       4.152  14.169   6.721  1.00  0.00     0.031 C 
ATOM     52  C   UNL     1      -1.079  11.106   7.017  1.00  0.00     0.029 A 
ATOM     53  C   UNL     1       0.156  11.576   6.599  1.00  0.00     0.049 A 
ATOM     54  H   UNL     1       1.189  11.186   4.802  1.00  0.00     0.167 HD
ATOM     55  C   UNL     1       2.239  12.906   6.792  1.00  0.00     0.074 A 
ATOM     56  C   UNL     1       3.103  13.852   7.469  1.00  0.00     0.031 C 
ATOM     57  C   UNL     1       1.050  12.475   7.283  1.00  0.00     0.034 A 
BRANCH  44  58
ATOM     58  C   UNL     1      -2.005   8.670   3.492  1.00  0.00     0.023 A 
ATOM     59  C   UNL     1      -1.941   7.271   3.653  1.00  0.00     0.012 A 
ATOM     60  C   UNL     1      -3.231   9.273   3.152  1.00  0.00     0.148 A 
ATOM     61  C   UNL     1      -3.074   6.482   3.456  1.00  0.00     0.002 A 
ATOM     62  C   UNL     1      -4.364   8.482   2.991  1.00  0.00     0.091 A 
ATOM     63  F   UNL     1      -3.265  10.601   2.976  1.00  0.00    -0.205 F 
ATOM     64  C   UNL     1      -4.286   7.088   3.135  1.00  0.00     0.022 A 
BRANCH  62  65
ATOM     65  S   UNL     1      -5.982   9.181   2.643  1.00  0.00     0.127 S 
ATOM     66  O   UNL     1      -6.131   8.886   1.219  1.00  0.00    -0.237 OA
ATOM     67  O   UNL     1      -6.855   8.401   3.521  1.00  0.00    -0.237 OA
ATOM     68  O   UNL     1      -5.887  10.593   2.987  1.00  0.00    -0.744 OA
ENDBRANCH  62  65
ENDBRANCH  44  58
BRANCH  45  69
ATOM     69  C   UNL     1       6.269  14.138   4.685  1.00  0.00     0.023 A 
ATOM     70  C   UNL     1       7.194  13.793   5.689  1.00  0.00     0.012 A 
ATOM     71  C   UNL     1       6.545  15.234   3.844  1.00  0.00     0.148 A 
ATOM     72  C   UNL     1       8.361  14.537   5.867  1.00  0.00     0.002 A 
ATOM     73  C   UNL     1       7.735  15.937   3.991  1.00  0.00     0.091 A 
ATOM     74  F   UNL     1       5.641  15.565   2.910  1.00  0.00    -0.205 F 
ATOM     75  C   UNL     1       8.638  15.600   5.011  1.00  0.00     0.022 A 
BRANCH  73  76
ATOM     76  S   UNL     1       8.224  17.229   2.842  1.00  0.00     0.127 S 
ATOM     77  O   UNL     1       7.917  18.438   3.602  1.00  0.00    -0.237 OA
ATOM     78  O   UNL     1       9.652  16.960   2.664  1.00  0.00    -0.237 OA
ATOM     79  O   UNL     1       7.422  17.004   1.647  1.00  0.00    -0.744 OA
ENDBRANCH  73  76
ENDBRANCH  45  69
BRANCH  57  80
ATOM     80  C   UNL     1       0.617  13.012   8.621  1.00  0.00     0.023 A 
ATOM     81  C   UNL     1       0.150  14.338   8.716  1.00  0.00     0.012 A 
ATOM     82  C   UNL     1       0.616  12.196   9.768  1.00  0.00     0.148 A 
ATOM     83  C   UNL     1      -0.282  14.853   9.938  1.00  0.00     0.002 A 
ATOM     84  C   UNL     1       0.145  12.703  10.975  1.00  0.00     0.091 A 
ATOM     85  F   UNL     1       1.087  10.944   9.667  1.00  0.00    -0.205 F 
ATOM     86  C   UNL     1      -0.295  14.033  11.064  1.00  0.00     0.022 A 
BRANCH  84  87
ATOM     87  S   UNL     1       0.020  11.678  12.446  1.00  0.00     0.127 S 
ATOM     88  O   UNL     1       1.258  12.008  13.149  1.00  0.00    -0.237 OA
ATOM     89  O   UNL     1      -1.196  12.184  13.085  1.00  0.00    -0.237 OA
ATOM     90  O   UNL     1      -0.088  10.310  11.957  1.00  0.00    -0.744 OA
ENDBRANCH  84  87
ENDBRANCH  57  80
ENDBRANCH  31  32
ENDBRANCH  24  26
ENDBRANCH  23  24
ENDBRANCH  22  23
ENDBRANCH   1  22
TORSDOF 18
