REMARK SMILES O=C(OCCOC(=O)[C@@H]1CCCN(C(=O)Nc2ccccc2)C1)c1ccc(-c2c3nc(c(-c4cccc(S(=O)(=O)[O-])c4F)c4ccc([nH]4)c(-c4cccc(S(=O)(=O)[O-])c4F)c4nc(c(-c5cccc(S(=O)(=O)[O-])c5F)c5ccc2[nH]5)C=C4)C=C3)cc1
REMARK SMILES IDX 4 1 3 2 2 3 1 4 24 5 25 6 86 7 26 8 85 9 27 10 28 11 29 12
REMARK SMILES IDX 79 13 30 14 84 15 78 16 80 17 31 18 83 19 77 20 76 21 32 23
REMARK SMILES IDX 64 24 44 25 63 26 45 27 48 28 62 29 81 30 46 31 47 32 61 34
REMARK SMILES IDX 82 35 49 36 33 37 34 38 42 39 35 40 37 41 43 42 36 43 38 44
REMARK SMILES IDX 39 45 40 46 41 47 65 48 66 49 74 50 67 51 69 52 75 53 68 54
REMARK SMILES IDX 70 55 71 56 72 57 73 58 50 59 51 60 59 61 52 62 54 63 60 64
REMARK SMILES IDX 53 65 55 66 56 67 57 68 58 69 5 70 6 71 7 72 8 73 9 74 10 75
REMARK SMILES IDX 23 76 11 77 13 78 12 79 14 80 15 81 16 82 17 84 18 85 22 86
REMARK SMILES IDX 19 87 21 88 20 89
REMARK H PARENT 80 22 48 33 16 83
REMARK Flexibility Score: inf
ROOT
ATOM      1  C   UNL     1       4.117  -0.944  -1.166  1.00  0.00     0.275 C 
ENDROOT
BRANCH   1   2
ATOM      2  O   UNL     1       2.819  -1.194  -0.573  1.00  0.00    -0.458 OA
BRANCH   2   3
ATOM      3  C   UNL     1       2.320  -1.018   0.677  1.00  0.00     0.338 C 
ATOM      4  O   UNL     1       1.151  -1.351   0.881  1.00  0.00    -0.246 OA
BRANCH   3   5
ATOM      5  C   UNL     1       3.045  -0.366   1.819  1.00  0.00     0.060 A 
ATOM      6  C   UNL     1       4.418  -0.392   2.017  1.00  0.00     0.016 A 
ATOM      7  C   UNL     1       2.269   0.316   2.790  1.00  0.00     0.016 A 
ATOM      8  C   UNL     1       5.004   0.379   3.040  1.00  0.00     0.010 A 
ATOM      9  C   UNL     1       2.857   1.071   3.834  1.00  0.00     0.010 A 
ATOM     10  C   UNL     1       4.245   1.170   3.930  1.00  0.00    -0.014 A 
BRANCH  10  11
ATOM     11  C   UNL     1       4.995   1.948   4.974  1.00  0.00     0.031 A 
ATOM     12  C   UNL     1       5.778   1.145   5.964  1.00  0.00     0.074 A 
ATOM     13  C   UNL     1       5.093   3.297   5.030  1.00  0.00     0.049 A 
ATOM     14  N   UNL     1       6.744   1.511   6.759  1.00  0.00    -0.248 NA
ATOM     15  C   UNL     1       5.381  -0.268   6.083  1.00  0.00     0.031 C 
ATOM     16  C   UNL     1       4.270   4.238   4.294  1.00  0.00     0.029 A 
ATOM     17  N   UNL     1       5.971   4.126   5.707  1.00  0.00    -0.354 N 
ATOM     18  C   UNL     1       7.028   0.390   7.522  1.00  0.00     0.074 A 
ATOM     19  C   UNL     1       6.194  -0.688   7.035  1.00  0.00     0.031 C 
ATOM     20  C   UNL     1       4.790   5.475   4.381  1.00  0.00     0.029 A 
ATOM     21  C   UNL     1       5.941   5.446   5.275  1.00  0.00     0.049 A 
ATOM     22  H   UNL     1       6.561   3.809   6.428  1.00  0.00     0.167 HD
ATOM     23  C   UNL     1       7.849   0.280   8.590  1.00  0.00     0.034 A 
ATOM     24  C   UNL     1       6.752   6.492   5.568  1.00  0.00     0.034 A 
ATOM     25  C   UNL     1       8.592   1.366   9.155  1.00  0.00     0.049 A 
ATOM     26  C   UNL     1       7.769   6.302   6.671  1.00  0.00     0.074 A 
ATOM     27  C   UNL     1       9.379   1.369  10.292  1.00  0.00     0.029 A 
ATOM     28  N   UNL     1       8.601   2.658   8.655  1.00  0.00    -0.354 N 
ATOM     29  N   UNL     1       8.120   5.206   7.296  1.00  0.00    -0.248 NA
ATOM     30  C   UNL     1       8.478   7.507   7.139  1.00  0.00     0.031 C 
ATOM     31  C   UNL     1       9.834   2.675  10.501  1.00  0.00     0.029 A 
ATOM     32  C   UNL     1       9.379   3.468   9.461  1.00  0.00     0.049 A 
ATOM     33  H   UNL     1       8.123   2.955   7.847  1.00  0.00     0.167 HD
ATOM     34  C   UNL     1       9.070   5.592   8.234  1.00  0.00     0.074 A 
ATOM     35  C   UNL     1       9.313   7.004   8.035  1.00  0.00     0.031 C 
ATOM     36  C   UNL     1       9.647   4.859   9.215  1.00  0.00     0.034 A 
BRANCH  23  37
ATOM     37  C   UNL     1       7.840  -1.050   9.279  1.00  0.00     0.023 A 
ATOM     38  C   UNL     1       8.451  -2.168   8.677  1.00  0.00     0.012 A 
ATOM     39  C   UNL     1       7.123  -1.205  10.480  1.00  0.00     0.148 A 
ATOM     40  C   UNL     1       8.293  -3.436   9.232  1.00  0.00     0.002 A 
ATOM     41  C   UNL     1       7.015  -2.461  11.053  1.00  0.00     0.091 A 
ATOM     42  F   UNL     1       6.521  -0.130  11.007  1.00  0.00    -0.205 F 
ATOM     43  C   UNL     1       7.579  -3.581  10.420  1.00  0.00     0.022 A 
BRANCH  41  44
ATOM     44  S   UNL     1       6.165  -2.739  12.607  1.00  0.00     0.127 S 
ATOM     45  O   UNL     1       5.026  -3.551  12.181  1.00  0.00    -0.237 OA
ATOM     46  O   UNL     1       7.178  -3.462  13.377  1.00  0.00    -0.237 OA
ATOM     47  O   UNL     1       5.829  -1.421  13.127  1.00  0.00    -0.744 OA
ENDBRANCH  41  44
ENDBRANCH  23  37
BRANCH  24  48
ATOM     48  C   UNL     1       6.730   7.812   4.839  1.00  0.00     0.023 A 
ATOM     49  C   UNL     1       7.938   8.273   4.256  1.00  0.00     0.012 A 
ATOM     50  C   UNL     1       5.604   8.649   4.756  1.00  0.00     0.148 A 
ATOM     51  C   UNL     1       8.040   9.541   3.674  1.00  0.00     0.002 A 
ATOM     52  C   UNL     1       5.684   9.870   4.083  1.00  0.00     0.091 A 
ATOM     53  F   UNL     1       4.472   8.264   5.361  1.00  0.00    -0.205 F 
ATOM     54  C   UNL     1       6.905  10.335   3.571  1.00  0.00     0.022 A 
BRANCH  52  55
ATOM     55  S   UNL     1       4.225  10.851   3.706  1.00  0.00     0.127 S 
ATOM     56  O   UNL     1       4.364  11.970   4.631  1.00  0.00    -0.237 OA
ATOM     57  O   UNL     1       4.443  11.181   2.296  1.00  0.00    -0.237 OA
ATOM     58  O   UNL     1       3.096   9.959   3.939  1.00  0.00    -0.744 OA
ENDBRANCH  52  55
ENDBRANCH  24  48
BRANCH  36  59
ATOM     59  C   UNL     1      10.608   5.556  10.139  1.00  0.00     0.023 A 
ATOM     60  C   UNL     1      10.134   6.497  11.076  1.00  0.00     0.012 A 
ATOM     61  C   UNL     1      11.970   5.205  10.136  1.00  0.00     0.148 A 
ATOM     62  C   UNL     1      11.011   7.100  11.977  1.00  0.00     0.002 A 
ATOM     63  C   UNL     1      12.826   5.767  11.073  1.00  0.00     0.091 A 
ATOM     64  F   UNL     1      12.402   4.327   9.219  1.00  0.00    -0.205 F 
ATOM     65  C   UNL     1      12.352   6.724  11.986  1.00  0.00     0.022 A 
BRANCH  63  66
ATOM     66  S   UNL     1      14.540   5.259  11.227  1.00  0.00     0.127 S 
ATOM     67  O   UNL     1      15.245   6.428  10.704  1.00  0.00    -0.237 OA
ATOM     68  O   UNL     1      14.675   5.059  12.670  1.00  0.00    -0.237 OA
ATOM     69  O   UNL     1      14.672   4.043  10.434  1.00  0.00    -0.744 OA
ENDBRANCH  63  66
ENDBRANCH  36  59
ENDBRANCH  10  11
ENDBRANCH   3   5
ENDBRANCH   2   3
ENDBRANCH   1   2
BRANCH   1  70
ATOM     70  C   UNL     1       4.271   0.452  -1.754  1.00  0.00     0.274 C 
BRANCH  70  71
ATOM     71  O   UNL     1       3.893   1.422  -0.785  1.00  0.00    -0.462 OA
BRANCH  71  72
ATOM     72  C   UNL     1       2.782   2.157  -1.018  1.00  0.00     0.310 C 
ATOM     73  O   UNL     1       2.082   2.073  -2.024  1.00  0.00    -0.252 OA
BRANCH  72  74
ATOM     74  C   UNL     1       2.459   3.053   0.157  1.00  0.00     0.119 C 
ATOM     75  C   UNL     1       2.051   4.458  -0.269  1.00  0.00     0.019 C 
ATOM     76  C   UNL     1       3.601   3.167   1.153  1.00  0.00     0.136 C 
ATOM     77  C   UNL     1       3.255   5.238  -0.785  1.00  0.00     0.023 C 
ATOM     78  N   UNL     1       4.766   3.904   0.687  1.00  0.00    -0.324 N 
ATOM     79  C   UNL     1       4.442   5.235   0.180  1.00  0.00     0.121 C 
BRANCH  78  80
ATOM     80  C   UNL     1       5.998   3.290   0.805  1.00  0.00     0.321 C 
ATOM     81  O   UNL     1       6.119   2.079   1.026  1.00  0.00    -0.248 OA
ATOM     82  N   UNL     1       7.168   3.916   0.546  1.00  0.00    -0.308 N 
ATOM     83  H   UNL     1       7.914   3.300   0.366  1.00  0.00     0.171 HD
BRANCH  82  84
ATOM     84  C   UNL     1       7.526   5.256   0.485  1.00  0.00     0.042 A 
ATOM     85  C   UNL     1       8.393   5.640  -0.538  1.00  0.00     0.026 A 
ATOM     86  C   UNL     1       6.984   6.205   1.341  1.00  0.00     0.026 A 
ATOM     87  C   UNL     1       8.586   6.994  -0.801  1.00  0.00     0.002 A 
ATOM     88  C   UNL     1       7.148   7.553   1.052  1.00  0.00     0.002 A 
ATOM     89  C   UNL     1       7.941   7.951  -0.021  1.00  0.00     0.000 A 
ENDBRANCH  82  84
ENDBRANCH  78  80
ENDBRANCH  72  74
ENDBRANCH  71  72
ENDBRANCH  70  71
ENDBRANCH   1  70
TORSDOF 16
