REMARK SMILES O=C(OCCOC(=O)[C@]1(NC(=O)C2CCN(C(=O)C3CC3)CC2)CCCc2ccccc21)c1ccc(-c2c3nc(c(-c4cccc(S(=O)(=O)[O-])c4F)c4ccc([nH]4)c(-c4cccc(S(=O)(=O)[O-])c4F)c4nc(c(-c5cccc(S(=O)(=O)[O-])c5F)c5ccc2[nH]5)C=C4)C=C3)cc1
REMARK SMILES IDX 4 1 3 2 2 3 1 4 33 5 34 6 95 7 35 8 94 9 36 10 37 11 38 12
REMARK SMILES IDX 88 13 39 14 93 15 87 16 89 17 40 18 92 19 86 20 85 21 41 23
REMARK SMILES IDX 73 24 53 25 72 26 54 27 57 28 71 29 90 30 55 31 56 32 70 34
REMARK SMILES IDX 91 35 58 36 42 37 43 38 51 39 44 40 46 41 52 42 45 43 47 44
REMARK SMILES IDX 48 45 49 46 50 47 74 48 75 49 83 50 76 51 78 52 84 53 77 54
REMARK SMILES IDX 79 55 80 56 81 57 82 58 59 59 60 60 68 61 61 62 63 63 69 64
REMARK SMILES IDX 62 65 64 66 65 67 66 68 67 69 5 70 6 71 7 72 8 73 9 74 24 75
REMARK SMILES IDX 32 76 25 77 27 78 31 79 26 80 28 81 30 82 29 83 10 84 11 85
REMARK SMILES IDX 12 87 13 88 14 89 23 90 15 91 22 92 16 93 17 94 18 95 19 96
REMARK SMILES IDX 20 97 21 98
REMARK H PARENT 89 22 57 33 10 86
REMARK Flexibility Score: inf
ROOT
ATOM      1  C   UNL     1       4.666  -1.549   0.241  1.00  0.00     0.275 C 
ENDROOT
BRANCH   1   2
ATOM      2  O   UNL     1       3.872  -1.245   1.390  1.00  0.00    -0.458 OA
BRANCH   2   3
ATOM      3  C   UNL     1       3.922  -0.112   2.127  1.00  0.00     0.338 C 
ATOM      4  O   UNL     1       3.340  -0.050   3.205  1.00  0.00    -0.246 OA
BRANCH   3   5
ATOM      5  C   UNL     1       4.536   1.120   1.567  1.00  0.00     0.060 A 
ATOM      6  C   UNL     1       5.773   1.186   0.906  1.00  0.00     0.016 A 
ATOM      7  C   UNL     1       3.788   2.288   1.720  1.00  0.00     0.016 A 
ATOM      8  C   UNL     1       6.214   2.372   0.311  1.00  0.00     0.010 A 
ATOM      9  C   UNL     1       4.248   3.479   1.173  1.00  0.00     0.010 A 
ATOM     10  C   UNL     1       5.465   3.533   0.464  1.00  0.00    -0.014 A 
BRANCH  10  11
ATOM     11  C   UNL     1       6.057   4.862   0.175  1.00  0.00     0.031 A 
ATOM     12  C   UNL     1       6.475   5.654   1.381  1.00  0.00     0.074 A 
ATOM     13  C   UNL     1       6.141   5.386  -1.065  1.00  0.00     0.049 A 
ATOM     14  N   UNL     1       6.940   6.868   1.453  1.00  0.00    -0.248 NA
ATOM     15  C   UNL     1       6.328   4.986   2.691  1.00  0.00     0.031 C 
ATOM     16  C   UNL     1       5.764   4.720  -2.313  1.00  0.00     0.029 A 
ATOM     17  N   UNL     1       6.497   6.648  -1.473  1.00  0.00    -0.354 N 
ATOM     18  C   UNL     1       7.152   7.094   2.806  1.00  0.00     0.074 A 
ATOM     19  C   UNL     1       6.633   5.960   3.528  1.00  0.00     0.031 C 
ATOM     20  C   UNL     1       5.766   5.618  -3.317  1.00  0.00     0.029 A 
ATOM     21  C   UNL     1       6.227   6.900  -2.801  1.00  0.00     0.049 A 
ATOM     22  H   UNL     1       6.907   7.311  -0.872  1.00  0.00     0.167 HD
ATOM     23  C   UNL     1       7.822   8.108   3.393  1.00  0.00     0.034 A 
ATOM     24  C   UNL     1       6.359   8.040  -3.511  1.00  0.00     0.034 A 
ATOM     25  C   UNL     1       8.371   9.201   2.654  1.00  0.00     0.049 A 
ATOM     26  C   UNL     1       7.050   9.201  -2.839  1.00  0.00     0.074 A 
ATOM     27  C   UNL     1       9.156  10.242   3.102  1.00  0.00     0.029 A 
ATOM     28  N   UNL     1       8.173   9.390   1.294  1.00  0.00    -0.354 N 
ATOM     29  N   UNL     1       7.441   9.314  -1.591  1.00  0.00    -0.248 NA
ATOM     30  C   UNL     1       7.415  10.343  -3.688  1.00  0.00     0.031 C 
ATOM     31  C   UNL     1       9.416  11.078   2.010  1.00  0.00     0.029 A 
ATOM     32  C   UNL     1       8.815  10.539   0.881  1.00  0.00     0.049 A 
ATOM     33  H   UNL     1       7.652   8.793   0.710  1.00  0.00     0.167 HD
ATOM     34  C   UNL     1       8.174  10.492  -1.525  1.00  0.00     0.074 A 
ATOM     35  C   UNL     1       8.152  11.067  -2.856  1.00  0.00     0.031 C 
ATOM     36  C   UNL     1       8.822  11.043  -0.469  1.00  0.00     0.034 A 
BRANCH  23  37
ATOM     37  C   UNL     1       8.048   7.995   4.875  1.00  0.00     0.023 A 
ATOM     38  C   UNL     1       8.889   6.971   5.369  1.00  0.00     0.012 A 
ATOM     39  C   UNL     1       7.393   8.847   5.778  1.00  0.00     0.148 A 
ATOM     40  C   UNL     1       9.018   6.754   6.738  1.00  0.00     0.002 A 
ATOM     41  C   UNL     1       7.569   8.658   7.143  1.00  0.00     0.091 A 
ATOM     42  F   UNL     1       6.582   9.795   5.289  1.00  0.00    -0.205 F 
ATOM     43  C   UNL     1       8.362   7.601   7.625  1.00  0.00     0.022 A 
BRANCH  41  44
ATOM     44  S   UNL     1       6.824   9.730   8.374  1.00  0.00     0.127 S 
ATOM     45  O   UNL     1       5.894   8.818   9.037  1.00  0.00    -0.237 OA
ATOM     46  O   UNL     1       7.983  10.114   9.180  1.00  0.00    -0.237 OA
ATOM     47  O   UNL     1       6.204  10.822   7.635  1.00  0.00    -0.744 OA
ENDBRANCH  41  44
ENDBRANCH  23  37
BRANCH  24  48
ATOM     48  C   UNL     1       5.978   8.104  -4.953  1.00  0.00     0.023 A 
ATOM     49  C   UNL     1       6.987   8.080  -5.937  1.00  0.00     0.012 A 
ATOM     50  C   UNL     1       4.632   8.215  -5.360  1.00  0.00     0.148 A 
ATOM     51  C   UNL     1       6.672   8.209  -7.291  1.00  0.00     0.002 A 
ATOM     52  C   UNL     1       4.322   8.314  -6.715  1.00  0.00     0.091 A 
ATOM     53  F   UNL     1       3.683   8.234  -4.413  1.00  0.00    -0.205 F 
ATOM     54  C   UNL     1       5.341   8.325  -7.681  1.00  0.00     0.022 A 
BRANCH  52  55
ATOM     55  S   UNL     1       2.635   8.399  -7.333  1.00  0.00     0.127 S 
ATOM     56  O   UNL     1       2.584   9.751  -7.882  1.00  0.00    -0.237 OA
ATOM     57  O   UNL     1       2.626   7.328  -8.329  1.00  0.00    -0.237 OA
ATOM     58  O   UNL     1       1.781   8.158  -6.176  1.00  0.00    -0.744 OA
ENDBRANCH  52  55
ENDBRANCH  24  48
BRANCH  36  59
ATOM     59  C   UNL     1       9.621  12.291  -0.712  1.00  0.00     0.023 A 
ATOM     60  C   UNL     1       8.966  13.521  -0.904  1.00  0.00     0.012 A 
ATOM     61  C   UNL     1      11.027  12.253  -0.621  1.00  0.00     0.148 A 
ATOM     62  C   UNL     1       9.703  14.698  -1.024  1.00  0.00     0.002 A 
ATOM     63  C   UNL     1      11.749  13.436  -0.681  1.00  0.00     0.091 A 
ATOM     64  F   UNL     1      11.626  11.064  -0.458  1.00  0.00    -0.205 F 
ATOM     65  C   UNL     1      11.091  14.657  -0.895  1.00  0.00     0.022 A 
BRANCH  63  66
ATOM     66  S   UNL     1      13.522  13.489  -0.399  1.00  0.00     0.127 S 
ATOM     67  O   UNL     1      14.028  13.764  -1.742  1.00  0.00    -0.237 OA
ATOM     68  O   UNL     1      13.650  14.602   0.543  1.00  0.00    -0.237 OA
ATOM     69  O   UNL     1      13.881  12.189   0.151  1.00  0.00    -0.744 OA
ENDBRANCH  63  66
ENDBRANCH  36  59
ENDBRANCH  10  11
ENDBRANCH   3   5
ENDBRANCH   2   3
ENDBRANCH   1   2
BRANCH   1  70
ATOM     70  C   UNL     1       4.229  -0.930  -1.086  1.00  0.00     0.274 C 
BRANCH  70  71
ATOM     71  O   UNL     1       3.735   0.436  -1.098  1.00  0.00    -0.460 OA
BRANCH  71  72
ATOM     72  C   UNL     1       2.376   0.525  -0.987  1.00  0.00     0.336 C 
ATOM     73  O   UNL     1       1.718  -0.463  -0.649  1.00  0.00    -0.249 OA
BRANCH  72  74
ATOM     74  C   UNL     1       1.689   1.863  -1.554  1.00  0.00     0.164 C 
ATOM     75  C   UNL     1       2.579   2.955  -2.224  1.00  0.00     0.046 C 
ATOM     76  C   UNL     1       0.849   2.443  -0.359  1.00  0.00    -0.008 A 
ATOM     77  C   UNL     1       2.636   4.367  -1.647  1.00  0.00     0.008 C 
ATOM     78  C   UNL     1       0.921   3.799   0.023  1.00  0.00    -0.042 A 
ATOM     79  C   UNL     1       0.163   1.587   0.530  1.00  0.00     0.007 A 
ATOM     80  C   UNL     1       1.405   4.845  -0.930  1.00  0.00     0.036 C 
ATOM     81  C   UNL     1       0.521   4.213   1.312  1.00  0.00     0.004 A 
ATOM     82  C   UNL     1      -0.209   1.996   1.817  1.00  0.00     0.000 A 
ATOM     83  C   UNL     1       0.009   3.302   2.225  1.00  0.00     0.000 A 
BRANCH  74  84
ATOM     84  N   UNL     1       0.831   1.374  -2.699  1.00  0.00    -0.336 N 
ATOM     85  C   UNL     1       1.262   0.828  -3.904  1.00  0.00     0.224 C 
ATOM     86  H   UNL     1      -0.143   1.451  -2.578  1.00  0.00     0.164 HD
ATOM     87  O   UNL     1       0.613   1.054  -4.926  1.00  0.00    -0.275 OA
BRANCH  85  88
ATOM     88  C   UNL     1       2.455  -0.144  -3.957  1.00  0.00     0.082 C 
ATOM     89  C   UNL     1       3.827   0.413  -4.397  1.00  0.00     0.035 C 
ATOM     90  C   UNL     1       2.057  -1.488  -4.586  1.00  0.00     0.035 C 
ATOM     91  C   UNL     1       4.343  -0.055  -5.761  1.00  0.00     0.120 C 
ATOM     92  C   UNL     1       2.578  -1.674  -5.997  1.00  0.00     0.120 C 
ATOM     93  N   UNL     1       4.015  -1.459  -5.994  1.00  0.00    -0.342 N 
ATOM     94  C   UNL     1       5.048  -2.402  -5.988  1.00  0.00     0.225 C 
ATOM     95  O   UNL     1       6.205  -2.066  -5.742  1.00  0.00    -0.275 OA
BRANCH  94  96
ATOM     96  C   UNL     1       4.869  -3.864  -6.270  1.00  0.00     0.079 C 
ATOM     97  C   UNL     1       3.781  -4.731  -5.699  1.00  0.00     0.014 C 
ATOM     98  C   UNL     1       3.853  -4.485  -7.186  1.00  0.00     0.014 C 
ENDBRANCH  94  96
ENDBRANCH  85  88
ENDBRANCH  74  84
ENDBRANCH  72  74
ENDBRANCH  71  72
ENDBRANCH  70  71
ENDBRANCH   1  70
TORSDOF 17
