REMARK SMILES COc1ccc(/C=C/c2cc(OC)cc(OC)c2/C=C/C(=O)OCCOC(=O)c2ccc(-c3c4nc(c(-c5cccc(S(=O)(=O)[O-])c5F)c5ccc([nH]5)c(-c5cccc(S(=O)(=O)[O-])c5F)c5nc(c(-c6cccc(S(=O)(=O)[O-])c6F)c6ccc3[nH]6)C=C5)C=C4)cc2)cc1
REMARK SMILES IDX 24 1 23 2 21 3 22 4 20 5 19 6 18 7 9 8 10 9 11 10 15 11
REMARK SMILES IDX 14 12 8 13 7 14 6 15 3 16 4 17 93 18 5 19 92 20 2 21 1 22
REMARK SMILES IDX 12 23 13 24 16 25 17 26 25 27 26 28 27 29 28 30 29 31 30 32
REMARK SMILES IDX 91 33 31 34 90 35 32 36 33 37 34 38 84 39 35 40 89 41 83 42
REMARK SMILES IDX 85 43 36 44 88 45 82 46 81 47 37 49 69 50 49 51 68 52 50 53
REMARK SMILES IDX 53 54 67 55 86 56 51 57 52 58 66 60 87 61 54 62 38 63 39 64
REMARK SMILES IDX 47 65 40 66 42 67 48 68 41 69 43 70 44 71 45 72 46 73 70 74
REMARK SMILES IDX 71 75 79 76 72 77 74 78 80 79 73 80 75 81 76 82 77 83 78 84
REMARK SMILES IDX 55 85 56 86 64 87 57 88 59 89 65 90 58 91 60 92 61 93 62 94
REMARK SMILES IDX 63 95
REMARK H PARENT 85 48 53 59
REMARK Flexibility Score: inf
ROOT
ATOM      1  C   UNL     1       6.707  -0.207   5.946  1.00  0.00     0.275 C 
ENDROOT
BRANCH   1   2
ATOM      2  O   UNL     1       5.727  -0.966   6.683  1.00  0.00    -0.459 OA
BRANCH   2   3
ATOM      3  C   UNL     1       6.139  -2.171   7.150  1.00  0.00     0.330 C 
ATOM      4  O   UNL     1       7.254  -2.647   7.025  1.00  0.00    -0.247 OA
BRANCH   3   5
ATOM      5  C   UNL     1       5.059  -2.920   7.827  1.00  0.00     0.094 C 
ATOM      6  C   UNL     1       3.859  -2.420   8.157  1.00  0.00     0.020 C 
BRANCH   6   7
ATOM      7  C   UNL     1       2.794  -3.217   8.812  1.00  0.00     0.024 A 
ATOM      8  C   UNL     1       1.491  -3.241   8.266  1.00  0.00    -0.011 A 
ATOM      9  C   UNL     1       0.468  -3.952   8.923  1.00  0.00     0.055 A 
ATOM     10  C   UNL     1       0.704  -4.631  10.120  1.00  0.00     0.123 A 
ATOM     11  C   UNL     1       3.010  -3.924  10.013  1.00  0.00     0.130 A 
ATOM     12  C   UNL     1       1.985  -4.632  10.652  1.00  0.00     0.093 A 
BRANCH   8  13
ATOM     13  C   UNL     1       1.100  -2.509   7.049  1.00  0.00     0.009 C 
ATOM     14  C   UNL     1       1.679  -2.691   5.851  1.00  0.00     0.009 C 
BRANCH  14  15
ATOM     15  C   UNL     1       1.334  -1.917   4.648  1.00  0.00    -0.025 A 
ATOM     16  C   UNL     1       0.755  -0.453   2.309  1.00  0.00     0.118 A 
ATOM     17  C   UNL     1      -0.216  -0.626   3.294  1.00  0.00     0.047 A 
ATOM     18  C   UNL     1       2.022  -1.004   2.494  1.00  0.00     0.047 A 
ATOM     19  C   UNL     1       0.064  -1.366   4.446  1.00  0.00     0.012 A 
ATOM     20  C   UNL     1       2.307  -1.735   3.655  1.00  0.00     0.012 A 
BRANCH  16  21
ATOM     21  O   UNL     1       0.361   0.294   1.234  1.00  0.00    -0.497 OA
ATOM     22  C   UNL     1       1.054   0.036   0.019  1.00  0.00     0.278 C 
ENDBRANCH  16  21
ENDBRANCH  14  15
ENDBRANCH   8  13
BRANCH  10  23
ATOM     23  O   UNL     1      -0.384  -5.263  10.659  1.00  0.00    -0.497 OA
ATOM     24  C   UNL     1      -0.277  -5.626  12.033  1.00  0.00     0.278 C 
ENDBRANCH  10  23
BRANCH  11  25
ATOM     25  O   UNL     1       4.243  -4.041  10.597  1.00  0.00    -0.496 OA
ATOM     26  C   UNL     1       4.650  -2.838  11.240  1.00  0.00     0.278 C 
ENDBRANCH  11  25
ENDBRANCH   6   7
ENDBRANCH   3   5
ENDBRANCH   2   3
ENDBRANCH   1   2
BRANCH   1  27
ATOM     27  C   UNL     1       7.098   1.066   6.692  1.00  0.00     0.275 C 
BRANCH  27  28
ATOM     28  O   UNL     1       7.768   0.745   7.924  1.00  0.00    -0.458 OA
BRANCH  28  29
ATOM     29  C   UNL     1       7.019   0.912   9.036  1.00  0.00     0.338 C 
ATOM     30  O   UNL     1       5.877   1.336   9.108  1.00  0.00    -0.246 OA
BRANCH  29  31
ATOM     31  C   UNL     1       7.744   0.411  10.210  1.00  0.00     0.060 A 
ATOM     32  C   UNL     1       7.601  -0.934  10.528  1.00  0.00     0.016 A 
ATOM     33  C   UNL     1       8.383   1.280  11.093  1.00  0.00     0.016 A 
ATOM     34  C   UNL     1       7.981  -1.389  11.791  1.00  0.00     0.010 A 
ATOM     35  C   UNL     1       8.850   0.794  12.323  1.00  0.00     0.010 A 
ATOM     36  C   UNL     1       8.601  -0.533  12.717  1.00  0.00    -0.014 A 
BRANCH  36  37
ATOM     37  C   UNL     1       8.922  -1.022  14.095  1.00  0.00     0.031 A 
ATOM     38  C   UNL     1       8.374  -0.317  15.317  1.00  0.00     0.074 A 
ATOM     39  C   UNL     1       9.677  -2.128  14.272  1.00  0.00     0.049 A 
ATOM     40  N   UNL     1       8.625  -0.540  16.584  1.00  0.00    -0.248 NA
ATOM     41  C   UNL     1       7.429   0.787  15.087  1.00  0.00     0.031 C 
ATOM     42  C   UNL     1      10.265  -2.931  13.199  1.00  0.00     0.029 A 
ATOM     43  N   UNL     1      10.071  -2.775  15.419  1.00  0.00    -0.354 N 
ATOM     44  C   UNL     1       7.935   0.439  17.293  1.00  0.00     0.074 A 
ATOM     45  C   UNL     1       7.247   1.254  16.315  1.00  0.00     0.031 C 
ATOM     46  C   UNL     1      10.896  -3.988  13.732  1.00  0.00     0.029 A 
ATOM     47  C   UNL     1      10.832  -3.898  15.187  1.00  0.00     0.049 A 
ATOM     48  H   UNL     1       9.831  -2.465  16.322  1.00  0.00     0.167 HD
ATOM     49  C   UNL     1       7.861   0.636  18.633  1.00  0.00     0.034 A 
ATOM     50  C   UNL     1      11.437  -4.751  16.038  1.00  0.00     0.034 A 
ATOM     51  C   UNL     1       8.467  -0.220  19.619  1.00  0.00     0.049 A 
ATOM     52  C   UNL     1      11.326  -4.520  17.519  1.00  0.00     0.074 A 
ATOM     53  C   UNL     1       8.421  -0.110  21.000  1.00  0.00     0.029 A 
ATOM     54  N   UNL     1       9.210  -1.355  19.337  1.00  0.00    -0.354 N 
ATOM     55  N   UNL     1      10.646  -3.604  18.164  1.00  0.00    -0.248 NA
ATOM     56  C   UNL     1      12.063  -5.447  18.390  1.00  0.00     0.031 C 
ATOM     57  C   UNL     1       9.137  -1.179  21.551  1.00  0.00     0.029 A 
ATOM     58  C   UNL     1       9.622  -1.959  20.515  1.00  0.00     0.049 A 
ATOM     59  H   UNL     1       9.416  -1.684  18.432  1.00  0.00     0.167 HD
ATOM     60  C   UNL     1      10.859  -3.854  19.515  1.00  0.00     0.074 A 
ATOM     61  C   UNL     1      11.704  -5.028  19.596  1.00  0.00     0.031 C 
ATOM     62  C   UNL     1      10.417  -3.156  20.590  1.00  0.00     0.034 A 
BRANCH  49  63
ATOM     63  C   UNL     1       7.058   1.815  19.123  1.00  0.00     0.023 A 
ATOM     64  C   UNL     1       5.650   1.760  19.097  1.00  0.00     0.012 A 
ATOM     65  C   UNL     1       7.694   2.953  19.659  1.00  0.00     0.148 A 
ATOM     66  C   UNL     1       4.889   2.831  19.566  1.00  0.00     0.002 A 
ATOM     67  C   UNL     1       6.928   4.000  20.161  1.00  0.00     0.091 A 
ATOM     68  F   UNL     1       9.034   3.000  19.655  1.00  0.00    -0.205 F 
ATOM     69  C   UNL     1       5.527   3.945  20.107  1.00  0.00     0.022 A 
BRANCH  67  70
ATOM     70  S   UNL     1       7.671   5.436  20.945  1.00  0.00     0.127 S 
ATOM     71  O   UNL     1       7.624   6.421  19.866  1.00  0.00    -0.237 OA
ATOM     72  O   UNL     1       6.750   5.703  22.052  1.00  0.00    -0.237 OA
ATOM     73  O   UNL     1       9.001   5.013  21.360  1.00  0.00    -0.744 OA
ENDBRANCH  67  70
ENDBRANCH  49  63
BRANCH  50  74
ATOM     74  C   UNL     1      12.176  -5.931  15.505  1.00  0.00     0.023 A 
ATOM     75  C   UNL     1      11.656  -7.222  15.719  1.00  0.00     0.012 A 
ATOM     76  C   UNL     1      13.356  -5.782  14.752  1.00  0.00     0.148 A 
ATOM     77  C   UNL     1      12.307  -8.345  15.205  1.00  0.00     0.002 A 
ATOM     78  C   UNL     1      13.964  -6.899  14.189  1.00  0.00     0.091 A 
ATOM     79  F   UNL     1      13.854  -4.549  14.584  1.00  0.00    -0.205 F 
ATOM     80  C   UNL     1      13.450  -8.182  14.427  1.00  0.00     0.022 A 
BRANCH  78  81
ATOM     81  S   UNL     1      15.348  -6.758  13.053  1.00  0.00     0.127 S 
ATOM     82  O   UNL     1      16.469  -7.170  13.893  1.00  0.00    -0.237 OA
ATOM     83  O   UNL     1      14.981  -7.710  12.003  1.00  0.00    -0.237 OA
ATOM     84  O   UNL     1      15.352  -5.367  12.619  1.00  0.00    -0.744 OA
ENDBRANCH  78  81
ENDBRANCH  50  74
BRANCH  62  85
ATOM     85  C   UNL     1      10.824  -3.654  21.952  1.00  0.00     0.023 A 
ATOM     86  C   UNL     1      12.147  -3.457  22.396  1.00  0.00     0.012 A 
ATOM     87  C   UNL     1       9.893  -4.272  22.809  1.00  0.00     0.148 A 
ATOM     88  C   UNL     1      12.546  -3.898  23.657  1.00  0.00     0.002 A 
ATOM     89  C   UNL     1      10.288  -4.674  24.081  1.00  0.00     0.091 A 
ATOM     90  F   UNL     1       8.645  -4.475  22.363  1.00  0.00    -0.205 F 
ATOM     91  C   UNL     1      11.616  -4.497  24.502  1.00  0.00     0.022 A 
BRANCH  89  92
ATOM     92  S   UNL     1       9.128  -5.380  25.258  1.00  0.00     0.127 S 
ATOM     93  O   UNL     1       9.395  -6.810  25.121  1.00  0.00    -0.237 OA
ATOM     94  O   UNL     1       9.569  -4.797  26.526  1.00  0.00    -0.237 OA
ATOM     95  O   UNL     1       7.810  -4.936  24.822  1.00  0.00    -0.744 OA
ENDBRANCH  89  92
ENDBRANCH  62  85
ENDBRANCH  36  37
ENDBRANCH  29  31
ENDBRANCH  28  29
ENDBRANCH  27  28
ENDBRANCH   1  27
TORSDOF 20
