REMARK SMILES CCn1ccc2ccc(C[NH+]3CCC4(CC3)C[C@H](C(=O)OCCOC(=O)c3ccc(-c5c6nc(c(-c7cccc(S(=O)(=O)[O-])c7F)c7ccc([nH]7)c(-c7cccc(S(=O)(=O)[O-])c7F)c7nc(c(-c8cccc(S(=O)(=O)[O-])c8F)c8ccc5[nH]8)C=C7)C=C6)cc3)N(C(C)=O)C4)cc21
REMARK SMILES IDX 22 1 21 2 19 3 20 4 18 5 11 6 12 7 16 8 13 10 15 11 14 12
REMARK SMILES IDX 17 13 94 14 90 15 10 16 9 17 3 18 4 19 96 20 5 21 6 22 95 23
REMARK SMILES IDX 7 24 8 25 2 26 1 27 91 28 92 29 93 30 23 31 24 32 25 33
REMARK SMILES IDX 26 34 27 35 28 36 89 37 29 38 88 39 30 40 31 41 32 42 82 43
REMARK SMILES IDX 33 44 87 45 81 46 83 47 34 48 86 49 80 50 79 51 35 53 67 54
REMARK SMILES IDX 47 55 66 56 48 57 51 58 65 59 84 60 49 61 50 62 64 64 85 65
REMARK SMILES IDX 52 66 36 67 37 68 45 69 38 70 40 71 46 72 39 73 41 74 42 75
REMARK SMILES IDX 43 76 44 77 68 78 69 79 77 80 70 81 72 82 78 83 71 84 73 85
REMARK SMILES IDX 74 86 75 87 76 88 53 89 54 90 62 91 55 92 57 93 63 94 56 95
REMARK SMILES IDX 58 96 59 97 60 98 61 99
REMARK H PARENT 11 9 83 52 51 63
REMARK Flexibility Score: inf
ROOT
ATOM      1  C   UNL     1       5.228   6.438   1.860  1.00  0.00     0.274 C 
ENDROOT
BRANCH   1   2
ATOM      2  O   UNL     1       4.185   5.751   1.152  1.00  0.00    -0.461 OA
BRANCH   2   3
ATOM      3  C   UNL     1       4.570   5.249  -0.053  1.00  0.00     0.328 C 
ATOM      4  O   UNL     1       4.991   5.933  -0.990  1.00  0.00    -0.250 OA
BRANCH   3   5
ATOM      5  C   UNL     1       4.526   3.744   0.029  1.00  0.00     0.195 C 
ATOM      6  N   UNL     1       2.764  -0.064  -3.520  1.00  0.00    -0.331 N 
ATOM      7  C   UNL     1       3.907   0.775  -3.680  1.00  0.00     0.263 C 
ATOM      8  C   UNL     1       2.626  -0.500  -2.149  1.00  0.00     0.263 C 
ATOM      9  H   UNL     1       2.914  -0.958  -3.987  1.00  0.00     0.348 HD
ATOM     10  C   UNL     1       3.958   2.079  -2.910  1.00  0.00     0.070 C 
ATOM     11  C   UNL     1       2.786   0.640  -1.118  1.00  0.00     0.070 C 
ATOM     12  C   UNL     1       3.708   1.860  -1.420  1.00  0.00     0.001 C 
ATOM     13  C   UNL     1       3.283   3.155  -0.667  1.00  0.00     0.046 C 
ATOM     14  C   UNL     1       5.054   1.680  -0.794  1.00  0.00     0.128 C 
ATOM     15  N   UNL     1       5.607   3.001  -0.559  1.00  0.00    -0.329 N 
BRANCH   6  16
ATOM     16  C   UNL     1       1.627   0.182  -4.391  1.00  0.00     0.299 C 
BRANCH  16  17
ATOM     17  C   UNL     1       0.918   1.468  -4.032  1.00  0.00     0.008 A 
ATOM     18  N   UNL     1      -0.203   2.818  -0.769  1.00  0.00    -0.348 N 
ATOM     19  C   UNL     1      -0.011   4.158  -0.481  1.00  0.00     0.087 A 
ATOM     20  C   UNL     1       0.085   2.611  -2.108  1.00  0.00     0.048 A 
ATOM     21  C   UNL     1       0.428   4.800  -1.614  1.00  0.00     0.028 A 
ATOM     22  C   UNL     1       0.538   3.828  -2.642  1.00  0.00    -0.000 A 
ATOM     23  C   UNL     1       0.130   1.443  -2.871  1.00  0.00     0.036 A 
ATOM     24  C   UNL     1       1.076   3.872  -3.949  1.00  0.00     0.011 A 
ATOM     25  C   UNL     1       1.298   2.672  -4.627  1.00  0.00     0.010 A 
BRANCH  18  26
ATOM     26  C   UNL     1      -0.650   1.879   0.255  1.00  0.00     0.119 C 
ATOM     27  C   UNL     1      -0.118   0.451   0.389  1.00  0.00     0.027 C 
ENDBRANCH  18  26
ENDBRANCH  16  17
ENDBRANCH   6  16
BRANCH  15  28
ATOM     28  C   UNL     1       6.926   3.351  -0.735  1.00  0.00     0.220 C 
ATOM     29  C   UNL     1       7.521   4.566  -0.108  1.00  0.00     0.114 C 
ATOM     30  O   UNL     1       7.737   2.700  -1.387  1.00  0.00    -0.275 OA
ENDBRANCH  15  28
ENDBRANCH   3   5
ENDBRANCH   2   3
ENDBRANCH   1   2
BRANCH   1  31
ATOM     31  C   UNL     1       5.620   5.634   3.126  1.00  0.00     0.275 C 
BRANCH  31  32
ATOM     32  O   UNL     1       6.418   4.447   2.826  1.00  0.00    -0.458 OA
BRANCH  32  33
ATOM     33  C   UNL     1       6.030   3.236   3.330  1.00  0.00     0.338 C 
ATOM     34  O   UNL     1       5.088   3.074   4.091  1.00  0.00    -0.246 OA
BRANCH  33  35
ATOM     35  C   UNL     1       6.731   2.098   2.624  1.00  0.00     0.060 A 
ATOM     36  C   UNL     1       7.993   2.188   2.027  1.00  0.00     0.016 A 
ATOM     37  C   UNL     1       5.994   0.945   2.372  1.00  0.00     0.016 A 
ATOM     38  C   UNL     1       8.350   1.326   0.945  1.00  0.00     0.010 A 
ATOM     39  C   UNL     1       6.366   0.094   1.309  1.00  0.00     0.010 A 
ATOM     40  C   UNL     1       7.434   0.400   0.430  1.00  0.00    -0.014 A 
BRANCH  40  41
ATOM     41  C   UNL     1       7.551  -0.450  -0.851  1.00  0.00     0.031 A 
ATOM     42  C   UNL     1       8.294  -1.622  -0.430  1.00  0.00     0.074 A 
ATOM     43  C   UNL     1       7.315  -0.411  -2.223  1.00  0.00     0.049 A 
ATOM     44  N   UNL     1       9.587  -1.602  -0.453  1.00  0.00    -0.248 NA
ATOM     45  C   UNL     1       7.694  -2.694   0.356  1.00  0.00     0.031 C 
ATOM     46  C   UNL     1       7.098   0.702  -3.158  1.00  0.00     0.029 A 
ATOM     47  N   UNL     1       7.051  -1.491  -3.108  1.00  0.00    -0.354 N 
ATOM     48  C   UNL     1       9.912  -2.869  -0.067  1.00  0.00     0.074 A 
ATOM     49  C   UNL     1       8.806  -3.333   0.740  1.00  0.00     0.031 C 
ATOM     50  C   UNL     1       6.630   0.281  -4.351  1.00  0.00     0.029 A 
ATOM     51  C   UNL     1       6.322  -1.151  -4.290  1.00  0.00     0.049 A 
ATOM     52  H   UNL     1       7.350  -2.410  -2.920  1.00  0.00     0.167 HD
ATOM     53  C   UNL     1      10.774  -3.565  -0.846  1.00  0.00     0.034 A 
ATOM     54  C   UNL     1       6.086  -1.759  -5.498  1.00  0.00     0.034 A 
ATOM     55  C   UNL     1      11.459  -2.733  -1.819  1.00  0.00     0.049 A 
ATOM     56  C   UNL     1       7.383  -2.329  -5.873  1.00  0.00     0.074 A 
ATOM     57  C   UNL     1      12.200  -1.567  -1.783  1.00  0.00     0.029 A 
ATOM     58  N   UNL     1      11.071  -2.902  -3.126  1.00  0.00    -0.354 N 
ATOM     59  N   UNL     1       8.409  -1.625  -6.242  1.00  0.00    -0.248 NA
ATOM     60  C   UNL     1       7.642  -3.671  -5.393  1.00  0.00     0.031 C 
ATOM     61  C   UNL     1      11.996  -0.919  -3.035  1.00  0.00     0.029 A 
ATOM     62  C   UNL     1      11.184  -1.728  -3.823  1.00  0.00     0.049 A 
ATOM     63  H   UNL     1      10.755  -3.751  -3.510  1.00  0.00     0.167 HD
ATOM     64  C   UNL     1       9.439  -2.209  -5.524  1.00  0.00     0.074 A 
ATOM     65  C   UNL     1       8.942  -3.531  -5.141  1.00  0.00     0.031 C 
ATOM     66  C   UNL     1      10.448  -1.437  -5.034  1.00  0.00     0.034 A 
BRANCH  53  67
ATOM     67  C   UNL     1      10.643  -5.044  -1.005  1.00  0.00     0.023 A 
ATOM     68  C   UNL     1      11.794  -5.749  -1.378  1.00  0.00     0.012 A 
ATOM     69  C   UNL     1       9.413  -5.743  -0.991  1.00  0.00     0.148 A 
ATOM     70  C   UNL     1      11.728  -7.108  -1.684  1.00  0.00     0.002 A 
ATOM     71  C   UNL     1       9.370  -7.111  -1.183  1.00  0.00     0.091 A 
ATOM     72  F   UNL     1       8.258  -5.070  -0.931  1.00  0.00    -0.205 F 
ATOM     73  C   UNL     1      10.525  -7.797  -1.552  1.00  0.00     0.022 A 
BRANCH  71  74
ATOM     74  S   UNL     1       7.851  -8.038  -0.954  1.00  0.00     0.127 S 
ATOM     75  O   UNL     1       7.489  -8.348  -2.333  1.00  0.00    -0.237 OA
ATOM     76  O   UNL     1       8.315  -9.176  -0.160  1.00  0.00    -0.237 OA
ATOM     77  O   UNL     1       6.954  -7.141  -0.235  1.00  0.00    -0.744 OA
ENDBRANCH  71  74
ENDBRANCH  53  67
BRANCH  54  78
ATOM     78  C   UNL     1       4.838  -2.383  -6.089  1.00  0.00     0.023 A 
ATOM     79  C   UNL     1       4.869  -2.733  -7.467  1.00  0.00     0.012 A 
ATOM     80  C   UNL     1       3.673  -2.743  -5.374  1.00  0.00     0.148 A 
ATOM     81  C   UNL     1       3.817  -3.423  -8.092  1.00  0.00     0.002 A 
ATOM     82  C   UNL     1       2.587  -3.359  -6.022  1.00  0.00     0.091 A 
ATOM     83  F   UNL     1       3.669  -2.587  -4.047  1.00  0.00    -0.205 F 
ATOM     84  C   UNL     1       2.670  -3.721  -7.374  1.00  0.00     0.022 A 
BRANCH  82  85
ATOM     85  S   UNL     1       0.997  -3.708  -5.234  1.00  0.00     0.127 S 
ATOM     86  O   UNL     1       0.053  -3.117  -6.187  1.00  0.00    -0.237 OA
ATOM     87  O   UNL     1       0.979  -5.168  -5.197  1.00  0.00    -0.237 OA
ATOM     88  O   UNL     1       1.022  -3.050  -3.936  1.00  0.00    -0.744 OA
ENDBRANCH  82  85
ENDBRANCH  54  78
BRANCH  66  89
ATOM     89  C   UNL     1      10.651  -0.071  -5.650  1.00  0.00     0.023 A 
ATOM     90  C   UNL     1       9.903   1.048  -5.241  1.00  0.00     0.012 A 
ATOM     91  C   UNL     1      11.732   0.136  -6.513  1.00  0.00     0.148 A 
ATOM     92  C   UNL     1      10.175   2.337  -5.708  1.00  0.00     0.002 A 
ATOM     93  C   UNL     1      12.059   1.429  -6.916  1.00  0.00     0.091 A 
ATOM     94  F   UNL     1      12.456  -0.930  -6.882  1.00  0.00    -0.205 F 
ATOM     95  C   UNL     1      11.268   2.529  -6.539  1.00  0.00     0.022 A 
BRANCH  93  96
ATOM     96  S   UNL     1      13.590   1.792  -7.775  1.00  0.00     0.127 S 
ATOM     97  O   UNL     1      13.115   2.224  -9.087  1.00  0.00    -0.237 OA
ATOM     98  O   UNL     1      14.160   2.859  -6.949  1.00  0.00    -0.237 OA
ATOM     99  O   UNL     1      14.360   0.554  -7.765  1.00  0.00    -0.744 OA
ENDBRANCH  93  96
ENDBRANCH  66  89
ENDBRANCH  40  41
ENDBRANCH  33  35
ENDBRANCH  32  33
ENDBRANCH  31  32
ENDBRANCH   1  31
TORSDOF 18
