REMARK SMILES O=C(CCc1cn(-c2ccc(Br)cc2)nc1-c1ccccc1)OCCOC(=O)c1ccc(-c2c3nc(c(-c4cccc(S(=O)(=O)[O-])c4F)c4ccc([nH]4)c(-c4cccc(S(=O)(=O)[O-])c4F)c4nc(c(-c5cccc(S(=O)(=O)[O-])c5F)c5ccc2[nH]5)C=C4)C=C3)cc1
REMARK SMILES IDX 24 1 23 2 2 3 1 4 3 5 4 6 5 7 6 8 16 9 7 10 15 11 17 12
REMARK SMILES IDX 18 13 22 14 19 15 21 16 20 17 8 18 9 19 14 20 10 21 13 22
REMARK SMILES IDX 11 23 12 24 25 25 26 26 27 27 28 28 29 29 30 30 91 31 31 32
REMARK SMILES IDX 90 33 32 34 33 35 34 36 84 37 35 38 89 39 83 40 85 41 36 42
REMARK SMILES IDX 88 43 82 44 81 45 37 47 69 48 49 49 68 50 50 51 53 52 67 53
REMARK SMILES IDX 86 54 51 55 52 56 66 58 87 59 54 60 38 61 39 62 47 63 40 64
REMARK SMILES IDX 42 65 48 66 41 67 43 68 44 69 45 70 46 71 70 72 71 73 79 74
REMARK SMILES IDX 72 75 74 76 80 77 73 78 75 79 76 80 77 81 78 82 55 83 56 84
REMARK SMILES IDX 64 85 57 86 59 87 65 88 58 89 60 90 61 91 62 92 63 93
REMARK H PARENT 85 46 53 57
REMARK Flexibility Score: inf
ROOT
ATOM      1  C   UNL     1       3.814   1.306   0.746  1.00  0.00     0.274 C 
ENDROOT
BRANCH   1   2
ATOM      2  O   UNL     1       2.496   1.090   0.212  1.00  0.00    -0.462 OA
BRANCH   2   3
ATOM      3  C   UNL     1       2.139   0.104  -0.639  1.00  0.00     0.306 C 
ATOM      4  O   UNL     1       1.079   0.178  -1.260  1.00  0.00    -0.252 OA
BRANCH   3   5
ATOM      5  C   UNL     1       3.068  -1.063  -0.857  1.00  0.00     0.127 C 
BRANCH   5   6
ATOM      6  C   UNL     1       3.823  -0.922  -2.177  1.00  0.00     0.051 C 
BRANCH   6   7
ATOM      7  C   UNL     1       4.913   0.106  -2.128  1.00  0.00    -0.001 A 
ATOM      8  C   UNL     1       4.750   1.478  -2.197  1.00  0.00     0.119 A 
ATOM      9  C   UNL     1       6.317  -0.068  -1.898  1.00  0.00     0.096 A 
ATOM     10  N   UNL     1       5.972   2.045  -1.940  1.00  0.00    -0.240 N 
ATOM     11  N   UNL     1       6.948   1.120  -1.849  1.00  0.00    -0.168 NA
BRANCH   9  12
ATOM     12  C   UNL     1       7.044  -1.323  -1.694  1.00  0.00     0.002 A 
ATOM     13  C   UNL     1       7.830  -1.515  -0.549  1.00  0.00     0.010 A 
ATOM     14  C   UNL     1       6.953  -2.360  -2.634  1.00  0.00     0.010 A 
ATOM     15  C   UNL     1       8.506  -2.724  -0.348  1.00  0.00     0.001 A 
ATOM     16  C   UNL     1       7.628  -3.567  -2.431  1.00  0.00     0.001 A 
ATOM     17  C   UNL     1       8.404  -3.748  -1.288  1.00  0.00     0.000 A 
ENDBRANCH   9  12
BRANCH  10  18
ATOM     18  C   UNL     1       6.235   3.426  -1.783  1.00  0.00     0.065 A 
ATOM     19  C   UNL     1       5.654   4.161  -0.742  1.00  0.00     0.029 A 
ATOM     20  C   UNL     1       7.048   4.070  -2.712  1.00  0.00     0.029 A 
ATOM     21  C   UNL     1       5.852   5.537  -0.638  1.00  0.00     0.018 A 
ATOM     22  C   UNL     1       7.221   5.456  -2.627  1.00  0.00     0.018 A 
ATOM     23  C   UNL     1       6.621   6.183  -1.595  1.00  0.00     0.018 A 
ATOM     24  Br  UNL     1       6.849   8.055  -1.487  1.00  0.00    -0.051 Br
ENDBRANCH  10  18
ENDBRANCH   6   7
ENDBRANCH   5   6
ENDBRANCH   3   5
ENDBRANCH   2   3
ENDBRANCH   1   2
BRANCH   1  25
ATOM     25  C   UNL     1       3.902   1.253   2.251  1.00  0.00     0.275 C 
BRANCH  25  26
ATOM     26  O   UNL     1       3.811  -0.105   2.615  1.00  0.00    -0.458 OA
BRANCH  26  27
ATOM     27  C   UNL     1       2.567  -0.640   2.549  1.00  0.00     0.338 C 
ATOM     28  O   UNL     1       1.517  -0.080   2.382  1.00  0.00    -0.246 OA
BRANCH  27  29
ATOM     29  C   UNL     1       2.748  -2.046   2.905  1.00  0.00     0.060 A 
ATOM     30  C   UNL     1       1.700  -2.567   3.654  1.00  0.00     0.016 A 
ATOM     31  C   UNL     1       4.051  -2.571   2.914  1.00  0.00     0.016 A 
ATOM     32  C   UNL     1       2.037  -3.418   4.669  1.00  0.00     0.010 A 
ATOM     33  C   UNL     1       4.394  -3.368   3.966  1.00  0.00     0.010 A 
ATOM     34  C   UNL     1       3.392  -3.712   4.867  1.00  0.00    -0.014 A 
BRANCH  34  35
ATOM     35  C   UNL     1       3.718  -4.589   5.956  1.00  0.00     0.031 A 
ATOM     36  C   UNL     1       3.459  -5.986   5.569  1.00  0.00     0.074 A 
ATOM     37  C   UNL     1       4.255  -4.156   7.106  1.00  0.00     0.049 A 
ATOM     38  N   UNL     1       2.420  -6.692   5.871  1.00  0.00    -0.248 NA
ATOM     39  C   UNL     1       4.272  -6.544   4.476  1.00  0.00     0.031 C 
ATOM     40  C   UNL     1       4.805  -2.832   7.401  1.00  0.00     0.029 A 
ATOM     41  N   UNL     1       4.558  -4.878   8.213  1.00  0.00    -0.354 N 
ATOM     42  C   UNL     1       2.641  -7.903   5.228  1.00  0.00     0.074 A 
ATOM     43  C   UNL     1       3.549  -7.617   4.157  1.00  0.00     0.031 C 
ATOM     44  C   UNL     1       5.594  -2.927   8.496  1.00  0.00     0.029 A 
ATOM     45  C   UNL     1       5.510  -4.279   9.025  1.00  0.00     0.049 A 
ATOM     46  H   UNL     1       4.142  -5.746   8.420  1.00  0.00     0.167 HD
ATOM     47  C   UNL     1       2.415  -9.069   5.892  1.00  0.00     0.034 A 
ATOM     48  C   UNL     1       6.245  -4.908   9.975  1.00  0.00     0.034 A 
ATOM     49  C   UNL     1       1.542  -8.842   7.028  1.00  0.00     0.049 A 
ATOM     50  C   UNL     1       5.550  -6.179  10.301  1.00  0.00     0.074 A 
ATOM     51  C   UNL     1       0.298  -8.268   7.209  1.00  0.00     0.029 A 
ATOM     52  N   UNL     1       2.132  -8.868   8.270  1.00  0.00    -0.354 N 
ATOM     53  N   UNL     1       4.396  -6.239  10.904  1.00  0.00    -0.248 NA
ATOM     54  C   UNL     1       5.933  -7.379   9.571  1.00  0.00     0.031 C 
ATOM     55  C   UNL     1       0.369  -7.602   8.469  1.00  0.00     0.029 A 
ATOM     56  C   UNL     1       1.623  -7.853   9.028  1.00  0.00     0.049 A 
ATOM     57  H   UNL     1       2.813  -9.514   8.565  1.00  0.00     0.167 HD
ATOM     58  C   UNL     1       3.717  -7.259  10.249  1.00  0.00     0.074 A 
ATOM     59  C   UNL     1       4.754  -8.006   9.540  1.00  0.00     0.031 C 
ATOM     60  C   UNL     1       2.360  -7.208  10.094  1.00  0.00     0.034 A 
BRANCH  47  61
ATOM     61  C   UNL     1       3.362 -10.265   5.849  1.00  0.00     0.023 A 
ATOM     62  C   UNL     1       2.994 -11.370   6.649  1.00  0.00     0.012 A 
ATOM     63  C   UNL     1       4.691 -10.264   5.356  1.00  0.00     0.148 A 
ATOM     64  C   UNL     1       3.929 -12.327   7.057  1.00  0.00     0.002 A 
ATOM     65  C   UNL     1       5.607 -11.238   5.728  1.00  0.00     0.091 A 
ATOM     66  F   UNL     1       5.135  -9.288   4.571  1.00  0.00    -0.205 F 
ATOM     67  C   UNL     1       5.242 -12.251   6.612  1.00  0.00     0.022 A 
BRANCH  65  68
ATOM     68  S   UNL     1       7.318 -11.193   5.162  1.00  0.00     0.127 S 
ATOM     69  O   UNL     1       8.028 -10.954   6.416  1.00  0.00    -0.237 OA
ATOM     70  O   UNL     1       7.474 -12.535   4.602  1.00  0.00    -0.237 OA
ATOM     71  O   UNL     1       7.396 -10.118   4.181  1.00  0.00    -0.744 OA
ENDBRANCH  65  68
ENDBRANCH  47  61
BRANCH  48  72
ATOM     72  C   UNL     1       7.631  -4.643  10.427  1.00  0.00     0.023 A 
ATOM     73  C   UNL     1       8.080  -5.209  11.638  1.00  0.00     0.012 A 
ATOM     74  C   UNL     1       8.595  -4.077   9.563  1.00  0.00     0.148 A 
ATOM     75  C   UNL     1       9.441  -5.243  11.960  1.00  0.00     0.002 A 
ATOM     76  C   UNL     1       9.946  -4.097   9.894  1.00  0.00     0.091 A 
ATOM     77  F   UNL     1       8.203  -3.604   8.373  1.00  0.00    -0.205 F 
ATOM     78  C   UNL     1      10.375  -4.693  11.086  1.00  0.00     0.022 A 
BRANCH  76  79
ATOM     79  S   UNL     1      11.206  -3.414   8.807  1.00  0.00     0.127 S 
ATOM     80  O   UNL     1      12.010  -2.620   9.737  1.00  0.00    -0.237 OA
ATOM     81  O   UNL     1      11.860  -4.618   8.305  1.00  0.00    -0.237 OA
ATOM     82  O   UNL     1      10.488  -2.622   7.815  1.00  0.00    -0.744 OA
ENDBRANCH  76  79
ENDBRANCH  48  72
BRANCH  60  83
ATOM     83  C   UNL     1       1.589  -6.231  10.944  1.00  0.00     0.023 A 
ATOM     84  C   UNL     1       1.770  -4.835  10.863  1.00  0.00     0.012 A 
ATOM     85  C   UNL     1       0.547  -6.737  11.740  1.00  0.00     0.148 A 
ATOM     86  C   UNL     1       0.948  -3.966  11.586  1.00  0.00     0.002 A 
ATOM     87  C   UNL     1      -0.297  -5.869  12.418  1.00  0.00     0.091 A 
ATOM     88  F   UNL     1       0.389  -8.068  11.807  1.00  0.00    -0.205 F 
ATOM     89  C   UNL     1      -0.095  -4.482  12.354  1.00  0.00     0.022 A 
BRANCH  87  90
ATOM     90  S   UNL     1      -1.725  -6.477  13.318  1.00  0.00     0.127 S 
ATOM     91  O   UNL     1      -1.260  -6.423  14.702  1.00  0.00    -0.237 OA
ATOM     92  O   UNL     1      -2.755  -5.493  12.980  1.00  0.00    -0.237 OA
ATOM     93  O   UNL     1      -1.987  -7.811  12.792  1.00  0.00    -0.744 OA
ENDBRANCH  87  90
ENDBRANCH  60  83
ENDBRANCH  34  35
ENDBRANCH  27  29
ENDBRANCH  26  27
ENDBRANCH  25  26
ENDBRANCH   1  25
TORSDOF 18
