REMARK SMILES Cc1nn([C@H]2CCS(=O)(=O)C2)c(C)c1/C=C(\CC(=O)OCCOC(=O)c1ccc(-c2c3nc(c(-c4cccc(S(=O)(=O)[O-])c4F)c4ccc([nH]4)c(-c4cccc(S(=O)(=O)[O-])c4F)c4nc(c(-c5cccc(S(=O)(=O)[O-])c5F)c5ccc2[nH]5)C=C4)C=C3)cc1)c1nc2ccccc2s1
REMARK SMILES IDX 21 1 20 2 18 3 19 4 17 5 16 6 15 7 14 8 1 9 2 10 3 11 4 12
REMARK SMILES IDX 12 13 13 14 5 15 6 16 11 17 7 18 8 19 9 20 10 21 89 22 90 23
REMARK SMILES IDX 97 24 91 25 96 26 92 27 95 28 93 29 94 30 22 31 23 32 24 33
REMARK SMILES IDX 25 34 26 35 27 36 88 37 28 38 87 39 29 40 30 41 31 42 81 43
REMARK SMILES IDX 32 44 86 45 80 46 82 47 33 48 85 49 79 50 78 51 34 53 66 54
REMARK SMILES IDX 46 55 65 56 47 57 50 58 64 59 83 60 48 61 49 62 63 64 84 65
REMARK SMILES IDX 51 66 35 67 36 68 44 69 37 70 39 71 45 72 38 73 40 74 41 75
REMARK SMILES IDX 42 76 43 77 67 78 68 79 76 80 69 81 71 82 77 83 70 84 72 85
REMARK SMILES IDX 73 86 74 87 75 88 52 89 53 90 61 91 54 92 56 93 62 94 55 95
REMARK SMILES IDX 57 96 58 97 59 98 60 99
REMARK H PARENT 82 52 50 63
REMARK Flexibility Score: inf
ROOT
ATOM      1  C   UNL     1      -3.102   7.836   7.924  1.00  0.00     0.274 C 
ENDROOT
BRANCH   1   2
ATOM      2  O   UNL     1      -2.979   6.401   7.770  1.00  0.00    -0.462 OA
BRANCH   2   3
ATOM      3  C   UNL     1      -1.738   5.996   7.423  1.00  0.00     0.310 C 
ATOM      4  O   UNL     1      -0.870   6.755   6.984  1.00  0.00    -0.252 OA
BRANCH   3   5
ATOM      5  C   UNL     1      -1.381   4.539   7.659  1.00  0.00     0.161 C 
BRANCH   5   6
ATOM      6  C   UNL     1      -2.282   3.360   7.988  1.00  0.00    -0.000 C 
ATOM      7  C   UNL     1      -2.677   2.455   7.056  1.00  0.00     0.019 C 
BRANCH   7   8
ATOM      8  C   UNL     1      -2.481   2.556   5.643  1.00  0.00     0.019 A 
ATOM      9  C   UNL     1      -4.747   1.597   4.789  1.00  0.00     0.069 C 
ATOM     10  C   UNL     1      -3.437   2.279   4.638  1.00  0.00     0.067 A 
ATOM     11  N   UNL     1      -3.012   2.711   3.442  1.00  0.00    -0.177 NA
ATOM     12  N   UNL     1      -1.801   3.251   3.710  1.00  0.00    -0.265 N 
ATOM     13  C   UNL     1      -1.322   2.836   4.931  1.00  0.00     0.043 A 
ATOM     14  C   UNL     1       0.123   2.788   5.298  1.00  0.00     0.067 C 
BRANCH  12  15
ATOM     15  C   UNL     1      -1.198   4.150   2.737  1.00  0.00     0.123 C 
ATOM     16  C   UNL     1      -2.245   5.020   2.002  1.00  0.00     0.044 C 
ATOM     17  C   UNL     1      -0.226   5.182   3.317  1.00  0.00     0.164 C 
ATOM     18  C   UNL     1      -1.481   6.001   1.125  1.00  0.00     0.139 C 
ATOM     19  S   UNL     1       0.040   6.328   1.987  1.00  0.00     0.152 S 
ATOM     20  O   UNL     1       1.131   5.829   1.176  1.00  0.00    -0.229 OA
ATOM     21  O   UNL     1       0.013   7.681   2.499  1.00  0.00    -0.229 OA
ENDBRANCH  12  15
ENDBRANCH   7   8
BRANCH   6  22
ATOM     22  C   UNL     1      -2.539   3.006   9.362  1.00  0.00     0.121 A 
ATOM     23  N   UNL     1      -3.458   3.516  10.155  1.00  0.00    -0.236 NA
ATOM     24  S   UNL     1      -1.472   1.892  10.163  1.00  0.00    -0.114 S 
ATOM     25  C   UNL     1      -3.054   3.377  11.479  1.00  0.00     0.082 A 
ATOM     26  C   UNL     1      -1.978   2.512  11.686  1.00  0.00     0.055 A 
ATOM     27  C   UNL     1      -3.577   4.075  12.588  1.00  0.00     0.030 A 
ATOM     28  C   UNL     1      -1.427   2.294  12.961  1.00  0.00     0.021 A 
ATOM     29  C   UNL     1      -2.982   3.929  13.847  1.00  0.00     0.002 A 
ATOM     30  C   UNL     1      -1.922   3.046  14.030  1.00  0.00     0.002 A 
ENDBRANCH   6  22
ENDBRANCH   5   6
ENDBRANCH   3   5
ENDBRANCH   2   3
ENDBRANCH   1   2
BRANCH   1  31
ATOM     31  C   UNL     1      -2.808   8.296   9.356  1.00  0.00     0.275 C 
BRANCH  31  32
ATOM     32  O   UNL     1      -1.441   8.090   9.735  1.00  0.00    -0.458 OA
BRANCH  32  33
ATOM     33  C   UNL     1      -1.230   6.848  10.214  1.00  0.00     0.338 C 
ATOM     34  O   UNL     1      -1.991   5.902  10.119  1.00  0.00    -0.246 OA
BRANCH  33  35
ATOM     35  C   UNL     1      -0.068   6.745  11.078  1.00  0.00     0.060 A 
ATOM     36  C   UNL     1       0.336   5.438  11.391  1.00  0.00     0.016 A 
ATOM     37  C   UNL     1       0.177   7.836  11.908  1.00  0.00     0.016 A 
ATOM     38  C   UNL     1       0.776   5.183  12.665  1.00  0.00     0.010 A 
ATOM     39  C   UNL     1       0.589   7.573  13.188  1.00  0.00     0.010 A 
ATOM     40  C   UNL     1       0.797   6.243  13.568  1.00  0.00    -0.014 A 
BRANCH  40  41
ATOM     41  C   UNL     1       1.165   5.954  14.934  1.00  0.00     0.031 A 
ATOM     42  C   UNL     1       2.623   5.757  15.087  1.00  0.00     0.074 A 
ATOM     43  C   UNL     1       0.266   6.062  15.930  1.00  0.00     0.049 A 
ATOM     44  N   UNL     1       3.256   4.718  15.521  1.00  0.00    -0.248 NA
ATOM     45  C   UNL     1       3.494   6.791  14.496  1.00  0.00     0.031 C 
ATOM     46  C   UNL     1      -1.101   6.585  15.830  1.00  0.00     0.029 A 
ATOM     47  N   UNL     1       0.455   5.938  17.273  1.00  0.00    -0.354 N 
ATOM     48  C   UNL     1       4.599   5.089  15.483  1.00  0.00     0.074 A 
ATOM     49  C   UNL     1       4.693   6.227  14.614  1.00  0.00     0.031 C 
ATOM     50  C   UNL     1      -1.494   7.004  17.052  1.00  0.00     0.029 A 
ATOM     51  C   UNL     1      -0.439   6.712  18.008  1.00  0.00     0.049 A 
ATOM     52  H   UNL     1       1.146   5.365  17.678  1.00  0.00     0.167 HD
ATOM     53  C   UNL     1       5.477   4.660  16.427  1.00  0.00     0.034 A 
ATOM     54  C   UNL     1      -0.230   7.218  19.250  1.00  0.00     0.034 A 
ATOM     55  C   UNL     1       4.994   3.492  17.114  1.00  0.00     0.049 A 
ATOM     56  C   UNL     1       0.916   6.483  19.846  1.00  0.00     0.074 A 
ATOM     57  C   UNL     1       4.534   2.253  16.712  1.00  0.00     0.029 A 
ATOM     58  N   UNL     1       4.569   3.651  18.411  1.00  0.00    -0.354 N 
ATOM     59  N   UNL     1       0.884   5.220  20.169  1.00  0.00    -0.248 NA
ATOM     60  C   UNL     1       2.246   7.048  19.665  1.00  0.00     0.031 C 
ATOM     61  C   UNL     1       3.459   1.958  17.600  1.00  0.00     0.029 A 
ATOM     62  C   UNL     1       3.370   3.001  18.523  1.00  0.00     0.049 A 
ATOM     63  H   UNL     1       5.037   4.141  19.124  1.00  0.00     0.167 HD
ATOM     64  C   UNL     1       2.131   4.733  19.796  1.00  0.00     0.074 A 
ATOM     65  C   UNL     1       2.958   5.920  19.588  1.00  0.00     0.031 C 
ATOM     66  C   UNL     1       2.299   3.439  19.390  1.00  0.00     0.034 A 
BRANCH  53  67
ATOM     67  C   UNL     1       6.577   5.528  16.995  1.00  0.00     0.023 A 
ATOM     68  C   UNL     1       7.521   4.900  17.833  1.00  0.00     0.012 A 
ATOM     69  C   UNL     1       6.580   6.945  16.978  1.00  0.00     0.148 A 
ATOM     70  C   UNL     1       8.382   5.641  18.649  1.00  0.00     0.002 A 
ATOM     71  C   UNL     1       7.503   7.674  17.714  1.00  0.00     0.091 A 
ATOM     72  F   UNL     1       5.601   7.620  16.371  1.00  0.00    -0.205 F 
ATOM     73  C   UNL     1       8.383   7.029  18.581  1.00  0.00     0.022 A 
BRANCH  71  74
ATOM     74  S   UNL     1       7.575   9.467  17.599  1.00  0.00     0.127 S 
ATOM     75  O   UNL     1       6.903   9.866  18.831  1.00  0.00    -0.237 OA
ATOM     76  O   UNL     1       9.018   9.708  17.571  1.00  0.00    -0.237 OA
ATOM     77  O   UNL     1       6.895   9.801  16.353  1.00  0.00    -0.744 OA
ENDBRANCH  71  74
ENDBRANCH  53  67
BRANCH  54  78
ATOM     78  C   UNL     1      -0.732   8.496  19.817  1.00  0.00     0.023 A 
ATOM     79  C   UNL     1      -0.714   8.694  21.212  1.00  0.00     0.012 A 
ATOM     80  C   UNL     1      -1.024   9.613  19.000  1.00  0.00     0.148 A 
ATOM     81  C   UNL     1      -0.972   9.955  21.767  1.00  0.00     0.002 A 
ATOM     82  C   UNL     1      -1.317  10.854  19.557  1.00  0.00     0.091 A 
ATOM     83  F   UNL     1      -0.916   9.497  17.670  1.00  0.00    -0.205 F 
ATOM     84  C   UNL     1      -1.280  11.034  20.942  1.00  0.00     0.022 A 
BRANCH  82  85
ATOM     85  S   UNL     1      -1.749  12.263  18.525  1.00  0.00     0.127 S 
ATOM     86  O   UNL     1      -2.812  12.902  19.302  1.00  0.00    -0.237 OA
ATOM     87  O   UNL     1      -0.493  13.004  18.477  1.00  0.00    -0.237 OA
ATOM     88  O   UNL     1      -2.204  11.692  17.262  1.00  0.00    -0.744 OA
ENDBRANCH  82  85
ENDBRANCH  54  78
BRANCH  66  89
ATOM     89  C   UNL     1       1.176   2.456  19.597  1.00  0.00     0.023 A 
ATOM     90  C   UNL     1      -0.098   2.634  19.018  1.00  0.00     0.012 A 
ATOM     91  C   UNL     1       1.473   1.230  20.218  1.00  0.00     0.148 A 
ATOM     92  C   UNL     1      -1.059   1.621  19.077  1.00  0.00     0.002 A 
ATOM     93  C   UNL     1       0.533   0.207  20.229  1.00  0.00     0.091 A 
ATOM     94  F   UNL     1       2.689   1.071  20.764  1.00  0.00    -0.205 F 
ATOM     95  C   UNL     1      -0.738   0.402  19.669  1.00  0.00     0.022 A 
BRANCH  93  96
ATOM     96  S   UNL     1       0.947  -1.424  20.853  1.00  0.00     0.127 S 
ATOM     97  O   UNL     1       0.377  -1.391  22.198  1.00  0.00    -0.237 OA
ATOM     98  O   UNL     1       0.253  -2.309  19.916  1.00  0.00    -0.237 OA
ATOM     99  O   UNL     1       2.401  -1.514  20.782  1.00  0.00    -0.744 OA
ENDBRANCH  93  96
ENDBRANCH  66  89
ENDBRANCH  40  41
ENDBRANCH  33  35
ENDBRANCH  32  33
ENDBRANCH  31  32
ENDBRANCH   1  31
TORSDOF 18
