REMARK SMILES COc1cccc2ccc(C[N@@H+]3CC4(CC[NH2+]CC4)C[C@@H]3C(=O)OCCOC(=O)c3ccc(-c4c5nc(c(-c6cccc(S(=O)(=O)[O-])c6F)c6ccc([nH]6)c(-c6cccc(S(=O)(=O)[O-])c6F)c6nc(c(-c7cccc(S(=O)(=O)[O-])c7F)c7ccc4[nH]7)C=C6)C=C5)cc3)nc12
REMARK SMILES IDX 25 1 24 2 22 3 23 4 21 5 12 6 13 7 14 9 20 10 15 11 19 12
REMARK SMILES IDX 16 13 18 14 17 15 11 18 10 19 3 20 4 21 94 22 5 23 7 24
REMARK SMILES IDX 93 25 6 26 8 27 9 28 2 29 1 30 26 31 27 32 28 33 29 34 30 35
REMARK SMILES IDX 31 36 92 37 32 38 91 39 33 40 34 41 35 42 85 43 36 44 90 45
REMARK SMILES IDX 84 46 86 47 37 48 89 49 83 50 82 51 38 53 70 54 50 55 69 56
REMARK SMILES IDX 51 57 54 58 68 59 87 60 52 61 53 62 67 64 88 65 55 66 39 67
REMARK SMILES IDX 40 68 48 69 41 70 43 71 49 72 42 73 44 74 45 75 46 76 47 77
REMARK SMILES IDX 71 78 72 79 80 80 73 81 75 82 81 83 74 84 76 85 77 86 78 87
REMARK SMILES IDX 79 88 56 89 57 90 65 91 58 92 60 93 66 94 59 95 61 96 62 97
REMARK SMILES IDX 63 98 64 99
REMARK H PARENT 12 8 17 16 17 17 86 52 54 63
REMARK Flexibility Score: inf
ROOT
ATOM      1  C   UNL     1      -3.530  -0.239  -0.327  1.00  0.00     0.274 C 
ENDROOT
BRANCH   1   2
ATOM      2  O   UNL     1      -3.696   0.623  -1.467  1.00  0.00    -0.458 OA
BRANCH   2   3
ATOM      3  C   UNL     1      -4.473   1.711  -1.291  1.00  0.00     0.365 C 
ATOM      4  O   UNL     1      -5.053   1.973  -0.238  1.00  0.00    -0.245 OA
BRANCH   3   5
ATOM      5  C   UNL     1      -4.540   2.665  -2.472  1.00  0.00     0.296 C 
ATOM      6  N   UNL     1      -4.435   2.211  -3.874  1.00  0.00    -0.318 N 
ATOM      7  C   UNL     1      -4.333   3.465  -4.640  1.00  0.00     0.270 C 
ATOM      8  H   UNL     1      -5.260   1.645  -4.074  1.00  0.00     0.349 HD
ATOM      9  C   UNL     1      -3.669   4.537  -3.729  1.00  0.00     0.036 C 
ATOM     10  C   UNL     1      -3.598   3.849  -2.359  1.00  0.00     0.091 C 
ATOM     11  C   UNL     1      -4.527   5.825  -3.683  1.00  0.00     0.074 C 
ATOM     12  C   UNL     1      -2.260   4.987  -4.152  1.00  0.00     0.074 C 
ATOM     13  C   UNL     1      -4.489   6.576  -5.019  1.00  0.00     0.261 C 
ATOM     14  C   UNL     1      -2.268   5.715  -5.493  1.00  0.00     0.261 C 
ATOM     15  N   UNL     1      -3.127   6.898  -5.452  1.00  0.00    -0.346 N 
ATOM     16  H   UNL     1      -2.726   7.573  -4.801  1.00  0.00     0.346 HD
ATOM     17  H   UNL     1      -3.180   7.280  -6.396  1.00  0.00     0.346 HD
BRANCH   6  18
ATOM     18  C   UNL     1      -3.538   1.116  -4.290  1.00  0.00     0.320 C 
BRANCH  18  19
ATOM     19  C   UNL     1      -2.040   1.351  -4.458  1.00  0.00     0.095 A 
ATOM     20  C   UNL     1       1.114   0.785  -2.635  1.00  0.00     0.145 A 
ATOM     21  C   UNL     1       2.435   1.265  -2.669  1.00  0.00     0.049 A 
ATOM     22  C   UNL     1       0.147   1.222  -3.572  1.00  0.00     0.113 A 
ATOM     23  C   UNL     1       2.839   2.150  -3.659  1.00  0.00     0.005 A 
ATOM     24  C   UNL     1       0.626   2.023  -4.633  1.00  0.00     0.004 A 
ATOM     25  N   UNL     1      -1.186   0.918  -3.493  1.00  0.00    -0.243 NA
ATOM     26  C   UNL     1       1.945   2.500  -4.660  1.00  0.00     0.010 A 
ATOM     27  C   UNL     1      -0.238   2.340  -5.681  1.00  0.00     0.012 A 
ATOM     28  C   UNL     1      -1.572   1.967  -5.612  1.00  0.00     0.030 A 
BRANCH  20  29
ATOM     29  O   UNL     1       0.711  -0.183  -1.736  1.00  0.00    -0.494 OA
ATOM     30  C   UNL     1       1.509  -0.346  -0.566  1.00  0.00     0.278 C 
ENDBRANCH  20  29
ENDBRANCH  18  19
ENDBRANCH   6  18
ENDBRANCH   3   5
ENDBRANCH   2   3
ENDBRANCH   1   2
BRANCH   1  31
ATOM     31  C   UNL     1      -2.202   0.055   0.358  1.00  0.00     0.275 C 
BRANCH  31  32
ATOM     32  O   UNL     1      -2.239   1.368   0.944  1.00  0.00    -0.458 OA
BRANCH  32  33
ATOM     33  C   UNL     1      -1.208   2.175   0.618  1.00  0.00     0.338 C 
ATOM     34  O   UNL     1      -0.227   1.916  -0.052  1.00  0.00    -0.246 OA
BRANCH  33  35
ATOM     35  C   UNL     1      -1.358   3.503   1.206  1.00  0.00     0.060 A 
ATOM     36  C   UNL     1      -2.481   4.266   0.911  1.00  0.00     0.016 A 
ATOM     37  C   UNL     1      -0.281   4.045   1.911  1.00  0.00     0.016 A 
ATOM     38  C   UNL     1      -2.493   5.612   1.246  1.00  0.00     0.010 A 
ATOM     39  C   UNL     1      -0.345   5.364   2.348  1.00  0.00     0.010 A 
ATOM     40  C   UNL     1      -1.440   6.166   1.996  1.00  0.00    -0.014 A 
BRANCH  40  41
ATOM     41  C   UNL     1      -1.541   7.562   2.482  1.00  0.00     0.031 A 
ATOM     42  C   UNL     1      -0.532   8.603   2.089  1.00  0.00     0.074 A 
ATOM     43  C   UNL     1      -2.547   7.864   3.325  1.00  0.00     0.049 A 
ATOM     44  N   UNL     1      -0.452   9.849   2.477  1.00  0.00    -0.248 NA
ATOM     45  C   UNL     1       0.536   8.196   1.160  1.00  0.00     0.031 C 
ATOM     46  C   UNL     1      -3.543   6.909   3.820  1.00  0.00     0.029 A 
ATOM     47  N   UNL     1      -2.899   9.047   3.920  1.00  0.00    -0.354 N 
ATOM     48  C   UNL     1       0.703  10.357   1.896  1.00  0.00     0.074 A 
ATOM     49  C   UNL     1       1.288   9.289   1.115  1.00  0.00     0.031 C 
ATOM     50  C   UNL     1      -4.412   7.548   4.613  1.00  0.00     0.029 A 
ATOM     51  C   UNL     1      -4.002   8.941   4.734  1.00  0.00     0.049 A 
ATOM     52  H   UNL     1      -2.411   9.889   3.778  1.00  0.00     0.167 HD
ATOM     53  C   UNL     1       1.218  11.605   1.999  1.00  0.00     0.034 A 
ATOM     54  C   UNL     1      -4.608   9.857   5.510  1.00  0.00     0.034 A 
ATOM     55  C   UNL     1       0.585  12.680   2.719  1.00  0.00     0.049 A 
ATOM     56  C   UNL     1      -4.064  11.254   5.529  1.00  0.00     0.074 A 
ATOM     57  C   UNL     1       0.980  14.003   2.809  1.00  0.00     0.029 A 
ATOM     58  N   UNL     1      -0.577  12.556   3.466  1.00  0.00    -0.354 N 
ATOM     59  N   UNL     1      -3.041  11.745   4.873  1.00  0.00    -0.248 NA
ATOM     60  C   UNL     1      -4.763  12.226   6.378  1.00  0.00     0.031 C 
ATOM     61  C   UNL     1       0.056  14.680   3.614  1.00  0.00     0.029 A 
ATOM     62  C   UNL     1      -0.912  13.778   4.025  1.00  0.00     0.049 A 
ATOM     63  H   UNL     1      -1.087  11.723   3.582  1.00  0.00     0.167 HD
ATOM     64  C   UNL     1      -2.969  13.083   5.231  1.00  0.00     0.074 A 
ATOM     65  C   UNL     1      -4.082  13.336   6.126  1.00  0.00     0.031 C 
ATOM     66  C   UNL     1      -2.046  14.012   4.882  1.00  0.00     0.034 A 
BRANCH  53  67
ATOM     67  C   UNL     1       2.506  11.901   1.281  1.00  0.00     0.023 A 
ATOM     68  C   UNL     1       2.486  12.141  -0.107  1.00  0.00     0.012 A 
ATOM     69  C   UNL     1       3.718  12.026   1.989  1.00  0.00     0.148 A 
ATOM     70  C   UNL     1       3.656  12.489  -0.783  1.00  0.00     0.002 A 
ATOM     71  C   UNL     1       4.874  12.402   1.313  1.00  0.00     0.091 A 
ATOM     72  F   UNL     1       3.720  11.768   3.304  1.00  0.00    -0.205 F 
ATOM     73  C   UNL     1       4.846  12.630  -0.073  1.00  0.00     0.022 A 
BRANCH  71  74
ATOM     74  S   UNL     1       6.440  12.668   2.153  1.00  0.00     0.127 S 
ATOM     75  O   UNL     1       7.187  11.470   1.772  1.00  0.00    -0.237 OA
ATOM     76  O   UNL     1       6.919  13.906   1.536  1.00  0.00    -0.237 OA
ATOM     77  O   UNL     1       6.118  12.785   3.568  1.00  0.00    -0.744 OA
ENDBRANCH  71  74
ENDBRANCH  53  67
BRANCH  54  78
ATOM     78  C   UNL     1      -5.820   9.471   6.282  1.00  0.00     0.023 A 
ATOM     79  C   UNL     1      -7.078   9.957   5.881  1.00  0.00     0.012 A 
ATOM     80  C   UNL     1      -5.747   8.551   7.346  1.00  0.00     0.148 A 
ATOM     81  C   UNL     1      -8.240   9.541   6.532  1.00  0.00     0.002 A 
ATOM     82  C   UNL     1      -6.913   8.094   7.949  1.00  0.00     0.091 A 
ATOM     83  F   UNL     1      -4.540   8.111   7.732  1.00  0.00    -0.205 F 
ATOM     84  C   UNL     1      -8.160   8.597   7.554  1.00  0.00     0.022 A 
BRANCH  82  85
ATOM     85  S   UNL     1      -6.865   6.754   9.145  1.00  0.00     0.127 S 
ATOM     86  O   UNL     1      -6.707   7.475  10.404  1.00  0.00    -0.237 OA
ATOM     87  O   UNL     1      -8.168   6.114   8.962  1.00  0.00    -0.237 OA
ATOM     88  O   UNL     1      -5.739   5.929   8.723  1.00  0.00    -0.744 OA
ENDBRANCH  82  85
ENDBRANCH  54  78
BRANCH  66  89
ATOM     89  C   UNL     1      -2.192  15.377   5.491  1.00  0.00     0.023 A 
ATOM     90  C   UNL     1      -1.812  15.570   6.834  1.00  0.00     0.012 A 
ATOM     91  C   UNL     1      -2.657  16.469   4.737  1.00  0.00     0.148 A 
ATOM     92  C   UNL     1      -1.916  16.827   7.425  1.00  0.00     0.002 A 
ATOM     93  C   UNL     1      -2.724  17.728   5.323  1.00  0.00     0.091 A 
ATOM     94  F   UNL     1      -3.041  16.261   3.468  1.00  0.00    -0.205 F 
ATOM     95  C   UNL     1      -2.362  17.908   6.668  1.00  0.00     0.022 A 
BRANCH  93  96
ATOM     96  S   UNL     1      -3.218  19.174   4.378  1.00  0.00     0.127 S 
ATOM     97  O   UNL     1      -4.653  19.233   4.646  1.00  0.00    -0.237 OA
ATOM     98  O   UNL     1      -2.438  20.246   4.999  1.00  0.00    -0.237 OA
ATOM     99  O   UNL     1      -2.837  18.881   3.003  1.00  0.00    -0.744 OA
ENDBRANCH  93  96
ENDBRANCH  66  89
ENDBRANCH  40  41
ENDBRANCH  33  35
ENDBRANCH  32  33
ENDBRANCH  31  32
ENDBRANCH   1  31
TORSDOF 17
