REMARK SMILES C[C@H](C(=O)OCCOC(=O)c1ccc(-c2c3nc(c(-c4cccc(S(=O)(=O)[O-])c4F)c4ccc([nH]4)c(-c4cccc(S(=O)(=O)[O-])c4F)c4nc(c(-c5cccc(S(=O)(=O)[O-])c5F)c5ccc2[nH]5)C=C4)C=C3)cc1)c1ccc2c(c1)OCCO2
REMARK SMILES IDX 7 1 6 2 5 3 3 4 4 5 2 6 1 7 74 8 75 9 79 10 76 11 78 12
REMARK SMILES IDX 77 13 80 14 83 15 81 16 82 17 8 18 9 19 10 20 11 21 12 22
REMARK SMILES IDX 73 23 13 24 72 25 14 26 15 27 16 28 66 29 17 30 71 31 65 32
REMARK SMILES IDX 67 33 18 34 70 35 64 36 63 37 19 39 51 40 31 41 50 42 32 43
REMARK SMILES IDX 35 44 49 45 68 46 33 47 34 48 48 50 69 51 36 52 20 53 21 54
REMARK SMILES IDX 29 55 22 56 24 57 30 58 23 59 25 60 26 61 27 62 28 63 52 64
REMARK SMILES IDX 53 65 61 66 54 67 56 68 62 69 55 70 57 71 58 72 59 73 60 74
REMARK SMILES IDX 37 75 38 76 46 77 39 78 41 79 47 80 40 81 42 82 43 83 44 84
REMARK SMILES IDX 45 85
REMARK H PARENT 67 38 35 49
REMARK Flexibility Score: inf
ROOT
ATOM      1  C   UNL     1       2.851  -1.593  -1.190  1.00  0.00     0.275 C 
ENDROOT
BRANCH   1   2
ATOM      2  C   UNL     1       1.553  -1.732  -0.399  1.00  0.00     0.274 C 
BRANCH   2   3
ATOM      3  O   UNL     1       0.809  -0.498  -0.453  1.00  0.00    -0.462 OA
BRANCH   3   4
ATOM      4  C   UNL     1       0.883   0.294   0.659  1.00  0.00     0.313 C 
ATOM      5  O   UNL     1       1.480  -0.004   1.688  1.00  0.00    -0.252 OA
BRANCH   4   6
ATOM      6  C   UNL     1       0.030   1.562   0.523  1.00  0.00     0.126 C 
ATOM      7  C   UNL     1       0.330   2.221  -0.835  1.00  0.00     0.025 C 
BRANCH   6   8
ATOM      8  C   UNL     1      -1.452   1.241   0.690  1.00  0.00    -0.030 A 
ATOM      9  C   UNL     1      -2.444   2.035   0.090  1.00  0.00     0.009 A 
ATOM     10  C   UNL     1      -1.825   0.026   1.283  1.00  0.00     0.055 A 
ATOM     11  C   UNL     1      -3.705   1.500  -0.165  1.00  0.00     0.051 A 
ATOM     12  C   UNL     1      -3.029  -0.550   0.930  1.00  0.00     0.161 A 
ATOM     13  C   UNL     1      -3.939   0.169   0.156  1.00  0.00     0.161 A 
ATOM     14  O   UNL     1      -3.162  -1.878   1.228  1.00  0.00    -0.486 OA
ATOM     15  O   UNL     1      -5.004  -0.460  -0.441  1.00  0.00    -0.486 OA
ATOM     16  C   UNL     1      -4.122  -2.548   0.405  1.00  0.00     0.271 C 
ATOM     17  C   UNL     1      -4.529  -1.757  -0.833  1.00  0.00     0.271 C 
ENDBRANCH   6   8
ENDBRANCH   4   6
ENDBRANCH   3   4
ENDBRANCH   2   3
ENDBRANCH   1   2
BRANCH   1  18
ATOM     18  O   UNL     1       3.569  -0.455  -0.691  1.00  0.00    -0.458 OA
BRANCH  18  19
ATOM     19  C   UNL     1       4.094   0.375  -1.623  1.00  0.00     0.338 C 
ATOM     20  O   UNL     1       4.198   0.151  -2.816  1.00  0.00    -0.246 OA
BRANCH  19  21
ATOM     21  C   UNL     1       4.459   1.668  -0.993  1.00  0.00     0.060 A 
ATOM     22  C   UNL     1       3.760   2.147   0.117  1.00  0.00     0.016 A 
ATOM     23  C   UNL     1       5.432   2.471  -1.583  1.00  0.00     0.016 A 
ATOM     24  C   UNL     1       3.935   3.452   0.562  1.00  0.00     0.010 A 
ATOM     25  C   UNL     1       5.706   3.734  -1.046  1.00  0.00     0.010 A 
ATOM     26  C   UNL     1       4.940   4.253   0.014  1.00  0.00    -0.014 A 
BRANCH  26  27
ATOM     27  C   UNL     1       5.197   5.622   0.541  1.00  0.00     0.031 A 
ATOM     28  C   UNL     1       5.221   6.797  -0.399  1.00  0.00     0.074 A 
ATOM     29  C   UNL     1       5.453   5.811   1.853  1.00  0.00     0.049 A 
ATOM     30  N   UNL     1       5.690   8.001  -0.202  1.00  0.00    -0.248 NA
ATOM     31  C   UNL     1       4.670   6.582  -1.748  1.00  0.00     0.031 C 
ATOM     32  C   UNL     1       5.437   4.770   2.884  1.00  0.00     0.029 A 
ATOM     33  N   UNL     1       5.797   6.948   2.543  1.00  0.00    -0.354 N 
ATOM     34  C   UNL     1       5.588   8.652  -1.425  1.00  0.00     0.074 A 
ATOM     35  C   UNL     1       4.982   7.721  -2.352  1.00  0.00     0.031 C 
ATOM     36  C   UNL     1       5.730   5.316   4.072  1.00  0.00     0.029 A 
ATOM     37  C   UNL     1       6.056   6.722   3.876  1.00  0.00     0.049 A 
ATOM     38  H   UNL     1       5.853   7.838   2.126  1.00  0.00     0.167 HD
ATOM     39  C   UNL     1       5.968   9.912  -1.744  1.00  0.00     0.034 A 
ATOM     40  C   UNL     1       6.556   7.534   4.828  1.00  0.00     0.034 A 
ATOM     41  C   UNL     1       6.474  10.863  -0.792  1.00  0.00     0.049 A 
ATOM     42  C   UNL     1       6.933   8.939   4.457  1.00  0.00     0.074 A 
ATOM     43  C   UNL     1       6.842  12.180  -1.004  1.00  0.00     0.029 A 
ATOM     44  N   UNL     1       6.660  10.607   0.558  1.00  0.00    -0.354 N 
ATOM     45  N   UNL     1       6.819   9.543   3.300  1.00  0.00    -0.248 NA
ATOM     46  C   UNL     1       7.508   9.774   5.521  1.00  0.00     0.031 C 
ATOM     47  C   UNL     1       7.247  12.723   0.221  1.00  0.00     0.029 A 
ATOM     48  C   UNL     1       7.129  11.744   1.194  1.00  0.00     0.049 A 
ATOM     49  H   UNL     1       6.485   9.745   0.999  1.00  0.00     0.167 HD
ATOM     50  C   UNL     1       7.296  10.832   3.496  1.00  0.00     0.074 A 
ATOM     51  C   UNL     1       7.671  10.931   4.893  1.00  0.00     0.031 C 
ATOM     52  C   UNL     1       7.441  11.835   2.597  1.00  0.00     0.034 A 
BRANCH  39  53
ATOM     53  C   UNL     1       5.829  10.347  -3.177  1.00  0.00     0.023 A 
ATOM     54  C   UNL     1       4.561  10.687  -3.687  1.00  0.00     0.012 A 
ATOM     55  C   UNL     1       6.965  10.479  -4.002  1.00  0.00     0.148 A 
ATOM     56  C   UNL     1       4.422  11.129  -5.003  1.00  0.00     0.002 A 
ATOM     57  C   UNL     1       6.822  10.956  -5.300  1.00  0.00     0.091 A 
ATOM     58  F   UNL     1       8.159  10.123  -3.508  1.00  0.00    -0.205 F 
ATOM     59  C   UNL     1       5.552  11.274  -5.804  1.00  0.00     0.022 A 
BRANCH  57  60
ATOM     60  S   UNL     1       8.232  11.241  -6.377  1.00  0.00     0.127 S 
ATOM     61  O   UNL     1       8.167  10.080  -7.263  1.00  0.00    -0.237 OA
ATOM     62  O   UNL     1       7.887  12.513  -7.014  1.00  0.00    -0.237 OA
ATOM     63  O   UNL     1       9.394  11.303  -5.501  1.00  0.00    -0.744 OA
ENDBRANCH  57  60
ENDBRANCH  39  53
BRANCH  40  64
ATOM     64  C   UNL     1       6.716   7.029   6.221  1.00  0.00     0.023 A 
ATOM     65  C   UNL     1       5.873   7.528   7.233  1.00  0.00     0.012 A 
ATOM     66  C   UNL     1       7.642   6.016   6.539  1.00  0.00     0.148 A 
ATOM     67  C   UNL     1       5.957   7.034   8.536  1.00  0.00     0.002 A 
ATOM     68  C   UNL     1       7.676   5.484   7.823  1.00  0.00     0.091 A 
ATOM     69  F   UNL     1       8.458   5.571   5.572  1.00  0.00    -0.205 F 
ATOM     70  C   UNL     1       6.845   6.001   8.827  1.00  0.00     0.022 A 
BRANCH  68  71
ATOM     71  S   UNL     1       8.678   4.046   8.220  1.00  0.00     0.127 S 
ATOM     72  O   UNL     1       9.853   4.657   8.834  1.00  0.00    -0.237 OA
ATOM     73  O   UNL     1       7.814   3.309   9.144  1.00  0.00    -0.237 OA
ATOM     74  O   UNL     1       8.894   3.371   6.947  1.00  0.00    -0.744 OA
ENDBRANCH  68  71
ENDBRANCH  40  64
BRANCH  52  75
ATOM     75  C   UNL     1       8.010  13.133   3.098  1.00  0.00     0.023 A 
ATOM     76  C   UNL     1       9.396  13.235   3.327  1.00  0.00     0.012 A 
ATOM     77  C   UNL     1       7.190  14.263   3.276  1.00  0.00     0.148 A 
ATOM     78  C   UNL     1       9.955  14.440   3.749  1.00  0.00     0.002 A 
ATOM     79  C   UNL     1       7.760  15.470   3.660  1.00  0.00     0.091 A 
ATOM     80  F   UNL     1       5.870  14.136   3.077  1.00  0.00    -0.205 F 
ATOM     81  C   UNL     1       9.140  15.559   3.905  1.00  0.00     0.022 A 
BRANCH  79  82
ATOM     82  S   UNL     1       6.790  16.975   3.802  1.00  0.00     0.127 S 
ATOM     83  O   UNL     1       6.573  17.056   5.245  1.00  0.00    -0.237 OA
ATOM     84  O   UNL     1       7.697  17.990   3.264  1.00  0.00    -0.237 OA
ATOM     85  O   UNL     1       5.597  16.751   2.995  1.00  0.00    -0.744 OA
ENDBRANCH  79  82
ENDBRANCH  52  75
ENDBRANCH  26  27
ENDBRANCH  19  21
ENDBRANCH  18  19
ENDBRANCH   1  18
TORSDOF 15
