REMARK SMILES O=C(CC1(CC(=O)OCCOC(=O)c2ccc(-c3c4nc(c(-c5cccc(S(=O)(=O)[O-])c5F)c5ccc([nH]5)c(-c5cccc(S(=O)(=O)[O-])c5F)c5nc(c(-c6cccc(S(=O)(=O)[O-])c6F)c6ccc3[nH]6)C=C5)C=C4)cc2)CCCCC1)NNC(=O)C1CC1
REMARK SMILES IDX 9 1 8 2 6 3 7 4 5 5 4 6 77 7 81 8 78 9 80 10 79 11 3 12 2 13
REMARK SMILES IDX 1 14 82 15 83 17 84 18 85 20 86 21 87 22 88 23 10 24 11 25
REMARK SMILES IDX 12 26 13 27 14 28 15 29 76 30 16 31 75 32 17 33 18 34 19 35
REMARK SMILES IDX 69 36 20 37 74 38 68 39 70 40 21 41 73 42 67 43 66 44 22 46
REMARK SMILES IDX 54 47 34 48 53 49 35 50 38 51 52 52 71 53 36 54 37 55 51 57
REMARK SMILES IDX 72 58 39 59 23 60 24 61 32 62 25 63 27 64 33 65 26 66 28 67
REMARK SMILES IDX 29 68 30 69 31 70 55 71 56 72 64 73 57 74 59 75 65 76 58 77
REMARK SMILES IDX 60 78 61 79 62 80 63 81 40 82 41 83 49 84 42 85 44 86 50 87
REMARK SMILES IDX 43 88 45 89 46 90 47 91 48 92
REMARK H PARENT 82 16 83 19 70 45 38 56
REMARK Flexibility Score: inf
ROOT
ATOM      1  C   UNL     1       1.514  -4.678  -2.440  1.00  0.00     0.274 C 
ENDROOT
BRANCH   1   2
ATOM      2  O   UNL     1       2.367  -3.591  -2.019  1.00  0.00    -0.462 OA
BRANCH   2   3
ATOM      3  C   UNL     1       2.448  -2.560  -2.888  1.00  0.00     0.306 C 
ATOM      4  O   UNL     1       1.853  -2.512  -3.961  1.00  0.00    -0.252 OA
BRANCH   3   5
ATOM      5  C   UNL     1       3.348  -1.419  -2.466  1.00  0.00     0.130 C 
BRANCH   5   6
ATOM      6  C   UNL     1       4.333  -1.468  -1.260  1.00  0.00    -0.010 C 
ATOM      7  C   UNL     1       5.390  -0.347  -1.496  1.00  0.00     0.008 C 
ATOM      8  C   UNL     1       5.108  -2.805  -1.135  1.00  0.00     0.008 C 
ATOM      9  C   UNL     1       6.388  -0.618  -2.626  1.00  0.00     0.001 C 
ATOM     10  C   UNL     1       6.011  -3.095  -2.328  1.00  0.00     0.001 C 
ATOM     11  C   UNL     1       7.041  -1.987  -2.508  1.00  0.00     0.000 C 
BRANCH   6  12
ATOM     12  C   UNL     1       3.620  -1.210   0.106  1.00  0.00     0.109 C 
BRANCH  12  13
ATOM     13  C   UNL     1       2.802   0.064   0.208  1.00  0.00     0.238 C 
ATOM     14  O   UNL     1       1.582   0.050   0.074  1.00  0.00    -0.273 OA
ATOM     15  N   UNL     1       3.481   1.244   0.422  1.00  0.00    -0.268 N 
ATOM     16  H   UNL     1       4.433   1.262   0.672  1.00  0.00     0.191 HD
BRANCH  15  17
ATOM     17  N   UNL     1       2.733   2.412   0.260  1.00  0.00    -0.267 N 
ATOM     18  C   UNL     1       3.195   3.638  -0.150  1.00  0.00     0.241 C 
ATOM     19  H   UNL     1       1.772   2.350   0.462  1.00  0.00     0.191 HD
ATOM     20  O   UNL     1       2.410   4.486  -0.562  1.00  0.00    -0.273 OA
BRANCH  18  21
ATOM     21  C   UNL     1       4.626   4.016  -0.021  1.00  0.00     0.080 C 
ATOM     22  C   UNL     1       5.856   3.201  -0.299  1.00  0.00     0.014 C 
ATOM     23  C   UNL     1       5.404   4.202  -1.313  1.00  0.00     0.014 C 
ENDBRANCH  18  21
ENDBRANCH  15  17
ENDBRANCH  12  13
ENDBRANCH   6  12
ENDBRANCH   5   6
ENDBRANCH   3   5
ENDBRANCH   2   3
ENDBRANCH   1   2
BRANCH   1  24
ATOM     24  C   UNL     1       0.194  -4.662  -1.678  1.00  0.00     0.275 C 
BRANCH  24  25
ATOM     25  O   UNL     1      -0.438  -3.380  -1.811  1.00  0.00    -0.458 OA
BRANCH  25  26
ATOM     26  C   UNL     1      -0.369  -2.600  -0.706  1.00  0.00     0.338 C 
ATOM     27  O   UNL     1       0.103  -2.908   0.377  1.00  0.00    -0.246 OA
BRANCH  26  28
ATOM     28  C   UNL     1      -0.974  -1.288  -0.981  1.00  0.00     0.060 A 
ATOM     29  C   UNL     1      -0.388  -0.426  -1.910  1.00  0.00     0.016 A 
ATOM     30  C   UNL     1      -2.027  -0.853  -0.178  1.00  0.00     0.016 A 
ATOM     31  C   UNL     1      -0.773   0.913  -1.945  1.00  0.00     0.010 A 
ATOM     32  C   UNL     1      -2.488   0.458  -0.302  1.00  0.00     0.010 A 
ATOM     33  C   UNL     1      -1.840   1.368  -1.155  1.00  0.00    -0.014 A 
BRANCH  33  34
ATOM     34  C   UNL     1      -2.308   2.778  -1.234  1.00  0.00     0.031 A 
ATOM     35  C   UNL     1      -2.360   3.643  -0.002  1.00  0.00     0.074 A 
ATOM     36  C   UNL     1      -2.763   3.253  -2.409  1.00  0.00     0.049 A 
ATOM     37  N   UNL     1      -2.936   4.807   0.165  1.00  0.00    -0.248 NA
ATOM     38  C   UNL     1      -1.699   3.125   1.207  1.00  0.00     0.031 C 
ATOM     39  C   UNL     1      -2.774   2.513  -3.673  1.00  0.00     0.029 A 
ATOM     40  N   UNL     1      -3.335   4.460  -2.728  1.00  0.00    -0.354 N 
ATOM     41  C   UNL     1      -2.764   5.131   1.506  1.00  0.00     0.074 A 
ATOM     42  C   UNL     1      -2.024   4.042   2.109  1.00  0.00     0.031 C 
ATOM     43  C   UNL     1      -3.323   3.276  -4.627  1.00  0.00     0.029 A 
ATOM     44  C   UNL     1      -3.773   4.527  -4.029  1.00  0.00     0.049 A 
ATOM     45  H   UNL     1      -3.423   5.203  -2.088  1.00  0.00     0.167 HD
ATOM     46  C   UNL     1      -3.178   6.238   2.169  1.00  0.00     0.034 A 
ATOM     47  C   UNL     1      -4.497   5.465  -4.668  1.00  0.00     0.034 A 
ATOM     48  C   UNL     1      -3.851   7.348   1.545  1.00  0.00     0.049 A 
ATOM     49  C   UNL     1      -4.923   6.691  -3.917  1.00  0.00     0.074 A 
ATOM     50  C   UNL     1      -4.259   8.541   2.118  1.00  0.00     0.029 A 
ATOM     51  N   UNL     1      -4.204   7.409   0.205  1.00  0.00    -0.354 N 
ATOM     52  N   UNL     1      -4.695   7.012  -2.666  1.00  0.00    -0.248 NA
ATOM     53  C   UNL     1      -5.692   7.694  -4.666  1.00  0.00     0.031 C 
ATOM     54  C   UNL     1      -4.869   9.318   1.126  1.00  0.00     0.029 A 
ATOM     55  C   UNL     1      -4.830   8.615  -0.067  1.00  0.00     0.049 A 
ATOM     56  H   UNL     1      -4.035   6.700  -0.456  1.00  0.00     0.167 HD
ATOM     57  C   UNL     1      -5.271   8.262  -2.482  1.00  0.00     0.074 A 
ATOM     58  C   UNL     1      -5.838   8.651  -3.759  1.00  0.00     0.031 C 
ATOM     59  C   UNL     1      -5.344   9.009  -1.354  1.00  0.00     0.034 A 
BRANCH  46  60
ATOM     60  C   UNL     1      -2.885   6.330   3.645  1.00  0.00     0.023 A 
ATOM     61  C   UNL     1      -1.574   6.610   4.080  1.00  0.00     0.012 A 
ATOM     62  C   UNL     1      -3.917   6.214   4.599  1.00  0.00     0.148 A 
ATOM     63  C   UNL     1      -1.289   6.747   5.439  1.00  0.00     0.002 A 
ATOM     64  C   UNL     1      -3.632   6.389   5.950  1.00  0.00     0.091 A 
ATOM     65  F   UNL     1      -5.155   5.926   4.173  1.00  0.00    -0.205 F 
ATOM     66  C   UNL     1      -2.318   6.647   6.372  1.00  0.00     0.022 A 
BRANCH  64  67
ATOM     67  S   UNL     1      -4.909   6.353   7.215  1.00  0.00     0.127 S 
ATOM     68  O   UNL     1      -4.715   5.024   7.795  1.00  0.00    -0.237 OA
ATOM     69  O   UNL     1      -4.516   7.460   8.089  1.00  0.00    -0.237 OA
ATOM     70  O   UNL     1      -6.168   6.558   6.514  1.00  0.00    -0.744 OA
ENDBRANCH  64  67
ENDBRANCH  46  60
BRANCH  47  71
ATOM     71  C   UNL     1      -4.826   5.275  -6.108  1.00  0.00     0.023 A 
ATOM     72  C   UNL     1      -4.178   6.071  -7.071  1.00  0.00     0.012 A 
ATOM     73  C   UNL     1      -5.703   4.257  -6.532  1.00  0.00     0.148 A 
ATOM     74  C   UNL     1      -4.406   5.864  -8.431  1.00  0.00     0.002 A 
ATOM     75  C   UNL     1      -5.879   4.018  -7.890  1.00  0.00     0.091 A 
ATOM     76  F   UNL     1      -6.325   3.522  -5.599  1.00  0.00    -0.205 F 
ATOM     77  C   UNL     1      -5.243   4.829  -8.841  1.00  0.00     0.022 A 
BRANCH  75  78
ATOM     78  S   UNL     1      -6.816   2.610  -8.499  1.00  0.00     0.127 S 
ATOM     79  O   UNL     1      -8.047   3.245  -8.959  1.00  0.00    -0.237 OA
ATOM     80  O   UNL     1      -5.949   2.104  -9.566  1.00  0.00    -0.237 OA
ATOM     81  O   UNL     1      -6.949   1.709  -7.363  1.00  0.00    -0.744 OA
ENDBRANCH  75  78
ENDBRANCH  47  71
BRANCH  59  82
ATOM     82  C   UNL     1      -6.049  10.335  -1.450  1.00  0.00     0.023 A 
ATOM     83  C   UNL     1      -7.455  10.368  -1.520  1.00  0.00     0.012 A 
ATOM     84  C   UNL     1      -5.328  11.544  -1.413  1.00  0.00     0.148 A 
ATOM     85  C   UNL     1      -8.133  11.585  -1.579  1.00  0.00     0.002 A 
ATOM     86  C   UNL     1      -6.012  12.754  -1.431  1.00  0.00     0.091 A 
ATOM     87  F   UNL     1      -3.988  11.492  -1.370  1.00  0.00    -0.205 F 
ATOM     88  C   UNL     1      -7.414  12.776  -1.524  1.00  0.00     0.022 A 
BRANCH  86  89
ATOM     89  S   UNL     1      -5.170  14.334  -1.280  1.00  0.00     0.127 S 
ATOM     90  O   UNL     1      -5.191  14.817  -2.660  1.00  0.00    -0.237 OA
ATOM     91  O   UNL     1      -6.042  15.069  -0.364  1.00  0.00    -0.237 OA
ATOM     92  O   UNL     1      -3.851  14.031  -0.740  1.00  0.00    -0.744 OA
ENDBRANCH  86  89
ENDBRANCH  59  82
ENDBRANCH  33  34
ENDBRANCH  26  28
ENDBRANCH  25  26
ENDBRANCH  24  25
ENDBRANCH   1  24
TORSDOF 19
