REMARK SMILES CN(CC(F)(F)F)C(=O)N[C@@H]1CCCCC[C@@H]1C(=O)OCCOC(=O)c1ccc(-c2c3nc(c(-c4cccc(S(=O)(=O)[O-])c4F)c4ccc([nH]4)c(-c4cccc(S(=O)(=O)[O-])c4F)c4nc(c(-c5cccc(S(=O)(=O)[O-])c5F)c5ccc2[nH]5)C=C4)C=C3)cc1
REMARK SMILES IDX 21 1 20 2 18 3 19 4 17 5 11 6 10 7 8 8 9 9 2 11 1 12 3 13
REMARK SMILES IDX 4 14 5 15 6 16 7 17 12 18 13 19 14 20 16 22 15 23 22 25
REMARK SMILES IDX 23 26 24 27 25 28 26 29 27 30 88 31 28 32 87 33 29 34 30 35
REMARK SMILES IDX 31 36 81 37 32 38 86 39 80 40 82 41 33 42 85 43 79 44 78 45
REMARK SMILES IDX 34 47 66 48 46 49 65 50 47 51 50 52 64 53 83 54 48 55 49 56
REMARK SMILES IDX 63 58 84 59 51 60 35 61 36 62 44 63 37 64 39 65 45 66 38 67
REMARK SMILES IDX 40 68 41 69 42 70 43 71 67 72 68 73 76 74 69 75 71 76 77 77
REMARK SMILES IDX 70 78 72 79 73 80 74 81 75 82 52 83 53 84 61 85 54 86 56 87
REMARK SMILES IDX 62 88 55 89 57 90 58 91 59 92 60 93
REMARK H PARENT 10 10 82 46 50 57
REMARK Flexibility Score: 90.00
ROOT
ATOM      1  C   UNL     1       0.261   0.038  -0.956  1.00  0.00     0.274 C 
ENDROOT
BRANCH   1   2
ATOM      2  O   UNL     1      -1.276   0.284  -0.181  1.00  0.00    -0.462 OA
BRANCH   2   3
ATOM      3  C   UNL     1      -2.399   0.881   0.497  1.00  0.00     0.311 C 
ATOM      4  O   UNL     1      -3.230   0.086   0.955  1.00  0.00    -0.252 OA
BRANCH   3   5
ATOM      5  C   UNL     1      -2.771   2.621   0.655  1.00  0.00     0.121 C 
BRANCH   5   6
ATOM      6  C   UNL     1      -1.877   3.635   1.493  1.00  0.00     0.098 C 
BRANCH   6   7
ATOM      7  N   UNL     1      -1.519   2.965   2.646  1.00  0.00    -0.334 N 
ATOM      8  C   UNL     1      -0.720   1.911   2.475  1.00  0.00     0.317 C 
ATOM      9  O   UNL     1      -0.546   1.204   3.467  1.00  0.00    -0.249 OA
ATOM     10  H   UNL     1      -1.833   3.246   3.535  1.00  0.00     0.165 HD
BRANCH   8  11
ATOM     11  N   UNL     1      -0.100   1.719   1.172  1.00  0.00    -0.319 N 
ATOM     12  C   UNL     1       0.768   0.501   1.535  1.00  0.00     0.149 C 
BRANCH  11  13
ATOM     13  C   UNL     1      -0.367   2.513  -0.477  1.00  0.00     0.236 C 
BRANCH  13  14
ATOM     14  C   UNL     1      -1.284   2.155  -1.876  1.00  0.00     0.406 C 
ATOM     15  F   UNL     1      -2.459   1.507  -1.762  1.00  0.00    -0.169 F 
ATOM     16  F   UNL     1      -1.617   3.345  -2.461  1.00  0.00    -0.169 F 
ATOM     17  F   UNL     1      -0.571   1.502  -2.824  1.00  0.00    -0.169 F 
ENDBRANCH  13  14
ENDBRANCH  11  13
ENDBRANCH   8  11
ENDBRANCH   6   7
BRANCH   6  18
ATOM     18  C   UNL     1      -2.159   5.116   1.684  1.00  0.00     0.026 C 
BRANCH  18  19
ATOM     19  C   UNL     1      -2.934   5.706   0.533  1.00  0.00     0.002 C 
BRANCH  19  20
ATOM     20  C   UNL     1      -4.408   5.487   0.799  1.00  0.00     0.000 CG0
ATOM     21  G   UNL     1      -4.931   4.056   0.604  1.00  0.00     0.000 G0
ENDBRANCH  19  20
ENDBRANCH  18  19
ENDBRANCH   6  18
ENDBRANCH   5   6
BRANCH   5  22
ATOM     22  C   UNL     1      -4.192   2.859   1.248  1.00  0.00     0.017 C 
BRANCH  22  23
ATOM     23  C   UNL     1      -4.931   4.056   0.604  1.00  0.00     0.001 CG0
ATOM     24  G   UNL     1      -4.408   5.487   0.799  1.00  0.00     0.000 G0
ENDBRANCH  22  23
ENDBRANCH   5  22
ENDBRANCH   3   5
ENDBRANCH   2   3
ENDBRANCH   1   2
BRANCH   1  25
ATOM     25  C   UNL     1       1.762   1.068  -1.023  1.00  0.00     0.275 C 
BRANCH  25  26
ATOM     26  O   UNL     1       2.228   2.032   0.179  1.00  0.00    -0.458 OA
BRANCH  26  27
ATOM     27  C   UNL     1       2.455   3.414   0.153  1.00  0.00     0.338 C 
ATOM     28  O   UNL     1       2.533   4.024  -0.910  1.00  0.00    -0.246 OA
BRANCH  27  29
ATOM     29  C   UNL     1       2.352   4.239   1.490  1.00  0.00     0.060 A 
ATOM     30  C   UNL     1       1.649   3.800   2.595  1.00  0.00     0.016 A 
ATOM     31  C   UNL     1       2.756   5.580   1.618  1.00  0.00     0.016 A 
ATOM     32  C   UNL     1       1.107   4.671   3.596  1.00  0.00     0.010 A 
ATOM     33  C   UNL     1       2.380   6.413   2.752  1.00  0.00     0.010 A 
ATOM     34  C   UNL     1       1.446   6.016   3.736  1.00  0.00    -0.014 A 
BRANCH  34  35
ATOM     35  C   UNL     1       0.833   6.955   4.828  1.00  0.00     0.031 A 
ATOM     36  C   UNL     1       0.656   8.460   4.553  1.00  0.00     0.074 A 
ATOM     37  C   UNL     1       0.347   6.570   6.047  1.00  0.00     0.049 A 
ATOM     38  N   UNL     1       0.519   9.469   5.389  1.00  0.00    -0.248 NA
ATOM     39  C   UNL     1       0.610   8.875   3.144  1.00  0.00     0.031 C 
ATOM     40  C   UNL     1       0.225   5.203   6.553  1.00  0.00     0.029 A 
ATOM     41  N   UNL     1      -0.153   7.320   7.117  1.00  0.00    -0.354 N 
ATOM     42  C   UNL     1       0.518  10.633   4.615  1.00  0.00     0.074 A 
ATOM     43  C   UNL     1       0.605  10.199   3.236  1.00  0.00     0.031 C 
ATOM     44  C   UNL     1      -0.349   5.200   7.766  1.00  0.00     0.029 A 
ATOM     45  C   UNL     1      -0.484   6.569   8.236  1.00  0.00     0.049 A 
ATOM     46  H   UNL     1      -0.260   8.298   7.080  1.00  0.00     0.167 HD
ATOM     47  C   UNL     1       0.468  11.938   4.997  1.00  0.00     0.034 A 
ATOM     48  C   UNL     1      -0.766   6.888   9.524  1.00  0.00     0.034 A 
ATOM     49  C   UNL     1       0.249  12.396   6.348  1.00  0.00     0.049 A 
ATOM     50  C   UNL     1      -0.741   8.330   9.965  1.00  0.00     0.074 A 
ATOM     51  C   UNL     1       0.228  13.697   6.829  1.00  0.00     0.029 A 
ATOM     52  N   UNL     1      -0.024  11.575   7.429  1.00  0.00    -0.354 N 
ATOM     53  N   UNL     1      -0.582   9.409   9.242  1.00  0.00    -0.248 NA
ATOM     54  C   UNL     1      -0.918   8.600  11.405  1.00  0.00     0.031 C 
ATOM     55  C   UNL     1      -0.023  13.659   8.206  1.00  0.00     0.029 A 
ATOM     56  C   UNL     1      -0.206  12.337   8.573  1.00  0.00     0.049 A 
ATOM     57  H   UNL     1      -0.082  10.593   7.391  1.00  0.00     0.167 HD
ATOM     58  C   UNL     1      -0.659  10.479  10.129  1.00  0.00     0.074 A 
ATOM     59  C   UNL     1      -0.907   9.925  11.441  1.00  0.00     0.031 C 
ATOM     60  C   UNL     1      -0.514  11.801   9.873  1.00  0.00     0.034 A 
BRANCH  47  61
ATOM     61  C   UNL     1       0.727  12.995   3.942  1.00  0.00     0.023 A 
ATOM     62  C   UNL     1      -0.238  13.312   2.967  1.00  0.00     0.012 A 
ATOM     63  C   UNL     1       1.947  13.709   3.955  1.00  0.00     0.148 A 
ATOM     64  C   UNL     1       0.029  14.275   1.989  1.00  0.00     0.002 A 
ATOM     65  C   UNL     1       2.187  14.698   3.008  1.00  0.00     0.091 A 
ATOM     66  F   UNL     1       2.855  13.402   4.893  1.00  0.00    -0.205 F 
ATOM     67  C   UNL     1       1.237  14.969   2.012  1.00  0.00     0.022 A 
BRANCH  65  68
ATOM     68  S   UNL     1       3.681  15.698   3.003  1.00  0.00     0.127 S 
ATOM     69  O   UNL     1       4.354  15.216   1.798  1.00  0.00    -0.237 OA
ATOM     70  O   UNL     1       3.143  17.055   2.899  1.00  0.00    -0.237 OA
ATOM     71  O   UNL     1       4.365  15.409   4.256  1.00  0.00    -0.744 OA
ENDBRANCH  65  68
ENDBRANCH  47  61
BRANCH  48  72
ATOM     72  C   UNL     1      -1.006   5.811  10.551  1.00  0.00     0.023 A 
ATOM     73  C   UNL     1      -2.244   5.727  11.223  1.00  0.00     0.012 A 
ATOM     74  C   UNL     1       0.001   4.880  10.885  1.00  0.00     0.148 A 
ATOM     75  C   UNL     1      -2.465   4.754  12.205  1.00  0.00     0.002 A 
ATOM     76  C   UNL     1      -0.251   3.868  11.806  1.00  0.00     0.091 A 
ATOM     77  F   UNL     1       1.196   4.998  10.288  1.00  0.00    -0.205 F 
ATOM     78  C   UNL     1      -1.477   3.814  12.482  1.00  0.00     0.022 A 
BRANCH  76  79
ATOM     79  S   UNL     1       0.915   2.535  12.113  1.00  0.00     0.127 S 
ATOM     80  O   UNL     1       1.369   2.838  13.467  1.00  0.00    -0.237 OA
ATOM     81  O   UNL     1       0.059   1.353  12.000  1.00  0.00    -0.237 OA
ATOM     82  O   UNL     1       1.923   2.647  11.067  1.00  0.00    -0.744 OA
ENDBRANCH  76  79
ENDBRANCH  48  72
BRANCH  60  83
ATOM     83  C   UNL     1      -0.681  12.769  11.016  1.00  0.00     0.023 A 
ATOM     84  C   UNL     1       0.319  12.885  12.002  1.00  0.00     0.012 A 
ATOM     85  C   UNL     1      -1.802  13.623  11.066  1.00  0.00     0.148 A 
ATOM     86  C   UNL     1       0.192  13.817  13.034  1.00  0.00     0.002 A 
ATOM     87  C   UNL     1      -1.896  14.582  12.068  1.00  0.00     0.091 A 
ATOM     88  F   UNL     1      -2.753  13.481  10.133  1.00  0.00    -0.205 F 
ATOM     89  C   UNL     1      -0.907  14.673  13.059  1.00  0.00     0.022 A 
BRANCH  87  90
ATOM     90  S   UNL     1      -3.227  15.789  12.114  1.00  0.00     0.127 S 
ATOM     91  O   UNL     1      -3.990  15.341  13.286  1.00  0.00    -0.237 OA
ATOM     92  O   UNL     1      -2.495  17.045  12.317  1.00  0.00    -0.237 OA
ATOM     93  O   UNL     1      -3.914  15.686  10.847  1.00  0.00    -0.744 OA
ENDBRANCH  87  90
ENDBRANCH  60  83
ENDBRANCH  34  35
ENDBRANCH  27  29
ENDBRANCH  26  27
ENDBRANCH  25  26
ENDBRANCH   1  25
TORSDOF 18
