REMARK SMILES C=CCN(CC(=O)OCCOC(=O)c1ccc(-c2c3nc(c(-c4cccc(S(=O)(=O)[O-])c4F)c4ccc([nH]4)c(-c4cccc(S(=O)(=O)[O-])c4F)c4nc(c(-c5cccc(S(=O)(=O)[O-])c5F)c5ccc2[nH]5)C=C4)C=C3)cc1)C(=O)c1sc(N)nc1C
REMARK SMILES IDX 9 1 8 2 6 3 7 4 5 5 4 6 3 7 2 8 1 9 77 10 78 11 79 12 80 13
REMARK SMILES IDX 84 14 81 15 83 16 85 17 82 18 10 21 11 22 12 23 13 24 14 25
REMARK SMILES IDX 15 26 76 27 16 28 75 29 17 30 18 31 19 32 69 33 20 34 74 35
REMARK SMILES IDX 68 36 70 37 21 38 73 39 67 40 66 41 22 43 54 44 34 45 53 46
REMARK SMILES IDX 35 47 38 48 52 49 71 50 36 51 37 52 51 54 72 55 39 56 23 57
REMARK SMILES IDX 24 58 32 59 25 60 27 61 33 62 26 63 28 64 29 65 30 66 31 67
REMARK SMILES IDX 55 68 56 69 64 70 57 71 59 72 65 73 58 74 60 75 61 76 62 77
REMARK SMILES IDX 63 78 40 79 41 80 49 81 42 82 44 83 50 84 43 85 45 86 46 87
REMARK SMILES IDX 47 88 48 89
REMARK H PARENT 82 19 82 20 70 42 38 53
REMARK Flexibility Score: inf
ROOT
ATOM      1  C   UNL     1      -6.000   2.498   0.954  1.00  0.00     0.274 C 
ENDROOT
BRANCH   1   2
ATOM      2  O   UNL     1      -4.606   2.092   0.932  1.00  0.00    -0.461 OA
BRANCH   2   3
ATOM      3  C   UNL     1      -3.744   3.001   0.403  1.00  0.00     0.325 C 
ATOM      4  O   UNL     1      -4.106   4.027  -0.171  1.00  0.00    -0.250 OA
BRANCH   3   5
ATOM      5  C   UNL     1      -2.261   2.764   0.734  1.00  0.00     0.242 C 
BRANCH   5   6
ATOM      6  N   UNL     1      -1.718   1.423   0.982  1.00  0.00    -0.323 N 
BRANCH   6   7
ATOM      7  C   UNL     1      -1.420   0.623  -0.197  1.00  0.00     0.147 C 
BRANCH   7   8
ATOM      8  C   UNL     1      -0.029   0.940  -0.670  1.00  0.00    -0.014 C 
ATOM      9  C   UNL     1       1.015   0.107  -0.547  1.00  0.00     0.006 C 
ENDBRANCH   7   8
ENDBRANCH   6   7
BRANCH   6  10
ATOM     10  C   UNL     1      -1.346   0.887   2.227  1.00  0.00     0.266 C 
ATOM     11  O   UNL     1      -0.766  -0.201   2.280  1.00  0.00    -0.268 OA
BRANCH  10  12
ATOM     12  C   UNL     1      -1.732   1.539   3.456  1.00  0.00     0.117 A 
ATOM     13  S   UNL     1      -0.839   2.805   4.182  1.00  0.00    -0.092 S 
ATOM     14  C   UNL     1      -2.736   1.126   4.316  1.00  0.00     0.063 A 
ATOM     15  C   UNL     1      -1.919   2.781   5.526  1.00  0.00     0.180 A 
ATOM     16  N   UNL     1      -2.836   1.847   5.494  1.00  0.00    -0.225 NA
ATOM     17  C   UNL     1      -3.720   0.051   4.048  1.00  0.00     0.068 C 
BRANCH  15  18
ATOM     18  N   UNL     1      -1.821   3.641   6.544  1.00  0.00    -0.375 N 
ATOM     19  H   UNL     1      -1.120   4.333   6.538  1.00  0.00     0.159 HD
ATOM     20  H   UNL     1      -2.449   3.584   7.300  1.00  0.00     0.159 HD
ENDBRANCH  15  18
ENDBRANCH  10  12
ENDBRANCH   6  10
ENDBRANCH   5   6
ENDBRANCH   3   5
ENDBRANCH   2   3
ENDBRANCH   1   2
BRANCH   1  21
ATOM     21  C   UNL     1      -6.455   3.104   2.300  1.00  0.00     0.275 C 
BRANCH  21  22
ATOM     22  O   UNL     1      -5.902   4.412   2.579  1.00  0.00    -0.458 OA
BRANCH  22  23
ATOM     23  C   UNL     1      -4.660   4.330   3.090  1.00  0.00     0.338 C 
ATOM     24  O   UNL     1      -4.029   3.292   3.212  1.00  0.00    -0.246 OA
BRANCH  23  25
ATOM     25  C   UNL     1      -3.995   5.583   3.426  1.00  0.00     0.060 A 
ATOM     26  C   UNL     1      -2.960   6.002   2.584  1.00  0.00     0.016 A 
ATOM     27  C   UNL     1      -4.129   6.107   4.713  1.00  0.00     0.016 A 
ATOM     28  C   UNL     1      -2.026   6.923   3.044  1.00  0.00     0.010 A 
ATOM     29  C   UNL     1      -3.218   7.068   5.156  1.00  0.00     0.010 A 
ATOM     30  C   UNL     1      -2.153   7.467   4.330  1.00  0.00    -0.014 A 
BRANCH  30  31
ATOM     31  C   UNL     1      -1.248   8.558   4.750  1.00  0.00     0.031 A 
ATOM     32  C   UNL     1      -0.147   8.342   5.741  1.00  0.00     0.074 A 
ATOM     33  C   UNL     1      -1.470   9.772   4.218  1.00  0.00     0.049 A 
ATOM     34  N   UNL     1       0.632   9.219   6.315  1.00  0.00    -0.248 NA
ATOM     35  C   UNL     1       0.110   6.955   6.148  1.00  0.00     0.031 C 
ATOM     36  C   UNL     1      -2.514  10.071   3.236  1.00  0.00     0.029 A 
ATOM     37  N   UNL     1      -0.848  10.971   4.428  1.00  0.00    -0.354 N 
ATOM     38  C   UNL     1       1.432   8.502   7.198  1.00  0.00     0.074 A 
ATOM     39  C   UNL     1       1.048   7.111   7.075  1.00  0.00     0.031 C 
ATOM     40  C   UNL     1      -2.462  11.373   2.928  1.00  0.00     0.029 A 
ATOM     41  C   UNL     1      -1.415  12.003   3.723  1.00  0.00     0.049 A 
ATOM     42  H   UNL     1      -0.072  11.082   5.025  1.00  0.00     0.167 HD
ATOM     43  C   UNL     1       2.409   8.971   8.014  1.00  0.00     0.034 A 
ATOM     44  C   UNL     1      -1.133  13.318   3.730  1.00  0.00     0.034 A 
ATOM     45  C   UNL     1       2.828  10.351   8.044  1.00  0.00     0.049 A 
ATOM     46  C   UNL     1      -0.006  13.800   4.591  1.00  0.00     0.074 A 
ATOM     47  C   UNL     1       3.827  10.936   8.802  1.00  0.00     0.029 A 
ATOM     48  N   UNL     1       2.287  11.358   7.255  1.00  0.00    -0.354 N 
ATOM     49  N   UNL     1       0.759  13.108   5.402  1.00  0.00    -0.248 NA
ATOM     50  C   UNL     1       0.319  15.228   4.519  1.00  0.00     0.031 C 
ATOM     51  C   UNL     1       3.898  12.293   8.460  1.00  0.00     0.029 A 
ATOM     52  C   UNL     1       2.943  12.554   7.490  1.00  0.00     0.049 A 
ATOM     53  H   UNL     1       1.544  11.239   6.620  1.00  0.00     0.167 HD
ATOM     54  C   UNL     1       1.673  14.012   5.924  1.00  0.00     0.074 A 
ATOM     55  C   UNL     1       1.376  15.297   5.318  1.00  0.00     0.031 C 
ATOM     56  C   UNL     1       2.655  13.805   6.836  1.00  0.00     0.034 A 
BRANCH  43  57
ATOM     57  C   UNL     1       3.131   7.987   8.901  1.00  0.00     0.023 A 
ATOM     58  C   UNL     1       4.080   7.110   8.339  1.00  0.00     0.012 A 
ATOM     59  C   UNL     1       2.930   7.977  10.297  1.00  0.00     0.148 A 
ATOM     60  C   UNL     1       4.796   6.223   9.145  1.00  0.00     0.002 A 
ATOM     61  C   UNL     1       3.675   7.115  11.098  1.00  0.00     0.091 A 
ATOM     62  F   UNL     1       2.007   8.798  10.820  1.00  0.00    -0.205 F 
ATOM     63  C   UNL     1       4.602   6.232  10.524  1.00  0.00     0.022 A 
BRANCH  61  64
ATOM     64  S   UNL     1       3.534   7.131  12.891  1.00  0.00     0.127 S 
ATOM     65  O   UNL     1       2.557   6.069  13.123  1.00  0.00    -0.237 OA
ATOM     66  O   UNL     1       4.895   6.809  13.323  1.00  0.00    -0.237 OA
ATOM     67  O   UNL     1       3.103   8.480  13.231  1.00  0.00    -0.744 OA
ENDBRANCH  61  64
ENDBRANCH  43  57
BRANCH  44  68
ATOM     68  C   UNL     1      -1.893  14.212   2.819  1.00  0.00     0.023 A 
ATOM     69  C   UNL     1      -1.271  14.687   1.650  1.00  0.00     0.012 A 
ATOM     70  C   UNL     1      -3.265  14.463   3.021  1.00  0.00     0.148 A 
ATOM     71  C   UNL     1      -2.002  15.394   0.696  1.00  0.00     0.002 A 
ATOM     72  C   UNL     1      -4.001  15.115   2.039  1.00  0.00     0.091 A 
ATOM     73  F   UNL     1      -3.836  14.012   4.148  1.00  0.00    -0.205 F 
ATOM     74  C   UNL     1      -3.369  15.591   0.880  1.00  0.00     0.022 A 
BRANCH  72  75
ATOM     75  S   UNL     1      -5.791  15.245   2.127  1.00  0.00     0.127 S 
ATOM     76  O   UNL     1      -5.970  16.619   2.586  1.00  0.00    -0.237 OA
ATOM     77  O   UNL     1      -6.190  15.001   0.740  1.00  0.00    -0.237 OA
ATOM     78  O   UNL     1      -6.206  14.200   3.055  1.00  0.00    -0.744 OA
ENDBRANCH  72  75
ENDBRANCH  44  68
BRANCH  56  79
ATOM     79  C   UNL     1       3.483  14.999   7.219  1.00  0.00     0.023 A 
ATOM     80  C   UNL     1       2.953  15.944   8.119  1.00  0.00     0.012 A 
ATOM     81  C   UNL     1       4.790  15.164   6.725  1.00  0.00     0.148 A 
ATOM     82  C   UNL     1       3.705  17.053   8.501  1.00  0.00     0.002 A 
ATOM     83  C   UNL     1       5.546  16.255   7.137  1.00  0.00     0.091 A 
ATOM     84  F   UNL     1       5.264  14.267   5.847  1.00  0.00    -0.205 F 
ATOM     85  C   UNL     1       5.003  17.204   8.019  1.00  0.00     0.022 A 
BRANCH  83  86
ATOM     86  S   UNL     1       7.247  16.476   6.607  1.00  0.00     0.127 S 
ATOM     87  O   UNL     1       7.094  17.392   5.479  1.00  0.00    -0.237 OA
ATOM     88  O   UNL     1       7.876  17.066   7.790  1.00  0.00    -0.237 OA
ATOM     89  O   UNL     1       7.729  15.140   6.280  1.00  0.00    -0.744 OA
ENDBRANCH  83  86
ENDBRANCH  56  79
ENDBRANCH  30  31
ENDBRANCH  23  25
ENDBRANCH  22  23
ENDBRANCH  21  22
ENDBRANCH   1  21
TORSDOF 20
