REMARK SMILES [NH3+][C@@H](Cc1ccc(F)cc1C(F)(F)F)C(=O)OCCOC(=O)c1ccc(-c2c3nc(c(-c4cccc(S(=O)(=O)[O-])c4F)c4ccc([nH]4)c(-c4cccc(S(=O)(=O)[O-])c4F)c4nc(c(-c5cccc(S(=O)(=O)[O-])c5F)c5ccc2[nH]5)C=C4)C=C3)cc1
REMARK SMILES IDX 18 1 17 2 15 3 16 4 2 5 1 6 3 10 4 11 5 12 10 13 6 14 9 15
REMARK SMILES IDX 7 16 8 17 11 18 12 19 13 20 14 21 19 22 20 23 21 24 22 25
REMARK SMILES IDX 23 26 24 27 85 28 25 29 84 30 26 31 27 32 28 33 78 34 29 35
REMARK SMILES IDX 83 36 77 37 79 38 30 39 82 40 76 41 75 42 31 44 63 45 43 46
REMARK SMILES IDX 62 47 44 48 47 49 61 50 80 51 45 52 46 53 60 55 81 56 48 57
REMARK SMILES IDX 32 58 33 59 41 60 34 61 36 62 42 63 35 64 37 65 38 66 39 67
REMARK SMILES IDX 40 68 64 69 65 70 73 71 66 72 68 73 74 74 67 75 69 76 70 77
REMARK SMILES IDX 71 78 72 79 49 80 50 81 58 82 51 83 53 84 59 85 52 86 54 87
REMARK SMILES IDX 55 88 56 89 57 90
REMARK H PARENT 1 7 1 8 1 9 79 43 47 54
REMARK Flexibility Score: inf
ROOT
ATOM      1  C   UNL     1      -3.145   0.862   0.593  1.00  0.00     0.274 C 
ENDROOT
BRANCH   1   2
ATOM      2  O   UNL     1      -1.713   0.799   0.453  1.00  0.00    -0.458 OA
BRANCH   2   3
ATOM      3  C   UNL     1      -0.990   0.968   1.598  1.00  0.00     0.365 C 
ATOM      4  O   UNL     1      -1.472   1.222   2.696  1.00  0.00    -0.245 OA
BRANCH   3   5
ATOM      5  C   UNL     1       0.523   0.889   1.353  1.00  0.00     0.296 C 
BRANCH   5   6
ATOM      6  N   UNL     1       0.907   0.053   0.197  1.00  0.00    -0.346 N 
ATOM      7  H   UNL     1       1.923   0.051   0.101  1.00  0.00     0.345 HD
ATOM      8  H   UNL     1       0.487   0.432  -0.652  1.00  0.00     0.345 HD
ATOM      9  H   UNL     1       0.578  -0.902   0.343  1.00  0.00     0.345 HD
ENDBRANCH   5   6
BRANCH   5  10
ATOM     10  C   UNL     1       1.149   2.296   1.396  1.00  0.00     0.113 C 
BRANCH  10  11
ATOM     11  C   UNL     1       0.752   3.371   0.394  1.00  0.00    -0.029 A 
ATOM     12  C   UNL     1       0.163   3.046  -0.843  1.00  0.00     0.007 A 
ATOM     13  C   UNL     1       1.006   4.742   0.674  1.00  0.00     0.062 A 
ATOM     14  C   UNL     1      -0.227   4.031  -1.752  1.00  0.00     0.039 A 
ATOM     15  C   UNL     1       0.588   5.722  -0.252  1.00  0.00     0.052 A 
ATOM     16  C   UNL     1      -0.023   5.362  -1.442  1.00  0.00     0.123 A 
ATOM     17  F   UNL     1      -0.407   6.311  -2.304  1.00  0.00    -0.207 F 
BRANCH  13  18
ATOM     18  C   UNL     1       1.698   5.261   1.924  1.00  0.00     0.416 C 
ATOM     19  F   UNL     1       2.674   6.166   1.618  1.00  0.00    -0.166 F 
ATOM     20  F   UNL     1       0.837   5.918   2.748  1.00  0.00    -0.166 F 
ATOM     21  F   UNL     1       2.315   4.323   2.688  1.00  0.00    -0.166 F 
ENDBRANCH  13  18
ENDBRANCH  10  11
ENDBRANCH   5  10
ENDBRANCH   3   5
ENDBRANCH   2   3
ENDBRANCH   1   2
BRANCH   1  22
ATOM     22  C   UNL     1      -3.786  -0.487   0.263  1.00  0.00     0.275 C 
BRANCH  22  23
ATOM     23  O   UNL     1      -3.291  -1.520   1.131  1.00  0.00    -0.458 OA
BRANCH  23  24
ATOM     24  C   UNL     1      -2.211  -2.186   0.652  1.00  0.00     0.338 C 
ATOM     25  O   UNL     1      -1.697  -2.053  -0.446  1.00  0.00    -0.246 OA
BRANCH  24  26
ATOM     26  C   UNL     1      -1.623  -2.999   1.730  1.00  0.00     0.060 A 
ATOM     27  C   UNL     1      -0.309  -2.716   2.105  1.00  0.00     0.016 A 
ATOM     28  C   UNL     1      -2.317  -4.055   2.323  1.00  0.00     0.016 A 
ATOM     29  C   UNL     1       0.325  -3.484   3.072  1.00  0.00     0.010 A 
ATOM     30  C   UNL     1      -1.674  -4.837   3.291  1.00  0.00     0.010 A 
ATOM     31  C   UNL     1      -0.345  -4.564   3.657  1.00  0.00    -0.014 A 
BRANCH  31  32
ATOM     32  C   UNL     1       0.400  -5.436   4.594  1.00  0.00     0.031 A 
ATOM     33  C   UNL     1       0.917  -6.763   4.121  1.00  0.00     0.074 A 
ATOM     34  C   UNL     1       0.663  -5.007   5.842  1.00  0.00     0.049 A 
ATOM     35  N   UNL     1       1.631  -7.645   4.769  1.00  0.00    -0.248 NA
ATOM     36  C   UNL     1       0.594  -7.147   2.737  1.00  0.00     0.031 C 
ATOM     37  C   UNL     1       0.226  -3.727   6.397  1.00  0.00     0.029 A 
ATOM     38  N   UNL     1       1.363  -5.597   6.864  1.00  0.00    -0.354 N 
ATOM     39  C   UNL     1       1.817  -8.701   3.887  1.00  0.00     0.074 A 
ATOM     40  C   UNL     1       1.136  -8.354   2.658  1.00  0.00     0.031 C 
ATOM     41  C   UNL     1       0.671  -3.625   7.660  1.00  0.00     0.029 A 
ATOM     42  C   UNL     1       1.400  -4.842   8.012  1.00  0.00     0.049 A 
ATOM     43  H   UNL     1       1.796  -6.477   6.782  1.00  0.00     0.167 HD
ATOM     44  C   UNL     1       2.511  -9.847   4.079  1.00  0.00     0.034 A 
ATOM     45  C   UNL     1       1.955  -5.103   9.212  1.00  0.00     0.034 A 
ATOM     46  C   UNL     1       3.220 -10.164   5.288  1.00  0.00     0.049 A 
ATOM     47  C   UNL     1       2.716  -6.387   9.404  1.00  0.00     0.074 A 
ATOM     48  C   UNL     1       3.989 -11.281   5.561  1.00  0.00     0.029 A 
ATOM     49  N   UNL     1       3.248  -9.369   6.423  1.00  0.00    -0.354 N 
ATOM     50  N   UNL     1       2.964  -7.332   8.529  1.00  0.00    -0.248 NA
ATOM     51  C   UNL     1       3.297  -6.633  10.732  1.00  0.00     0.031 C 
ATOM     52  C   UNL     1       4.465 -11.171   6.870  1.00  0.00     0.029 A 
ATOM     53  C   UNL     1       4.011  -9.975   7.405  1.00  0.00     0.049 A 
ATOM     54  H   UNL     1       2.792  -8.501   6.517  1.00  0.00     0.167 HD
ATOM     55  C   UNL     1       3.749  -8.271   9.190  1.00  0.00     0.074 A 
ATOM     56  C   UNL     1       3.947  -7.774  10.536  1.00  0.00     0.031 C 
ATOM     57  C   UNL     1       4.247  -9.442   8.724  1.00  0.00     0.034 A 
BRANCH  44  58
ATOM     58  C   UNL     1       2.567 -10.834   2.946  1.00  0.00     0.023 A 
ATOM     59  C   UNL     1       3.393 -10.572   1.835  1.00  0.00     0.012 A 
ATOM     60  C   UNL     1       1.865 -12.053   3.015  1.00  0.00     0.148 A 
ATOM     61  C   UNL     1       3.502 -11.498   0.799  1.00  0.00     0.002 A 
ATOM     62  C   UNL     1       2.009 -12.989   1.997  1.00  0.00     0.091 A 
ATOM     63  F   UNL     1       1.064 -12.272   4.068  1.00  0.00    -0.205 F 
ATOM     64  C   UNL     1       2.821 -12.710   0.885  1.00  0.00     0.022 A 
BRANCH  62  65
ATOM     65  S   UNL     1       1.232 -14.607   2.060  1.00  0.00     0.127 S 
ATOM     66  O   UNL     1       0.144 -14.450   1.097  1.00  0.00    -0.237 OA
ATOM     67  O   UNL     1       2.314 -15.489   1.620  1.00  0.00    -0.237 OA
ATOM     68  O   UNL     1       0.823 -14.799   3.445  1.00  0.00    -0.744 OA
ENDBRANCH  62  65
ENDBRANCH  44  58
BRANCH  45  69
ATOM     69  C   UNL     1       1.856  -4.083  10.294  1.00  0.00     0.023 A 
ATOM     70  C   UNL     1       3.002  -3.354  10.666  1.00  0.00     0.012 A 
ATOM     71  C   UNL     1       0.617  -3.766  10.886  1.00  0.00     0.148 A 
ATOM     72  C   UNL     1       2.916  -2.329  11.609  1.00  0.00     0.002 A 
ATOM     73  C   UNL     1       0.528  -2.707  11.782  1.00  0.00     0.091 A 
ATOM     74  F   UNL     1      -0.457  -4.486  10.532  1.00  0.00    -0.205 F 
ATOM     75  C   UNL     1       1.678  -1.995  12.154  1.00  0.00     0.022 A 
BRANCH  73  76
ATOM     76  S   UNL     1      -1.042  -2.114  12.424  1.00  0.00     0.127 S 
ATOM     77  O   UNL     1      -0.939  -2.464  13.838  1.00  0.00    -0.237 OA
ATOM     78  O   UNL     1      -0.963  -0.682  12.136  1.00  0.00    -0.237 OA
ATOM     79  O   UNL     1      -2.070  -2.823  11.673  1.00  0.00    -0.744 OA
ENDBRANCH  73  76
ENDBRANCH  45  69
BRANCH  57  80
ATOM     80  C   UNL     1       5.076 -10.288   9.653  1.00  0.00     0.023 A 
ATOM     81  C   UNL     1       4.436 -11.062  10.640  1.00  0.00     0.012 A 
ATOM     82  C   UNL     1       6.461 -10.440   9.441  1.00  0.00     0.148 A 
ATOM     83  C   UNL     1       5.162 -11.974  11.405  1.00  0.00     0.002 A 
ATOM     84  C   UNL     1       7.170 -11.382  10.176  1.00  0.00     0.091 A 
ATOM     85  F   UNL     1       7.049  -9.683   8.503  1.00  0.00    -0.205 F 
ATOM     86  C   UNL     1       6.524 -12.145  11.162  1.00  0.00     0.022 A 
BRANCH  84  87
ATOM     87  S   UNL     1       8.902 -11.748   9.866  1.00  0.00     0.127 S 
ATOM     88  O   UNL     1       9.535 -11.248  11.086  1.00  0.00    -0.237 OA
ATOM     89  O   UNL     1       8.892 -13.205   9.737  1.00  0.00    -0.237 OA
ATOM     90  O   UNL     1       9.255 -11.033   8.647  1.00  0.00    -0.744 OA
ENDBRANCH  84  87
ENDBRANCH  57  80
ENDBRANCH  31  32
ENDBRANCH  24  26
ENDBRANCH  23  24
ENDBRANCH  22  23
ENDBRANCH   1  22
TORSDOF 18
