REMARK SMILES O=C(/C=C/c1ccccc1Oc1cccc(Cl)c1)OCCOC(=O)c1ccc(-c2c3nc(c(-c4cccc(S(=O)(=O)[O-])c4F)c4ccc([nH]4)c(-c4cccc(S(=O)(=O)[O-])c4F)c4nc(c(-c5cccc(S(=O)(=O)[O-])c5F)c5ccc2[nH]5)C=C4)C=C3)cc1
REMARK SMILES IDX 20 1 19 2 2 3 1 4 3 5 4 6 5 7 6 8 10 9 7 10 9 11 8 12 11 13
REMARK SMILES IDX 12 14 13 15 18 16 14 17 16 18 15 19 17 20 21 21 22 22 23 23
REMARK SMILES IDX 24 24 25 25 26 26 87 27 27 28 86 29 28 30 29 31 30 32 80 33
REMARK SMILES IDX 31 34 85 35 79 36 81 37 32 38 84 39 78 40 77 41 33 43 65 44
REMARK SMILES IDX 45 45 64 46 46 47 49 48 63 49 82 50 47 51 48 52 62 54 83 55
REMARK SMILES IDX 50 56 34 57 35 58 43 59 36 60 38 61 44 62 37 63 39 64 40 65
REMARK SMILES IDX 41 66 42 67 66 68 67 69 75 70 68 71 70 72 76 73 69 74 71 75
REMARK SMILES IDX 72 76 73 77 74 78 51 79 52 80 60 81 53 82 55 83 61 84 54 85
REMARK SMILES IDX 56 86 57 87 58 88 59 89
REMARK H PARENT 81 42 49 53
REMARK Flexibility Score: inf
ROOT
ATOM      1  C   UNL     1       4.790   1.686  -0.111  1.00  0.00     0.275 C 
ENDROOT
BRANCH   1   2
ATOM      2  O   UNL     1       3.543   1.349  -0.757  1.00  0.00    -0.459 OA
BRANCH   2   3
ATOM      3  C   UNL     1       2.764   0.281  -0.469  1.00  0.00     0.330 C 
ATOM      4  O   UNL     1       1.588   0.243  -0.813  1.00  0.00    -0.247 OA
BRANCH   3   5
ATOM      5  C   UNL     1       3.320  -0.795   0.361  1.00  0.00     0.094 C 
ATOM      6  C   UNL     1       4.455  -1.472   0.138  1.00  0.00     0.019 C 
BRANCH   6   7
ATOM      7  C   UNL     1       4.980  -2.387   1.163  1.00  0.00     0.017 A 
ATOM      8  C   UNL     1       6.029  -1.835   1.933  1.00  0.00     0.012 A 
ATOM      9  C   UNL     1       4.551  -3.697   1.448  1.00  0.00     0.134 A 
ATOM     10  C   UNL     1       6.642  -2.554   2.959  1.00  0.00     0.001 A 
ATOM     11  C   UNL     1       5.180  -4.406   2.489  1.00  0.00     0.048 A 
ATOM     12  C   UNL     1       6.213  -3.842   3.240  1.00  0.00     0.004 A 
BRANCH   9  13
ATOM     13  O   UNL     1       3.633  -4.478   0.773  1.00  0.00    -0.457 OA
BRANCH  13  14
ATOM     14  C   UNL     1       2.591  -3.894   0.108  1.00  0.00     0.128 A 
ATOM     15  C   UNL     1       1.401  -3.608   0.778  1.00  0.00     0.047 A 
ATOM     16  C   UNL     1       2.700  -3.682  -1.264  1.00  0.00     0.067 A 
ATOM     17  C   UNL     1       0.338  -3.027   0.088  1.00  0.00     0.005 A 
ATOM     18  C   UNL     1       1.645  -3.079  -1.943  1.00  0.00     0.044 A 
ATOM     19  C   UNL     1       0.466  -2.747  -1.273  1.00  0.00     0.021 A 
ATOM     20  Cl  UNL     1       1.819  -2.701  -3.613  1.00  0.00    -0.084 Cl
ENDBRANCH  13  14
ENDBRANCH   9  13
ENDBRANCH   6   7
ENDBRANCH   3   5
ENDBRANCH   2   3
ENDBRANCH   1   2
BRANCH   1  21
ATOM     21  C   UNL     1       4.620   2.276   1.292  1.00  0.00     0.275 C 
BRANCH  21  22
ATOM     22  O   UNL     1       4.169   1.284   2.235  1.00  0.00    -0.458 OA
BRANCH  22  23
ATOM     23  C   UNL     1       2.910   1.464   2.718  1.00  0.00     0.338 C 
ATOM     24  O   UNL     1       2.181   2.408   2.485  1.00  0.00    -0.246 OA
BRANCH  23  25
ATOM     25  C   UNL     1       2.463   0.265   3.477  1.00  0.00     0.060 A 
ATOM     26  C   UNL     1       1.111  -0.092   3.379  1.00  0.00     0.016 A 
ATOM     27  C   UNL     1       3.327  -0.499   4.270  1.00  0.00     0.016 A 
ATOM     28  C   UNL     1       0.609  -1.161   4.125  1.00  0.00     0.010 A 
ATOM     29  C   UNL     1       2.820  -1.568   5.025  1.00  0.00     0.010 A 
ATOM     30  C   UNL     1       1.449  -1.871   4.995  1.00  0.00    -0.014 A 
BRANCH  30  31
ATOM     31  C   UNL     1       0.829  -2.733   6.036  1.00  0.00     0.031 A 
ATOM     32  C   UNL     1       0.409  -2.083   7.328  1.00  0.00     0.074 A 
ATOM     33  C   UNL     1       0.599  -4.046   5.855  1.00  0.00     0.049 A 
ATOM     34  N   UNL     1      -0.280  -2.581   8.322  1.00  0.00    -0.248 NA
ATOM     35  C   UNL     1       0.832  -0.686   7.527  1.00  0.00     0.031 C 
ATOM     36  C   UNL     1       1.003  -4.823   4.689  1.00  0.00     0.029 A 
ATOM     37  N   UNL     1      -0.037  -4.960   6.661  1.00  0.00    -0.354 N 
ATOM     38  C   UNL     1      -0.365  -1.565   9.265  1.00  0.00     0.074 A 
ATOM     39  C   UNL     1       0.356  -0.429   8.735  1.00  0.00     0.031 C 
ATOM     40  C   UNL     1       0.581  -6.091   4.838  1.00  0.00     0.029 A 
ATOM     41  C   UNL     1      -0.105  -6.224   6.123  1.00  0.00     0.049 A 
ATOM     42  H   UNL     1      -0.409  -4.731   7.544  1.00  0.00     0.167 HD
ATOM     43  C   UNL     1      -0.998  -1.565  10.461  1.00  0.00     0.034 A 
ATOM     44  C   UNL     1      -0.660  -7.353   6.609  1.00  0.00     0.034 A 
ATOM     45  C   UNL     1      -1.714  -2.684  11.004  1.00  0.00     0.049 A 
ATOM     46  C   UNL     1      -1.368  -7.324   7.943  1.00  0.00     0.074 A 
ATOM     47  C   UNL     1      -2.419  -2.759  12.192  1.00  0.00     0.029 A 
ATOM     48  N   UNL     1      -1.802  -3.930  10.406  1.00  0.00    -0.354 N 
ATOM     49  N   UNL     1      -1.593  -6.307   8.739  1.00  0.00    -0.248 NA
ATOM     50  C   UNL     1      -1.925  -8.597   8.429  1.00  0.00     0.031 C 
ATOM     51  C   UNL     1      -2.919  -4.059  12.322  1.00  0.00     0.029 A 
ATOM     52  C   UNL     1      -2.540  -4.786  11.205  1.00  0.00     0.049 A 
ATOM     53  H   UNL     1      -1.399  -4.171   9.541  1.00  0.00     0.167 HD
ATOM     54  C   UNL     1      -2.351  -6.808   9.795  1.00  0.00     0.074 A 
ATOM     55  C   UNL     1      -2.563  -8.215   9.527  1.00  0.00     0.031 C 
ATOM     56  C   UNL     1      -2.812  -6.165  10.896  1.00  0.00     0.034 A 
BRANCH  43  57
ATOM     57  C   UNL     1      -0.965  -0.287  11.251  1.00  0.00     0.023 A 
ATOM     58  C   UNL     1      -1.780   0.792  10.852  1.00  0.00     0.012 A 
ATOM     59  C   UNL     1      -0.153  -0.161  12.393  1.00  0.00     0.148 A 
ATOM     60  C   UNL     1      -1.768   1.989  11.565  1.00  0.00     0.002 A 
ATOM     61  C   UNL     1      -0.174   1.023  13.120  1.00  0.00     0.091 A 
ATOM     62  F   UNL     1       0.639  -1.188  12.733  1.00  0.00    -0.205 F 
ATOM     63  C   UNL     1      -0.973   2.101  12.703  1.00  0.00     0.022 A 
BRANCH  61  64
ATOM     64  S   UNL     1       0.770   1.237  14.632  1.00  0.00     0.127 S 
ATOM     65  O   UNL     1       1.869   2.087  14.176  1.00  0.00    -0.237 OA
ATOM     66  O   UNL     1      -0.194   1.904  15.508  1.00  0.00    -0.237 OA
ATOM     67  O   UNL     1       1.147  -0.103  15.058  1.00  0.00    -0.744 OA
ENDBRANCH  61  64
ENDBRANCH  43  57
BRANCH  44  68
ATOM     68  C   UNL     1      -0.635  -8.613   5.810  1.00  0.00     0.023 A 
ATOM     69  C   UNL     1      -1.841  -9.123   5.289  1.00  0.00     0.012 A 
ATOM     70  C   UNL     1       0.562  -9.319   5.585  1.00  0.00     0.148 A 
ATOM     71  C   UNL     1      -1.861 -10.332   4.591  1.00  0.00     0.002 A 
ATOM     72  C   UNL     1       0.542 -10.496   4.845  1.00  0.00     0.091 A 
ATOM     73  F   UNL     1       1.695  -8.831   6.109  1.00  0.00    -0.205 F 
ATOM     74  C   UNL     1      -0.669 -11.014   4.362  1.00  0.00     0.022 A 
BRANCH  72  75
ATOM     75  S   UNL     1       2.046 -11.377   4.408  1.00  0.00     0.127 S 
ATOM     76  O   UNL     1       1.986 -12.531   5.300  1.00  0.00    -0.237 OA
ATOM     77  O   UNL     1       1.823 -11.678   2.994  1.00  0.00    -0.237 OA
ATOM     78  O   UNL     1       3.132 -10.437   4.655  1.00  0.00    -0.744 OA
ENDBRANCH  72  75
ENDBRANCH  44  68
BRANCH  56  79
ATOM     79  C   UNL     1      -3.635  -6.951  11.886  1.00  0.00     0.023 A 
ATOM     80  C   UNL     1      -3.009  -7.896  12.723  1.00  0.00     0.012 A 
ATOM     81  C   UNL     1      -5.010  -6.690  12.048  1.00  0.00     0.148 A 
ATOM     82  C   UNL     1      -3.745  -8.589  13.685  1.00  0.00     0.002 A 
ATOM     83  C   UNL     1      -5.727  -7.351  13.040  1.00  0.00     0.091 A 
ATOM     84  F   UNL     1      -5.596  -5.804  11.230  1.00  0.00    -0.205 F 
ATOM     85  C   UNL     1      -5.099  -8.308  13.852  1.00  0.00     0.022 A 
BRANCH  83  86
ATOM     86  S   UNL     1      -7.450  -6.969  13.382  1.00  0.00     0.127 S 
ATOM     87  O   UNL     1      -8.141  -8.049  12.681  1.00  0.00    -0.237 OA
ATOM     88  O   UNL     1      -7.510  -7.053  14.842  1.00  0.00    -0.237 OA
ATOM     89  O   UNL     1      -7.666  -5.629  12.852  1.00  0.00    -0.744 OA
ENDBRANCH  83  86
ENDBRANCH  56  79
ENDBRANCH  30  31
ENDBRANCH  23  25
ENDBRANCH  22  23
ENDBRANCH  21  22
ENDBRANCH   1  21
TORSDOF 17
