REMARK SMILES Cc1oc2c(c1C(=O)NCCCC(=O)OCCOC(=O)c1ccc(-c3c4nc(c(-c5cccc(S(=O)(=O)[O-])c5F)c5ccc([nH]5)c(-c5cccc(S(=O)(=O)[O-])c5F)c5nc(c(-c6cccc(S(=O)(=O)[O-])c6F)c6ccc3[nH]6)C=C5)C=C4)cc1)CCCC2
REMARK SMILES IDX 16 1 15 2 13 3 14 4 12 5 11 6 10 7 9 8 7 9 8 10 6 12 1 13
REMARK SMILES IDX 2 14 3 15 4 16 5 17 87 18 84 19 86 20 85 21 17 22 18 23
REMARK SMILES IDX 19 24 20 25 21 26 22 27 83 28 23 29 82 30 24 31 25 32 26 33
REMARK SMILES IDX 76 34 27 35 81 36 75 37 77 38 28 39 80 40 74 41 73 42 29 44
REMARK SMILES IDX 61 45 41 46 60 47 42 48 45 49 59 50 78 51 43 52 44 53 58 55
REMARK SMILES IDX 79 56 46 57 30 58 31 59 39 60 32 61 34 62 40 63 33 64 35 65
REMARK SMILES IDX 36 66 37 67 38 68 62 69 63 70 71 71 64 72 66 73 72 74 65 75
REMARK SMILES IDX 67 76 68 77 69 78 70 79 47 80 48 81 56 82 49 83 51 84 57 85
REMARK SMILES IDX 50 86 52 87 53 88 54 89 55 90
REMARK H PARENT 9 11 77 43 45 54
REMARK Flexibility Score: inf
ROOT
ATOM      1  C   UNL     1      -2.720   5.123  -0.133  1.00  0.00     0.274 C 
ENDROOT
BRANCH   1   2
ATOM      2  O   UNL     1      -1.773   4.572  -1.069  1.00  0.00    -0.462 OA
BRANCH   2   3
ATOM      3  C   UNL     1      -0.691   5.339  -1.364  1.00  0.00     0.305 C 
ATOM      4  O   UNL     1      -0.515   6.489  -0.976  1.00  0.00    -0.252 OA
BRANCH   3   5
ATOM      5  C   UNL     1       0.247   4.634  -2.316  1.00  0.00     0.124 C 
BRANCH   5   6
ATOM      6  C   UNL     1       0.931   3.380  -1.785  1.00  0.00     0.033 C 
BRANCH   6   7
ATOM      7  C   UNL     1       0.034   2.186  -1.467  1.00  0.00     0.117 C 
BRANCH   7   8
ATOM      8  N   UNL     1      -0.489   1.552  -2.646  1.00  0.00    -0.352 N 
ATOM      9  C   UNL     1      -0.548   0.263  -3.090  1.00  0.00     0.255 C 
ATOM     10  O   UNL     1      -1.072   0.167  -4.208  1.00  0.00    -0.269 OA
ATOM     11  H   UNL     1      -0.896   2.191  -3.275  1.00  0.00     0.163 HD
BRANCH   9  12
ATOM     12  C   UNL     1      -0.071  -0.948  -2.397  1.00  0.00     0.084 A 
ATOM     13  C   UNL     1       0.950  -0.526   0.074  1.00  0.00     0.088 C 
ATOM     14  C   UNL     1       0.515  -1.234  -1.154  1.00  0.00     0.114 A 
ATOM     15  O   UNL     1       0.777  -2.575  -1.038  1.00  0.00    -0.465 OA
ATOM     16  C   UNL     1       0.368  -3.165  -2.165  1.00  0.00     0.108 A 
ATOM     17  C   UNL     1      -0.175  -2.254  -3.028  1.00  0.00     0.007 A 
ATOM     18  C   UNL     1       0.524  -4.622  -2.337  1.00  0.00     0.076 C 
ATOM     19  C   UNL     1      -0.694  -2.673  -4.365  1.00  0.00     0.040 C 
ATOM     20  C   UNL     1       0.370  -4.955  -3.831  1.00  0.00     0.008 C 
ATOM     21  C   UNL     1      -0.823  -4.210  -4.465  1.00  0.00     0.005 C 
ENDBRANCH   9  12
ENDBRANCH   7   8
ENDBRANCH   6   7
ENDBRANCH   5   6
ENDBRANCH   3   5
ENDBRANCH   2   3
ENDBRANCH   1   2
BRANCH   1  22
ATOM     22  C   UNL     1      -2.397   4.729   1.303  1.00  0.00     0.275 C 
BRANCH  22  23
ATOM     23  O   UNL     1      -1.233   5.403   1.779  1.00  0.00    -0.458 OA
BRANCH  23  24
ATOM     24  C   UNL     1      -0.091   4.686   1.688  1.00  0.00     0.338 C 
ATOM     25  O   UNL     1       0.081   3.657   1.064  1.00  0.00    -0.246 OA
BRANCH  24  26
ATOM     26  C   UNL     1       0.913   5.223   2.607  1.00  0.00     0.060 A 
ATOM     27  C   UNL     1       2.244   4.819   2.436  1.00  0.00     0.016 A 
ATOM     28  C   UNL     1       0.485   5.904   3.750  1.00  0.00     0.016 A 
ATOM     29  C   UNL     1       3.135   5.005   3.475  1.00  0.00     0.010 A 
ATOM     30  C   UNL     1       1.367   6.070   4.790  1.00  0.00     0.010 A 
ATOM     31  C   UNL     1       2.667   5.573   4.662  1.00  0.00    -0.014 A 
BRANCH  31  32
ATOM     32  C   UNL     1       3.582   5.725   5.777  1.00  0.00     0.031 A 
ATOM     33  C   UNL     1       4.506   6.878   5.652  1.00  0.00     0.074 A 
ATOM     34  C   UNL     1       3.416   5.005   6.905  1.00  0.00     0.049 A 
ATOM     35  N   UNL     1       5.798   6.880   5.697  1.00  0.00    -0.248 NA
ATOM     36  C   UNL     1       3.916   8.182   5.304  1.00  0.00     0.031 C 
ATOM     37  C   UNL     1       2.303   4.092   7.195  1.00  0.00     0.029 A 
ATOM     38  N   UNL     1       4.082   5.078   8.092  1.00  0.00    -0.354 N 
ATOM     39  C   UNL     1       6.158   8.226   5.633  1.00  0.00     0.074 A 
ATOM     40  C   UNL     1       5.002   8.941   5.172  1.00  0.00     0.031 C 
ATOM     41  C   UNL     1       2.219   3.914   8.530  1.00  0.00     0.029 A 
ATOM     42  C   UNL     1       3.330   4.602   9.163  1.00  0.00     0.049 A 
ATOM     43  H   UNL     1       4.997   5.430   8.183  1.00  0.00     0.167 HD
ATOM     44  C   UNL     1       7.269   8.687   6.267  1.00  0.00     0.034 A 
ATOM     45  C   UNL     1       3.544   4.843  10.478  1.00  0.00     0.034 A 
ATOM     46  C   UNL     1       8.183   7.617   6.573  1.00  0.00     0.049 A 
ATOM     47  C   UNL     1       4.932   5.329  10.630  1.00  0.00     0.074 A 
ATOM     48  C   UNL     1       8.876   6.668   5.854  1.00  0.00     0.029 A 
ATOM     49  N   UNL     1       8.225   7.224   7.886  1.00  0.00    -0.354 N 
ATOM     50  N   UNL     1       5.991   4.593  10.440  1.00  0.00    -0.248 NA
ATOM     51  C   UNL     1       5.170   6.764  10.685  1.00  0.00     0.031 C 
ATOM     52  C   UNL     1       8.997   5.546   6.724  1.00  0.00     0.029 A 
ATOM     53  C   UNL     1       8.389   5.870   7.939  1.00  0.00     0.049 A 
ATOM     54  H   UNL     1       8.149   7.821   8.665  1.00  0.00     0.167 HD
ATOM     55  C   UNL     1       6.930   5.470   9.917  1.00  0.00     0.074 A 
ATOM     56  C   UNL     1       6.432   6.798  10.252  1.00  0.00     0.031 C 
ATOM     57  C   UNL     1       7.848   5.044   9.000  1.00  0.00     0.034 A 
BRANCH  44  58
ATOM     58  C   UNL     1       7.337  10.006   7.023  1.00  0.00     0.023 A 
ATOM     59  C   UNL     1       8.590  10.347   7.585  1.00  0.00     0.012 A 
ATOM     60  C   UNL     1       6.217  10.737   7.486  1.00  0.00     0.148 A 
ATOM     61  C   UNL     1       8.705  11.280   8.621  1.00  0.00     0.002 A 
ATOM     62  C   UNL     1       6.348  11.718   8.462  1.00  0.00     0.091 A 
ATOM     63  F   UNL     1       4.984  10.413   7.093  1.00  0.00    -0.205 F 
ATOM     64  C   UNL     1       7.582  11.965   9.063  1.00  0.00     0.022 A 
BRANCH  62  65
ATOM     65  S   UNL     1       4.927  12.659   9.037  1.00  0.00     0.127 S 
ATOM     66  O   UNL     1       4.647  12.009  10.313  1.00  0.00    -0.237 OA
ATOM     67  O   UNL     1       5.481  14.010   9.135  1.00  0.00    -0.237 OA
ATOM     68  O   UNL     1       3.914  12.507   7.999  1.00  0.00    -0.744 OA
ENDBRANCH  62  65
ENDBRANCH  44  58
BRANCH  45  69
ATOM     69  C   UNL     1       2.576   4.878  11.599  1.00  0.00     0.023 A 
ATOM     70  C   UNL     1       3.034   4.679  12.915  1.00  0.00     0.012 A 
ATOM     71  C   UNL     1       1.250   5.334  11.417  1.00  0.00     0.148 A 
ATOM     72  C   UNL     1       2.210   4.946  14.014  1.00  0.00     0.002 A 
ATOM     73  C   UNL     1       0.426   5.578  12.512  1.00  0.00     0.091 A 
ATOM     74  F   UNL     1       0.824   5.611  10.177  1.00  0.00    -0.205 F 
ATOM     75  C   UNL     1       0.908   5.398  13.814  1.00  0.00     0.022 A 
BRANCH  73  76
ATOM     76  S   UNL     1      -1.268   6.152  12.329  1.00  0.00     0.127 S 
ATOM     77  O   UNL     1      -1.990   5.266  13.243  1.00  0.00    -0.237 OA
ATOM     78  O   UNL     1      -1.169   7.540  12.772  1.00  0.00    -0.237 OA
ATOM     79  O   UNL     1      -1.603   5.957  10.923  1.00  0.00    -0.744 OA
ENDBRANCH  73  76
ENDBRANCH  45  69
BRANCH  57  80
ATOM     80  C   UNL     1       8.107   3.566   8.887  1.00  0.00     0.023 A 
ATOM     81  C   UNL     1       7.112   2.655   8.479  1.00  0.00     0.012 A 
ATOM     82  C   UNL     1       9.430   3.111   9.034  1.00  0.00     0.148 A 
ATOM     83  C   UNL     1       7.426   1.314   8.249  1.00  0.00     0.002 A 
ATOM     84  C   UNL     1       9.747   1.789   8.753  1.00  0.00     0.091 A 
ATOM     85  F   UNL     1      10.366   3.992   9.421  1.00  0.00    -0.205 F 
ATOM     86  C   UNL     1       8.745   0.884   8.371  1.00  0.00     0.022 A 
BRANCH  84  87
ATOM     87  S   UNL     1      11.448   1.216   8.757  1.00  0.00     0.127 S 
ATOM     88  O   UNL     1      11.537   0.527  10.042  1.00  0.00    -0.237 OA
ATOM     89  O   UNL     1      11.489   0.337   7.587  1.00  0.00    -0.237 OA
ATOM     90  O   UNL     1      12.268   2.414   8.624  1.00  0.00    -0.744 OA
ENDBRANCH  84  87
ENDBRANCH  57  80
ENDBRANCH  31  32
ENDBRANCH  24  26
ENDBRANCH  23  24
ENDBRANCH  22  23
ENDBRANCH   1  22
TORSDOF 18
