REMARK SMILES CCn1nc(-c2cccnc2)c2cc(C(=O)OCCOC(=O)c3ccc(-c4c5nc(c(-c6cccc(S(=O)(=O)[O-])c6F)c6ccc([nH]6)c(-c6cccc(S(=O)(=O)[O-])c6F)c6nc(c(-c7cccc(S(=O)(=O)[O-])c7F)c7ccc4[nH]7)C=C6)C=C5)cc3)sc21
REMARK SMILES IDX 19 1 18 2 17 3 15 4 16 5 14 6 3 7 4 8 87 9 5 10 12 11 86 12
REMARK SMILES IDX 13 13 2 14 1 15 6 16 7 17 11 18 8 19 10 20 9 21 20 22 21 23
REMARK SMILES IDX 22 24 23 25 24 26 85 27 25 28 84 29 26 30 27 31 28 32 78 33
REMARK SMILES IDX 29 34 83 35 77 36 79 37 30 38 82 39 76 40 75 41 31 43 63 44
REMARK SMILES IDX 43 45 62 46 44 47 47 48 61 49 80 50 45 51 46 52 60 54 81 55
REMARK SMILES IDX 48 56 32 57 33 58 41 59 34 60 36 61 42 62 35 63 37 64 38 65
REMARK SMILES IDX 39 66 40 67 64 68 65 69 73 70 66 71 68 72 74 73 67 74 69 75
REMARK SMILES IDX 70 76 71 77 72 78 49 79 50 80 58 81 51 82 53 83 59 84 52 85
REMARK SMILES IDX 54 86 55 87 56 88 57 89
REMARK H PARENT 79 42 47 53
REMARK Flexibility Score: inf
ROOT
ATOM      1  C   UNL     1       3.828  -6.815   4.838  1.00  0.00     0.275 C 
ENDROOT
BRANCH   1   2
ATOM      2  C   UNL     1       2.312  -6.697   4.834  1.00  0.00     0.275 C 
BRANCH   2   3
ATOM      3  O   UNL     1       1.895  -5.390   4.410  1.00  0.00    -0.458 OA
BRANCH   3   4
ATOM      4  C   UNL     1       1.784  -4.410   5.358  1.00  0.00     0.348 C 
ATOM      5  O   UNL     1       1.825  -4.612   6.570  1.00  0.00    -0.245 OA
BRANCH   4   6
ATOM      6  C   UNL     1       1.658  -3.102   4.737  1.00  0.00     0.115 A 
ATOM      7  N   UNL     1       0.927  -0.306   2.361  1.00  0.00    -0.254 N 
ATOM      8  N   UNL     1       0.983   0.876   3.039  1.00  0.00    -0.171 NA
ATOM      9  C   UNL     1       1.242  -1.345   3.156  1.00  0.00     0.122 A 
ATOM     10  C   UNL     1       1.410   0.539   4.288  1.00  0.00     0.103 A 
ATOM     11  C   UNL     1       1.535  -0.854   4.360  1.00  0.00     0.040 A 
ATOM     12  S   UNL     1       1.271  -2.991   3.036  1.00  0.00    -0.109 S 
ATOM     13  C   UNL     1       1.805  -1.831   5.322  1.00  0.00     0.040 A 
BRANCH   7  14
ATOM     14  C   UNL     1       0.390  -0.384   1.020  1.00  0.00     0.142 C 
ATOM     15  C   UNL     1       1.118   0.477   0.009  1.00  0.00     0.029 C 
ENDBRANCH   7  14
BRANCH  10  16
ATOM     16  C   UNL     1       1.581   1.562   5.305  1.00  0.00     0.021 A 
ATOM     17  C   UNL     1       0.527   2.422   5.631  1.00  0.00     0.013 A 
ATOM     18  C   UNL     1       2.792   1.762   5.954  1.00  0.00     0.121 A 
ATOM     19  C   UNL     1       0.715   3.424   6.582  1.00  0.00     0.021 A 
ATOM     20  N   UNL     1       3.004   2.730   6.883  1.00  0.00    -0.264 NA
ATOM     21  C   UNL     1       1.962   3.538   7.173  1.00  0.00     0.111 A 
ENDBRANCH  10  16
ENDBRANCH   4   6
ENDBRANCH   3   4
ENDBRANCH   2   3
ENDBRANCH   1   2
BRANCH   1  22
ATOM     22  O   UNL     1       4.372  -6.074   5.922  1.00  0.00    -0.458 OA
BRANCH  22  23
ATOM     23  C   UNL     1       4.762  -4.815   5.626  1.00  0.00     0.338 C 
ATOM     24  O   UNL     1       4.505  -4.181   4.617  1.00  0.00    -0.246 OA
BRANCH  23  25
ATOM     25  C   UNL     1       5.737  -4.383   6.626  1.00  0.00     0.060 A 
ATOM     26  C   UNL     1       6.279  -3.107   6.465  1.00  0.00     0.016 A 
ATOM     27  C   UNL     1       6.305  -5.339   7.482  1.00  0.00     0.016 A 
ATOM     28  C   UNL     1       7.521  -2.864   7.000  1.00  0.00     0.010 A 
ATOM     29  C   UNL     1       7.549  -5.101   8.002  1.00  0.00     0.010 A 
ATOM     30  C   UNL     1       8.172  -3.901   7.681  1.00  0.00    -0.014 A 
BRANCH  30  31
ATOM     31  C   UNL     1       9.494  -3.639   8.199  1.00  0.00     0.031 A 
ATOM     32  C   UNL     1       9.429  -2.697   9.338  1.00  0.00     0.074 A 
ATOM     33  C   UNL     1      10.582  -4.278   7.732  1.00  0.00     0.049 A 
ATOM     34  N   UNL     1       9.784  -1.456   9.351  1.00  0.00    -0.248 NA
ATOM     35  C   UNL     1       8.633  -3.103  10.511  1.00  0.00     0.031 C 
ATOM     36  C   UNL     1      10.614  -5.433   6.826  1.00  0.00     0.029 A 
ATOM     37  N   UNL     1      11.887  -4.133   8.085  1.00  0.00    -0.354 N 
ATOM     38  C   UNL     1       9.518  -1.029  10.650  1.00  0.00     0.074 A 
ATOM     39  C   UNL     1       8.577  -1.962  11.198  1.00  0.00     0.031 C 
ATOM     40  C   UNL     1      11.820  -6.039   6.925  1.00  0.00     0.029 A 
ATOM     41  C   UNL     1      12.674  -5.242   7.787  1.00  0.00     0.049 A 
ATOM     42  H   UNL     1      12.242  -3.320   8.511  1.00  0.00     0.167 HD
ATOM     43  C   UNL     1      10.383  -0.189  11.278  1.00  0.00     0.034 A 
ATOM     44  C   UNL     1      13.893  -5.522   8.311  1.00  0.00     0.034 A 
ATOM     45  C   UNL     1      11.257   0.442  10.321  1.00  0.00     0.049 A 
ATOM     46  C   UNL     1      14.433  -4.253   8.847  1.00  0.00     0.074 A 
ATOM     47  C   UNL     1      11.120   1.328   9.275  1.00  0.00     0.029 A 
ATOM     48  N   UNL     1      12.450  -0.213  10.151  1.00  0.00    -0.354 N 
ATOM     49  N   UNL     1      14.726  -3.222   8.103  1.00  0.00    -0.248 NA
ATOM     50  C   UNL     1      14.270  -3.974  10.266  1.00  0.00     0.031 C 
ATOM     51  C   UNL     1      12.133   0.967   8.337  1.00  0.00     0.029 A 
ATOM     52  C   UNL     1      12.888  -0.082   8.867  1.00  0.00     0.049 A 
ATOM     53  H   UNL     1      12.923  -0.708  10.858  1.00  0.00     0.167 HD
ATOM     54  C   UNL     1      14.325  -2.133   8.862  1.00  0.00     0.074 A 
ATOM     55  C   UNL     1      14.217  -2.641  10.226  1.00  0.00     0.031 C 
ATOM     56  C   UNL     1      13.815  -1.018   8.261  1.00  0.00     0.034 A 
BRANCH  43  57
ATOM     57  C   UNL     1      10.814  -0.336  12.731  1.00  0.00     0.023 A 
ATOM     58  C   UNL     1      11.714   0.638  13.221  1.00  0.00     0.012 A 
ATOM     59  C   UNL     1      10.653  -1.500  13.522  1.00  0.00     0.148 A 
ATOM     60  C   UNL     1      12.454   0.437  14.392  1.00  0.00     0.002 A 
ATOM     61  C   UNL     1      11.336  -1.664  14.722  1.00  0.00     0.091 A 
ATOM     62  F   UNL     1       9.941  -2.533  13.074  1.00  0.00    -0.205 F 
ATOM     63  C   UNL     1      12.263  -0.713  15.146  1.00  0.00     0.022 A 
BRANCH  61  64
ATOM     64  S   UNL     1      11.104  -3.123  15.749  1.00  0.00     0.127 S 
ATOM     65  O   UNL     1      12.395  -3.790  15.603  1.00  0.00    -0.237 OA
ATOM     66  O   UNL     1      10.860  -2.523  17.061  1.00  0.00    -0.237 OA
ATOM     67  O   UNL     1       9.956  -3.826  15.191  1.00  0.00    -0.744 OA
ENDBRANCH  61  64
ENDBRANCH  43  57
BRANCH  44  68
ATOM     68  C   UNL     1      14.463  -6.839   8.692  1.00  0.00     0.023 A 
ATOM     69  C   UNL     1      15.853  -6.982   8.879  1.00  0.00     0.012 A 
ATOM     70  C   UNL     1      13.624  -7.883   9.146  1.00  0.00     0.148 A 
ATOM     71  C   UNL     1      16.386  -8.112   9.516  1.00  0.00     0.002 A 
ATOM     72  C   UNL     1      14.158  -9.010   9.764  1.00  0.00     0.091 A 
ATOM     73  F   UNL     1      12.297  -7.728   9.055  1.00  0.00    -0.205 F 
ATOM     74  C   UNL     1      15.538  -9.122   9.963  1.00  0.00     0.022 A 
BRANCH  72  75
ATOM     75  S   UNL     1      13.123 -10.349  10.373  1.00  0.00     0.127 S 
ATOM     76  O   UNL     1      13.743 -11.515   9.744  1.00  0.00    -0.237 OA
ATOM     77  O   UNL     1      13.323 -10.255  11.817  1.00  0.00    -0.237 OA
ATOM     78  O   UNL     1      11.775 -10.060   9.902  1.00  0.00    -0.744 OA
ENDBRANCH  72  75
ENDBRANCH  44  68
BRANCH  56  79
ATOM     79  C   UNL     1      14.100  -0.814   6.799  1.00  0.00     0.023 A 
ATOM     80  C   UNL     1      13.530  -1.601   5.778  1.00  0.00     0.012 A 
ATOM     81  C   UNL     1      14.836   0.331   6.455  1.00  0.00     0.148 A 
ATOM     82  C   UNL     1      13.699  -1.245   4.435  1.00  0.00     0.002 A 
ATOM     83  C   UNL     1      14.955   0.709   5.128  1.00  0.00     0.091 A 
ATOM     84  F   UNL     1      15.372   1.056   7.448  1.00  0.00    -0.205 F 
ATOM     85  C   UNL     1      14.396  -0.081   4.111  1.00  0.00     0.022 A 
BRANCH  83  86
ATOM     86  S   UNL     1      15.719   2.264   4.668  1.00  0.00     0.127 S 
ATOM     87  O   UNL     1      16.963   1.820   4.042  1.00  0.00    -0.237 OA
ATOM     88  O   UNL     1      14.736   2.833   3.744  1.00  0.00    -0.237 OA
ATOM     89  O   UNL     1      15.880   3.019   5.905  1.00  0.00    -0.744 OA
ENDBRANCH  83  86
ENDBRANCH  56  79
ENDBRANCH  30  31
ENDBRANCH  23  25
ENDBRANCH  22  23
ENDBRANCH   1  22
TORSDOF 16
