REMARK SMILES CC(C)(C[NH+]1CCC(C(N)=S)CC1)C(=O)OCCOC(=O)c1ccc(-c2c3nc(c(-c4cccc(S(=O)(=O)[O-])c4F)c4ccc([nH]4)c(-c4cccc(S(=O)(=O)[O-])c4F)c4nc(c(-c5cccc(S(=O)(=O)[O-])c5F)c5ccc2[nH]5)C=C4)C=C3)cc1
REMARK SMILES IDX 17 1 16 2 14 3 15 4 2 5 1 6 3 7 4 8 5 9 6 10 13 11 7 13
REMARK SMILES IDX 12 14 8 15 9 16 11 17 10 18 18 21 19 22 20 23 21 24 22 25
REMARK SMILES IDX 23 26 84 27 24 28 83 29 25 30 26 31 27 32 77 33 28 34 82 35
REMARK SMILES IDX 76 36 78 37 29 38 81 39 75 40 74 41 30 43 62 44 42 45 61 46
REMARK SMILES IDX 43 47 46 48 60 49 79 50 44 51 45 52 59 54 80 55 47 56 31 57
REMARK SMILES IDX 32 58 40 59 33 60 35 61 41 62 34 63 36 64 37 65 38 66 39 67
REMARK SMILES IDX 63 68 64 69 72 70 65 71 67 72 73 73 66 74 68 75 69 76 70 77
REMARK SMILES IDX 71 78 48 79 49 80 57 81 50 82 52 83 58 84 51 85 53 86 54 87
REMARK SMILES IDX 55 88 56 89
REMARK H PARENT 5 12 10 19 10 20 78 42 46 53
REMARK Flexibility Score: inf
ROOT
ATOM      1  C   UNL     1       1.226  -3.359  -3.165  1.00  0.00     0.274 C 
ENDROOT
BRANCH   1   2
ATOM      2  O   UNL     1       0.464  -2.780  -2.086  1.00  0.00    -0.461 OA
BRANCH   2   3
ATOM      3  C   UNL     1       1.034  -2.739  -0.860  1.00  0.00     0.317 C 
ATOM      4  O   UNL     1       2.095  -3.293  -0.590  1.00  0.00    -0.251 OA
BRANCH   3   5
ATOM      5  C   UNL     1       0.229  -1.929   0.180  1.00  0.00     0.111 C 
ATOM      6  C   UNL     1       1.027  -0.685   0.561  1.00  0.00     0.029 C 
ATOM      7  C   UNL     1       0.211  -2.833   1.443  1.00  0.00     0.029 C 
BRANCH   5   8
ATOM      8  C   UNL     1      -1.266  -1.592  -0.170  1.00  0.00     0.280 C 
BRANCH   8   9
ATOM      9  N   UNL     1      -1.743  -0.551  -1.113  1.00  0.00    -0.334 N 
ATOM     10  C   UNL     1      -1.592   0.843  -0.684  1.00  0.00     0.262 C 
ATOM     11  C   UNL     1      -1.343  -0.772  -2.494  1.00  0.00     0.262 C 
ATOM     12  H   UNL     1      -2.753  -0.691  -1.082  1.00  0.00     0.348 HD
ATOM     13  C   UNL     1      -2.248   1.836  -1.661  1.00  0.00     0.072 C 
ATOM     14  C   UNL     1      -2.006   0.171  -3.490  1.00  0.00     0.072 C 
ATOM     15  C   UNL     1      -1.735   1.618  -3.088  1.00  0.00     0.058 C 
BRANCH  15  16
ATOM     16  C   UNL     1      -2.280   2.582  -4.134  1.00  0.00     0.076 C 
ATOM     17  S   UNL     1      -3.892   2.931  -4.375  1.00  0.00    -0.066 S 
BRANCH  16  18
ATOM     18  N   UNL     1      -1.348   3.132  -4.969  1.00  0.00    -0.393 N 
ATOM     19  H   UNL     1      -0.392   2.934  -4.838  1.00  0.00     0.157 HD
ATOM     20  H   UNL     1      -1.632   3.725  -5.702  1.00  0.00     0.157 HD
ENDBRANCH  16  18
ENDBRANCH  15  16
ENDBRANCH   8   9
ENDBRANCH   5   8
ENDBRANCH   3   5
ENDBRANCH   2   3
ENDBRANCH   1   2
BRANCH   1  21
ATOM     21  C   UNL     1       1.073  -2.510  -4.443  1.00  0.00     0.275 C 
BRANCH  21  22
ATOM     22  O   UNL     1       1.344  -1.092  -4.327  1.00  0.00    -0.458 OA
BRANCH  22  23
ATOM     23  C   UNL     1       2.458  -0.708  -3.666  1.00  0.00     0.338 C 
ATOM     24  O   UNL     1       3.327  -1.436  -3.219  1.00  0.00    -0.246 OA
BRANCH  23  25
ATOM     25  C   UNL     1       2.378   0.735  -3.363  1.00  0.00     0.060 A 
ATOM     26  C   UNL     1       2.539   1.097  -2.027  1.00  0.00     0.016 A 
ATOM     27  C   UNL     1       2.195   1.725  -4.331  1.00  0.00     0.016 A 
ATOM     28  C   UNL     1       2.442   2.426  -1.634  1.00  0.00     0.010 A 
ATOM     29  C   UNL     1       2.248   3.079  -3.953  1.00  0.00     0.010 A 
ATOM     30  C   UNL     1       2.389   3.439  -2.600  1.00  0.00    -0.014 A 
BRANCH  30  31
ATOM     31  C   UNL     1       2.702   4.832  -2.174  1.00  0.00     0.031 A 
ATOM     32  C   UNL     1       1.707   5.948  -2.289  1.00  0.00     0.074 A 
ATOM     33  C   UNL     1       3.926   5.071  -1.655  1.00  0.00     0.049 A 
ATOM     34  N   UNL     1       1.873   7.223  -2.050  1.00  0.00    -0.248 NA
ATOM     35  C   UNL     1       0.350   5.591  -2.723  1.00  0.00     0.031 C 
ATOM     36  C   UNL     1       4.971   4.057  -1.470  1.00  0.00     0.029 A 
ATOM     37  N   UNL     1       4.505   6.222  -1.182  1.00  0.00    -0.354 N 
ATOM     38  C   UNL     1       0.661   7.832  -2.352  1.00  0.00     0.074 A 
ATOM     39  C   UNL     1      -0.240   6.780  -2.778  1.00  0.00     0.031 C 
ATOM     40  C   UNL     1       6.045   4.620  -0.903  1.00  0.00     0.029 A 
ATOM     41  C   UNL     1       5.810   6.051  -0.781  1.00  0.00     0.049 A 
ATOM     42  H   UNL     1       4.033   7.085  -1.135  1.00  0.00     0.167 HD
ATOM     43  C   UNL     1       0.336   9.146  -2.274  1.00  0.00     0.034 A 
ATOM     44  C   UNL     1       6.745   6.946  -0.411  1.00  0.00     0.034 A 
ATOM     45  C   UNL     1       1.235  10.173  -1.807  1.00  0.00     0.049 A 
ATOM     46  C   UNL     1       6.367   8.395  -0.370  1.00  0.00     0.074 A 
ATOM     47  C   UNL     1       0.996  11.530  -1.669  1.00  0.00     0.029 A 
ATOM     48  N   UNL     1       2.546   9.960  -1.404  1.00  0.00    -0.354 N 
ATOM     49  N   UNL     1       5.207   8.947  -0.626  1.00  0.00    -0.248 NA
ATOM     50  C   UNL     1       7.417   9.342   0.023  1.00  0.00     0.031 C 
ATOM     51  C   UNL     1       2.168  12.139  -1.209  1.00  0.00     0.029 A 
ATOM     52  C   UNL     1       3.130  11.158  -1.027  1.00  0.00     0.049 A 
ATOM     53  H   UNL     1       2.995   9.084  -1.388  1.00  0.00     0.167 HD
ATOM     54  C   UNL     1       5.376  10.305  -0.401  1.00  0.00     0.074 A 
ATOM     55  C   UNL     1       6.747  10.486   0.036  1.00  0.00     0.031 C 
ATOM     56  C   UNL     1       4.483  11.312  -0.555  1.00  0.00     0.034 A 
BRANCH  43  57
ATOM     57  C   UNL     1      -1.048   9.562  -2.705  1.00  0.00     0.023 A 
ATOM     58  C   UNL     1      -2.160   9.280  -1.888  1.00  0.00     0.012 A 
ATOM     59  C   UNL     1      -1.234  10.304  -3.890  1.00  0.00     0.148 A 
ATOM     60  C   UNL     1      -3.437   9.707  -2.255  1.00  0.00     0.002 A 
ATOM     61  C   UNL     1      -2.503  10.763  -4.227  1.00  0.00     0.091 A 
ATOM     62  F   UNL     1      -0.168  10.544  -4.667  1.00  0.00    -0.205 F 
ATOM     63  C   UNL     1      -3.607  10.457  -3.416  1.00  0.00     0.022 A 
BRANCH  61  64
ATOM     64  S   UNL     1      -2.806  11.803  -5.661  1.00  0.00     0.127 S 
ATOM     65  O   UNL     1      -3.513  10.882  -6.550  1.00  0.00    -0.237 OA
ATOM     66  O   UNL     1      -3.637  12.868  -5.101  1.00  0.00    -0.237 OA
ATOM     67  O   UNL     1      -1.496  12.237  -6.126  1.00  0.00    -0.744 OA
ENDBRANCH  61  64
ENDBRANCH  43  57
BRANCH  44  68
ATOM     68  C   UNL     1       8.121   6.482  -0.075  1.00  0.00     0.023 A 
ATOM     69  C   UNL     1       8.587   6.567   1.250  1.00  0.00     0.012 A 
ATOM     70  C   UNL     1       8.946   5.897  -1.058  1.00  0.00     0.148 A 
ATOM     71  C   UNL     1       9.856   6.093   1.586  1.00  0.00     0.002 A 
ATOM     72  C   UNL     1      10.180   5.368  -0.703  1.00  0.00     0.091 A 
ATOM     73  F   UNL     1       8.493   5.845  -2.318  1.00  0.00    -0.205 F 
ATOM     74  C   UNL     1      10.645   5.479   0.616  1.00  0.00     0.022 A 
BRANCH  72  75
ATOM     75  S   UNL     1      11.183   4.427  -1.859  1.00  0.00     0.127 S 
ATOM     76  O   UNL     1      12.262   5.367  -2.151  1.00  0.00    -0.237 OA
ATOM     77  O   UNL     1      11.574   3.271  -1.052  1.00  0.00    -0.237 OA
ATOM     78  O   UNL     1      10.299   4.106  -2.971  1.00  0.00    -0.744 OA
ENDBRANCH  72  75
ENDBRANCH  44  68
BRANCH  56  79
ATOM     79  C   UNL     1       4.953  12.699  -0.207  1.00  0.00     0.023 A 
ATOM     80  C   UNL     1       5.858  13.368  -1.055  1.00  0.00     0.012 A 
ATOM     81  C   UNL     1       4.465  13.351   0.941  1.00  0.00     0.148 A 
ATOM     82  C   UNL     1       6.300  14.653  -0.743  1.00  0.00     0.002 A 
ATOM     83  C   UNL     1       4.870  14.650   1.218  1.00  0.00     0.091 A 
ATOM     84  F   UNL     1       3.623  12.686   1.745  1.00  0.00    -0.205 F 
ATOM     85  C   UNL     1       5.798  15.297   0.386  1.00  0.00     0.022 A 
BRANCH  83  86
ATOM     86  S   UNL     1       4.204  15.588   2.596  1.00  0.00     0.127 S 
ATOM     87  O   UNL     1       5.334  15.596   3.524  1.00  0.00    -0.237 OA
ATOM     88  O   UNL     1       3.912  16.882   1.978  1.00  0.00    -0.237 OA
ATOM     89  O   UNL     1       3.028  14.857   3.048  1.00  0.00    -0.744 OA
ENDBRANCH  83  86
ENDBRANCH  56  79
ENDBRANCH  30  31
ENDBRANCH  23  25
ENDBRANCH  22  23
ENDBRANCH  21  22
ENDBRANCH   1  21
TORSDOF 18
