REMARK SMILES O=C(C[N@@H+]1CCC[C@@H]1c1ccccc1Cl)OCCOC(=O)c1ccc(-c2c3nc(c(-c4cccc(S(=O)(=O)[O-])c4F)c4ccc([nH]4)c(-c4cccc(S(=O)(=O)[O-])c4F)c4nc(c(-c5cccc(S(=O)(=O)[O-])c5F)c5ccc2[nH]5)C=C4)C=C3)cc1
REMARK SMILES IDX 18 1 17 2 16 3 2 4 1 5 3 6 4 7 5 8 8 9 6 11 7 12 9 13 10 14
REMARK SMILES IDX 14 15 11 16 13 17 15 18 12 19 19 20 20 21 21 22 22 23 23 24
REMARK SMILES IDX 84 25 24 26 83 27 25 28 26 29 27 30 77 31 28 32 82 33 76 34
REMARK SMILES IDX 78 35 29 36 81 37 75 38 74 39 30 41 62 42 42 43 61 44 43 45
REMARK SMILES IDX 46 46 60 47 79 48 44 49 45 50 59 52 80 53 47 54 31 55 32 56
REMARK SMILES IDX 40 57 33 58 35 59 41 60 34 61 36 62 37 63 38 64 39 65 63 66
REMARK SMILES IDX 64 67 72 68 65 69 67 70 73 71 66 72 68 73 69 74 70 75 71 76
REMARK SMILES IDX 48 77 49 78 57 79 50 80 52 81 58 82 51 83 53 84 54 85 55 86
REMARK SMILES IDX 56 87
REMARK H PARENT 4 10 78 40 46 51
REMARK Flexibility Score: inf
ROOT
ATOM      1  C   UNL     1       4.510  -0.468  -1.964  1.00  0.00     0.275 C 
ENDROOT
BRANCH   1   2
ATOM      2  C   UNL     1       4.496  -0.846  -0.484  1.00  0.00     0.274 C 
BRANCH   2   3
ATOM      3  O   UNL     1       3.191  -1.321  -0.096  1.00  0.00    -0.458 OA
BRANCH   3   4
ATOM      4  C   UNL     1       2.313  -0.671   0.697  1.00  0.00     0.361 C 
ATOM      5  O   UNL     1       1.250  -1.217   0.998  1.00  0.00    -0.245 OA
BRANCH   4   6
ATOM      6  C   UNL     1       2.625   0.732   1.192  1.00  0.00     0.387 C 
BRANCH   6   7
ATOM      7  N   UNL     1       3.681   0.907   2.245  1.00  0.00    -0.319 N 
ATOM      8  C   UNL     1       3.829  -0.287   3.093  1.00  0.00     0.263 C 
ATOM      9  C   UNL     1       3.367   2.009   3.271  1.00  0.00     0.217 C 
ATOM     10  H   UNL     1       4.509   1.125   1.690  1.00  0.00     0.349 HD
ATOM     11  C   UNL     1       2.663  -0.215   4.044  1.00  0.00     0.068 C 
ATOM     12  C   UNL     1       2.589   1.257   4.378  1.00  0.00     0.076 C 
BRANCH   9  13
ATOM     13  C   UNL     1       2.627   3.255   2.802  1.00  0.00     0.028 A 
ATOM     14  C   UNL     1       2.649   3.563   1.455  1.00  0.00     0.011 A 
ATOM     15  C   UNL     1       1.755   4.017   3.607  1.00  0.00     0.050 A 
ATOM     16  C   UNL     1       1.501   4.095   0.900  1.00  0.00     0.001 A 
ATOM     17  C   UNL     1       0.679   4.704   3.036  1.00  0.00     0.021 A 
ATOM     18  Cl  UNL     1       1.956   4.165   5.316  1.00  0.00    -0.084 Cl
ATOM     19  C   UNL     1       0.491   4.645   1.670  1.00  0.00     0.002 A 
ENDBRANCH   9  13
ENDBRANCH   6   7
ENDBRANCH   4   6
ENDBRANCH   3   4
ENDBRANCH   2   3
ENDBRANCH   1   2
BRANCH   1  20
ATOM     20  O   UNL     1       3.997   0.864  -2.145  1.00  0.00    -0.458 OA
BRANCH  20  21
ATOM     21  C   UNL     1       2.734   0.981  -2.633  1.00  0.00     0.338 C 
ATOM     22  O   UNL     1       1.986   0.076  -2.922  1.00  0.00    -0.246 OA
BRANCH  21  23
ATOM     23  C   UNL     1       2.357   2.424  -2.643  1.00  0.00     0.060 A 
ATOM     24  C   UNL     1       1.004   2.761  -2.525  1.00  0.00     0.016 A 
ATOM     25  C   UNL     1       3.319   3.442  -2.714  1.00  0.00     0.016 A 
ATOM     26  C   UNL     1       0.631   4.108  -2.412  1.00  0.00     0.010 A 
ATOM     27  C   UNL     1       2.946   4.787  -2.594  1.00  0.00     0.010 A 
ATOM     28  C   UNL     1       1.605   5.135  -2.400  1.00  0.00    -0.014 A 
BRANCH  28  29
ATOM     29  C   UNL     1       1.179   6.558  -2.255  1.00  0.00     0.031 A 
ATOM     30  C   UNL     1       0.486   7.178  -3.422  1.00  0.00     0.074 A 
ATOM     31  C   UNL     1       1.389   7.304  -1.147  1.00  0.00     0.049 A 
ATOM     32  N   UNL     1      -0.097   8.340  -3.514  1.00  0.00    -0.248 NA
ATOM     33  C   UNL     1       0.507   6.396  -4.669  1.00  0.00     0.031 C 
ATOM     34  C   UNL     1       2.195   6.910  -0.002  1.00  0.00     0.029 A 
ATOM     35  N   UNL     1       0.914   8.545  -0.779  1.00  0.00    -0.354 N 
ATOM     36  C   UNL     1      -0.461   8.458  -4.844  1.00  0.00     0.074 A 
ATOM     37  C   UNL     1      -0.074   7.233  -5.510  1.00  0.00     0.031 C 
ATOM     38  C   UNL     1       2.026   7.788   1.002  1.00  0.00     0.029 A 
ATOM     39  C   UNL     1       1.204   8.893   0.530  1.00  0.00     0.049 A 
ATOM     40  H   UNL     1       0.414   9.132  -1.391  1.00  0.00     0.167 HD
ATOM     41  C   UNL     1      -1.022   9.512  -5.473  1.00  0.00     0.034 A 
ATOM     42  C   UNL     1       0.866   9.983   1.254  1.00  0.00     0.034 A 
ATOM     43  C   UNL     1      -1.324  10.763  -4.843  1.00  0.00     0.049 A 
ATOM     44  C   UNL     1       0.159  11.112   0.544  1.00  0.00     0.074 A 
ATOM     45  C   UNL     1      -1.863  11.900  -5.415  1.00  0.00     0.029 A 
ATOM     46  N   UNL     1      -1.076  11.058  -3.512  1.00  0.00    -0.354 N 
ATOM     47  N   UNL     1      -0.301  11.157  -0.682  1.00  0.00    -0.248 NA
ATOM     48  C   UNL     1      -0.044  12.357   1.304  1.00  0.00     0.031 C 
ATOM     49  C   UNL     1      -1.913  12.895  -4.435  1.00  0.00     0.029 A 
ATOM     50  C   UNL     1      -1.452  12.361  -3.242  1.00  0.00     0.049 A 
ATOM     51  H   UNL     1      -0.690  10.433  -2.857  1.00  0.00     0.167 HD
ATOM     52  C   UNL     1      -0.840  12.428  -0.842  1.00  0.00     0.074 A 
ATOM     53  C   UNL     1      -0.703  13.105   0.430  1.00  0.00     0.031 C 
ATOM     54  C   UNL     1      -1.363  12.998  -1.954  1.00  0.00     0.034 A 
BRANCH  41  55
ATOM     55  C   UNL     1      -1.270   9.345  -6.942  1.00  0.00     0.023 A 
ATOM     56  C   UNL     1      -2.300   8.488  -7.381  1.00  0.00     0.012 A 
ATOM     57  C   UNL     1      -0.443   9.986  -7.880  1.00  0.00     0.148 A 
ATOM     58  C   UNL     1      -2.471   8.235  -8.740  1.00  0.00     0.002 A 
ATOM     59  C   UNL     1      -0.652   9.768  -9.233  1.00  0.00     0.091 A 
ATOM     60  F   UNL     1       0.552  10.764  -7.431  1.00  0.00    -0.205 F 
ATOM     61  C   UNL     1      -1.653   8.880  -9.665  1.00  0.00     0.022 A 
BRANCH  59  62
ATOM     62  S   UNL     1       0.308  10.591 -10.504  1.00  0.00     0.127 S 
ATOM     63  O   UNL     1       1.025   9.467 -11.107  1.00  0.00    -0.237 OA
ATOM     64  O   UNL     1      -0.738  11.171 -11.345  1.00  0.00    -0.237 OA
ATOM     65  O   UNL     1       1.146  11.562  -9.814  1.00  0.00    -0.744 OA
ENDBRANCH  59  62
ENDBRANCH  41  55
BRANCH  42  66
ATOM     66  C   UNL     1       1.179  10.108   2.717  1.00  0.00     0.023 A 
ATOM     67  C   UNL     1       0.115  10.269   3.634  1.00  0.00     0.012 A 
ATOM     68  C   UNL     1       2.497  10.134   3.211  1.00  0.00     0.148 A 
ATOM     69  C   UNL     1       0.358  10.499   4.991  1.00  0.00     0.002 A 
ATOM     70  C   UNL     1       2.730  10.291   4.576  1.00  0.00     0.091 A 
ATOM     71  F   UNL     1       3.507  10.029   2.337  1.00  0.00    -0.205 F 
ATOM     72  C   UNL     1       1.666  10.499   5.464  1.00  0.00     0.022 A 
BRANCH  70  73
ATOM     73  S   UNL     1       4.377  10.169   5.285  1.00  0.00     0.127 S 
ATOM     74  O   UNL     1       4.678  11.565   5.588  1.00  0.00    -0.237 OA
ATOM     75  O   UNL     1       4.145   9.321   6.455  1.00  0.00    -0.237 OA
ATOM     76  O   UNL     1       5.198   9.550   4.253  1.00  0.00    -0.744 OA
ENDBRANCH  70  73
ENDBRANCH  42  66
BRANCH  54  77
ATOM     77  C   UNL     1      -1.873  14.411  -1.850  1.00  0.00     0.023 A 
ATOM     78  C   UNL     1      -0.970  15.486  -1.747  1.00  0.00     0.012 A 
ATOM     79  C   UNL     1      -3.252  14.671  -1.972  1.00  0.00     0.148 A 
ATOM     80  C   UNL     1      -1.435  16.801  -1.747  1.00  0.00     0.002 A 
ATOM     81  C   UNL     1      -3.702  15.983  -2.027  1.00  0.00     0.091 A 
ATOM     82  F   UNL     1      -4.093  13.630  -2.047  1.00  0.00    -0.205 F 
ATOM     83  C   UNL     1      -2.797  17.049  -1.903  1.00  0.00     0.022 A 
BRANCH  81  84
ATOM     84  S   UNL     1      -5.422  16.393  -2.337  1.00  0.00     0.127 S 
ATOM     85  O   UNL     1      -5.843  16.913  -1.037  1.00  0.00    -0.237 OA
ATOM     86  O   UNL     1      -5.314  17.401  -3.393  1.00  0.00    -0.237 OA
ATOM     87  O   UNL     1      -6.064  15.152  -2.750  1.00  0.00    -0.744 OA
ENDBRANCH  81  84
ENDBRANCH  54  77
ENDBRANCH  28  29
ENDBRANCH  21  23
ENDBRANCH  20  21
ENDBRANCH   1  20
TORSDOF 16
