REMARK SMILES C[C@H]1[C@H](C(=O)OCCOC(=O)c2ccc(-c3c4nc(c(-c5cccc(S(=O)(=O)[O-])c5F)c5ccc([nH]5)c(-c5cccc(S(=O)(=O)[O-])c5F)c5nc(c(-c6cccc(S(=O)(=O)[O-])c6F)c6ccc3[nH]6)C=C5)C=C4)cc2)CC[N@@H+]1[C@@H](c1ccccc1)c1ccco1
REMARK SMILES IDX 8 1 7 2 6 3 4 4 5 5 3 6 1 7 2 8 77 9 75 10 76 11 78 13 79 14
REMARK SMILES IDX 80 15 84 16 81 17 83 18 82 19 85 20 86 21 89 22 87 23 88 24
REMARK SMILES IDX 9 25 10 26 11 27 12 28 13 29 74 30 14 31 73 32 15 33 16 34
REMARK SMILES IDX 17 35 67 36 18 37 72 38 66 39 68 40 19 41 71 42 65 43 64 44
REMARK SMILES IDX 20 46 52 47 32 48 51 49 33 50 36 51 50 52 69 53 34 54 35 55
REMARK SMILES IDX 49 57 70 58 37 59 21 60 22 61 30 62 23 63 25 64 31 65 24 66
REMARK SMILES IDX 26 67 27 68 28 69 29 70 53 71 54 72 62 73 55 74 57 75 63 76
REMARK SMILES IDX 56 77 58 78 59 79 60 80 61 81 38 82 39 83 47 84 40 85 42 86
REMARK SMILES IDX 48 87 41 88 43 89 44 90 45 91 46 92
REMARK H PARENT 77 12 68 45 36 56
REMARK Flexibility Score: inf
ROOT
ATOM      1  C   UNL     1       1.030   3.709   3.594  1.00  0.00     0.275 C 
ENDROOT
BRANCH   1   2
ATOM      2  C   UNL     1      -0.341   3.118   3.269  1.00  0.00     0.274 C 
BRANCH   2   3
ATOM      3  O   UNL     1      -0.194   2.041   2.323  1.00  0.00    -0.462 OA
BRANCH   3   4
ATOM      4  C   UNL     1      -0.780   2.191   1.113  1.00  0.00     0.315 C 
ATOM      5  O   UNL     1      -1.491   3.142   0.801  1.00  0.00    -0.252 OA
BRANCH   4   6
ATOM      6  C   UNL     1      -0.436   1.095   0.119  1.00  0.00     0.162 C 
ATOM      7  C   UNL     1       1.689  -0.208  -0.274  1.00  0.00     0.076 C 
ATOM      8  C   UNL     1       0.440  -0.064   0.612  1.00  0.00     0.196 C 
ATOM      9  N   UNL     1      -0.359  -1.288   0.446  1.00  0.00    -0.319 N 
ATOM     10  C   UNL     1      -1.709   0.473  -0.435  1.00  0.00     0.083 C 
ATOM     11  C   UNL     1      -1.422  -1.010  -0.513  1.00  0.00     0.264 C 
ATOM     12  H   UNL     1       0.216  -2.027   0.044  1.00  0.00     0.349 HD
BRANCH   9  13
ATOM     13  C   UNL     1      -0.736  -1.966   1.706  1.00  0.00     0.283 C 
BRANCH  13  14
ATOM     14  C   UNL     1      -1.466  -1.122   2.755  1.00  0.00     0.017 A 
ATOM     15  C   UNL     1      -0.817  -0.803   3.963  1.00  0.00     0.010 A 
ATOM     16  C   UNL     1      -2.775  -0.650   2.572  1.00  0.00     0.010 A 
ATOM     17  C   UNL     1      -1.449  -0.029   4.940  1.00  0.00     0.001 A 
ATOM     18  C   UNL     1      -3.397   0.147   3.536  1.00  0.00     0.001 A 
ATOM     19  C   UNL     1      -2.735   0.456   4.720  1.00  0.00     0.000 A 
ENDBRANCH  13  14
BRANCH  13  20
ATOM     20  C   UNL     1      -1.366  -3.312   1.417  1.00  0.00     0.165 A 
ATOM     21  C   UNL     1      -0.932  -4.389   0.665  1.00  0.00     0.052 A 
ATOM     22  O   UNL     1      -2.604  -3.585   1.928  1.00  0.00    -0.463 OA
ATOM     23  C   UNL     1      -1.961  -5.357   0.711  1.00  0.00     0.042 A 
ATOM     24  C   UNL     1      -2.954  -4.821   1.494  1.00  0.00     0.195 A 
ENDBRANCH  13  20
ENDBRANCH   9  13
ENDBRANCH   4   6
ENDBRANCH   3   4
ENDBRANCH   2   3
ENDBRANCH   1   2
BRANCH   1  25
ATOM     25  O   UNL     1       1.567   4.386   2.447  1.00  0.00    -0.458 OA
BRANCH  25  26
ATOM     26  C   UNL     1       2.297   3.606   1.617  1.00  0.00     0.338 C 
ATOM     27  O   UNL     1       2.616   2.441   1.773  1.00  0.00    -0.246 OA
BRANCH  26  28
ATOM     28  C   UNL     1       2.557   4.352   0.384  1.00  0.00     0.060 A 
ATOM     29  C   UNL     1       1.799   4.051  -0.748  1.00  0.00     0.016 A 
ATOM     30  C   UNL     1       3.590   5.282   0.327  1.00  0.00     0.016 A 
ATOM     31  C   UNL     1       2.101   4.634  -1.970  1.00  0.00     0.010 A 
ATOM     32  C   UNL     1       3.861   5.907  -0.889  1.00  0.00     0.010 A 
ATOM     33  C   UNL     1       3.134   5.570  -2.047  1.00  0.00    -0.014 A 
BRANCH  33  34
ATOM     34  C   UNL     1       3.492   6.193  -3.338  1.00  0.00     0.031 A 
ATOM     35  C   UNL     1       4.842   5.917  -3.928  1.00  0.00     0.074 A 
ATOM     36  C   UNL     1       2.639   7.053  -3.923  1.00  0.00     0.049 A 
ATOM     37  N   UNL     1       5.466   6.542  -4.888  1.00  0.00    -0.248 NA
ATOM     38  C   UNL     1       5.598   4.796  -3.343  1.00  0.00     0.031 C 
ATOM     39  C   UNL     1       1.288   7.362  -3.449  1.00  0.00     0.029 A 
ATOM     40  N   UNL     1       2.801   7.862  -5.019  1.00  0.00    -0.354 N 
ATOM     41  C   UNL     1       6.716   5.942  -4.975  1.00  0.00     0.074 A 
ATOM     42  C   UNL     1       6.755   4.889  -3.983  1.00  0.00     0.031 C 
ATOM     43  C   UNL     1       0.758   8.318  -4.227  1.00  0.00     0.029 A 
ATOM     44  C   UNL     1       1.754   8.733  -5.208  1.00  0.00     0.049 A 
ATOM     45  H   UNL     1       3.588   7.822  -5.611  1.00  0.00     0.167 HD
ATOM     46  C   UNL     1       7.734   6.250  -5.809  1.00  0.00     0.034 A 
ATOM     47  C   UNL     1       1.637   9.786  -6.039  1.00  0.00     0.034 A 
ATOM     48  C   UNL     1       7.651   7.270  -6.819  1.00  0.00     0.049 A 
ATOM     49  C   UNL     1       2.786  10.112  -6.952  1.00  0.00     0.074 A 
ATOM     50  C   UNL     1       8.606   7.643  -7.747  1.00  0.00     0.029 A 
ATOM     51  N   UNL     1       6.543   8.077  -7.033  1.00  0.00    -0.354 N 
ATOM     52  N   UNL     1       3.944   9.506  -7.067  1.00  0.00    -0.248 NA
ATOM     53  C   UNL     1       2.612  11.253  -7.862  1.00  0.00     0.031 C 
ATOM     54  C   UNL     1       8.079   8.686  -8.514  1.00  0.00     0.029 A 
ATOM     55  C   UNL     1       6.788   8.947  -8.079  1.00  0.00     0.049 A 
ATOM     56  H   UNL     1       5.706   8.036  -6.517  1.00  0.00     0.167 HD
ATOM     57  C   UNL     1       4.620  10.164  -8.086  1.00  0.00     0.074 A 
ATOM     58  C   UNL     1       3.739  11.212  -8.561  1.00  0.00     0.031 C 
ATOM     59  C   UNL     1       5.862   9.932  -8.577  1.00  0.00     0.034 A 
BRANCH  46  60
ATOM     60  C   UNL     1       9.015   5.472  -5.676  1.00  0.00     0.023 A 
ATOM     61  C   UNL     1       9.077   4.141  -6.131  1.00  0.00     0.012 A 
ATOM     62  C   UNL     1      10.172   6.077  -5.144  1.00  0.00     0.148 A 
ATOM     63  C   UNL     1      10.263   3.413  -6.034  1.00  0.00     0.002 A 
ATOM     64  C   UNL     1      11.361   5.359  -5.089  1.00  0.00     0.091 A 
ATOM     65  F   UNL     1      10.085   7.336  -4.692  1.00  0.00    -0.205 F 
ATOM     66  C   UNL     1      11.406   4.025  -5.524  1.00  0.00     0.022 A 
BRANCH  64  67
ATOM     67  S   UNL     1      12.901   6.084  -4.515  1.00  0.00     0.127 S 
ATOM     68  O   UNL     1      13.065   5.437  -3.214  1.00  0.00    -0.237 OA
ATOM     69  O   UNL     1      13.850   5.644  -5.539  1.00  0.00    -0.237 OA
ATOM     70  O   UNL     1      12.677   7.522  -4.476  1.00  0.00    -0.744 OA
ENDBRANCH  64  67
ENDBRANCH  46  60
BRANCH  47  71
ATOM     71  C   UNL     1       0.381  10.588  -6.048  1.00  0.00     0.023 A 
ATOM     72  C   UNL     1      -0.477  10.509  -7.161  1.00  0.00     0.012 A 
ATOM     73  C   UNL     1       0.006  11.383  -4.946  1.00  0.00     0.148 A 
ATOM     74  C   UNL     1      -1.675  11.224  -7.186  1.00  0.00     0.002 A 
ATOM     75  C   UNL     1      -1.214  12.049  -4.955  1.00  0.00     0.091 A 
ATOM     76  F   UNL     1       0.844  11.459  -3.902  1.00  0.00    -0.205 F 
ATOM     77  C   UNL     1      -2.050  11.983  -6.080  1.00  0.00     0.022 A 
BRANCH  75  78
ATOM     78  S   UNL     1      -1.834  12.939  -3.522  1.00  0.00     0.127 S 
ATOM     79  O   UNL     1      -1.669  14.329  -3.940  1.00  0.00    -0.237 OA
ATOM     80  O   UNL     1      -3.221  12.477  -3.453  1.00  0.00    -0.237 OA
ATOM     81  O   UNL     1      -1.004  12.508  -2.405  1.00  0.00    -0.744 OA
ENDBRANCH  75  78
ENDBRANCH  47  71
BRANCH  59  82
ATOM     82  C   UNL     1       6.330  10.780  -9.726  1.00  0.00     0.023 A 
ATOM     83  C   UNL     1       6.764  12.098  -9.492  1.00  0.00     0.012 A 
ATOM     84  C   UNL     1       6.452  10.223 -11.014  1.00  0.00     0.148 A 
ATOM     85  C   UNL     1       7.302  12.857 -10.530  1.00  0.00     0.002 A 
ATOM     86  C   UNL     1       7.031  10.968 -12.032  1.00  0.00     0.091 A 
ATOM     87  F   UNL     1       6.014   8.970 -11.212  1.00  0.00    -0.205 F 
ATOM     88  C   UNL     1       7.449  12.288 -11.794  1.00  0.00     0.022 A 
BRANCH  86  89
ATOM     89  S   UNL     1       7.352  10.286 -13.662  1.00  0.00     0.127 S 
ATOM     90  O   UNL     1       6.394  11.021 -14.486  1.00  0.00    -0.237 OA
ATOM     91  O   UNL     1       8.752  10.652 -13.880  1.00  0.00    -0.237 OA
ATOM     92  O   UNL     1       7.111   8.853 -13.556  1.00  0.00    -0.744 OA
ENDBRANCH  86  89
ENDBRANCH  59  82
ENDBRANCH  33  34
ENDBRANCH  26  28
ENDBRANCH  25  26
ENDBRANCH   1  25
TORSDOF 17
