REMARK SMILES Cc1cccc(-n2ncc(C(=O)Nc3cccc(C(=O)OCCOC(=O)c4ccc(-c5c6nc(c(-c7cccc(S(=O)(=O)[O-])c7F)c7ccc([nH]7)c(-c7cccc(S(=O)(=O)[O-])c7F)c7nc(c(-c8cccc(S(=O)(=O)[O-])c8F)c8ccc5[nH]8)C=C7)C=C6)cc4)c3C)c2C)c1
REMARK SMILES IDX 22 1 21 2 19 3 20 4 18 5 14 6 15 7 90 8 16 9 91 10 17 11
REMARK SMILES IDX 13 12 11 13 12 14 10 16 7 17 8 18 92 19 9 20 93 21 6 22 1 23
REMARK SMILES IDX 2 24 3 25 94 26 4 27 5 28 23 29 24 30 25 31 26 32 27 33
REMARK SMILES IDX 28 34 89 35 29 36 88 37 30 38 31 39 32 40 82 41 33 42 87 43
REMARK SMILES IDX 81 44 83 45 34 46 86 47 80 48 79 49 35 51 67 52 47 53 66 54
REMARK SMILES IDX 48 55 51 56 65 57 84 58 49 59 50 60 64 62 85 63 52 64 36 65
REMARK SMILES IDX 37 66 45 67 38 68 40 69 46 70 39 71 41 72 42 73 43 74 44 75
REMARK SMILES IDX 68 76 69 77 77 78 70 79 72 80 78 81 71 82 73 83 74 84 75 85
REMARK SMILES IDX 76 86 53 87 54 88 62 89 55 90 57 91 63 92 56 93 58 94 59 95
REMARK SMILES IDX 60 96 61 97
REMARK H PARENT 13 15 83 50 51 61
REMARK Flexibility Score: inf
ROOT
ATOM      1  C   UNL     1      -3.469  11.277  -4.330  1.00  0.00     0.275 C 
ENDROOT
BRANCH   1   2
ATOM      2  O   UNL     1      -3.561  10.080  -3.560  1.00  0.00    -0.458 OA
BRANCH   2   3
ATOM      3  C   UNL     1      -4.793   9.634  -3.208  1.00  0.00     0.338 C 
ATOM      4  O   UNL     1      -5.845  10.207  -3.344  1.00  0.00    -0.246 OA
BRANCH   3   5
ATOM      5  C   UNL     1      -4.611   8.238  -2.725  1.00  0.00     0.065 A 
ATOM      6  C   UNL     1      -4.630   6.476  -1.048  1.00  0.00     0.045 A 
ATOM      7  C   UNL     1      -4.256   5.572  -2.053  1.00  0.00     0.026 A 
ATOM      8  C   UNL     1      -4.916   7.820  -1.408  1.00  0.00    -0.013 A 
ATOM      9  C   UNL     1      -3.974   5.996  -3.349  1.00  0.00     0.003 A 
ATOM     10  C   UNL     1      -5.600   8.771  -0.457  1.00  0.00     0.047 C 
ATOM     11  C   UNL     1      -4.113   7.335  -3.675  1.00  0.00     0.016 A 
BRANCH   6  12
ATOM     12  N   UNL     1      -4.760   6.052   0.294  1.00  0.00    -0.322 N 
ATOM     13  C   UNL     1      -4.348   4.913   0.965  1.00  0.00     0.259 C 
ATOM     14  O   UNL     1      -5.014   4.562   1.944  1.00  0.00    -0.269 OA
ATOM     15  H   UNL     1      -5.240   6.694   0.866  1.00  0.00     0.170 HD
BRANCH  13  16
ATOM     16  C   UNL     1      -3.176   4.145   0.541  1.00  0.00     0.081 A 
ATOM     17  N   UNL     1      -1.692   2.500   0.246  1.00  0.00    -0.237 N 
ATOM     18  N   UNL     1      -1.177   3.562  -0.414  1.00  0.00    -0.175 NA
ATOM     19  C   UNL     1      -2.838   2.852   0.947  1.00  0.00     0.054 A 
ATOM     20  C   UNL     1      -2.040   4.552  -0.190  1.00  0.00     0.149 A 
ATOM     21  C   UNL     1      -3.428   2.048   2.053  1.00  0.00     0.068 C 
BRANCH  17  22
ATOM     22  C   UNL     1      -1.041   1.236   0.148  1.00  0.00     0.065 A 
ATOM     23  C   UNL     1       2.534  -0.052  -0.160  1.00  0.00     0.044 C 
ATOM     24  C   UNL     1       1.036  -0.019  -0.066  1.00  0.00    -0.049 A 
ATOM     25  C   UNL     1       0.308  -1.213   0.012  1.00  0.00     0.003 A 
ATOM     26  C   UNL     1       0.350   1.203  -0.032  1.00  0.00     0.031 A 
ATOM     27  C   UNL     1      -1.082  -1.186   0.138  1.00  0.00     0.002 A 
ATOM     28  C   UNL     1      -1.758   0.035   0.215  1.00  0.00     0.028 A 
ENDBRANCH  17  22
ENDBRANCH  13  16
ENDBRANCH   6  12
ENDBRANCH   3   5
ENDBRANCH   2   3
ENDBRANCH   1   2
BRANCH   1  29
ATOM     29  C   UNL     1      -3.888  12.609  -3.685  1.00  0.00     0.275 C 
BRANCH  29  30
ATOM     30  O   UNL     1      -4.421  12.639  -2.340  1.00  0.00    -0.458 OA
BRANCH  30  31
ATOM     31  C   UNL     1      -3.795  12.310  -1.183  1.00  0.00     0.338 C 
ATOM     32  O   UNL     1      -4.277  12.536  -0.082  1.00  0.00    -0.246 OA
BRANCH  31  33
ATOM     33  C   UNL     1      -2.519  11.606  -1.309  1.00  0.00     0.060 A 
ATOM     34  C   UNL     1      -2.388  10.314  -0.777  1.00  0.00     0.016 A 
ATOM     35  C   UNL     1      -1.487  12.213  -2.017  1.00  0.00     0.016 A 
ATOM     36  C   UNL     1      -1.232   9.586  -1.005  1.00  0.00     0.010 A 
ATOM     37  C   UNL     1      -0.380  11.466  -2.330  1.00  0.00     0.010 A 
ATOM     38  C   UNL     1      -0.227  10.190  -1.756  1.00  0.00    -0.014 A 
BRANCH  38  39
ATOM     39  C   UNL     1       1.163   9.804  -1.596  1.00  0.00     0.031 A 
ATOM     40  C   UNL     1       1.768   8.655  -2.265  1.00  0.00     0.074 A 
ATOM     41  C   UNL     1       1.844  10.658  -0.799  1.00  0.00     0.049 A 
ATOM     42  N   UNL     1       2.845   8.098  -1.836  1.00  0.00    -0.248 NA
ATOM     43  C   UNL     1       1.195   8.004  -3.436  1.00  0.00     0.031 C 
ATOM     44  C   UNL     1       3.265  10.878  -0.646  1.00  0.00     0.029 A 
ATOM     45  N   UNL     1       1.259  11.470   0.186  1.00  0.00    -0.354 N 
ATOM     46  C   UNL     1       3.264   7.216  -2.806  1.00  0.00     0.074 A 
ATOM     47  C   UNL     1       2.152   7.112  -3.724  1.00  0.00     0.031 C 
ATOM     48  C   UNL     1       3.463  11.577   0.490  1.00  0.00     0.029 A 
ATOM     49  C   UNL     1       2.191  11.631   1.205  1.00  0.00     0.049 A 
ATOM     50  H   UNL     1       0.353  11.856   0.159  1.00  0.00     0.167 HD
ATOM     51  C   UNL     1       4.575   6.839  -2.805  1.00  0.00     0.034 A 
ATOM     52  C   UNL     1       1.937  11.195   2.476  1.00  0.00     0.034 A 
ATOM     53  C   UNL     1       5.272   7.412  -1.635  1.00  0.00     0.049 A 
ATOM     54  C   UNL     1       2.929  10.113   2.882  1.00  0.00     0.074 A 
ATOM     55  C   UNL     1       6.038   8.556  -1.464  1.00  0.00     0.029 A 
ATOM     56  N   UNL     1       4.926   6.995  -0.355  1.00  0.00    -0.354 N 
ATOM     57  N   UNL     1       3.795   9.559   2.077  1.00  0.00    -0.248 NA
ATOM     58  C   UNL     1       2.880   9.466   4.189  1.00  0.00     0.031 C 
ATOM     59  C   UNL     1       6.124   8.835  -0.069  1.00  0.00     0.029 A 
ATOM     60  C   UNL     1       5.440   7.847   0.617  1.00  0.00     0.049 A 
ATOM     61  H   UNL     1       4.384   6.197  -0.160  1.00  0.00     0.167 HD
ATOM     62  C   UNL     1       4.298   8.428   2.660  1.00  0.00     0.074 A 
ATOM     63  C   UNL     1       3.650   8.393   3.963  1.00  0.00     0.031 C 
ATOM     64  C   UNL     1       5.162   7.574   2.026  1.00  0.00     0.034 A 
BRANCH  51  65
ATOM     65  C   UNL     1       5.302   6.303  -4.032  1.00  0.00     0.023 A 
ATOM     66  C   UNL     1       6.685   6.582  -4.126  1.00  0.00     0.012 A 
ATOM     67  C   UNL     1       4.732   5.629  -5.138  1.00  0.00     0.148 A 
ATOM     68  C   UNL     1       7.431   6.335  -5.283  1.00  0.00     0.002 A 
ATOM     69  C   UNL     1       5.461   5.435  -6.321  1.00  0.00     0.091 A 
ATOM     70  F   UNL     1       3.506   5.106  -5.035  1.00  0.00    -0.205 F 
ATOM     71  C   UNL     1       6.809   5.798  -6.397  1.00  0.00     0.022 A 
BRANCH  69  72
ATOM     72  S   UNL     1       4.716   4.813  -7.842  1.00  0.00     0.127 S 
ATOM     73  O   UNL     1       5.107   5.836  -8.816  1.00  0.00    -0.237 OA
ATOM     74  O   UNL     1       5.385   3.526  -8.017  1.00  0.00    -0.237 OA
ATOM     75  O   UNL     1       3.281   4.750  -7.594  1.00  0.00    -0.744 OA
ENDBRANCH  69  72
ENDBRANCH  51  65
BRANCH  52  76
ATOM     76  C   UNL     1       0.471  11.141   2.854  1.00  0.00     0.023 A 
ATOM     77  C   UNL     1      -0.337  12.292   2.664  1.00  0.00     0.012 A 
ATOM     78  C   UNL     1      -0.185   9.914   3.049  1.00  0.00     0.148 A 
ATOM     79  C   UNL     1      -1.731  12.188   2.543  1.00  0.00     0.002 A 
ATOM     80  C   UNL     1      -1.566   9.814   2.902  1.00  0.00     0.091 A 
ATOM     81  F   UNL     1       0.524   8.811   3.307  1.00  0.00    -0.205 F 
ATOM     82  C   UNL     1      -2.345  10.941   2.636  1.00  0.00     0.022 A 
BRANCH  80  83
ATOM     83  S   UNL     1      -2.280   8.167   2.830  1.00  0.00     0.127 S 
ATOM     84  O   UNL     1      -3.635   8.404   2.331  1.00  0.00    -0.237 OA
ATOM     85  O   UNL     1      -1.424   7.480   1.872  1.00  0.00    -0.237 OA
ATOM     86  O   UNL     1      -2.205   7.739   4.222  1.00  0.00    -0.744 OA
ENDBRANCH  80  83
ENDBRANCH  52  76
BRANCH  64  87
ATOM     87  C   UNL     1       5.818   6.389   2.719  1.00  0.00     0.023 A 
ATOM     88  C   UNL     1       5.951   6.344   4.122  1.00  0.00     0.012 A 
ATOM     89  C   UNL     1       6.426   5.327   2.003  1.00  0.00     0.148 A 
ATOM     90  C   UNL     1       6.487   5.243   4.791  1.00  0.00     0.002 A 
ATOM     91  C   UNL     1       7.029   4.263   2.667  1.00  0.00     0.091 A 
ATOM     92  F   UNL     1       6.462   5.353   0.668  1.00  0.00    -0.205 F 
ATOM     93  C   UNL     1       7.019   4.194   4.061  1.00  0.00     0.022 A 
BRANCH  91  94
ATOM     94  S   UNL     1       7.924   2.966   1.804  1.00  0.00     0.127 S 
ATOM     95  O   UNL     1       9.285   3.171   2.303  1.00  0.00    -0.237 OA
ATOM     96  O   UNL     1       7.266   1.760   2.306  1.00  0.00    -0.237 OA
ATOM     97  O   UNL     1       7.749   3.215   0.381  1.00  0.00    -0.744 OA
ENDBRANCH  91  94
ENDBRANCH  64  87
ENDBRANCH  38  39
ENDBRANCH  31  33
ENDBRANCH  30  31
ENDBRANCH  29  30
ENDBRANCH   1  29
TORSDOF 17
