REMARK SMILES C[C@@H](C(=O)OCCOC(=O)c1ccc(-c2c3nc(c(-c4cccc(S(=O)(=O)[O-])c4F)c4ccc([nH]4)c(-c4cccc(S(=O)(=O)[O-])c4F)c4nc(c(-c5cccc(S(=O)(=O)[O-])c5F)c5ccc2[nH]5)C=C4)C=C3)cc1)c1ccc(C[C@H]2CCC[C@@H]2O)cc1
REMARK SMILES IDX 6 1 5 2 3 3 4 4 2 5 1 6 74 7 75 8 86 9 76 10 85 11 77 12
REMARK SMILES IDX 78 13 79 14 80 15 83 16 81 17 82 18 84 19 7 21 8 22 9 23
REMARK SMILES IDX 10 24 11 25 12 26 73 27 13 28 72 29 14 30 15 31 16 32 66 33
REMARK SMILES IDX 17 34 71 35 65 36 67 37 18 38 70 39 64 40 63 41 19 43 51 44
REMARK SMILES IDX 31 45 50 46 32 47 35 48 49 49 68 50 33 51 34 52 48 54 69 55
REMARK SMILES IDX 36 56 20 57 21 58 29 59 22 60 24 61 30 62 23 63 25 64 26 65
REMARK SMILES IDX 27 66 28 67 52 68 53 69 61 70 54 71 56 72 62 73 55 74 57 75
REMARK SMILES IDX 58 76 59 77 60 78 37 79 38 80 46 81 39 82 41 83 47 84 40 85
REMARK SMILES IDX 42 86 43 87 44 88 45 89
REMARK H PARENT 84 20 67 42 35 53
REMARK Flexibility Score: inf
ROOT
ATOM      1  C   UNL     1       2.240   2.960   1.771  1.00  0.00     0.274 C 
ENDROOT
BRANCH   1   2
ATOM      2  O   UNL     1       1.879   1.701   1.169  1.00  0.00    -0.462 OA
BRANCH   2   3
ATOM      3  C   UNL     1       1.838   0.621   2.005  1.00  0.00     0.313 C 
ATOM      4  O   UNL     1       2.228   0.634   3.167  1.00  0.00    -0.252 OA
BRANCH   3   5
ATOM      5  C   UNL     1       1.148  -0.583   1.339  1.00  0.00     0.126 C 
ATOM      6  C   UNL     1       1.491  -0.665  -0.149  1.00  0.00     0.025 C 
BRANCH   5   7
ATOM      7  C   UNL     1      -0.356  -0.589   1.568  1.00  0.00    -0.034 A 
ATOM      8  C   UNL     1      -1.049   0.615   1.613  1.00  0.00     0.005 A 
ATOM      9  C   UNL     1      -1.101  -1.770   1.727  1.00  0.00     0.005 A 
ATOM     10  C   UNL     1      -2.406   0.643   1.889  1.00  0.00     0.004 A 
ATOM     11  C   UNL     1      -2.486  -1.729   2.002  1.00  0.00     0.004 A 
ATOM     12  C   UNL     1      -3.148  -0.507   2.125  1.00  0.00    -0.048 A 
BRANCH  12  13
ATOM     13  C   UNL     1      -4.625  -0.352   2.403  1.00  0.00     0.041 C 
BRANCH  13  14
ATOM     14  C   UNL     1      -5.073   0.333   3.720  1.00  0.00     0.022 C 
ATOM     15  C   UNL     1      -5.328  -0.650   4.872  1.00  0.00     0.007 C 
ATOM     16  C   UNL     1      -4.184   1.393   4.382  1.00  0.00     0.117 C 
ATOM     17  C   UNL     1      -5.097   0.138   6.170  1.00  0.00     0.003 C 
ATOM     18  C   UNL     1      -4.832   1.569   5.745  1.00  0.00     0.032 C 
BRANCH  16  19
ATOM     19  O   UNL     1      -4.172   2.625   3.703  1.00  0.00    -0.393 OA
ATOM     20  H   UNL     1      -5.077   2.971   3.646  1.00  0.00     0.210 HD
ENDBRANCH  16  19
ENDBRANCH  13  14
ENDBRANCH  12  13
ENDBRANCH   5   7
ENDBRANCH   3   5
ENDBRANCH   2   3
ENDBRANCH   1   2
BRANCH   1  21
ATOM     21  C   UNL     1       1.844   4.090   0.813  1.00  0.00     0.275 C 
BRANCH  21  22
ATOM     22  O   UNL     1       0.409   4.229   0.821  1.00  0.00    -0.458 OA
BRANCH  22  23
ATOM     23  C   UNL     1      -0.164   4.795  -0.277  1.00  0.00     0.338 C 
ATOM     24  O   UNL     1       0.429   5.205  -1.259  1.00  0.00    -0.246 OA
BRANCH  23  25
ATOM     25  C   UNL     1      -1.649   4.826  -0.122  1.00  0.00     0.060 A 
ATOM     26  C   UNL     1      -2.266   4.036   0.838  1.00  0.00     0.016 A 
ATOM     27  C   UNL     1      -2.461   5.588  -0.976  1.00  0.00     0.016 A 
ATOM     28  C   UNL     1      -3.653   3.927   0.871  1.00  0.00     0.010 A 
ATOM     29  C   UNL     1      -3.871   5.544  -0.866  1.00  0.00     0.010 A 
ATOM     30  C   UNL     1      -4.487   4.684   0.051  1.00  0.00    -0.014 A 
BRANCH  30  31
ATOM     31  C   UNL     1      -5.956   4.414   0.145  1.00  0.00     0.031 A 
ATOM     32  C   UNL     1      -6.676   3.803  -1.022  1.00  0.00     0.074 A 
ATOM     33  C   UNL     1      -6.615   4.523   1.322  1.00  0.00     0.049 A 
ATOM     34  N   UNL     1      -7.951   3.542  -1.149  1.00  0.00    -0.248 NA
ATOM     35  C   UNL     1      -5.872   3.448  -2.202  1.00  0.00     0.031 C 
ATOM     36  C   UNL     1      -6.030   5.013   2.569  1.00  0.00     0.029 A 
ATOM     37  N   UNL     1      -7.885   4.138   1.694  1.00  0.00    -0.354 N 
ATOM     38  C   UNL     1      -8.126   3.174  -2.475  1.00  0.00     0.074 A 
ATOM     39  C   UNL     1      -6.811   3.107  -3.074  1.00  0.00     0.031 C 
ATOM     40  C   UNL     1      -6.864   4.740   3.586  1.00  0.00     0.029 A 
ATOM     41  C   UNL     1      -8.095   4.159   3.060  1.00  0.00     0.049 A 
ATOM     42  H   UNL     1      -8.578   3.873   1.048  1.00  0.00     0.167 HD
ATOM     43  C   UNL     1      -9.290   2.992  -3.139  1.00  0.00     0.034 A 
ATOM     44  C   UNL     1      -9.155   3.747   3.791  1.00  0.00     0.034 A 
ATOM     45  C   UNL     1     -10.581   2.978  -2.507  1.00  0.00     0.049 A 
ATOM     46  C   UNL     1     -10.417   3.365   3.059  1.00  0.00     0.074 A 
ATOM     47  C   UNL     1     -11.834   2.931  -3.091  1.00  0.00     0.029 A 
ATOM     48  N   UNL     1     -10.779   2.977  -1.135  1.00  0.00    -0.354 N 
ATOM     49  N   UNL     1     -10.602   3.167   1.776  1.00  0.00    -0.248 NA
ATOM     50  C   UNL     1     -11.637   3.217   3.870  1.00  0.00     0.031 C 
ATOM     51  C   UNL     1     -12.791   2.902  -2.069  1.00  0.00     0.029 A 
ATOM     52  C   UNL     1     -12.131   2.910  -0.851  1.00  0.00     0.049 A 
ATOM     53  H   UNL     1     -10.062   3.017  -0.462  1.00  0.00     0.167 HD
ATOM     54  C   UNL     1     -11.965   2.945   1.620  1.00  0.00     0.074 A 
ATOM     55  C   UNL     1     -12.542   2.918   2.948  1.00  0.00     0.031 C 
ATOM     56  C   UNL     1     -12.687   2.856   0.475  1.00  0.00     0.034 A 
BRANCH  43  57
ATOM     57  C   UNL     1      -9.218   2.938  -4.637  1.00  0.00     0.023 A 
ATOM     58  C   UNL     1      -8.818   1.771  -5.311  1.00  0.00     0.012 A 
ATOM     59  C   UNL     1      -9.565   4.087  -5.378  1.00  0.00     0.148 A 
ATOM     60  C   UNL     1      -8.738   1.759  -6.705  1.00  0.00     0.002 A 
ATOM     61  C   UNL     1      -9.524   4.054  -6.764  1.00  0.00     0.091 A 
ATOM     62  F   UNL     1      -9.910   5.197  -4.710  1.00  0.00    -0.205 F 
ATOM     63  C   UNL     1      -9.100   2.894  -7.430  1.00  0.00     0.022 A 
BRANCH  61  64
ATOM     64  S   UNL     1     -10.036   5.448  -7.774  1.00  0.00     0.127 S 
ATOM     65  O   UNL     1      -8.754   5.927  -8.288  1.00  0.00    -0.237 OA
ATOM     66  O   UNL     1     -10.893   4.807  -8.771  1.00  0.00    -0.237 OA
ATOM     67  O   UNL     1     -10.731   6.361  -6.876  1.00  0.00    -0.744 OA
ENDBRANCH  61  64
ENDBRANCH  43  57
BRANCH  44  68
ATOM     68  C   UNL     1      -9.094   3.644   5.284  1.00  0.00     0.023 A 
ATOM     69  C   UNL     1      -9.321   2.387   5.888  1.00  0.00     0.012 A 
ATOM     70  C   UNL     1      -8.808   4.738   6.118  1.00  0.00     0.148 A 
ATOM     71  C   UNL     1      -9.274   2.231   7.277  1.00  0.00     0.002 A 
ATOM     72  C   UNL     1      -8.671   4.558   7.492  1.00  0.00     0.091 A 
ATOM     73  F   UNL     1      -8.671   5.953   5.566  1.00  0.00    -0.205 F 
ATOM     74  C   UNL     1      -8.926   3.312   8.079  1.00  0.00     0.022 A 
BRANCH  72  75
ATOM     75  S   UNL     1      -8.008   5.878   8.515  1.00  0.00     0.127 S 
ATOM     76  O   UNL     1      -9.206   6.636   8.855  1.00  0.00    -0.237 OA
ATOM     77  O   UNL     1      -7.402   5.149   9.630  1.00  0.00    -0.237 OA
ATOM     78  O   UNL     1      -7.040   6.539   7.647  1.00  0.00    -0.744 OA
ENDBRANCH  72  75
ENDBRANCH  44  68
BRANCH  56  79
ATOM     79  C   UNL     1     -14.185   2.793   0.602  1.00  0.00     0.023 A 
ATOM     80  C   UNL     1     -14.888   3.966   0.947  1.00  0.00     0.012 A 
ATOM     81  C   UNL     1     -14.899   1.620   0.299  1.00  0.00     0.148 A 
ATOM     82  C   UNL     1     -16.280   3.967   1.010  1.00  0.00     0.002 A 
ATOM     83  C   UNL     1     -16.290   1.638   0.330  1.00  0.00     0.091 A 
ATOM     84  F   UNL     1     -14.210   0.511  -0.006  1.00  0.00    -0.205 F 
ATOM     85  C   UNL     1     -16.980   2.807   0.691  1.00  0.00     0.022 A 
BRANCH  83  86
ATOM     86  S   UNL     1     -17.278   0.213  -0.140  1.00  0.00     0.127 S 
ATOM     87  O   UNL     1     -17.746  -0.265   1.160  1.00  0.00    -0.237 OA
ATOM     88  O   UNL     1     -18.315   0.814  -0.979  1.00  0.00    -0.237 OA
ATOM     89  O   UNL     1     -16.374  -0.682  -0.848  1.00  0.00    -0.744 OA
ENDBRANCH  83  86
ENDBRANCH  56  79
ENDBRANCH  30  31
ENDBRANCH  23  25
ENDBRANCH  22  23
ENDBRANCH  21  22
ENDBRANCH   1  21
TORSDOF 18
