REMARK SMILES O=C(CCN1C(=O)S/C(=C\c2ccc(F)cc2)C1=O)Nc1ccc(O)cc1C(=O)OCCOC(=O)c1ccc(-c2c3nc(c(-c4cccc(S(=O)(=O)[O-])c4F)c4ccc([nH]4)c(-c4cccc(S(=O)(=O)[O-])c4F)c4nc(c(-c5cccc(S(=O)(=O)[O-])c5F)c5ccc2[nH]5)C=C4)C=C3)cc1
REMARK SMILES IDX 31 1 30 2 28 3 29 4 27 5 21 6 22 7 23 8 26 9 24 10 20 11
REMARK SMILES IDX 1 12 2 13 3 15 4 16 5 17 6 18 18 19 7 20 8 21 9 22 19 23
REMARK SMILES IDX 10 24 11 25 12 26 17 27 13 28 16 29 14 30 15 31 25 32 32 34
REMARK SMILES IDX 33 35 34 36 35 37 36 38 37 39 98 40 38 41 97 42 39 43 40 44
REMARK SMILES IDX 41 45 91 46 42 47 96 48 90 49 92 50 43 51 95 52 89 53 88 54
REMARK SMILES IDX 44 56 76 57 56 58 75 59 57 60 60 61 74 62 93 63 58 64 59 65
REMARK SMILES IDX 73 67 94 68 61 69 45 70 46 71 54 72 47 73 49 74 55 75 48 76
REMARK SMILES IDX 50 77 51 78 52 79 53 80 77 81 78 82 86 83 79 84 81 85 87 86
REMARK SMILES IDX 80 87 82 88 83 89 84 90 85 91 62 92 63 93 71 94 64 95 66 96
REMARK SMILES IDX 72 97 65 98 67 99 68 100 69 101 70 102
REMARK H PARENT 20 14 25 33 92 55 60 66
REMARK Flexibility Score: inf
ROOT
ATOM      1  C   UNL     1       4.922  -1.336  -3.434  1.00  0.00     0.275 C 
ENDROOT
BRANCH   1   2
ATOM      2  O   UNL     1       3.776  -0.536  -3.082  1.00  0.00    -0.458 OA
BRANCH   2   3
ATOM      3  C   UNL     1       3.835   0.788  -3.390  1.00  0.00     0.340 C 
ATOM      4  O   UNL     1       4.766   1.359  -3.929  1.00  0.00    -0.246 OA
BRANCH   3   5
ATOM      5  C   UNL     1       2.563   1.461  -3.025  1.00  0.00     0.087 A 
ATOM      6  C   UNL     1       1.900   1.238  -1.801  1.00  0.00     0.056 A 
ATOM      7  C   UNL     1       0.690   1.909  -1.575  1.00  0.00     0.031 A 
ATOM      8  C   UNL     1       0.136   2.758  -2.545  1.00  0.00     0.048 A 
ATOM      9  C   UNL     1       2.039   2.369  -3.960  1.00  0.00     0.064 A 
ATOM     10  C   UNL     1       0.814   2.974  -3.733  1.00  0.00     0.116 A 
BRANCH   6  11
ATOM     11  N   UNL     1       2.513   0.415  -0.821  1.00  0.00    -0.325 N 
ATOM     12  O   UNL     1       0.855   0.184   0.776  1.00  0.00    -0.275 OA
ATOM     13  C   UNL     1       2.013   0.018   0.396  1.00  0.00     0.226 C 
ATOM     14  H   UNL     1       3.415   0.086  -1.041  1.00  0.00     0.169 HD
BRANCH  13  15
ATOM     15  C   UNL     1       3.022  -0.612   1.354  1.00  0.00     0.122 C 
BRANCH  15  16
ATOM     16  C   UNL     1       4.119  -1.505   0.776  1.00  0.00     0.140 C 
BRANCH  16  17
ATOM     17  N   UNL     1       5.349  -0.909   0.240  1.00  0.00    -0.268 N 
ATOM     18  C   UNL     1       5.655   0.426   0.233  1.00  0.00     0.293 C 
ATOM     19  C   UNL     1       6.311  -1.747  -0.300  1.00  0.00     0.268 C 
ATOM     20  O   UNL     1       5.012   1.336   0.720  1.00  0.00    -0.261 OA
ATOM     21  S   UNL     1       7.136   0.711  -0.655  1.00  0.00    -0.022 SA
ATOM     22  C   UNL     1       7.334  -0.949  -1.040  1.00  0.00     0.083 C 
ATOM     23  O   UNL     1       6.281  -2.970  -0.285  1.00  0.00    -0.268 OA
ATOM     24  C   UNL     1       8.065  -1.507  -2.021  1.00  0.00     0.029 C 
BRANCH  24  25
ATOM     25  C   UNL     1       8.830  -0.801  -3.068  1.00  0.00    -0.024 A 
ATOM     26  C   UNL     1       9.711   0.249  -2.785  1.00  0.00     0.011 A 
ATOM     27  C   UNL     1       8.646  -1.185  -4.410  1.00  0.00     0.011 A 
ATOM     28  C   UNL     1      10.340   0.944  -3.821  1.00  0.00     0.040 A 
ATOM     29  C   UNL     1       9.282  -0.494  -5.445  1.00  0.00     0.040 A 
ATOM     30  C   UNL     1      10.117   0.571  -5.139  1.00  0.00     0.123 A 
ATOM     31  F   UNL     1      10.723   1.244  -6.125  1.00  0.00    -0.207 F 
ENDBRANCH  24  25
ENDBRANCH  16  17
ENDBRANCH  15  16
ENDBRANCH  13  15
ENDBRANCH   6  11
BRANCH  10  32
ATOM     32  O   UNL     1       0.316   3.776  -4.713  1.00  0.00    -0.508 OA
ATOM     33  H   UNL     1      -0.510   4.203  -4.595  1.00  0.00     0.293 HD
ENDBRANCH  10  32
ENDBRANCH   3   5
ENDBRANCH   2   3
ENDBRANCH   1   2
BRANCH   1  34
ATOM     34  C   UNL     1       4.613  -2.510  -4.356  1.00  0.00     0.275 C 
BRANCH  34  35
ATOM     35  O   UNL     1       4.289  -2.034  -5.659  1.00  0.00    -0.458 OA
BRANCH  35  36
ATOM     36  C   UNL     1       2.974  -1.771  -5.812  1.00  0.00     0.338 C 
ATOM     37  O   UNL     1       2.065  -2.009  -5.037  1.00  0.00    -0.246 OA
BRANCH  36  38
ATOM     38  C   UNL     1       2.819  -0.961  -7.011  1.00  0.00     0.060 A 
ATOM     39  C   UNL     1       2.829   0.419  -6.845  1.00  0.00     0.016 A 
ATOM     40  C   UNL     1       2.567  -1.543  -8.245  1.00  0.00     0.016 A 
ATOM     41  C   UNL     1       2.462   1.246  -7.889  1.00  0.00     0.010 A 
ATOM     42  C   UNL     1       2.302  -0.706  -9.324  1.00  0.00     0.010 A 
ATOM     43  C   UNL     1       2.211   0.689  -9.144  1.00  0.00    -0.014 A 
BRANCH  43  44
ATOM     44  C   UNL     1       1.846   1.554 -10.285  1.00  0.00     0.031 A 
ATOM     45  C   UNL     1       0.546   1.319 -10.993  1.00  0.00     0.074 A 
ATOM     46  C   UNL     1       2.713   2.494 -10.705  1.00  0.00     0.049 A 
ATOM     47  N   UNL     1       0.155   1.756 -12.158  1.00  0.00    -0.248 NA
ATOM     48  C   UNL     1      -0.434   0.452 -10.314  1.00  0.00     0.031 C 
ATOM     49  C   UNL     1       3.985   2.827 -10.057  1.00  0.00     0.029 A 
ATOM     50  N   UNL     1       2.672   3.320 -11.798  1.00  0.00    -0.354 N 
ATOM     51  C   UNL     1      -1.077   1.159 -12.389  1.00  0.00     0.074 A 
ATOM     52  C   UNL     1      -1.377   0.336 -11.239  1.00  0.00     0.031 C 
ATOM     53  C   UNL     1       4.606   3.779 -10.766  1.00  0.00     0.029 A 
ATOM     54  C   UNL     1       3.825   4.050 -11.964  1.00  0.00     0.049 A 
ATOM     55  H   UNL     1       1.897   3.383 -12.402  1.00  0.00     0.167 HD
ATOM     56  C   UNL     1      -1.875   1.291 -13.473  1.00  0.00     0.034 A 
ATOM     57  C   UNL     1       4.239   4.803 -12.999  1.00  0.00     0.034 A 
ATOM     58  C   UNL     1      -1.564   2.156 -14.580  1.00  0.00     0.049 A 
ATOM     59  C   UNL     1       3.339   4.926 -14.192  1.00  0.00     0.074 A 
ATOM     60  C   UNL     1      -2.312   2.398 -15.717  1.00  0.00     0.029 A 
ATOM     61  N   UNL     1      -0.412   2.923 -14.685  1.00  0.00    -0.354 N 
ATOM     62  N   UNL     1       2.168   4.373 -14.398  1.00  0.00    -0.248 NA
ATOM     63  C   UNL     1       3.802   5.789 -15.285  1.00  0.00     0.031 C 
ATOM     64  C   UNL     1      -1.597   3.287 -16.524  1.00  0.00     0.029 A 
ATOM     65  C   UNL     1      -0.427   3.639 -15.868  1.00  0.00     0.049 A 
ATOM     66  H   UNL     1       0.309   2.954 -14.015  1.00  0.00     0.167 HD
ATOM     67  C   UNL     1       1.735   4.847 -15.628  1.00  0.00     0.074 A 
ATOM     68  C   UNL     1       2.766   5.746 -16.111  1.00  0.00     0.031 C 
ATOM     69  C   UNL     1       0.594   4.560 -16.302  1.00  0.00     0.034 A 
BRANCH  56  70
ATOM     70  C   UNL     1      -3.155   0.498 -13.521  1.00  0.00     0.023 A 
ATOM     71  C   UNL     1      -4.232   0.842 -12.680  1.00  0.00     0.012 A 
ATOM     72  C   UNL     1      -3.320  -0.535 -14.466  1.00  0.00     0.148 A 
ATOM     73  C   UNL     1      -5.445   0.158 -12.764  1.00  0.00     0.002 A 
ATOM     74  C   UNL     1      -4.548  -1.177 -14.579  1.00  0.00     0.091 A 
ATOM     75  F   UNL     1      -2.276  -0.866 -15.239  1.00  0.00    -0.205 F 
ATOM     76  C   UNL     1      -5.607  -0.840 -13.722  1.00  0.00     0.022 A 
BRANCH  74  77
ATOM     77  S   UNL     1      -4.886  -2.411 -15.840  1.00  0.00     0.127 S 
ATOM     78  O   UNL     1      -5.090  -3.612 -15.030  1.00  0.00    -0.237 OA
ATOM     79  O   UNL     1      -6.099  -1.884 -16.465  1.00  0.00    -0.237 OA
ATOM     80  O   UNL     1      -3.715  -2.439 -16.704  1.00  0.00    -0.744 OA
ENDBRANCH  74  77
ENDBRANCH  56  70
BRANCH  57  81
ATOM     81  C   UNL     1       5.555   5.496 -12.922  1.00  0.00     0.023 A 
ATOM     82  C   UNL     1       5.589   6.896 -12.784  1.00  0.00     0.012 A 
ATOM     83  C   UNL     1       6.765   4.772 -12.889  1.00  0.00     0.148 A 
ATOM     84  C   UNL     1       6.803   7.565 -12.629  1.00  0.00     0.002 A 
ATOM     85  C   UNL     1       7.965   5.439 -12.672  1.00  0.00     0.091 A 
ATOM     86  F   UNL     1       6.712   3.440 -13.029  1.00  0.00    -0.205 F 
ATOM     87  C   UNL     1       7.988   6.837 -12.557  1.00  0.00     0.022 A 
BRANCH  85  88
ATOM     88  S   UNL     1       9.519   4.574 -12.416  1.00  0.00     0.127 S 
ATOM     89  O   UNL     1      10.272   4.954 -13.609  1.00  0.00    -0.237 OA
ATOM     90  O   UNL     1       9.995   5.175 -11.170  1.00  0.00    -0.237 OA
ATOM     91  O   UNL     1       9.175   3.162 -12.312  1.00  0.00    -0.744 OA
ENDBRANCH  85  88
ENDBRANCH  57  81
BRANCH  69  92
ATOM     92  C   UNL     1       0.370   5.264 -17.613  1.00  0.00     0.023 A 
ATOM     93  C   UNL     1       1.133   4.914 -18.743  1.00  0.00     0.012 A 
ATOM     94  C   UNL     1      -0.662   6.215 -17.738  1.00  0.00     0.148 A 
ATOM     95  C   UNL     1       0.896   5.527 -19.972  1.00  0.00     0.002 A 
ATOM     96  C   UNL     1      -0.932   6.776 -18.978  1.00  0.00     0.091 A 
ATOM     97  F   UNL     1      -1.363   6.546 -16.643  1.00  0.00    -0.205 F 
ATOM     98  C   UNL     1      -0.145   6.446 -20.092  1.00  0.00     0.022 A 
BRANCH  96  99
ATOM     99  S   UNL     1      -2.324   7.878 -19.249  1.00  0.00     0.127 S 
ATOM    100  O   UNL     1      -1.652   9.163 -19.438  1.00  0.00    -0.237 OA
ATOM    101  O   UNL     1      -2.928   7.321 -20.459  1.00  0.00    -0.237 OA
ATOM    102  O   UNL     1      -3.155   7.778 -18.057  1.00  0.00    -0.744 OA
ENDBRANCH  96  99
ENDBRANCH  69  92
ENDBRANCH  43  44
ENDBRANCH  36  38
ENDBRANCH  35  36
ENDBRANCH  34  35
ENDBRANCH   1  34
TORSDOF 20
