REMARK SMILES Cc1cccc(C(=O)Nc2cc(C(=O)OCCOC(=O)c3ccc(-c4c5nc(c(-c6cccc(S(=O)(=O)[O-])c6F)c6ccc([nH]6)c(-c6cccc(S(=O)(=O)[O-])c6F)c6nc(c(-c7cccc(S(=O)(=O)[O-])c7F)c7ccc4[nH]7)C=C6)C=C5)cc3)ccc2N2CC[NH+](CC(=O)NC(C)(C)C)CC2)c1
REMARK SMILES IDX 16 1 15 2 13 3 14 4 12 5 10 6 11 7 86 8 85 9 84 10 9 11 7 12
REMARK SMILES IDX 8 13 6 15 1 16 2 17 3 18 101 19 4 20 5 21 87 22 88 23 100 24
REMARK SMILES IDX 89 25 99 26 90 27 91 29 92 30 93 31 94 32 95 34 96 35 97 36
REMARK SMILES IDX 98 37 17 38 18 39 19 40 20 41 21 42 22 43 83 44 23 45 82 46
REMARK SMILES IDX 24 47 25 48 26 49 76 50 27 51 81 52 75 53 77 54 28 55 80 56
REMARK SMILES IDX 74 57 73 58 29 60 61 61 41 62 60 63 42 64 45 65 59 66 78 67
REMARK SMILES IDX 43 68 44 69 58 71 79 72 46 73 30 74 31 75 39 76 32 77 34 78
REMARK SMILES IDX 40 79 33 80 35 81 36 82 37 83 38 84 62 85 63 86 71 87 64 88
REMARK SMILES IDX 66 89 72 90 65 91 67 92 68 93 69 94 70 95 47 96 48 97 56 98
REMARK SMILES IDX 49 99 51 100 57 101 50 102 52 103 53 104 54 105 55 106
REMARK H PARENT 9 14 90 28 94 33 77 59 45 70
REMARK Flexibility Score: inf
ROOT
ATOM      1  C   UNL     1       2.638   1.202  -4.723  1.00  0.00     0.275 C 
ENDROOT
BRANCH   1   2
ATOM      2  O   UNL     1       2.132   2.031  -3.687  1.00  0.00    -0.458 OA
BRANCH   2   3
ATOM      3  C   UNL     1       2.081   3.363  -3.906  1.00  0.00     0.338 C 
ATOM      4  O   UNL     1       2.392   3.966  -4.902  1.00  0.00    -0.246 OA
BRANCH   3   5
ATOM      5  C   UNL     1       1.611   3.961  -2.652  1.00  0.00     0.062 A 
ATOM      6  C   UNL     1      -0.058   4.047  -0.938  1.00  0.00     0.065 A 
ATOM      7  C   UNL     1       0.452   3.454  -2.076  1.00  0.00     0.044 A 
ATOM      8  C   UNL     1       0.573   5.221  -0.381  1.00  0.00     0.061 A 
ATOM      9  C   UNL     1       1.801   5.621  -0.936  1.00  0.00     0.029 A 
ATOM     10  C   UNL     1       2.314   5.011  -2.076  1.00  0.00     0.018 A 
BRANCH   6  11
ATOM     11  N   UNL     1      -1.275   3.585  -0.422  1.00  0.00    -0.320 N 
ATOM     12  C   UNL     1      -2.012   2.430  -0.357  1.00  0.00     0.255 C 
ATOM     13  O   UNL     1      -3.095   2.582   0.230  1.00  0.00    -0.269 OA
ATOM     14  H   UNL     1      -1.749   4.316   0.036  1.00  0.00     0.170 HD
BRANCH  12  15
ATOM     15  C   UNL     1      -1.690   1.052  -0.858  1.00  0.00     0.040 A 
ATOM     16  C   UNL     1       0.964  -1.551  -1.853  1.00  0.00     0.044 C 
ATOM     17  C   UNL     1      -0.333  -0.872  -1.550  1.00  0.00    -0.050 A 
ATOM     18  C   UNL     1      -1.480  -1.651  -1.688  1.00  0.00     0.003 A 
ATOM     19  C   UNL     1      -0.434   0.479  -1.115  1.00  0.00     0.017 A 
ATOM     20  C   UNL     1      -2.717  -1.111  -1.403  1.00  0.00     0.001 A 
ATOM     21  C   UNL     1      -2.818   0.217  -0.998  1.00  0.00     0.014 A 
ENDBRANCH  12  15
ENDBRANCH   6  11
BRANCH   8  22
ATOM     22  N   UNL     1       0.024   5.981   0.645  1.00  0.00    -0.359 N 
ATOM     23  C   UNL     1       0.415   7.368   0.993  1.00  0.00     0.178 C 
ATOM     24  C   UNL     1      -0.582   5.329   1.788  1.00  0.00     0.178 C 
ATOM     25  C   UNL     1      -0.796   8.149   1.622  1.00  0.00     0.284 C 
ATOM     26  C   UNL     1      -1.923   6.053   2.028  1.00  0.00     0.284 C 
ATOM     27  N   UNL     1      -1.758   7.433   2.498  1.00  0.00    -0.324 N 
ATOM     28  H   UNL     1      -2.642   7.933   2.398  1.00  0.00     0.348 HD
BRANCH  27  29
ATOM     29  C   UNL     1      -1.549   7.545   3.955  1.00  0.00     0.363 C 
BRANCH  29  30
ATOM     30  C   UNL     1      -0.396   6.744   4.547  1.00  0.00     0.275 C 
ATOM     31  O   UNL     1       0.722   7.273   4.610  1.00  0.00    -0.268 OA
ATOM     32  N   UNL     1      -0.499   5.476   5.039  1.00  0.00    -0.347 N 
ATOM     33  H   UNL     1       0.364   5.199   5.423  1.00  0.00     0.164 HD
BRANCH  32  34
ATOM     34  C   UNL     1      -1.495   4.368   5.186  1.00  0.00     0.032 C 
ATOM     35  C   UNL     1      -1.368   3.308   4.072  1.00  0.00     0.034 C 
ATOM     36  C   UNL     1      -1.118   3.627   6.488  1.00  0.00     0.034 C 
ATOM     37  C   UNL     1      -2.955   4.812   5.329  1.00  0.00     0.034 C 
ENDBRANCH  32  34
ENDBRANCH  29  30
ENDBRANCH  27  29
ENDBRANCH   8  22
ENDBRANCH   3   5
ENDBRANCH   2   3
ENDBRANCH   1   2
BRANCH   1  38
ATOM     38  C   UNL     1       3.934   1.646  -5.427  1.00  0.00     0.275 C 
BRANCH  38  39
ATOM     39  O   UNL     1       5.066   2.300  -4.766  1.00  0.00    -0.458 OA
BRANCH  39  40
ATOM     40  C   UNL     1       5.164   2.844  -3.524  1.00  0.00     0.338 C 
ATOM     41  O   UNL     1       5.703   3.922  -3.325  1.00  0.00    -0.246 OA
BRANCH  40  42
ATOM     42  C   UNL     1       4.730   1.976  -2.418  1.00  0.00     0.060 A 
ATOM     43  C   UNL     1       4.329   2.479  -1.167  1.00  0.00     0.016 A 
ATOM     44  C   UNL     1       4.675   0.622  -2.677  1.00  0.00     0.016 A 
ATOM     45  C   UNL     1       3.864   1.614  -0.170  1.00  0.00     0.010 A 
ATOM     46  C   UNL     1       4.012  -0.179  -1.795  1.00  0.00     0.010 A 
ATOM     47  C   UNL     1       3.761   0.269  -0.478  1.00  0.00    -0.014 A 
BRANCH  47  48
ATOM     48  C   UNL     1       3.778  -0.851   0.474  1.00  0.00     0.031 A 
ATOM     49  C   UNL     1       2.562  -1.438   1.073  1.00  0.00     0.074 A 
ATOM     50  C   UNL     1       4.908  -1.574   0.251  1.00  0.00     0.049 A 
ATOM     51  N   UNL     1       2.449  -2.710   1.196  1.00  0.00    -0.248 NA
ATOM     52  C   UNL     1       1.337  -0.735   1.460  1.00  0.00     0.031 C 
ATOM     53  C   UNL     1       5.179  -3.002   0.270  1.00  0.00     0.029 A 
ATOM     54  N   UNL     1       6.153  -1.038  -0.110  1.00  0.00    -0.354 N 
ATOM     55  C   UNL     1       1.162  -3.022   1.570  1.00  0.00     0.074 A 
ATOM     56  C   UNL     1       0.474  -1.759   1.643  1.00  0.00     0.031 C 
ATOM     57  C   UNL     1       6.516  -3.184   0.310  1.00  0.00     0.029 A 
ATOM     58  C   UNL     1       7.113  -1.864   0.472  1.00  0.00     0.049 A 
ATOM     59  H   UNL     1       6.315  -0.240  -0.664  1.00  0.00     0.167 HD
ATOM     60  C   UNL     1       0.901  -4.346   1.736  1.00  0.00     0.034 A 
ATOM     61  C   UNL     1       7.685  -1.357   1.609  1.00  0.00     0.034 A 
ATOM     62  C   UNL     1       2.168  -4.995   2.115  1.00  0.00     0.049 A 
ATOM     63  C   UNL     1       7.197  -2.114   2.837  1.00  0.00     0.074 A 
ATOM     64  C   UNL     1       3.134  -5.734   1.460  1.00  0.00     0.029 A 
ATOM     65  N   UNL     1       2.740  -4.569   3.309  1.00  0.00    -0.354 N 
ATOM     66  N   UNL     1       6.176  -2.932   2.850  1.00  0.00    -0.248 NA
ATOM     67  C   UNL     1       7.876  -2.075   4.123  1.00  0.00     0.031 C 
ATOM     68  C   UNL     1       4.351  -5.582   2.204  1.00  0.00     0.029 A 
ATOM     69  C   UNL     1       4.107  -4.786   3.317  1.00  0.00     0.049 A 
ATOM     70  H   UNL     1       2.237  -4.166   4.053  1.00  0.00     0.167 HD
ATOM     71  C   UNL     1       5.997  -3.466   4.091  1.00  0.00     0.074 A 
ATOM     72  C   UNL     1       7.135  -2.943   4.835  1.00  0.00     0.031 C 
ATOM     73  C   UNL     1       4.917  -4.248   4.418  1.00  0.00     0.034 A 
BRANCH  60  74
ATOM     74  C   UNL     1      -0.388  -5.126   1.567  1.00  0.00     0.023 A 
ATOM     75  C   UNL     1      -0.283  -6.527   1.765  1.00  0.00     0.012 A 
ATOM     76  C   UNL     1      -1.624  -4.657   1.058  1.00  0.00     0.148 A 
ATOM     77  C   UNL     1      -1.304  -7.423   1.441  1.00  0.00     0.002 A 
ATOM     78  C   UNL     1      -2.659  -5.561   0.745  1.00  0.00     0.091 A 
ATOM     79  F   UNL     1      -1.788  -3.347   0.842  1.00  0.00    -0.205 F 
ATOM     80  C   UNL     1      -2.490  -6.941   0.924  1.00  0.00     0.022 A 
BRANCH  78  81
ATOM     81  S   UNL     1      -4.258  -5.091   0.049  1.00  0.00     0.127 S 
ATOM     82  O   UNL     1      -4.256  -5.800  -1.233  1.00  0.00    -0.237 OA
ATOM     83  O   UNL     1      -5.200  -5.625   1.032  1.00  0.00    -0.237 OA
ATOM     84  O   UNL     1      -4.247  -3.641  -0.062  1.00  0.00    -0.744 OA
ENDBRANCH  78  81
ENDBRANCH  60  74
BRANCH  61  85
ATOM     85  C   UNL     1       7.902   0.147   1.468  1.00  0.00     0.023 A 
ATOM     86  C   UNL     1       8.602   0.573   0.298  1.00  0.00     0.012 A 
ATOM     87  C   UNL     1       7.112   1.104   2.134  1.00  0.00     0.148 A 
ATOM     88  C   UNL     1       8.366   1.822  -0.288  1.00  0.00     0.002 A 
ATOM     89  C   UNL     1       6.924   2.376   1.568  1.00  0.00     0.091 A 
ATOM     90  F   UNL     1       6.507   0.758   3.277  1.00  0.00    -0.205 F 
ATOM     91  C   UNL     1       7.504   2.714   0.334  1.00  0.00     0.022 A 
BRANCH  89  92
ATOM     92  S   UNL     1       5.845   3.593   2.349  1.00  0.00     0.127 S 
ATOM     93  O   UNL     1       6.756   4.231   3.295  1.00  0.00    -0.237 OA
ATOM     94  O   UNL     1       5.432   4.448   1.234  1.00  0.00    -0.237 OA
ATOM     95  O   UNL     1       4.760   2.809   2.924  1.00  0.00    -0.744 OA
ENDBRANCH  89  92
ENDBRANCH  61  85
BRANCH  73  96
ATOM     96  C   UNL     1       4.501  -4.529   5.855  1.00  0.00     0.023 A 
ATOM     97  C   UNL     1       4.958  -3.735   6.926  1.00  0.00     0.012 A 
ATOM     98  C   UNL     1       3.507  -5.490   6.171  1.00  0.00     0.148 A 
ATOM     99  C   UNL     1       4.557  -3.953   8.245  1.00  0.00     0.002 A 
ATOM    100  C   UNL     1       2.994  -5.595   7.461  1.00  0.00     0.091 A 
ATOM    101  F   UNL     1       3.049  -6.323   5.225  1.00  0.00    -0.205 F 
ATOM    102  C   UNL     1       3.555  -4.870   8.512  1.00  0.00     0.022 A 
BRANCH 100 103
ATOM    103  S   UNL     1       1.473  -6.499   7.781  1.00  0.00     0.127 S 
ATOM    104  O   UNL     1       1.978  -7.801   8.210  1.00  0.00    -0.237 OA
ATOM    105  O   UNL     1       0.854  -5.704   8.843  1.00  0.00    -0.237 OA
ATOM    106  O   UNL     1       0.748  -6.469   6.518  1.00  0.00    -0.744 OA
ENDBRANCH 100 103
ENDBRANCH  73  96
ENDBRANCH  47  48
ENDBRANCH  40  42
ENDBRANCH  39  40
ENDBRANCH  38  39
ENDBRANCH   1  38
TORSDOF 20
