REMARK SMILES Cc1ccn2c([C@@H]3CCCC[C@@H]3C(=O)OCCOC(=O)c3ccc(-c4c5nc(c(-c6cccc(S(=O)(=O)[O-])c6F)c6ccc([nH]6)c(-c6cccc(S(=O)(=O)[O-])c6F)c6nc(c(-c7cccc(S(=O)(=O)[O-])c7F)c7ccc4[nH]7)C=C6)C=C5)cc3)nnc2c1
REMARK SMILES IDX 17 1 16 2 15 3 13 4 14 5 12 6 7 7 8 8 9 9 11 10 10 11 6 12
REMARK SMILES IDX 1 13 2 14 3 15 87 16 4 17 86 18 5 19 85 20 84 21 18 22 19 23
REMARK SMILES IDX 20 24 21 25 22 26 83 27 23 28 82 29 24 30 25 31 26 32 76 33
REMARK SMILES IDX 27 34 81 35 75 36 77 37 28 38 80 39 74 40 73 41 29 43 61 44
REMARK SMILES IDX 41 45 60 46 42 47 45 48 59 49 78 50 43 51 44 52 58 54 79 55
REMARK SMILES IDX 46 56 30 57 31 58 39 59 32 60 34 61 40 62 33 63 35 64 36 65
REMARK SMILES IDX 37 66 38 67 62 68 63 69 71 70 64 71 66 72 72 73 65 74 67 75
REMARK SMILES IDX 68 76 69 77 70 78 47 79 48 80 56 81 49 82 51 83 57 84 50 85
REMARK SMILES IDX 52 86 53 87 54 88 55 89
REMARK H PARENT 77 42 45 53
REMARK Flexibility Score: inf
ROOT
ATOM      1  C   UNL     1       0.307  -7.208  -1.255  1.00  0.00     0.275 C 
ENDROOT
BRANCH   1   2
ATOM      2  C   UNL     1       0.875  -6.099  -0.364  1.00  0.00     0.274 C 
BRANCH   2   3
ATOM      3  O   UNL     1       0.696  -6.402   1.039  1.00  0.00    -0.462 OA
BRANCH   3   4
ATOM      4  C   UNL     1      -0.167  -5.612   1.734  1.00  0.00     0.309 C 
ATOM      5  O   UNL     1      -0.792  -4.688   1.232  1.00  0.00    -0.252 OA
BRANCH   4   6
ATOM      6  C   UNL     1      -0.205  -5.919   3.223  1.00  0.00     0.110 C 
ATOM      7  C   UNL     1       0.762  -5.081   4.078  1.00  0.00     0.072 C 
ATOM      8  C   UNL     1       2.197  -5.601   4.043  1.00  0.00     0.012 C 
ATOM      9  C   UNL     1       2.245  -7.066   4.475  1.00  0.00     0.001 C 
ATOM     10  C   UNL     1      -0.074  -7.425   3.530  1.00  0.00     0.016 C 
ATOM     11  C   UNL     1       1.360  -7.940   3.601  1.00  0.00     0.001 C 
BRANCH   7  12
ATOM     12  C   UNL     1       0.657  -3.586   3.948  1.00  0.00     0.141 A 
ATOM     13  C   UNL     1       0.943   0.247  -0.120  1.00  0.00     0.044 C 
ATOM     14  C   UNL     1       0.951  -0.767   0.983  1.00  0.00    -0.046 A 
ATOM     15  C   UNL     1       1.580  -2.056   0.697  1.00  0.00     0.022 A 
ATOM     16  C   UNL     1       0.407  -0.526   2.195  1.00  0.00     0.053 A 
ATOM     17  C   UNL     1       1.563  -3.021   1.633  1.00  0.00     0.095 A 
ATOM     18  C   UNL     1       0.432  -1.535   3.195  1.00  0.00     0.161 A 
ATOM     19  N   UNL     1       0.939  -2.782   2.856  1.00  0.00    -0.286 N 
ATOM     20  N   UNL     1       0.086  -1.533   4.458  1.00  0.00    -0.130 NA
ATOM     21  N   UNL     1       0.230  -2.812   4.930  1.00  0.00    -0.134 NA
ENDBRANCH   7  12
ENDBRANCH   4   6
ENDBRANCH   3   4
ENDBRANCH   2   3
ENDBRANCH   1   2
BRANCH   1  22
ATOM     22  O   UNL     1      -1.124  -7.131  -1.243  1.00  0.00    -0.458 OA
BRANCH  22  23
ATOM     23  C   UNL     1      -1.750  -7.984  -0.399  1.00  0.00     0.338 C 
ATOM     24  O   UNL     1      -1.354  -9.098  -0.069  1.00  0.00    -0.246 OA
BRANCH  23  25
ATOM     25  C   UNL     1      -2.772  -7.205   0.330  1.00  0.00     0.060 A 
ATOM     26  C   UNL     1      -3.309  -6.028  -0.206  1.00  0.00     0.016 A 
ATOM     27  C   UNL     1      -2.966  -7.525   1.677  1.00  0.00     0.016 A 
ATOM     28  C   UNL     1      -3.909  -5.108   0.644  1.00  0.00     0.010 A 
ATOM     29  C   UNL     1      -3.524  -6.585   2.531  1.00  0.00     0.010 A 
ATOM     30  C   UNL     1      -3.954  -5.357   2.023  1.00  0.00    -0.014 A 
BRANCH  30  31
ATOM     31  C   UNL     1      -4.768  -4.480   2.854  1.00  0.00     0.031 A 
ATOM     32  C   UNL     1      -6.177  -4.913   2.844  1.00  0.00     0.074 A 
ATOM     33  C   UNL     1      -4.412  -3.424   3.609  1.00  0.00     0.049 A 
ATOM     34  N   UNL     1      -7.090  -4.491   2.035  1.00  0.00    -0.248 NA
ATOM     35  C   UNL     1      -6.560  -6.072   3.659  1.00  0.00     0.031 C 
ATOM     36  C   UNL     1      -3.078  -2.992   3.998  1.00  0.00     0.029 A 
ATOM     37  N   UNL     1      -5.227  -2.544   4.268  1.00  0.00    -0.354 N 
ATOM     38  C   UNL     1      -8.236  -5.156   2.432  1.00  0.00     0.074 A 
ATOM     39  C   UNL     1      -7.810  -6.270   3.239  1.00  0.00     0.031 C 
ATOM     40  C   UNL     1      -3.173  -2.069   4.987  1.00  0.00     0.029 A 
ATOM     41  C   UNL     1      -4.569  -1.721   5.177  1.00  0.00     0.049 A 
ATOM     42  H   UNL     1      -6.198  -2.497   4.112  1.00  0.00     0.167 HD
ATOM     43  C   UNL     1      -9.452  -4.560   2.336  1.00  0.00     0.034 A 
ATOM     44  C   UNL     1      -5.148  -0.828   6.016  1.00  0.00     0.034 A 
ATOM     45  C   UNL     1      -9.404  -3.349   1.558  1.00  0.00     0.049 A 
ATOM     46  C   UNL     1      -6.424  -0.424   5.380  1.00  0.00     0.074 A 
ATOM     47  C   UNL     1      -9.103  -3.013   0.256  1.00  0.00     0.029 A 
ATOM     48  N   UNL     1      -9.331  -2.197   2.300  1.00  0.00    -0.354 N 
ATOM     49  N   UNL     1      -6.503   0.268   4.278  1.00  0.00    -0.248 NA
ATOM     50  C   UNL     1      -7.675  -1.012   5.840  1.00  0.00     0.031 C 
ATOM     51  C   UNL     1      -8.559  -1.696   0.312  1.00  0.00     0.029 A 
ATOM     52  C   UNL     1      -8.562  -1.274   1.643  1.00  0.00     0.049 A 
ATOM     53  H   UNL     1      -9.764  -2.056   3.172  1.00  0.00     0.167 HD
ATOM     54  C   UNL     1      -7.676  -0.168   3.688  1.00  0.00     0.074 A 
ATOM     55  C   UNL     1      -8.432  -0.792   4.763  1.00  0.00     0.031 C 
ATOM     56  C   UNL     1      -7.782  -0.265   2.333  1.00  0.00     0.034 A 
BRANCH  43  57
ATOM     57  C   UNL     1     -10.582  -4.827   3.291  1.00  0.00     0.023 A 
ATOM     58  C   UNL     1     -11.870  -4.397   2.913  1.00  0.00     0.012 A 
ATOM     59  C   UNL     1     -10.405  -5.243   4.630  1.00  0.00     0.148 A 
ATOM     60  C   UNL     1     -12.930  -4.392   3.824  1.00  0.00     0.002 A 
ATOM     61  C   UNL     1     -11.482  -5.334   5.499  1.00  0.00     0.091 A 
ATOM     62  F   UNL     1      -9.173  -5.413   5.121  1.00  0.00    -0.205 F 
ATOM     63  C   UNL     1     -12.743  -4.885   5.111  1.00  0.00     0.022 A 
BRANCH  61  64
ATOM     64  S   UNL     1     -11.287  -6.038   7.139  1.00  0.00     0.127 S 
ATOM     65  O   UNL     1     -11.244  -4.840   7.970  1.00  0.00    -0.237 OA
ATOM     66  O   UNL     1     -12.503  -6.842   7.268  1.00  0.00    -0.237 OA
ATOM     67  O   UNL     1     -10.062  -6.826   7.070  1.00  0.00    -0.744 OA
ENDBRANCH  61  64
ENDBRANCH  43  57
BRANCH  44  68
ATOM     68  C   UNL     1      -4.787  -0.338   7.373  1.00  0.00     0.023 A 
ATOM     69  C   UNL     1      -5.456   0.798   7.886  1.00  0.00     0.012 A 
ATOM     70  C   UNL     1      -4.060  -1.138   8.281  1.00  0.00     0.148 A 
ATOM     71  C   UNL     1      -5.476   1.079   9.256  1.00  0.00     0.002 A 
ATOM     72  C   UNL     1      -4.073  -0.846   9.647  1.00  0.00     0.091 A 
ATOM     73  F   UNL     1      -3.448  -2.240   7.829  1.00  0.00    -0.205 F 
ATOM     74  C   UNL     1      -4.799   0.248  10.139  1.00  0.00     0.022 A 
BRANCH  72  75
ATOM     75  S   UNL     1      -3.235  -1.881  10.858  1.00  0.00     0.127 S 
ATOM     76  O   UNL     1      -2.687  -0.891  11.788  1.00  0.00    -0.237 OA
ATOM     77  O   UNL     1      -4.338  -2.673  11.396  1.00  0.00    -0.237 OA
ATOM     78  O   UNL     1      -2.224  -2.620  10.113  1.00  0.00    -0.744 OA
ENDBRANCH  72  75
ENDBRANCH  44  68
BRANCH  56  79
ATOM     79  C   UNL     1      -6.840   0.553   1.493  1.00  0.00     0.023 A 
ATOM     80  C   UNL     1      -5.458   0.291   1.429  1.00  0.00     0.012 A 
ATOM     81  C   UNL     1      -7.399   1.509   0.626  1.00  0.00     0.148 A 
ATOM     82  C   UNL     1      -4.647   0.975   0.518  1.00  0.00     0.002 A 
ATOM     83  C   UNL     1      -6.598   2.155  -0.307  1.00  0.00     0.091 A 
ATOM     84  F   UNL     1      -8.718   1.741   0.707  1.00  0.00    -0.205 F 
ATOM     85  C   UNL     1      -5.220   1.895  -0.359  1.00  0.00     0.022 A 
BRANCH  83  86
ATOM     86  S   UNL     1      -7.284   3.260  -1.544  1.00  0.00     0.127 S 
ATOM     87  O   UNL     1      -6.711   4.548  -1.158  1.00  0.00    -0.237 OA
ATOM     88  O   UNL     1      -6.749   2.701  -2.787  1.00  0.00    -0.237 OA
ATOM     89  O   UNL     1      -8.733   3.163  -1.419  1.00  0.00    -0.744 OA
ENDBRANCH  83  86
ENDBRANCH  56  79
ENDBRANCH  30  31
ENDBRANCH  23  25
ENDBRANCH  22  23
ENDBRANCH   1  22
TORSDOF 15
