REMARK SMILES Cc1cc(C(=O)N[C@@H]2C(=O)N3C(C(=O)OCCOC(=O)c4ccc(-c5c6nc(c(-c7cccc(S(=O)(=O)[O-])c7F)c7ccc([nH]7)c(-c7cccc(S(=O)(=O)[O-])c7F)c7nc(c(-c8cccc(S(=O)(=O)[O-])c8F)c8ccc5[nH]8)C=C7)C=C6)cc4)=C(CSc4nnc(C)s4)CS[C@H]23)n(C)n1
REMARK SMILES IDX 16 1 15 2 13 3 14 4 12 5 8 6 9 7 95 8 10 9 11 10 94 11 93 12
REMARK SMILES IDX 84 13 7 14 5 15 6 16 4 18 1 19 2 20 3 21 98 22 96 23 97 24
REMARK SMILES IDX 85 25 86 26 87 27 88 28 92 29 89 30 90 31 91 32 17 33 18 34
REMARK SMILES IDX 19 35 20 36 21 37 22 38 83 39 23 40 82 41 24 42 25 43 26 44
REMARK SMILES IDX 76 45 27 46 81 47 75 48 77 49 28 50 80 51 74 52 73 53 29 55
REMARK SMILES IDX 61 56 41 57 60 58 42 59 45 60 59 61 78 62 43 63 44 64 58 66
REMARK SMILES IDX 79 67 46 68 30 69 31 70 39 71 32 72 34 73 40 74 33 75 35 76
REMARK SMILES IDX 36 77 37 78 38 79 62 80 63 81 71 82 64 83 66 84 72 85 65 86
REMARK SMILES IDX 67 87 68 88 69 89 70 90 47 91 48 92 56 93 49 94 51 95 57 96
REMARK SMILES IDX 50 97 52 98 53 99 54 100 55 101
REMARK H PARENT 7 17 77 54 45 65
REMARK Flexibility Score: inf
ROOT
ATOM      1  C   UNL     1      -3.884   0.667  -3.363  1.00  0.00     0.275 C 
ENDROOT
BRANCH   1   2
ATOM      2  O   UNL     1      -4.013  -0.692  -2.894  1.00  0.00    -0.457 OA
BRANCH   2   3
ATOM      3  C   UNL     1      -2.883  -1.429  -2.904  1.00  0.00     0.355 C 
ATOM      4  O   UNL     1      -1.776  -1.044  -3.262  1.00  0.00    -0.244 OA
BRANCH   3   5
ATOM      5  C   UNL     1      -3.100  -2.849  -2.480  1.00  0.00     0.132 C 
ATOM      6  C   UNL     1      -0.881  -4.292  -0.338  1.00  0.00     0.206 C 
ATOM      7  C   UNL     1      -1.992  -3.185  -0.277  1.00  0.00     0.253 C 
ATOM      8  C   UNL     1      -1.644  -4.678  -1.654  1.00  0.00     0.181 C 
ATOM      9  O   UNL     1      -2.566  -2.528   0.558  1.00  0.00    -0.272 OA
ATOM     10  N   UNL     1      -2.154  -3.321  -1.620  1.00  0.00    -0.289 N 
ATOM     11  S   UNL     1      -3.060  -5.806  -1.494  1.00  0.00    -0.129 SA
ATOM     12  C   UNL     1      -3.889  -5.201  -2.982  1.00  0.00     0.106 C 
ATOM     13  C   UNL     1      -3.910  -3.690  -3.166  1.00  0.00    -0.019 C 
BRANCH   6  14
ATOM     14  N   UNL     1      -0.778  -5.234   0.794  1.00  0.00    -0.336 N 
ATOM     15  C   UNL     1      -0.251  -6.506   0.828  1.00  0.00     0.270 C 
ATOM     16  O   UNL     1      -0.221  -7.077   1.915  1.00  0.00    -0.268 OA
ATOM     17  H   UNL     1      -1.138  -4.904   1.649  1.00  0.00     0.164 HD
BRANCH  15  18
ATOM     18  C   UNL     1       0.150  -7.131  -0.410  1.00  0.00     0.126 A 
ATOM     19  C   UNL     1       0.637  -7.412  -4.022  1.00  0.00     0.069 C 
ATOM     20  C   UNL     1       0.519  -7.578  -2.555  1.00  0.00     0.060 A 
ATOM     21  C   UNL     1       0.747  -6.615  -1.549  1.00  0.00     0.059 A 
ATOM     22  N   UNL     1       0.079  -8.724  -2.034  1.00  0.00    -0.178 NA
ATOM     23  N   UNL     1      -0.023  -8.464  -0.710  1.00  0.00    -0.263 N 
ATOM     24  C   UNL     1      -0.370  -9.561   0.163  1.00  0.00     0.174 C 
ENDBRANCH  15  18
ENDBRANCH   6  14
BRANCH  13  25
ATOM     25  C   UNL     1      -4.819  -3.265  -4.298  1.00  0.00     0.111 C 
BRANCH  25  26
ATOM     26  S   UNL     1      -6.352  -2.416  -3.856  1.00  0.00    -0.089 SA
BRANCH  26  27
ATOM     27  C   UNL     1      -6.748  -3.009  -2.267  1.00  0.00     0.174 A 
ATOM     28  N   UNL     1      -6.827  -4.290  -1.985  1.00  0.00    -0.132 NA
ATOM     29  S   UNL     1      -7.176  -1.970  -0.974  1.00  0.00    -0.091 S 
ATOM     30  N   UNL     1      -7.228  -4.508  -0.680  1.00  0.00    -0.143 NA
ATOM     31  C   UNL     1      -7.463  -3.381  -0.038  1.00  0.00     0.115 A 
ATOM     32  C   UNL     1      -7.971  -3.291   1.355  1.00  0.00     0.081 C 
ENDBRANCH  26  27
ENDBRANCH  25  26
ENDBRANCH  13  25
ENDBRANCH   3   5
ENDBRANCH   2   3
ENDBRANCH   1   2
BRANCH   1  33
ATOM     33  C   UNL     1      -3.981   1.640  -2.196  1.00  0.00     0.275 C 
BRANCH  33  34
ATOM     34  O   UNL     1      -2.849   1.445  -1.334  1.00  0.00    -0.458 OA
BRANCH  34  35
ATOM     35  C   UNL     1      -3.123   0.863  -0.143  1.00  0.00     0.338 C 
ATOM     36  O   UNL     1      -4.224   0.588   0.303  1.00  0.00    -0.246 OA
BRANCH  35  37
ATOM     37  C   UNL     1      -1.861   0.605   0.570  1.00  0.00     0.060 A 
ATOM     38  C   UNL     1      -0.875  -0.188  -0.017  1.00  0.00     0.016 A 
ATOM     39  C   UNL     1      -1.720   1.037   1.886  1.00  0.00     0.016 A 
ATOM     40  C   UNL     1       0.173  -0.674   0.762  1.00  0.00     0.010 A 
ATOM     41  C   UNL     1      -0.593   0.657   2.620  1.00  0.00     0.010 A 
ATOM     42  C   UNL     1       0.342  -0.250   2.089  1.00  0.00    -0.014 A 
BRANCH  42  43
ATOM     43  C   UNL     1       1.469  -0.764   2.925  1.00  0.00     0.031 A 
ATOM     44  C   UNL     1       1.208  -1.350   4.293  1.00  0.00     0.074 A 
ATOM     45  C   UNL     1       2.740  -0.684   2.478  1.00  0.00     0.049 A 
ATOM     46  N   UNL     1       2.059  -1.632   5.246  1.00  0.00    -0.248 NA
ATOM     47  C   UNL     1      -0.194  -1.633   4.645  1.00  0.00     0.031 C 
ATOM     48  C   UNL     1       3.150  -0.150   1.178  1.00  0.00     0.029 A 
ATOM     49  N   UNL     1       3.927  -1.042   3.073  1.00  0.00    -0.354 N 
ATOM     50  C   UNL     1       1.295  -2.027   6.340  1.00  0.00     0.074 A 
ATOM     51  C   UNL     1      -0.090  -1.970   5.924  1.00  0.00     0.031 C 
ATOM     52  C   UNL     1       4.481  -0.246   1.058  1.00  0.00     0.029 A 
ATOM     53  C   UNL     1       5.033  -0.746   2.310  1.00  0.00     0.049 A 
ATOM     54  H   UNL     1       3.980  -1.468   3.959  1.00  0.00     0.167 HD
ATOM     55  C   UNL     1       1.708  -2.406   7.574  1.00  0.00     0.034 A 
ATOM     56  C   UNL     1       6.349  -0.808   2.594  1.00  0.00     0.034 A 
ATOM     57  C   UNL     1       3.090  -2.561   7.952  1.00  0.00     0.049 A 
ATOM     58  C   UNL     1       6.782  -1.269   3.954  1.00  0.00     0.074 A 
ATOM     59  C   UNL     1       3.607  -2.999   9.159  1.00  0.00     0.029 A 
ATOM     60  N   UNL     1       4.173  -2.304   7.126  1.00  0.00    -0.354 N 
ATOM     61  N   UNL     1       6.045  -1.663   4.964  1.00  0.00    -0.248 NA
ATOM     62  C   UNL     1       8.228  -1.301   4.214  1.00  0.00     0.031 C 
ATOM     63  C   UNL     1       5.003  -2.998   9.066  1.00  0.00     0.029 A 
ATOM     64  C   UNL     1       5.355  -2.574   7.795  1.00  0.00     0.049 A 
ATOM     65  H   UNL     1       4.110  -1.977   6.199  1.00  0.00     0.167 HD
ATOM     66  C   UNL     1       6.936  -2.000   5.975  1.00  0.00     0.074 A 
ATOM     67  C   UNL     1       8.268  -1.797   5.444  1.00  0.00     0.031 C 
ATOM     68  C   UNL     1       6.674  -2.414   7.239  1.00  0.00     0.034 A 
BRANCH  55  69
ATOM     69  C   UNL     1       0.657  -2.705   8.614  1.00  0.00     0.023 A 
ATOM     70  C   UNL     1      -0.092  -3.896   8.538  1.00  0.00     0.012 A 
ATOM     71  C   UNL     1       0.464  -1.838   9.709  1.00  0.00     0.148 A 
ATOM     72  C   UNL     1      -1.037  -4.204   9.517  1.00  0.00     0.002 A 
ATOM     73  C   UNL     1      -0.449  -2.173  10.704  1.00  0.00     0.091 A 
ATOM     74  F   UNL     1       1.169  -0.699   9.756  1.00  0.00    -0.205 F 
ATOM     75  C   UNL     1      -1.207  -3.350  10.604  1.00  0.00     0.022 A 
BRANCH  73  76
ATOM     76  S   UNL     1      -0.673  -1.175  12.182  1.00  0.00     0.127 S 
ATOM     77  O   UNL     1      -1.948  -0.515  11.904  1.00  0.00    -0.237 OA
ATOM     78  O   UNL     1      -0.730  -2.189  13.237  1.00  0.00    -0.237 OA
ATOM     79  O   UNL     1       0.487  -0.298  12.251  1.00  0.00    -0.744 OA
ENDBRANCH  73  76
ENDBRANCH  55  69
BRANCH  56  80
ATOM     80  C   UNL     1       7.343  -0.421   1.552  1.00  0.00     0.023 A 
ATOM     81  C   UNL     1       8.152  -1.413   0.966  1.00  0.00     0.012 A 
ATOM     82  C   UNL     1       7.435   0.905   1.085  1.00  0.00     0.148 A 
ATOM     83  C   UNL     1       9.041  -1.089  -0.060  1.00  0.00     0.002 A 
ATOM     84  C   UNL     1       8.269   1.206   0.015  1.00  0.00     0.091 A 
ATOM     85  F   UNL     1       6.677   1.842   1.673  1.00  0.00    -0.205 F 
ATOM     86  C   UNL     1       9.086   0.215  -0.547  1.00  0.00     0.022 A 
BRANCH  84  87
ATOM     87  S   UNL     1       8.248   2.815  -0.784  1.00  0.00     0.127 S 
ATOM     88  O   UNL     1       9.492   3.407  -0.301  1.00  0.00    -0.237 OA
ATOM     89  O   UNL     1       8.247   2.451  -2.202  1.00  0.00    -0.237 OA
ATOM     90  O   UNL     1       7.019   3.455  -0.335  1.00  0.00    -0.744 OA
ENDBRANCH  84  87
ENDBRANCH  56  80
BRANCH  68  91
ATOM     91  C   UNL     1       7.852  -2.697   8.131  1.00  0.00     0.023 A 
ATOM     92  C   UNL     1       8.595  -1.625   8.663  1.00  0.00     0.012 A 
ATOM     93  C   UNL     1       8.192  -4.018   8.484  1.00  0.00     0.148 A 
ATOM     94  C   UNL     1       9.678  -1.863   9.508  1.00  0.00     0.002 A 
ATOM     95  C   UNL     1       9.246  -4.246   9.360  1.00  0.00     0.091 A 
ATOM     96  F   UNL     1       7.487  -5.025   7.949  1.00  0.00    -0.205 F 
ATOM     97  C   UNL     1       9.997  -3.171   9.865  1.00  0.00     0.022 A 
BRANCH  95  98
ATOM     98  S   UNL     1       9.673  -5.893   9.938  1.00  0.00     0.127 S 
ATOM     99  O   UNL     1      10.878  -6.178   9.161  1.00  0.00    -0.237 OA
ATOM    100  O   UNL     1       9.906  -5.673  11.366  1.00  0.00    -0.237 OA
ATOM    101  O   UNL     1       8.520  -6.731   9.639  1.00  0.00    -0.744 OA
ENDBRANCH  95  98
ENDBRANCH  68  91
ENDBRANCH  42  43
ENDBRANCH  35  37
ENDBRANCH  34  35
ENDBRANCH  33  34
ENDBRANCH   1  33
TORSDOF 19
