REMARK SMILES CS(=O)(=O)c1ccc(-c2cc(Cl)cc3c2O[C@H](C(F)(F)F)C(C(=O)OCCOC(=O)c2ccc(-c4c5nc(c(-c6cccc(S(=O)(=O)[O-])c6F)c6ccc([nH]6)c(-c6cccc(S(=O)(=O)[O-])c6F)c6nc(c(-c7cccc(S(=O)(=O)[O-])c7F)c7ccc4[nH]7)C=C6)C=C5)cc2)=C3)cc1
REMARK SMILES IDX 27 1 26 2 25 3 23 4 24 5 22 6 9 7 10 8 15 9 11 10 14 11
REMARK SMILES IDX 16 12 12 13 13 14 94 15 17 16 8 17 5 18 6 19 96 20 7 21
REMARK SMILES IDX 95 22 2 23 1 24 3 25 4 26 18 27 19 28 20 29 21 30 28 31
REMARK SMILES IDX 29 32 30 33 31 34 32 35 93 36 33 37 92 38 34 39 35 40 36 41
REMARK SMILES IDX 86 42 37 43 91 44 85 45 87 46 38 47 90 48 84 49 83 50 39 52
REMARK SMILES IDX 71 53 51 54 70 55 52 56 55 57 69 58 88 59 53 60 54 61 68 63
REMARK SMILES IDX 89 64 56 65 40 66 41 67 49 68 42 69 44 70 50 71 43 72 45 73
REMARK SMILES IDX 46 74 47 75 48 76 72 77 73 78 81 79 74 80 76 81 82 82 75 83
REMARK SMILES IDX 77 84 78 85 79 86 80 87 57 88 58 89 66 90 59 91 61 92 67 93
REMARK SMILES IDX 60 94 62 95 63 96 64 97 65 98
REMARK H PARENT 87 51 55 62
REMARK Flexibility Score: inf
ROOT
ATOM      1  C   UNL     1       5.604  -2.672 -12.514  1.00  0.00     0.275 C 
ENDROOT
BRANCH   1   2
ATOM      2  C   UNL     1       5.588  -1.155 -12.729  1.00  0.00     0.275 C 
BRANCH   2   3
ATOM      3  O   UNL     1       5.838  -0.395 -11.520  1.00  0.00    -0.459 OA
BRANCH   3   4
ATOM      4  C   UNL     1       5.288   0.847 -11.556  1.00  0.00     0.338 C 
ATOM      5  O   UNL     1       4.672   1.299 -12.516  1.00  0.00    -0.246 OA
BRANCH   4   6
ATOM      6  C   UNL     1       5.460   1.633 -10.306  1.00  0.00     0.087 C 
ATOM      7  C   UNL     1       3.406   0.524  -6.997  1.00  0.00     0.026 A 
ATOM      8  C   UNL     1       2.333  -0.181  -7.596  1.00  0.00     0.033 A 
ATOM      9  C   UNL     1       4.176   1.258  -7.902  1.00  0.00     0.135 A 
ATOM     10  C   UNL     1       1.939  -0.006  -8.927  1.00  0.00     0.042 A 
ATOM     11  C   UNL     1       3.613   1.630  -9.148  1.00  0.00     0.019 A 
ATOM     12  O   UNL     1       5.551   1.448  -7.783  1.00  0.00    -0.475 OA
ATOM     13  Cl  UNL     1       0.816  -1.017  -9.736  1.00  0.00    -0.084 Cl
ATOM     14  C   UNL     1       2.495   1.004  -9.665  1.00  0.00     0.032 A 
ATOM     15  C   UNL     1       4.423   2.453 -10.065  1.00  0.00     0.027 C 
ATOM     16  C   UNL     1       6.263   1.190  -9.095  1.00  0.00     0.316 C 
BRANCH   7  17
ATOM     17  C   UNL     1       3.333   0.609  -5.499  1.00  0.00    -0.015 A 
ATOM     18  C   UNL     1       2.184   0.222  -2.907  1.00  0.00     0.067 A 
ATOM     19  C   UNL     1       3.227  -0.597  -3.351  1.00  0.00     0.021 A 
ATOM     20  C   UNL     1       1.770   1.286  -3.702  1.00  0.00     0.021 A 
ATOM     21  C   UNL     1       3.822  -0.373  -4.619  1.00  0.00     0.010 A 
ATOM     22  C   UNL     1       2.345   1.476  -4.971  1.00  0.00     0.010 A 
BRANCH  18  23
ATOM     23  S   UNL     1       1.196  -0.232  -1.480  1.00  0.00     0.175 S 
ATOM     24  C   UNL     1       1.887   0.655  -0.117  1.00  0.00     0.163 C 
ATOM     25  O   UNL     1       1.428  -1.644  -1.253  1.00  0.00    -0.224 OA
ATOM     26  O   UNL     1      -0.130   0.311  -1.702  1.00  0.00    -0.224 OA
ENDBRANCH  18  23
ENDBRANCH   7  17
BRANCH  16  27
ATOM     27  C   UNL     1       7.574   1.980  -9.168  1.00  0.00     0.430 C 
ATOM     28  F   UNL     1       7.371   3.310  -8.992  1.00  0.00    -0.167 F 
ATOM     29  F   UNL     1       8.474   1.579  -8.246  1.00  0.00    -0.167 F 
ATOM     30  F   UNL     1       8.165   1.836 -10.384  1.00  0.00    -0.167 F 
ENDBRANCH  16  27
ENDBRANCH   4   6
ENDBRANCH   3   4
ENDBRANCH   2   3
ENDBRANCH   1   2
BRANCH   1  31
ATOM     31  O   UNL     1       4.702  -3.071 -11.467  1.00  0.00    -0.458 OA
BRANCH  31  32
ATOM     32  C   UNL     1       5.288  -3.180 -10.250  1.00  0.00     0.338 C 
ATOM     33  O   UNL     1       6.476  -3.006 -10.014  1.00  0.00    -0.246 OA
BRANCH  32  34
ATOM     34  C   UNL     1       4.289  -3.416  -9.177  1.00  0.00     0.060 A 
ATOM     35  C   UNL     1       4.629  -2.948  -7.911  1.00  0.00     0.016 A 
ATOM     36  C   UNL     1       3.063  -4.073  -9.351  1.00  0.00     0.016 A 
ATOM     37  C   UNL     1       3.732  -3.096  -6.854  1.00  0.00     0.010 A 
ATOM     38  C   UNL     1       2.157  -4.208  -8.269  1.00  0.00     0.010 A 
ATOM     39  C   UNL     1       2.466  -3.688  -7.006  1.00  0.00    -0.014 A 
BRANCH  39  40
ATOM     40  C   UNL     1       1.583  -3.752  -5.786  1.00  0.00     0.031 A 
ATOM     41  C   UNL     1       2.082  -4.493  -4.581  1.00  0.00     0.074 A 
ATOM     42  C   UNL     1       0.459  -3.013  -5.634  1.00  0.00     0.049 A 
ATOM     43  N   UNL     1       1.621  -4.481  -3.360  1.00  0.00    -0.248 NA
ATOM     44  C   UNL     1       3.262  -5.349  -4.778  1.00  0.00     0.031 C 
ATOM     45  C   UNL     1      -0.163  -2.226  -6.680  1.00  0.00     0.029 A 
ATOM     46  N   UNL     1      -0.317  -2.721  -4.529  1.00  0.00    -0.354 N 
ATOM     47  C   UNL     1       2.438  -5.334  -2.641  1.00  0.00     0.074 A 
ATOM     48  C   UNL     1       3.457  -5.813  -3.554  1.00  0.00     0.031 C 
ATOM     49  C   UNL     1      -1.071  -1.390  -6.156  1.00  0.00     0.029 A 
ATOM     50  C   UNL     1      -1.250  -1.720  -4.748  1.00  0.00     0.049 A 
ATOM     51  H   UNL     1      -0.216  -3.182  -3.665  1.00  0.00     0.167 HD
ATOM     52  C   UNL     1       2.334  -5.726  -1.351  1.00  0.00     0.034 A 
ATOM     53  C   UNL     1      -2.171  -1.155  -3.935  1.00  0.00     0.034 A 
ATOM     54  C   UNL     1       1.279  -5.353  -0.452  1.00  0.00     0.049 A 
ATOM     55  C   UNL     1      -2.347  -1.718  -2.548  1.00  0.00     0.074 A 
ATOM     56  C   UNL     1       1.054  -5.804   0.838  1.00  0.00     0.029 A 
ATOM     57  N   UNL     1       0.262  -4.459  -0.743  1.00  0.00    -0.354 N 
ATOM     58  N   UNL     1      -1.620  -2.608  -1.921  1.00  0.00    -0.248 NA
ATOM     59  C   UNL     1      -3.495  -1.227  -1.767  1.00  0.00     0.031 C 
ATOM     60  C   UNL     1      -0.130  -5.224   1.306  1.00  0.00     0.029 A 
ATOM     61  C   UNL     1      -0.610  -4.367   0.331  1.00  0.00     0.049 A 
ATOM     62  H   UNL     1       0.172  -3.961  -1.587  1.00  0.00     0.167 HD
ATOM     63  C   UNL     1      -2.175  -2.729  -0.653  1.00  0.00     0.074 A 
ATOM     64  C   UNL     1      -3.320  -1.846  -0.608  1.00  0.00     0.031 C 
ATOM     65  C   UNL     1      -1.759  -3.500   0.380  1.00  0.00     0.034 A 
BRANCH  52  66
ATOM     66  C   UNL     1       3.371  -6.700  -0.878  1.00  0.00     0.023 A 
ATOM     67  C   UNL     1       4.677  -6.255  -0.598  1.00  0.00     0.012 A 
ATOM     68  C   UNL     1       3.051  -8.064  -0.752  1.00  0.00     0.148 A 
ATOM     69  C   UNL     1       5.665  -7.166  -0.231  1.00  0.00     0.002 A 
ATOM     70  C   UNL     1       4.029  -8.958  -0.345  1.00  0.00     0.091 A 
ATOM     71  F   UNL     1       1.811  -8.463  -1.068  1.00  0.00    -0.205 F 
ATOM     72  C   UNL     1       5.338  -8.514  -0.096  1.00  0.00     0.022 A 
BRANCH  70  73
ATOM     73  S   UNL     1       3.688 -10.701  -0.094  1.00  0.00     0.127 S 
ATOM     74  O   UNL     1       4.387 -11.303  -1.228  1.00  0.00    -0.237 OA
ATOM     75  O   UNL     1       4.308 -10.950   1.208  1.00  0.00    -0.237 OA
ATOM     76  O   UNL     1       2.238 -10.835  -0.111  1.00  0.00    -0.744 OA
ENDBRANCH  70  73
ENDBRANCH  52  66
BRANCH  53  77
ATOM     77  C   UNL     1      -3.021   0.002  -4.376  1.00  0.00     0.023 A 
ATOM     78  C   UNL     1      -2.959   1.218  -3.661  1.00  0.00     0.012 A 
ATOM     79  C   UNL     1      -3.918  -0.091  -5.457  1.00  0.00     0.148 A 
ATOM     80  C   UNL     1      -3.787   2.296  -3.991  1.00  0.00     0.002 A 
ATOM     81  C   UNL     1      -4.684   1.010  -5.830  1.00  0.00     0.091 A 
ATOM     82  F   UNL     1      -4.021  -1.262  -6.102  1.00  0.00    -0.205 F 
ATOM     83  C   UNL     1      -4.639   2.197  -5.085  1.00  0.00     0.022 A 
BRANCH  81  84
ATOM     84  S   UNL     1      -5.696   1.010  -7.315  1.00  0.00     0.127 S 
ATOM     85  O   UNL     1      -7.044   0.914  -6.763  1.00  0.00    -0.237 OA
ATOM     86  O   UNL     1      -5.364   2.305  -7.910  1.00  0.00    -0.237 OA
ATOM     87  O   UNL     1      -5.244  -0.136  -8.093  1.00  0.00    -0.744 OA
ENDBRANCH  81  84
ENDBRANCH  53  77
BRANCH  65  88
ATOM     88  C   UNL     1      -2.539  -3.432   1.667  1.00  0.00     0.023 A 
ATOM     89  C   UNL     1      -3.835  -3.980   1.743  1.00  0.00     0.012 A 
ATOM     90  C   UNL     1      -1.954  -2.880   2.824  1.00  0.00     0.148 A 
ATOM     91  C   UNL     1      -4.548  -3.952   2.942  1.00  0.00     0.002 A 
ATOM     92  C   UNL     1      -2.648  -2.905   4.027  1.00  0.00     0.091 A 
ATOM     93  F   UNL     1      -0.730  -2.341   2.727  1.00  0.00    -0.205 F 
ATOM     94  C   UNL     1      -3.950  -3.427   4.086  1.00  0.00     0.022 A 
BRANCH  92  95
ATOM     95  S   UNL     1      -1.924  -2.341   5.571  1.00  0.00     0.127 S 
ATOM     96  O   UNL     1      -2.743  -1.169   5.876  1.00  0.00    -0.237 OA
ATOM     97  O   UNL     1      -2.148  -3.487   6.452  1.00  0.00    -0.237 OA
ATOM     98  O   UNL     1      -0.524  -2.058   5.285  1.00  0.00    -0.744 OA
ENDBRANCH  92  95
ENDBRANCH  65  88
ENDBRANCH  39  40
ENDBRANCH  32  34
ENDBRANCH  31  32
ENDBRANCH   1  31
TORSDOF 17
