REMARK SMILES Cc1nnc(SCC2=C(C(=O)OCCOC(=O)c3ccc(-c4c5nc(c(-c6cccc(S(=O)(=O)[O-])c6F)c6ccc([nH]6)c(-c6cccc(S(=O)(=O)[O-])c6F)c6nc(c(-c7cccc(S(=O)(=O)[O-])c7F)c7ccc4[nH]7)C=C6)C=C5)cc3)N3C(=O)[C@H](NC(=O)c4cn(C)nc4C)[C@@H]3SC2)s1
REMARK SMILES IDX 13 1 12 2 10 3 11 4 9 5 8 6 97 7 81 8 96 9 82 10 95 11 83 12
REMARK SMILES IDX 84 13 7 14 6 15 5 16 1 17 2 18 3 19 98 20 4 21 85 22 86 23
REMARK SMILES IDX 87 25 88 26 89 27 93 28 90 29 92 30 94 31 91 32 14 33 15 34
REMARK SMILES IDX 16 35 17 36 18 37 19 38 80 39 20 40 79 41 21 42 22 43 23 44
REMARK SMILES IDX 73 45 24 46 78 47 72 48 74 49 25 50 77 51 71 52 70 53 26 55
REMARK SMILES IDX 58 56 38 57 57 58 39 59 42 60 56 61 75 62 40 63 41 64 55 66
REMARK SMILES IDX 76 67 43 68 27 69 28 70 36 71 29 72 31 73 37 74 30 75 32 76
REMARK SMILES IDX 33 77 34 78 35 79 59 80 60 81 68 82 61 83 63 84 69 85 62 86
REMARK SMILES IDX 64 87 65 88 66 89 67 90 44 91 45 92 53 93 46 94 48 95 54 96
REMARK SMILES IDX 47 97 49 98 50 99 51 100 52 101
REMARK H PARENT 85 24 74 54 42 65
REMARK Flexibility Score: inf
ROOT
ATOM      1  C   UNL     1       6.037  -3.214  -1.893  1.00  0.00     0.275 C 
ENDROOT
BRANCH   1   2
ATOM      2  O   UNL     1       5.504  -2.666  -0.668  1.00  0.00    -0.457 OA
BRANCH   2   3
ATOM      3  C   UNL     1       4.322  -3.186  -0.223  1.00  0.00     0.355 C 
ATOM      4  O   UNL     1       3.690  -4.075  -0.762  1.00  0.00    -0.244 OA
BRANCH   3   5
ATOM      5  C   UNL     1       3.954  -2.509   1.076  1.00  0.00     0.132 C 
ATOM      6  C   UNL     1       3.873  -1.153   1.185  1.00  0.00    -0.019 C 
ATOM      7  C   UNL     1       3.560  -0.452   2.504  1.00  0.00     0.106 C 
ATOM      8  N   UNL     1       3.718  -3.301   2.159  1.00  0.00    -0.289 N 
ATOM      9  S   UNL     1       2.691  -1.483   3.733  1.00  0.00    -0.129 SA
ATOM     10  C   UNL     1       3.456  -4.596   2.436  1.00  0.00     0.253 C 
ATOM     11  C   UNL     1       3.843  -2.848   3.527  1.00  0.00     0.181 C 
ATOM     12  O   UNL     1       3.316  -5.578   1.753  1.00  0.00    -0.272 OA
ATOM     13  C   UNL     1       3.432  -4.276   3.969  1.00  0.00     0.206 C 
BRANCH   6  14
ATOM     14  C   UNL     1       4.101  -0.249  -0.022  1.00  0.00     0.111 C 
BRANCH  14  15
ATOM     15  S   UNL     1       2.996   1.182  -0.188  1.00  0.00    -0.089 SA
BRANCH  15  16
ATOM     16  C   UNL     1       1.424   0.422  -0.245  1.00  0.00     0.174 A 
ATOM     17  C   UNL     1      -2.336  -0.266  -0.004  1.00  0.00     0.081 C 
ATOM     18  C   UNL     1      -0.860  -0.199  -0.141  1.00  0.00     0.115 A 
ATOM     19  N   UNL     1      -0.075  -1.231  -0.363  1.00  0.00    -0.143 NA
ATOM     20  S   UNL     1      -0.031   1.300  -0.021  1.00  0.00    -0.091 S 
ATOM     21  N   UNL     1       1.254  -0.866  -0.433  1.00  0.00    -0.132 NA
ENDBRANCH  15  16
ENDBRANCH  14  15
ENDBRANCH   6  14
BRANCH  13  22
ATOM     22  N   UNL     1       2.134  -4.480   4.649  1.00  0.00    -0.337 N 
ATOM     23  C   UNL     1       1.897  -5.198   5.801  1.00  0.00     0.255 C 
ATOM     24  H   UNL     1       1.351  -4.055   4.231  1.00  0.00     0.164 HD
ATOM     25  O   UNL     1       0.741  -5.513   6.074  1.00  0.00    -0.269 OA
BRANCH  23  26
ATOM     26  C   UNL     1       3.016  -5.546   6.657  1.00  0.00     0.080 A 
ATOM     27  C   UNL     1       4.019  -4.709   7.123  1.00  0.00     0.122 A 
ATOM     28  C   UNL     1       3.292  -6.795   7.281  1.00  0.00     0.072 A 
ATOM     29  N   UNL     1       4.798  -5.467   7.948  1.00  0.00    -0.275 N 
ATOM     30  N   UNL     1       4.375  -6.728   8.063  1.00  0.00    -0.178 NA
ATOM     31  C   UNL     1       2.571  -8.088   7.164  1.00  0.00     0.069 C 
ATOM     32  C   UNL     1       5.960  -5.052   8.696  1.00  0.00     0.173 C 
ENDBRANCH  23  26
ENDBRANCH  13  22
ENDBRANCH   3   5
ENDBRANCH   2   3
ENDBRANCH   1   2
BRANCH   1  33
ATOM     33  C   UNL     1       7.562  -3.344  -1.795  1.00  0.00     0.275 C 
BRANCH  33  34
ATOM     34  O   UNL     1       7.913  -4.360  -0.839  1.00  0.00    -0.458 OA
BRANCH  34  35
ATOM     35  C   UNL     1       8.093  -3.912   0.424  1.00  0.00     0.338 C 
ATOM     36  O   UNL     1       8.126  -2.752   0.804  1.00  0.00    -0.246 OA
BRANCH  35  37
ATOM     37  C   UNL     1       7.998  -5.047   1.351  1.00  0.00     0.060 A 
ATOM     38  C   UNL     1       6.843  -5.106   2.126  1.00  0.00     0.016 A 
ATOM     39  C   UNL     1       9.011  -5.988   1.520  1.00  0.00     0.016 A 
ATOM     40  C   UNL     1       6.698  -6.084   3.101  1.00  0.00     0.010 A 
ATOM     41  C   UNL     1       8.859  -6.982   2.499  1.00  0.00     0.010 A 
ATOM     42  C   UNL     1       7.711  -7.022   3.313  1.00  0.00    -0.014 A 
BRANCH  42  43
ATOM     43  C   UNL     1       7.575  -7.974   4.446  1.00  0.00     0.031 A 
ATOM     44  C   UNL     1       8.477  -7.841   5.641  1.00  0.00     0.074 A 
ATOM     45  C   UNL     1       6.613  -8.917   4.435  1.00  0.00     0.049 A 
ATOM     46  N   UNL     1       8.565  -8.600   6.702  1.00  0.00    -0.248 NA
ATOM     47  C   UNL     1       9.404  -6.697   5.646  1.00  0.00     0.031 C 
ATOM     48  C   UNL     1       5.636  -9.118   3.363  1.00  0.00     0.029 A 
ATOM     49  N   UNL     1       6.307  -9.892   5.352  1.00  0.00    -0.354 N 
ATOM     50  C   UNL     1       9.590  -8.066   7.470  1.00  0.00     0.074 A 
ATOM     51  C   UNL     1      10.091  -6.909   6.759  1.00  0.00     0.031 C 
ATOM     52  C   UNL     1       4.851 -10.161   3.677  1.00  0.00     0.029 A 
ATOM     53  C   UNL     1       5.300 -10.733   4.943  1.00  0.00     0.049 A 
ATOM     54  H   UNL     1       6.764  -9.979   6.220  1.00  0.00     0.167 HD
ATOM     55  C   UNL     1      10.070  -8.497   8.661  1.00  0.00     0.034 A 
ATOM     56  C   UNL     1       4.816 -11.860   5.503  1.00  0.00     0.034 A 
ATOM     57  C   UNL     1       9.545  -9.622   9.386  1.00  0.00     0.049 A 
ATOM     58  C   UNL     1       5.386 -12.333   6.814  1.00  0.00     0.074 A 
ATOM     59  C   UNL     1       9.952 -10.119  10.612  1.00  0.00     0.029 A 
ATOM     60  N   UNL     1       8.504 -10.429   8.954  1.00  0.00    -0.354 N 
ATOM     61  N   UNL     1       6.315 -11.783   7.559  1.00  0.00    -0.248 NA
ATOM     62  C   UNL     1       4.826 -13.572   7.375  1.00  0.00     0.031 C 
ATOM     63  C   UNL     1       9.180 -11.248  10.905  1.00  0.00     0.029 A 
ATOM     64  C   UNL     1       8.269 -11.435   9.878  1.00  0.00     0.049 A 
ATOM     65  H   UNL     1       8.004 -10.306   8.115  1.00  0.00     0.167 HD
ATOM     66  C   UNL     1       6.428 -12.588   8.687  1.00  0.00     0.074 A 
ATOM     67  C   UNL     1       5.459 -13.654   8.537  1.00  0.00     0.031 C 
ATOM     68  C   UNL     1       7.268 -12.463   9.744  1.00  0.00     0.034 A 
BRANCH  55  69
ATOM     69  C   UNL     1      11.236  -7.749   9.251  1.00  0.00     0.023 A 
ATOM     70  C   UNL     1      11.043  -6.473   9.817  1.00  0.00     0.012 A 
ATOM     71  C   UNL     1      12.518  -8.332   9.278  1.00  0.00     0.148 A 
ATOM     72  C   UNL     1      12.116  -5.773  10.368  1.00  0.00     0.002 A 
ATOM     73  C   UNL     1      13.573  -7.647   9.869  1.00  0.00     0.091 A 
ATOM     74  F   UNL     1      12.687  -9.536   8.713  1.00  0.00    -0.205 F 
ATOM     75  C   UNL     1      13.377  -6.363  10.402  1.00  0.00     0.022 A 
BRANCH  73  76
ATOM     76  S   UNL     1      15.216  -8.355  10.027  1.00  0.00     0.127 S 
ATOM     77  O   UNL     1      15.964  -7.587   9.033  1.00  0.00    -0.237 OA
ATOM     78  O   UNL     1      15.553  -8.044  11.417  1.00  0.00    -0.237 OA
ATOM     79  O   UNL     1      15.069  -9.775   9.743  1.00  0.00    -0.744 OA
ENDBRANCH  73  76
ENDBRANCH  55  69
BRANCH  56  80
ATOM     80  C   UNL     1       3.732 -12.621   4.821  1.00  0.00     0.023 A 
ATOM     81  C   UNL     1       2.447 -12.672   5.393  1.00  0.00     0.012 A 
ATOM     82  C   UNL     1       3.965 -13.278   3.595  1.00  0.00     0.148 A 
ATOM     83  C   UNL     1       1.420 -13.383   4.770  1.00  0.00     0.002 A 
ATOM     84  C   UNL     1       2.924 -13.937   2.952  1.00  0.00     0.091 A 
ATOM     85  F   UNL     1       5.201 -13.236   3.078  1.00  0.00    -0.205 F 
ATOM     86  C   UNL     1       1.655 -14.005   3.546  1.00  0.00     0.022 A 
BRANCH  84  87
ATOM     87  S   UNL     1       3.106 -14.663   1.319  1.00  0.00     0.127 S 
ATOM     88  O   UNL     1       3.032 -16.091   1.618  1.00  0.00    -0.237 OA
ATOM     89  O   UNL     1       1.944 -14.121   0.615  1.00  0.00    -0.237 OA
ATOM     90  O   UNL     1       4.389 -14.190   0.817  1.00  0.00    -0.744 OA
ENDBRANCH  84  87
ENDBRANCH  56  80
BRANCH  68  91
ATOM     91  C   UNL     1       7.168 -13.486  10.847  1.00  0.00     0.023 A 
ATOM     92  C   UNL     1       7.638 -14.797  10.632  1.00  0.00     0.012 A 
ATOM     93  C   UNL     1       6.687 -13.126  12.122  1.00  0.00     0.148 A 
ATOM     94  C   UNL     1       7.601 -15.741  11.657  1.00  0.00     0.002 A 
ATOM     95  C   UNL     1       6.699 -14.058  13.153  1.00  0.00     0.091 A 
ATOM     96  F   UNL     1       6.230 -11.878  12.304  1.00  0.00    -0.205 F 
ATOM     97  C   UNL     1       7.144 -15.369  12.919  1.00  0.00     0.022 A 
BRANCH  95  98
ATOM     98  S   UNL     1       6.226 -13.640  14.835  1.00  0.00     0.127 S 
ATOM     99  O   UNL     1       4.938 -14.321  14.961  1.00  0.00    -0.237 OA
ATOM    100  O   UNL     1       7.309 -14.235  15.620  1.00  0.00    -0.237 OA
ATOM    101  O   UNL     1       6.173 -12.185  14.889  1.00  0.00    -0.744 OA
ENDBRANCH  95  98
ENDBRANCH  68  91
ENDBRANCH  42  43
ENDBRANCH  35  37
ENDBRANCH  34  35
ENDBRANCH  33  34
ENDBRANCH   1  33
TORSDOF 19
