REMARK SMILES CCC(CC)(NC(=O)c1ccc(C)s1)C(=O)OCCOC(=O)c1ccc(-c2c3nc(c(-c4cccc(S(=O)(=O)[O-])c4F)c4ccc([nH]4)c(-c4cccc(S(=O)(=O)[O-])c4F)c4nc(c(-c5cccc(S(=O)(=O)[O-])c5F)c5ccc2[nH]5)C=C4)C=C3)cc1
REMARK SMILES IDX 19 1 18 2 17 3 15 4 16 5 3 6 2 7 1 8 4 9 5 10 6 11 7 12 8 14
REMARK SMILES IDX 9 15 10 16 14 17 11 18 12 19 13 20 20 21 21 22 22 23 23 24
REMARK SMILES IDX 24 25 85 26 25 27 84 28 26 29 27 30 28 31 78 32 29 33 83 34
REMARK SMILES IDX 77 35 79 36 30 37 82 38 76 39 75 40 31 42 63 43 43 44 62 45
REMARK SMILES IDX 44 46 47 47 61 48 80 49 45 50 46 51 60 53 81 54 48 55 32 56
REMARK SMILES IDX 33 57 41 58 34 59 36 60 42 61 35 62 37 63 38 64 39 65 40 66
REMARK SMILES IDX 64 67 65 68 73 69 66 70 68 71 74 72 67 73 69 74 70 75 71 76
REMARK SMILES IDX 72 77 49 78 50 79 58 80 51 81 53 82 59 83 52 84 54 85 55 86
REMARK SMILES IDX 56 87 57 88
REMARK H PARENT 6 13 79 41 47 52
REMARK Flexibility Score: inf
ROOT
ATOM      1  C   UNL     1       5.480  -0.996  -2.918  1.00  0.00     0.275 C 
ENDROOT
BRANCH   1   2
ATOM      2  C   UNL     1       4.638  -1.816  -1.943  1.00  0.00     0.274 C 
BRANCH   2   3
ATOM      3  O   UNL     1       3.238  -1.732  -2.289  1.00  0.00    -0.460 OA
BRANCH   3   4
ATOM      4  C   UNL     1       2.389  -2.099  -1.291  1.00  0.00     0.331 C 
ATOM      5  O   UNL     1       2.761  -2.333  -0.144  1.00  0.00    -0.249 OA
BRANCH   4   6
ATOM      6  C   UNL     1       0.889  -2.168  -1.725  1.00  0.00     0.137 C 
BRANCH   6   7
ATOM      7  C   UNL     1       0.179  -0.851  -1.259  1.00  0.00     0.037 C 
ATOM      8  C   UNL     1       0.315  -0.456   0.205  1.00  0.00     0.007 C 
ENDBRANCH   6   7
BRANCH   6   9
ATOM      9  C   UNL     1       0.248  -3.394  -1.019  1.00  0.00     0.037 C 
ATOM     10  C   UNL     1      -1.267  -3.512  -1.132  1.00  0.00     0.007 C 
ENDBRANCH   6   9
BRANCH   6  11
ATOM     11  N   UNL     1       0.648  -2.212  -3.198  1.00  0.00    -0.335 N 
ATOM     12  C   UNL     1       1.082  -2.973  -4.252  1.00  0.00     0.262 C 
ATOM     13  H   UNL     1       0.015  -1.515  -3.486  1.00  0.00     0.165 HD
ATOM     14  O   UNL     1       0.429  -2.852  -5.292  1.00  0.00    -0.268 OA
BRANCH  12  15
ATOM     15  C   UNL     1       2.268  -3.799  -4.174  1.00  0.00     0.092 A 
ATOM     16  C   UNL     1       2.602  -4.866  -3.367  1.00  0.00     0.026 A 
ATOM     17  S   UNL     1       3.491  -3.521  -5.353  1.00  0.00    -0.135 S 
ATOM     18  C   UNL     1       3.897  -5.393  -3.660  1.00  0.00     0.016 A 
ATOM     19  C   UNL     1       4.503  -4.736  -4.709  1.00  0.00     0.002 A 
ATOM     20  C   UNL     1       5.841  -4.985  -5.314  1.00  0.00     0.056 C 
ENDBRANCH  12  15
ENDBRANCH   6  11
ENDBRANCH   4   6
ENDBRANCH   3   4
ENDBRANCH   2   3
ENDBRANCH   1   2
BRANCH   1  21
ATOM     21  O   UNL     1       5.180   0.389  -2.688  1.00  0.00    -0.458 OA
BRANCH  21  22
ATOM     22  C   UNL     1       4.390   0.973  -3.616  1.00  0.00     0.338 C 
ATOM     23  O   UNL     1       4.127   0.581  -4.737  1.00  0.00    -0.246 OA
BRANCH  22  24
ATOM     24  C   UNL     1       3.716   2.099  -2.960  1.00  0.00     0.060 A 
ATOM     25  C   UNL     1       2.645   1.798  -2.121  1.00  0.00     0.016 A 
ATOM     26  C   UNL     1       4.076   3.417  -3.207  1.00  0.00     0.016 A 
ATOM     27  C   UNL     1       1.872   2.816  -1.575  1.00  0.00     0.010 A 
ATOM     28  C   UNL     1       3.345   4.442  -2.595  1.00  0.00     0.010 A 
ATOM     29  C   UNL     1       2.218   4.154  -1.798  1.00  0.00    -0.014 A 
BRANCH  29  30
ATOM     30  C   UNL     1       1.382   5.250  -1.238  1.00  0.00     0.031 A 
ATOM     31  C   UNL     1       0.712   6.228  -2.166  1.00  0.00     0.074 A 
ATOM     32  C   UNL     1       1.224   5.378   0.095  1.00  0.00     0.049 A 
ATOM     33  N   UNL     1       0.100   7.348  -1.883  1.00  0.00    -0.248 NA
ATOM     34  C   UNL     1       0.743   5.908  -3.603  1.00  0.00     0.031 C 
ATOM     35  C   UNL     1       1.792   4.486   1.107  1.00  0.00     0.029 A 
ATOM     36  N   UNL     1       0.547   6.323   0.830  1.00  0.00    -0.354 N 
ATOM     37  C   UNL     1      -0.263   7.902  -3.105  1.00  0.00     0.074 A 
ATOM     38  C   UNL     1       0.184   6.987  -4.133  1.00  0.00     0.031 C 
ATOM     39  C   UNL     1       1.436   4.919   2.327  1.00  0.00     0.029 A 
ATOM     40  C   UNL     1       0.675   6.157   2.190  1.00  0.00     0.049 A 
ATOM     41  H   UNL     1       0.022   7.048   0.422  1.00  0.00     0.167 HD
ATOM     42  C   UNL     1      -0.918   9.062  -3.348  1.00  0.00     0.034 A 
ATOM     43  C   UNL     1       0.265   6.933   3.212  1.00  0.00     0.034 A 
ATOM     44  C   UNL     1      -1.424   9.936  -2.325  1.00  0.00     0.049 A 
ATOM     45  C   UNL     1      -0.470   8.211   2.912  1.00  0.00     0.074 A 
ATOM     46  C   UNL     1      -2.109  11.130  -2.474  1.00  0.00     0.029 A 
ATOM     47  N   UNL     1      -1.320   9.703  -0.963  1.00  0.00    -0.354 N 
ATOM     48  N   UNL     1      -0.827   8.704   1.752  1.00  0.00    -0.248 NA
ATOM     49  C   UNL     1      -0.865   9.036   4.064  1.00  0.00     0.031 C 
ATOM     50  C   UNL     1      -2.422  11.617  -1.200  1.00  0.00     0.029 A 
ATOM     51  C   UNL     1      -1.936  10.723  -0.259  1.00  0.00     0.049 A 
ATOM     52  H   UNL     1      -0.874   8.925  -0.556  1.00  0.00     0.167 HD
ATOM     53  C   UNL     1      -1.498   9.889   2.033  1.00  0.00     0.074 A 
ATOM     54  C   UNL     1      -1.533  10.018   3.475  1.00  0.00     0.031 C 
ATOM     55  C   UNL     1      -2.011  10.806   1.175  1.00  0.00     0.034 A 
BRANCH  42  56
ATOM     56  C   UNL     1      -1.155   9.443  -4.785  1.00  0.00     0.023 A 
ATOM     57  C   UNL     1      -2.179   8.806  -5.512  1.00  0.00     0.012 A 
ATOM     58  C   UNL     1      -0.407  10.470  -5.393  1.00  0.00     0.148 A 
ATOM     59  C   UNL     1      -2.443   9.172  -6.832  1.00  0.00     0.002 A 
ATOM     60  C   UNL     1      -0.699  10.854  -6.697  1.00  0.00     0.091 A 
ATOM     61  F   UNL     1       0.579  11.045  -4.689  1.00  0.00    -0.205 F 
ATOM     62  C   UNL     1      -1.712  10.202  -7.419  1.00  0.00     0.022 A 
BRANCH  60  63
ATOM     63  S   UNL     1       0.143  12.212  -7.518  1.00  0.00     0.127 S 
ATOM     64  O   UNL     1       0.967  11.502  -8.494  1.00  0.00    -0.237 OA
ATOM     65  O   UNL     1      -0.973  12.964  -8.094  1.00  0.00    -0.237 OA
ATOM     66  O   UNL     1       0.876  12.918  -6.476  1.00  0.00    -0.744 OA
ENDBRANCH  60  63
ENDBRANCH  42  56
BRANCH  43  67
ATOM     67  C   UNL     1       0.532   6.518   4.620  1.00  0.00     0.023 A 
ATOM     68  C   UNL     1      -0.545   6.147   5.448  1.00  0.00     0.012 A 
ATOM     69  C   UNL     1       1.841   6.462   5.134  1.00  0.00     0.148 A 
ATOM     70  C   UNL     1      -0.324   5.752   6.769  1.00  0.00     0.002 A 
ATOM     71  C   UNL     1       2.060   6.007   6.430  1.00  0.00     0.091 A 
ATOM     72  F   UNL     1       2.856   6.848   4.347  1.00  0.00    -0.205 F 
ATOM     73  C   UNL     1       0.978   5.668   7.255  1.00  0.00     0.022 A 
BRANCH  71  74
ATOM     74  S   UNL     1       3.721   5.729   7.055  1.00  0.00     0.127 S 
ATOM     75  O   UNL     1       3.990   6.976   7.764  1.00  0.00    -0.237 OA
ATOM     76  O   UNL     1       3.542   4.558   7.915  1.00  0.00    -0.237 OA
ATOM     77  O   UNL     1       4.528   5.473   5.869  1.00  0.00    -0.744 OA
ENDBRANCH  71  74
ENDBRANCH  43  67
BRANCH  55  78
ATOM     78  C   UNL     1      -2.662  12.023   1.774  1.00  0.00     0.023 A 
ATOM     79  C   UNL     1      -1.853  13.040   2.318  1.00  0.00     0.012 A 
ATOM     80  C   UNL     1      -4.060  12.187   1.750  1.00  0.00     0.148 A 
ATOM     81  C   UNL     1      -2.428  14.191   2.855  1.00  0.00     0.002 A 
ATOM     82  C   UNL     1      -4.623  13.355   2.252  1.00  0.00     0.091 A 
ATOM     83  F   UNL     1      -4.815  11.197   1.251  1.00  0.00    -0.205 F 
ATOM     84  C   UNL     1      -3.811  14.353   2.813  1.00  0.00     0.022 A 
BRANCH  82  85
ATOM     85  S   UNL     1      -6.390  13.670   2.158  1.00  0.00     0.127 S 
ATOM     86  O   UNL     1      -6.835  13.285   3.496  1.00  0.00    -0.237 OA
ATOM     87  O   UNL     1      -6.443  15.108   1.888  1.00  0.00    -0.237 OA
ATOM     88  O   UNL     1      -6.877  12.839   1.064  1.00  0.00    -0.744 OA
ENDBRANCH  82  85
ENDBRANCH  55  78
ENDBRANCH  29  30
ENDBRANCH  22  24
ENDBRANCH  21  22
ENDBRANCH   1  21
TORSDOF 18
