REMARK SMILES O=C(OCCOC(=O)[C@H]1CC[C@H](CNS(=O)(=O)C[C@H]2CCCO2)O1)c1ccc(-c2c3nc(c(-c4cccc(S(=O)(=O)[O-])c4F)c4ccc([nH]4)c(-c4cccc(S(=O)(=O)[O-])c4F)c4nc(c(-c5cccc(S(=O)(=O)[O-])c5F)c5ccc2[nH]5)C=C4)C=C3)cc1
REMARK SMILES IDX 5 1 4 2 3 3 2 4 1 5 25 6 26 7 87 8 27 9 86 10 28 11 29 12
REMARK SMILES IDX 30 13 80 14 31 15 85 16 79 17 81 18 32 19 84 20 78 21 77 22
REMARK SMILES IDX 33 24 65 25 45 26 64 27 46 28 49 29 63 30 82 31 47 32 48 33
REMARK SMILES IDX 62 35 83 36 50 37 34 38 35 39 43 40 36 41 38 42 44 43 37 44
REMARK SMILES IDX 39 45 40 46 41 47 42 48 66 49 67 50 75 51 68 52 70 53 76 54
REMARK SMILES IDX 69 55 71 56 72 57 73 58 74 59 51 60 52 61 60 62 53 63 55 64
REMARK SMILES IDX 61 65 54 66 56 67 57 68 58 69 59 70 6 71 7 72 8 73 9 74
REMARK SMILES IDX 10 75 24 76 11 77 12 78 13 79 14 80 15 82 16 83 17 84 18 85
REMARK SMILES IDX 19 86 20 87 23 88 21 89 22 90
REMARK H PARENT 81 23 49 34 14 81
REMARK Flexibility Score: inf
ROOT
ATOM      1  C   UNL     1      -0.661  15.098  -4.884  1.00  0.00     0.274 C 
ENDROOT
BRANCH   1   2
ATOM      2  C   UNL     1      -0.525  15.722  -3.492  1.00  0.00     0.275 C 
BRANCH   2   3
ATOM      3  O   UNL     1       0.444  15.060  -2.658  1.00  0.00    -0.458 OA
BRANCH   3   4
ATOM      4  C   UNL     1       0.245  14.139  -1.681  1.00  0.00     0.338 C 
ATOM      5  O   UNL     1       1.097  14.020  -0.802  1.00  0.00    -0.246 OA
BRANCH   4   6
ATOM      6  C   UNL     1      -0.874  13.142  -1.717  1.00  0.00     0.060 A 
ATOM      7  C   UNL     1      -2.150  13.358  -2.247  1.00  0.00     0.016 A 
ATOM      8  C   UNL     1      -0.590  11.866  -1.190  1.00  0.00     0.016 A 
ATOM      9  C   UNL     1      -3.082  12.321  -2.346  1.00  0.00     0.010 A 
ATOM     10  C   UNL     1      -1.526  10.826  -1.266  1.00  0.00     0.010 A 
ATOM     11  C   UNL     1      -2.775  11.053  -1.857  1.00  0.00    -0.014 A 
BRANCH  11  12
ATOM     12  C   UNL     1      -3.839  10.032  -1.791  1.00  0.00     0.031 A 
ATOM     13  C   UNL     1      -4.591   9.910  -0.505  1.00  0.00     0.074 A 
ATOM     14  C   UNL     1      -4.140   9.256  -2.847  1.00  0.00     0.049 A 
ATOM     15  N   UNL     1      -5.570   9.110  -0.196  1.00  0.00    -0.248 NA
ATOM     16  C   UNL     1      -4.195  10.836   0.570  1.00  0.00     0.031 C 
ATOM     17  C   UNL     1      -3.513   9.345  -4.161  1.00  0.00     0.029 A 
ATOM     18  N   UNL     1      -5.027   8.217  -2.972  1.00  0.00    -0.354 N 
ATOM     19  C   UNL     1      -5.899   9.421   1.115  1.00  0.00     0.074 A 
ATOM     20  C   UNL     1      -5.006  10.471   1.548  1.00  0.00     0.031 C 
ATOM     21  C   UNL     1      -3.967   8.347  -4.938  1.00  0.00     0.029 A 
ATOM     22  C   UNL     1      -4.925   7.552  -4.173  1.00  0.00     0.049 A 
ATOM     23  H   UNL     1      -5.674   7.972  -2.272  1.00  0.00     0.167 HD
ATOM     24  C   UNL     1      -6.867   8.881   1.887  1.00  0.00     0.034 A 
ATOM     25  C   UNL     1      -5.522   6.418  -4.591  1.00  0.00     0.034 A 
ATOM     26  C   UNL     1      -7.714   7.809   1.452  1.00  0.00     0.049 A 
ATOM     27  C   UNL     1      -6.542   5.776  -3.687  1.00  0.00     0.074 A 
ATOM     28  C   UNL     1      -8.737   7.187   2.139  1.00  0.00     0.029 A 
ATOM     29  N   UNL     1      -7.600   7.169   0.225  1.00  0.00    -0.354 N 
ATOM     30  N   UNL     1      -6.935   6.157  -2.494  1.00  0.00    -0.248 NA
ATOM     31  C   UNL     1      -7.238   4.585  -4.195  1.00  0.00     0.031 C 
ATOM     32  C   UNL     1      -9.209   6.137   1.346  1.00  0.00     0.029 A 
ATOM     33  C   UNL     1      -8.518   6.141   0.142  1.00  0.00     0.049 A 
ATOM     34  H   UNL     1      -6.960   7.413  -0.482  1.00  0.00     0.167 HD
ATOM     35  C   UNL     1      -7.953   5.285  -2.127  1.00  0.00     0.074 A 
ATOM     36  C   UNL     1      -8.117   4.354  -3.226  1.00  0.00     0.031 C 
ATOM     37  C   UNL     1      -8.689   5.261  -0.988  1.00  0.00     0.034 A 
BRANCH  24  38
ATOM     38  C   UNL     1      -7.003   9.431   3.278  1.00  0.00     0.023 A 
ATOM     39  C   UNL     1      -7.475  10.746   3.475  1.00  0.00     0.012 A 
ATOM     40  C   UNL     1      -6.604   8.665   4.387  1.00  0.00     0.148 A 
ATOM     41  C   UNL     1      -7.487  11.311   4.749  1.00  0.00     0.002 A 
ATOM     42  C   UNL     1      -6.667   9.217   5.659  1.00  0.00     0.091 A 
ATOM     43  F   UNL     1      -6.128   7.430   4.175  1.00  0.00    -0.205 F 
ATOM     44  C   UNL     1      -7.088  10.545   5.841  1.00  0.00     0.022 A 
BRANCH  42  45
ATOM     45  S   UNL     1      -6.240   8.287   7.133  1.00  0.00     0.127 S 
ATOM     46  O   UNL     1      -4.980   8.915   7.524  1.00  0.00    -0.237 OA
ATOM     47  O   UNL     1      -7.369   8.581   8.016  1.00  0.00    -0.237 OA
ATOM     48  O   UNL     1      -6.144   6.895   6.715  1.00  0.00    -0.744 OA
ENDBRANCH  42  45
ENDBRANCH  24  38
BRANCH  25  49
ATOM     49  C   UNL     1      -5.186   5.846  -5.927  1.00  0.00     0.023 A 
ATOM     50  C   UNL     1      -6.131   5.880  -6.970  1.00  0.00     0.012 A 
ATOM     51  C   UNL     1      -3.908   5.308  -6.180  1.00  0.00     0.148 A 
ATOM     52  C   UNL     1      -5.819   5.365  -8.231  1.00  0.00     0.002 A 
ATOM     53  C   UNL     1      -3.586   4.847  -7.452  1.00  0.00     0.091 A 
ATOM     54  F   UNL     1      -3.024   5.276  -5.173  1.00  0.00    -0.205 F 
ATOM     55  C   UNL     1      -4.546   4.858  -8.474  1.00  0.00     0.022 A 
BRANCH  53  56
ATOM     56  S   UNL     1      -1.928   4.315  -7.897  1.00  0.00     0.127 S 
ATOM     57  O   UNL     1      -2.123   2.885  -8.120  1.00  0.00    -0.237 OA
ATOM     58  O   UNL     1      -1.678   5.101  -9.106  1.00  0.00    -0.237 OA
ATOM     59  O   UNL     1      -1.084   4.678  -6.768  1.00  0.00    -0.744 OA
ENDBRANCH  53  56
ENDBRANCH  25  49
BRANCH  37  60
ATOM     60  C   UNL     1      -9.784   4.236  -0.876  1.00  0.00     0.023 A 
ATOM     61  C   UNL     1      -9.470   2.887  -0.624  1.00  0.00     0.012 A 
ATOM     62  C   UNL     1     -11.131   4.652  -0.869  1.00  0.00     0.148 A 
ATOM     63  C   UNL     1     -10.485   1.964  -0.376  1.00  0.00     0.002 A 
ATOM     64  C   UNL     1     -12.130   3.739  -0.564  1.00  0.00     0.091 A 
ATOM     65  F   UNL     1     -11.402   5.939  -1.129  1.00  0.00    -0.205 F 
ATOM     66  C   UNL     1     -11.811   2.393  -0.327  1.00  0.00     0.022 A 
BRANCH  64  67
ATOM     67  S   UNL     1     -13.847   4.225  -0.362  1.00  0.00     0.127 S 
ATOM     68  O   UNL     1     -14.482   3.553  -1.495  1.00  0.00    -0.237 OA
ATOM     69  O   UNL     1     -14.175   3.659   0.946  1.00  0.00    -0.237 OA
ATOM     70  O   UNL     1     -13.866   5.681  -0.416  1.00  0.00    -0.744 OA
ENDBRANCH  64  67
ENDBRANCH  37  60
ENDBRANCH  11  12
ENDBRANCH   4   6
ENDBRANCH   3   4
ENDBRANCH   2   3
ENDBRANCH   1   2
BRANCH   1  71
ATOM     71  O   UNL     1      -0.826  13.674  -4.827  1.00  0.00    -0.460 OA
BRANCH  71  72
ATOM     72  C   UNL     1       0.303  12.925  -5.030  1.00  0.00     0.335 C 
ATOM     73  O   UNL     1       1.363  13.365  -5.457  1.00  0.00    -0.249 OA
BRANCH  72  74
ATOM     74  C   UNL     1       0.058  11.477  -4.586  1.00  0.00     0.228 C 
ATOM     75  C   UNL     1      -0.173  10.520  -5.732  1.00  0.00     0.047 C 
ATOM     76  O   UNL     1       1.164  10.976  -3.824  1.00  0.00    -0.362 OA
ATOM     77  C   UNL     1       1.191   9.922  -5.941  1.00  0.00     0.037 C 
ATOM     78  C   UNL     1       1.765   9.877  -4.532  1.00  0.00     0.134 C 
BRANCH  78  79
ATOM     79  C   UNL     1       1.507   8.570  -3.746  1.00  0.00     0.130 C 
BRANCH  79  80
ATOM     80  N   UNL     1       2.112   7.410  -4.440  1.00  0.00    -0.213 NA
ATOM     81  H   UNL     1       3.047   7.688  -4.738  1.00  0.00     0.141 HD
BRANCH  80  82
ATOM     82  S   UNL     1       2.267   5.974  -3.585  1.00  0.00     0.214 S 
ATOM     83  O   UNL     1       1.031   5.775  -2.859  1.00  0.00    -0.212 OA
ATOM     84  O   UNL     1       2.760   4.991  -4.521  1.00  0.00    -0.212 OA
BRANCH  82  85
ATOM     85  C   UNL     1       3.538   6.242  -2.385  1.00  0.00     0.185 C 
BRANCH  85  86
ATOM     86  C   UNL     1       4.879   6.822  -2.807  1.00  0.00     0.134 C 
ATOM     87  C   UNL     1       5.344   6.882  -4.254  1.00  0.00     0.035 C 
ATOM     88  O   UNL     1       4.966   8.165  -2.279  1.00  0.00    -0.377 OA
ATOM     89  C   UNL     1       5.253   8.341  -4.624  1.00  0.00     0.031 C 
ATOM     90  C   UNL     1       5.401   9.056  -3.304  1.00  0.00     0.160 C 
ENDBRANCH  85  86
ENDBRANCH  82  85
ENDBRANCH  80  82
ENDBRANCH  79  80
ENDBRANCH  78  79
ENDBRANCH  72  74
ENDBRANCH  71  72
ENDBRANCH   1  71
TORSDOF 19
