REMARK SMILES C[C@H](C(=O)OCCOC(=O)c1ccc(-c2c3nc(c(-c4cccc(S(=O)(=O)[O-])c4F)c4ccc([nH]4)c(-c4cccc(S(=O)(=O)[O-])c4F)c4nc(c(-c5cccc(S(=O)(=O)[O-])c5F)c5ccc2[nH]5)C=C4)C=C3)cc1)[N@@H+]1CCc2ccccc2C1
REMARK SMILES IDX 7 1 6 2 5 3 3 4 4 5 2 6 1 7 74 8 75 9 83 10 76 12 82 13
REMARK SMILES IDX 77 14 81 15 78 16 80 17 79 18 8 19 9 20 10 21 11 22 12 23
REMARK SMILES IDX 73 24 13 25 72 26 14 27 15 28 16 29 66 30 17 31 71 32 65 33
REMARK SMILES IDX 67 34 18 35 70 36 64 37 63 38 19 40 51 41 31 42 50 43 32 44
REMARK SMILES IDX 35 45 49 46 68 47 33 48 34 49 48 51 69 52 36 53 20 54 21 55
REMARK SMILES IDX 29 56 22 57 24 58 30 59 23 60 25 61 26 62 27 63 28 64 52 65
REMARK SMILES IDX 53 66 61 67 54 68 56 69 62 70 55 71 57 72 58 73 59 74 60 75
REMARK SMILES IDX 37 76 38 77 46 78 39 79 41 80 47 81 40 82 42 83 43 84 44 85
REMARK SMILES IDX 45 86
REMARK H PARENT 74 11 67 39 35 50
REMARK Flexibility Score: inf
ROOT
ATOM      1  C   UNL     1       1.604  -2.008   1.593  1.00  0.00     0.275 C 
ENDROOT
BRANCH   1   2
ATOM      2  C   UNL     1       0.724  -0.902   2.183  1.00  0.00     0.274 C 
BRANCH   2   3
ATOM      3  O   UNL     1      -0.046  -0.224   1.168  1.00  0.00    -0.458 OA
BRANCH   3   4
ATOM      4  C   UNL     1       0.604   0.777   0.507  1.00  0.00     0.364 C 
ATOM      5  O   UNL     1       1.713   1.181   0.845  1.00  0.00    -0.245 OA
BRANCH   4   6
ATOM      6  C   UNL     1      -0.253   1.459  -0.589  1.00  0.00     0.292 C 
ATOM      7  C   UNL     1       0.609   2.602  -1.168  1.00  0.00     0.088 C 
BRANCH   6   8
ATOM      8  N   UNL     1      -0.879   0.597  -1.622  1.00  0.00    -0.319 N 
ATOM      9  C   UNL     1      -1.324  -0.767  -1.295  1.00  0.00     0.268 C 
ATOM     10  C   UNL     1      -0.611   0.818  -3.043  1.00  0.00     0.300 C 
ATOM     11  H   UNL     1      -1.728   1.143  -1.475  1.00  0.00     0.349 HD
ATOM     12  C   UNL     1      -1.479  -1.720  -2.507  1.00  0.00     0.097 C 
ATOM     13  C   UNL     1       0.220  -0.301  -3.609  1.00  0.00     0.010 A 
ATOM     14  C   UNL     1      -0.227  -1.609  -3.344  1.00  0.00    -0.034 A 
ATOM     15  C   UNL     1       1.395  -0.092  -4.327  1.00  0.00     0.010 A 
ATOM     16  C   UNL     1       0.512  -2.704  -3.783  1.00  0.00     0.004 A 
ATOM     17  C   UNL     1       2.136  -1.191  -4.759  1.00  0.00     0.001 A 
ATOM     18  C   UNL     1       1.701  -2.490  -4.481  1.00  0.00     0.000 A 
ENDBRANCH   6   8
ENDBRANCH   4   6
ENDBRANCH   3   4
ENDBRANCH   2   3
ENDBRANCH   1   2
BRANCH   1  19
ATOM     19  O   UNL     1       2.609  -1.443   0.735  1.00  0.00    -0.458 OA
BRANCH  19  20
ATOM     20  C   UNL     1       2.876  -2.129  -0.402  1.00  0.00     0.338 C 
ATOM     21  O   UNL     1       2.397  -3.200  -0.731  1.00  0.00    -0.246 OA
BRANCH  20  22
ATOM     22  C   UNL     1       3.917  -1.423  -1.181  1.00  0.00     0.060 A 
ATOM     23  C   UNL     1       3.772  -0.081  -1.538  1.00  0.00     0.016 A 
ATOM     24  C   UNL     1       5.027  -2.142  -1.625  1.00  0.00     0.016 A 
ATOM     25  C   UNL     1       4.707   0.525  -2.385  1.00  0.00     0.010 A 
ATOM     26  C   UNL     1       5.995  -1.515  -2.418  1.00  0.00     0.010 A 
ATOM     27  C   UNL     1       5.831  -0.184  -2.838  1.00  0.00    -0.014 A 
BRANCH  27  28
ATOM     28  C   UNL     1       6.818   0.449  -3.763  1.00  0.00     0.031 A 
ATOM     29  C   UNL     1       7.059  -0.122  -5.139  1.00  0.00     0.074 A 
ATOM     30  C   UNL     1       7.522   1.531  -3.372  1.00  0.00     0.049 A 
ATOM     31  N   UNL     1       7.931   0.243  -6.045  1.00  0.00    -0.248 NA
ATOM     32  C   UNL     1       6.211  -1.252  -5.553  1.00  0.00     0.031 C 
ATOM     33  C   UNL     1       7.405   2.187  -2.070  1.00  0.00     0.029 A 
ATOM     34  N   UNL     1       8.488   2.259  -4.026  1.00  0.00    -0.354 N 
ATOM     35  C   UNL     1       7.765  -0.630  -7.114  1.00  0.00     0.074 A 
ATOM     36  C   UNL     1       6.706  -1.546  -6.747  1.00  0.00     0.031 C 
ATOM     37  C   UNL     1       8.258   3.222  -2.022  1.00  0.00     0.029 A 
ATOM     38  C   UNL     1       9.023   3.272  -3.265  1.00  0.00     0.049 A 
ATOM     39  H   UNL     1       8.769   2.074  -4.951  1.00  0.00     0.167 HD
ATOM     40  C   UNL     1       8.419  -0.663  -8.300  1.00  0.00     0.034 A 
ATOM     41  C   UNL     1      10.035   4.128  -3.516  1.00  0.00     0.034 A 
ATOM     42  C   UNL     1       9.448   0.263  -8.694  1.00  0.00     0.049 A 
ATOM     43  C   UNL     1      10.755   4.063  -4.833  1.00  0.00     0.074 A 
ATOM     44  C   UNL     1      10.139   0.319  -9.893  1.00  0.00     0.029 A 
ATOM     45  N   UNL     1       9.936   1.291  -7.905  1.00  0.00    -0.354 N 
ATOM     46  N   UNL     1      10.525   3.282  -5.860  1.00  0.00    -0.248 NA
ATOM     47  C   UNL     1      11.868   5.004  -5.033  1.00  0.00     0.031 C 
ATOM     48  C   UNL     1      11.051   1.378  -9.825  1.00  0.00     0.029 A 
ATOM     49  C   UNL     1      10.923   1.984  -8.587  1.00  0.00     0.049 A 
ATOM     50  H   UNL     1       9.627   1.499  -6.994  1.00  0.00     0.167 HD
ATOM     51  C   UNL     1      11.455   3.642  -6.829  1.00  0.00     0.074 A 
ATOM     52  C   UNL     1      12.231   4.734  -6.280  1.00  0.00     0.031 C 
ATOM     53  C   UNL     1      11.663   3.096  -8.052  1.00  0.00     0.034 A 
BRANCH  40  54
ATOM     54  C   UNL     1       8.013  -1.718  -9.294  1.00  0.00     0.023 A 
ATOM     55  C   UNL     1       6.843  -1.531 -10.056  1.00  0.00     0.012 A 
ATOM     56  C   UNL     1       8.822  -2.846  -9.530  1.00  0.00     0.148 A 
ATOM     57  C   UNL     1       6.476  -2.459 -11.030  1.00  0.00     0.002 A 
ATOM     58  C   UNL     1       8.466  -3.751 -10.524  1.00  0.00     0.091 A 
ATOM     59  F   UNL     1       9.915  -3.021  -8.773  1.00  0.00    -0.205 F 
ATOM     60  C   UNL     1       7.292  -3.562 -11.271  1.00  0.00     0.022 A 
BRANCH  58  61
ATOM     61  S   UNL     1       9.495  -5.163 -10.946  1.00  0.00     0.127 S 
ATOM     62  O   UNL     1       8.793  -6.253 -10.270  1.00  0.00    -0.237 OA
ATOM     63  O   UNL     1       9.404  -5.193 -12.406  1.00  0.00    -0.237 OA
ATOM     64  O   UNL     1      10.821  -4.850 -10.433  1.00  0.00    -0.744 OA
ENDBRANCH  58  61
ENDBRANCH  40  54
BRANCH  41  65
ATOM     65  C   UNL     1      10.406   5.140  -2.486  1.00  0.00     0.023 A 
ATOM     66  C   UNL     1      10.122   6.499  -2.716  1.00  0.00     0.012 A 
ATOM     67  C   UNL     1      10.970   4.755  -1.255  1.00  0.00     0.148 A 
ATOM     68  C   UNL     1      10.397   7.457  -1.738  1.00  0.00     0.002 A 
ATOM     69  C   UNL     1      11.181   5.704  -0.262  1.00  0.00     0.091 A 
ATOM     70  F   UNL     1      11.271   3.462  -1.067  1.00  0.00    -0.205 F 
ATOM     71  C   UNL     1      10.907   7.058  -0.505  1.00  0.00     0.022 A 
BRANCH  69  72
ATOM     72  S   UNL     1      11.674   5.228   1.399  1.00  0.00     0.127 S 
ATOM     73  O   UNL     1      13.115   5.456   1.364  1.00  0.00    -0.237 OA
ATOM     74  O   UNL     1      10.921   6.168   2.231  1.00  0.00    -0.237 OA
ATOM     75  O   UNL     1      11.244   3.842   1.538  1.00  0.00    -0.744 OA
ENDBRANCH  69  72
ENDBRANCH  41  65
BRANCH  53  76
ATOM     76  C   UNL     1      12.780   3.664  -8.886  1.00  0.00     0.023 A 
ATOM     77  C   UNL     1      14.112   3.329  -8.572  1.00  0.00     0.012 A 
ATOM     78  C   UNL     1      12.517   4.470 -10.011  1.00  0.00     0.148 A 
ATOM     79  C   UNL     1      15.166   3.808  -9.348  1.00  0.00     0.002 A 
ATOM     80  C   UNL     1      13.571   4.915 -10.801  1.00  0.00     0.091 A 
ATOM     81  F   UNL     1      11.245   4.798 -10.282  1.00  0.00    -0.205 F 
ATOM     82  C   UNL     1      14.896   4.591 -10.468  1.00  0.00     0.022 A 
BRANCH  80  83
ATOM     83  S   UNL     1      13.300   5.866 -12.302  1.00  0.00     0.127 S 
ATOM     84  O   UNL     1      13.553   7.230 -11.842  1.00  0.00    -0.237 OA
ATOM     85  O   UNL     1      14.318   5.330 -13.207  1.00  0.00    -0.237 OA
ATOM     86  O   UNL     1      11.930   5.579 -12.706  1.00  0.00    -0.744 OA
ENDBRANCH  80  83
ENDBRANCH  53  76
ENDBRANCH  27  28
ENDBRANCH  20  22
ENDBRANCH  19  20
ENDBRANCH   1  19
TORSDOF 15
