REMARK SMILES C=C1c2ccccc2C(=O)N1[C@](C)(C(=O)OCCOC(=O)c1ccc(-c2c3nc(c(-c4cccc(S(=O)(=O)[O-])c4F)c4ccc([nH]4)c(-c4cccc(S(=O)(=O)[O-])c4F)c4nc(c(-c5cccc(S(=O)(=O)[O-])c5F)c5ccc2[nH]5)C=C4)C=C3)cc1)C(F)(F)F
REMARK SMILES IDX 18 1 17 2 16 3 14 4 15 5 12 6 13 7 11 8 1 9 2 10 3 11 4 12
REMARK SMILES IDX 8 13 9 14 5 15 7 16 10 17 6 18 85 19 86 20 87 21 88 22 19 23
REMARK SMILES IDX 20 24 21 25 22 26 23 27 84 28 24 29 83 30 25 31 26 32 27 33
REMARK SMILES IDX 77 34 28 35 82 36 76 37 78 38 29 39 81 40 75 41 74 42 30 44
REMARK SMILES IDX 62 45 42 46 61 47 43 48 46 49 60 50 79 51 44 52 45 53 59 55
REMARK SMILES IDX 80 56 47 57 31 58 32 59 40 60 33 61 35 62 41 63 34 64 36 65
REMARK SMILES IDX 37 66 38 67 39 68 63 69 64 70 72 71 65 72 67 73 73 74 66 75
REMARK SMILES IDX 68 76 69 77 70 78 71 79 48 80 49 81 57 82 50 83 52 84 58 85
REMARK SMILES IDX 51 86 53 87 54 88 55 89 56 90
REMARK H PARENT 78 43 46 54
REMARK Flexibility Score: inf
ROOT
ATOM      1  C   UNL     1       3.116  -2.149  -4.197  1.00  0.00     0.275 C 
ENDROOT
BRANCH   1   2
ATOM      2  C   UNL     1       3.482  -2.657  -2.804  1.00  0.00     0.274 C 
BRANCH   2   3
ATOM      3  O   UNL     1       2.906  -1.807  -1.788  1.00  0.00    -0.460 OA
BRANCH   3   4
ATOM      4  C   UNL     1       3.770  -1.150  -0.965  1.00  0.00     0.341 C 
ATOM      5  O   UNL     1       4.990  -1.183  -1.106  1.00  0.00    -0.249 OA
BRANCH   4   6
ATOM      6  C   UNL     1       3.078  -0.472   0.226  1.00  0.00     0.238 C 
ATOM      7  C   UNL     1       1.546  -0.667   0.252  1.00  0.00     0.058 C 
BRANCH   6   8
ATOM      8  N   UNL     1       3.712  -1.121   1.411  1.00  0.00    -0.283 N 
ATOM      9  C   UNL     1       5.125   0.595   2.534  1.00  0.00     0.038 C 
ATOM     10  C   UNL     1       4.628  -0.629   2.342  1.00  0.00     0.046 C 
ATOM     11  C   UNL     1       5.026  -1.762   3.188  1.00  0.00     0.010 A 
ATOM     12  C   UNL     1       5.901  -1.882   4.256  1.00  0.00     0.011 A 
ATOM     13  C   UNL     1       4.340  -2.885   2.742  1.00  0.00     0.049 A 
ATOM     14  C   UNL     1       3.511  -2.491   1.610  1.00  0.00     0.260 C 
ATOM     15  C   UNL     1       6.060  -3.139   4.853  1.00  0.00     0.001 A 
ATOM     16  C   UNL     1       4.481  -4.141   3.304  1.00  0.00     0.014 A 
ATOM     17  O   UNL     1       2.824  -3.273   0.972  1.00  0.00    -0.269 OA
ATOM     18  C   UNL     1       5.356  -4.261   4.381  1.00  0.00     0.001 A 
ENDBRANCH   6   8
BRANCH   6  19
ATOM     19  C   UNL     1       3.299   1.025   0.015  1.00  0.00     0.422 C 
ATOM     20  F   UNL     1       2.650   1.479  -1.083  1.00  0.00    -0.168 F 
ATOM     21  F   UNL     1       2.800   1.742   1.057  1.00  0.00    -0.168 F 
ATOM     22  F   UNL     1       4.593   1.377  -0.127  1.00  0.00    -0.168 F 
ENDBRANCH   6  19
ENDBRANCH   4   6
ENDBRANCH   3   4
ENDBRANCH   2   3
ENDBRANCH   1   2
BRANCH   1  23
ATOM     23  O   UNL     1       3.765  -0.889  -4.439  1.00  0.00    -0.458 OA
BRANCH  23  24
ATOM     24  C   UNL     1       3.010   0.191  -4.141  1.00  0.00     0.338 C 
ATOM     25  O   UNL     1       1.841   0.203  -3.789  1.00  0.00    -0.246 OA
BRANCH  24  26
ATOM     26  C   UNL     1       3.838   1.401  -4.158  1.00  0.00     0.060 A 
ATOM     27  C   UNL     1       4.660   1.640  -3.064  1.00  0.00     0.016 A 
ATOM     28  C   UNL     1       3.631   2.392  -5.111  1.00  0.00     0.016 A 
ATOM     29  C   UNL     1       5.128   2.923  -2.817  1.00  0.00     0.010 A 
ATOM     30  C   UNL     1       4.250   3.636  -4.943  1.00  0.00     0.010 A 
ATOM     31  C   UNL     1       4.960   3.938  -3.765  1.00  0.00    -0.014 A 
BRANCH  31  32
ATOM     32  C   UNL     1       5.517   5.300  -3.519  1.00  0.00     0.031 A 
ATOM     33  C   UNL     1       4.641   6.520  -3.660  1.00  0.00     0.074 A 
ATOM     34  C   UNL     1       6.818   5.451  -3.191  1.00  0.00     0.049 A 
ATOM     35  N   UNL     1       4.984   7.782  -3.716  1.00  0.00    -0.248 NA
ATOM     36  C   UNL     1       3.190   6.293  -3.776  1.00  0.00     0.031 C 
ATOM     37  C   UNL     1       7.778   4.362  -2.987  1.00  0.00     0.029 A 
ATOM     38  N   UNL     1       7.567   6.585  -2.987  1.00  0.00    -0.354 N 
ATOM     39  C   UNL     1       3.811   8.488  -3.962  1.00  0.00     0.074 A 
ATOM     40  C   UNL     1       2.742   7.514  -4.034  1.00  0.00     0.031 C 
ATOM     41  C   UNL     1       8.973   4.874  -2.669  1.00  0.00     0.029 A 
ATOM     42  C   UNL     1       8.900   6.324  -2.763  1.00  0.00     0.049 A 
ATOM     43  H   UNL     1       7.189   7.494  -3.001  1.00  0.00     0.167 HD
ATOM     44  C   UNL     1       3.642   9.824  -4.115  1.00  0.00     0.034 A 
ATOM     45  C   UNL     1       9.966   7.144  -2.710  1.00  0.00     0.034 A 
ATOM     46  C   UNL     1       4.702  10.788  -3.975  1.00  0.00     0.049 A 
ATOM     47  C   UNL     1       9.755   8.617  -2.905  1.00  0.00     0.074 A 
ATOM     48  C   UNL     1       4.627  12.167  -4.062  1.00  0.00     0.029 A 
ATOM     49  N   UNL     1       6.028  10.477  -3.717  1.00  0.00    -0.354 N 
ATOM     50  N   UNL     1       8.637   9.270  -3.106  1.00  0.00    -0.248 NA
ATOM     51  C   UNL     1      10.951   9.467  -2.853  1.00  0.00     0.031 C 
ATOM     52  C   UNL     1       5.914  12.687  -3.895  1.00  0.00     0.029 A 
ATOM     53  C   UNL     1       6.784  11.636  -3.656  1.00  0.00     0.049 A 
ATOM     54  H   UNL     1       6.381   9.566  -3.596  1.00  0.00     0.167 HD
ATOM     55  C   UNL     1       8.990  10.611  -3.175  1.00  0.00     0.074 A 
ATOM     56  C   UNL     1      10.422  10.677  -2.967  1.00  0.00     0.031 C 
ATOM     57  C   UNL     1       8.201  11.690  -3.403  1.00  0.00     0.034 A 
BRANCH  44  58
ATOM     58  C   UNL     1       2.261  10.330  -4.455  1.00  0.00     0.023 A 
ATOM     59  C   UNL     1       1.233  10.297  -3.492  1.00  0.00     0.012 A 
ATOM     60  C   UNL     1       2.001  10.898  -5.720  1.00  0.00     0.148 A 
ATOM     61  C   UNL     1      -0.040  10.783  -3.794  1.00  0.00     0.002 A 
ATOM     62  C   UNL     1       0.745  11.426  -5.996  1.00  0.00     0.091 A 
ATOM     63  F   UNL     1       2.985  10.908  -6.630  1.00  0.00    -0.205 F 
ATOM     64  C   UNL     1      -0.281  11.356  -5.040  1.00  0.00     0.022 A 
BRANCH  62  65
ATOM     65  S   UNL     1       0.360  12.260  -7.540  1.00  0.00     0.127 S 
ATOM     66  O   UNL     1      -0.577  11.322  -8.158  1.00  0.00    -0.237 OA
ATOM     67  O   UNL     1      -0.246  13.507  -7.072  1.00  0.00    -0.237 OA
ATOM     68  O   UNL     1       1.628  12.424  -8.239  1.00  0.00    -0.744 OA
ENDBRANCH  62  65
ENDBRANCH  44  58
BRANCH  45  69
ATOM     69  C   UNL     1      11.329   6.582  -2.484  1.00  0.00     0.023 A 
ATOM     70  C   UNL     1      12.007   6.869  -1.284  1.00  0.00     0.012 A 
ATOM     71  C   UNL     1      11.941   5.741  -3.435  1.00  0.00     0.148 A 
ATOM     72  C   UNL     1      13.282   6.354  -1.049  1.00  0.00     0.002 A 
ATOM     73  C   UNL     1      13.182   5.178  -3.166  1.00  0.00     0.091 A 
ATOM     74  F   UNL     1      11.285   5.489  -4.577  1.00  0.00    -0.205 F 
ATOM     75  C   UNL     1      13.863   5.499  -1.982  1.00  0.00     0.022 A 
BRANCH  73  76
ATOM     76  S   UNL     1      13.942   3.959  -4.243  1.00  0.00     0.127 S 
ATOM     77  O   UNL     1      15.081   4.701  -4.777  1.00  0.00    -0.237 OA
ATOM     78  O   UNL     1      14.287   2.896  -3.298  1.00  0.00    -0.237 OA
ATOM     79  O   UNL     1      12.917   3.592  -5.211  1.00  0.00    -0.744 OA
ENDBRANCH  73  76
ENDBRANCH  45  69
BRANCH  57  80
ATOM     80  C   UNL     1       8.861  13.043  -3.386  1.00  0.00     0.023 A 
ATOM     81  C   UNL     1       9.717  13.426  -4.437  1.00  0.00     0.012 A 
ATOM     82  C   UNL     1       8.584  13.956  -2.349  1.00  0.00     0.148 A 
ATOM     83  C   UNL     1      10.320  14.684  -4.435  1.00  0.00     0.002 A 
ATOM     84  C   UNL     1       9.144  15.226  -2.383  1.00  0.00     0.091 A 
ATOM     85  F   UNL     1       7.781  13.563  -1.349  1.00  0.00    -0.205 F 
ATOM     86  C   UNL     1      10.024  15.586  -3.416  1.00  0.00     0.022 A 
BRANCH  84  87
ATOM     87  S   UNL     1       8.744  16.488  -1.169  1.00  0.00     0.127 S 
ATOM     88  O   UNL     1      10.003  16.606  -0.437  1.00  0.00    -0.237 OA
ATOM     89  O   UNL     1       8.419  17.636  -2.015  1.00  0.00    -0.237 OA
ATOM     90  O   UNL     1       7.623  15.966  -0.399  1.00  0.00    -0.744 OA
ENDBRANCH  84  87
ENDBRANCH  57  80
ENDBRANCH  31  32
ENDBRANCH  24  26
ENDBRANCH  23  24
ENDBRANCH   1  23
TORSDOF 16
