REMARK SMILES CCCc1cc(S(F)(F)(F)(F)F)cc2c1O[C@@H](C(F)(F)F)C(C(=O)OCCOC(=O)c1ccc(-c3c4nc(c(-c5cccc(S(=O)(=O)[O-])c5F)c5ccc([nH]5)c(-c5cccc(S(=O)(=O)[O-])c5F)c5nc(c(-c6cccc(S(=O)(=O)[O-])c6F)c6ccc3[nH]6)C=C5)C=C4)cc1)=C2
REMARK SMILES IDX 27 1 26 2 25 3 23 4 24 5 22 6 4 7 5 8 15 9 6 10 14 11 16 12
REMARK SMILES IDX 13 13 94 14 17 15 3 16 2 17 1 18 7 19 8 20 9 21 10 22 11 23
REMARK SMILES IDX 12 24 18 25 19 26 20 27 21 28 28 29 29 30 30 31 31 32 32 33
REMARK SMILES IDX 93 34 33 35 92 36 34 37 35 38 36 39 86 40 37 41 91 42 85 43
REMARK SMILES IDX 87 44 38 45 90 46 84 47 83 48 39 50 71 51 51 52 70 53 52 54
REMARK SMILES IDX 55 55 69 56 88 57 53 58 54 59 68 61 89 62 56 63 40 64 41 65
REMARK SMILES IDX 49 66 42 67 44 68 50 69 43 70 45 71 46 72 47 73 48 74 72 75
REMARK SMILES IDX 73 76 81 77 74 78 76 79 82 80 75 81 77 82 78 83 79 84 80 85
REMARK SMILES IDX 57 86 58 87 66 88 59 89 61 90 67 91 60 92 62 93 63 94 64 95
REMARK SMILES IDX 65 96
REMARK H PARENT 87 49 55 60
REMARK Flexibility Score: inf
ROOT
ATOM      1  C   UNL     1      -4.991   3.433  -4.709  1.00  0.00     0.275 C 
ENDROOT
BRANCH   1   2
ATOM      2  C   UNL     1      -5.396   3.974  -3.347  1.00  0.00     0.275 C 
BRANCH   2   3
ATOM      3  O   UNL     1      -4.285   3.911  -2.464  1.00  0.00    -0.459 OA
BRANCH   3   4
ATOM      4  C   UNL     1      -3.681   2.660  -2.171  1.00  0.00     0.338 C 
ATOM      5  O   UNL     1      -4.133   1.597  -2.699  1.00  0.00    -0.246 OA
BRANCH   4   6
ATOM      6  C   UNL     1      -2.492   2.593  -1.226  1.00  0.00     0.087 C 
ATOM      7  C   UNL     1       0.440   2.268   1.731  1.00  0.00    -0.004 A 
ATOM      8  C   UNL     1       1.093   3.401   2.183  1.00  0.00     0.032 A 
ATOM      9  C   UNL     1      -0.557   2.410   0.797  1.00  0.00     0.131 A 
ATOM     10  C   UNL     1       0.753   4.643   1.716  1.00  0.00     0.108 A 
ATOM     11  C   UNL     1      -0.914   3.646   0.289  1.00  0.00     0.019 A 
ATOM     12  O   UNL     1      -1.271   1.292   0.442  1.00  0.00    -0.475 OA
ATOM     13  C   UNL     1      -0.241   4.764   0.768  1.00  0.00     0.036 A 
ATOM     14  C   UNL     1      -2.007   3.695  -0.667  1.00  0.00     0.027 C 
ATOM     15  C   UNL     1      -1.831   1.260  -0.901  1.00  0.00     0.316 C 
BRANCH   7  16
ATOM     16  C   UNL     1       0.947   0.930   2.244  1.00  0.00     0.039 C 
BRANCH  16  17
ATOM     17  C   UNL     1       0.440  -0.183   1.342  1.00  0.00     0.001 C 
ATOM     18  C   UNL     1       0.947   0.042  -0.073  1.00  0.00     0.004 C 
ENDBRANCH  16  17
ENDBRANCH   7  16
BRANCH  10  19
ATOM     19  S   UNL     1       1.604   6.115   2.338  1.00  0.00     0.310 S 
ATOM     20  F   UNL     1       0.752   6.032   3.674  1.00  0.00    -0.094 F 
ATOM     21  F   UNL     1       0.407   6.923   1.707  1.00  0.00    -0.094 F 
ATOM     22  F   UNL     1       2.232   7.425   2.892  1.00  0.00    -0.094 F 
ATOM     23  F   UNL     1       2.716   5.276   3.082  1.00  0.00    -0.094 F 
ATOM     24  F   UNL     1       0.916   4.768   1.878  1.00  0.00    -0.094 F 
ENDBRANCH  10  19
BRANCH  15  25
ATOM     25  C   UNL     1      -2.874   0.157  -0.978  1.00  0.00     0.430 C 
ATOM     26  F   UNL     1      -3.389   0.118  -2.204  1.00  0.00    -0.167 F 
ATOM     27  F   UNL     1      -2.305  -1.012  -0.699  1.00  0.00    -0.167 F 
ATOM     28  F   UNL     1      -3.842   0.401  -0.098  1.00  0.00    -0.167 F 
ENDBRANCH  15  25
ENDBRANCH   4   6
ENDBRANCH   3   4
ENDBRANCH   2   3
ENDBRANCH   1   2
BRANCH   1  29
ATOM     29  O   UNL     1      -4.567   2.085  -4.577  1.00  0.00    -0.458 OA
BRANCH  29  30
ATOM     30  C   UNL     1      -3.465   1.766  -3.740  1.00  0.00     0.338 C 
ATOM     31  O   UNL     1      -2.858   2.688  -3.110  1.00  0.00    -0.246 OA
BRANCH  30  32
ATOM     32  C   UNL     1      -3.012   0.322  -3.598  1.00  0.00     0.060 A 
ATOM     33  C   UNL     1      -2.724  -0.184  -2.341  1.00  0.00     0.016 A 
ATOM     34  C   UNL     1      -2.902  -0.432  -4.686  1.00  0.00     0.016 A 
ATOM     35  C   UNL     1      -2.046  -1.425  -2.364  1.00  0.00     0.010 A 
ATOM     36  C   UNL     1      -2.353  -1.690  -4.612  1.00  0.00     0.010 A 
ATOM     37  C   UNL     1      -1.992  -2.230  -3.410  1.00  0.00    -0.014 A 
BRANCH  37  38
ATOM     38  C   UNL     1      -1.551  -3.679  -3.283  1.00  0.00     0.031 A 
ATOM     39  C   UNL     1      -0.432  -4.103  -4.002  1.00  0.00     0.074 A 
ATOM     40  C   UNL     1      -2.292  -4.500  -2.450  1.00  0.00     0.049 A 
ATOM     41  N   UNL     1       0.129  -5.313  -3.995  1.00  0.00    -0.248 NA
ATOM     42  C   UNL     1       0.336  -3.241  -4.913  1.00  0.00     0.031 C 
ATOM     43  C   UNL     1      -3.417  -4.078  -1.715  1.00  0.00     0.029 A 
ATOM     44  N   UNL     1      -2.091  -5.836  -2.183  1.00  0.00    -0.354 N 
ATOM     45  C   UNL     1       1.197  -5.330  -4.796  1.00  0.00     0.074 A 
ATOM     46  C   UNL     1       1.342  -4.000  -5.403  1.00  0.00     0.031 C 
ATOM     47  C   UNL     1      -3.894  -5.147  -1.024  1.00  0.00     0.029 A 
ATOM     48  C   UNL     1      -3.075  -6.254  -1.315  1.00  0.00     0.049 A 
ATOM     49  H   UNL     1      -1.368  -6.396  -2.549  1.00  0.00     0.167 HD
ATOM     50  C   UNL     1       2.056  -6.402  -5.043  1.00  0.00     0.034 A 
ATOM     51  C   UNL     1      -3.265  -7.525  -0.796  1.00  0.00     0.034 A 
ATOM     52  C   UNL     1       1.891  -7.662  -4.490  1.00  0.00     0.049 A 
ATOM     53  C   UNL     1      -2.439  -8.614  -1.088  1.00  0.00     0.074 A 
ATOM     54  C   UNL     1       2.752  -8.752  -4.722  1.00  0.00     0.029 A 
ATOM     55  N   UNL     1       0.892  -8.087  -3.641  1.00  0.00    -0.354 N 
ATOM     56  N   UNL     1      -1.350  -8.620  -1.858  1.00  0.00    -0.248 NA
ATOM     57  C   UNL     1      -2.650  -9.972  -0.571  1.00  0.00     0.031 C 
ATOM     58  C   UNL     1       2.275  -9.821  -4.030  1.00  0.00     0.029 A 
ATOM     59  C   UNL     1       1.107  -9.417  -3.356  1.00  0.00     0.049 A 
ATOM     60  H   UNL     1       0.153  -7.535  -3.297  1.00  0.00     0.167 HD
ATOM     61  C   UNL     1      -0.813  -9.842  -1.884  1.00  0.00     0.074 A 
ATOM     62  C   UNL     1      -1.646 -10.731  -1.062  1.00  0.00     0.031 C 
ATOM     63  C   UNL     1       0.340 -10.250  -2.556  1.00  0.00     0.034 A 
BRANCH  50  64
ATOM     64  C   UNL     1       3.239  -6.175  -5.969  1.00  0.00     0.023 A 
ATOM     65  C   UNL     1       4.191  -5.225  -5.639  1.00  0.00     0.012 A 
ATOM     66  C   UNL     1       3.344  -6.899  -7.077  1.00  0.00     0.148 A 
ATOM     67  C   UNL     1       5.077  -4.909  -6.696  1.00  0.00     0.002 A 
ATOM     68  C   UNL     1       4.319  -6.621  -8.005  1.00  0.00     0.091 A 
ATOM     69  F   UNL     1       2.499  -7.904  -7.291  1.00  0.00    -0.205 F 
ATOM     70  C   UNL     1       5.258  -5.655  -7.770  1.00  0.00     0.022 A 
BRANCH  68  71
ATOM     71  S   UNL     1       4.361  -7.547  -9.560  1.00  0.00     0.127 S 
ATOM     72  O   UNL     1       4.206  -6.578 -10.734  1.00  0.00    -0.237 OA
ATOM     73  O   UNL     1       5.697  -8.284  -9.679  1.00  0.00    -0.237 OA
ATOM     74  O   UNL     1       3.080  -8.680  -9.583  1.00  0.00    -0.744 OA
ENDBRANCH  68  71
ENDBRANCH  50  64
BRANCH  51  75
ATOM     75  C   UNL     1      -4.439  -7.748   0.144  1.00  0.00     0.023 A 
ATOM     76  C   UNL     1      -4.204  -8.196   1.433  1.00  0.00     0.012 A 
ATOM     77  C   UNL     1      -5.672  -7.518  -0.291  1.00  0.00     0.148 A 
ATOM     78  C   UNL     1      -5.364  -8.652   2.102  1.00  0.00     0.002 A 
ATOM     79  C   UNL     1      -6.760  -7.865   0.473  1.00  0.00     0.091 A 
ATOM     80  F   UNL     1      -5.856  -6.947  -1.478  1.00  0.00    -0.205 F 
ATOM     81  C   UNL     1      -6.601  -8.368   1.735  1.00  0.00     0.022 A 
BRANCH  79  82
ATOM     82  S   UNL     1      -8.427  -7.651  -0.198  1.00  0.00     0.127 S 
ATOM     83  O   UNL     1      -9.136  -9.006  -0.242  1.00  0.00    -0.237 OA
ATOM     84  O   UNL     1      -9.217  -6.690   0.693  1.00  0.00    -0.237 OA
ATOM     85  O   UNL     1      -8.326  -7.009  -1.780  1.00  0.00    -0.744 OA
ENDBRANCH  79  82
ENDBRANCH  51  75
BRANCH  63  86
ATOM     86  C   UNL     1       0.781 -11.697  -2.403  1.00  0.00     0.023 A 
ATOM     87  C   UNL     1      -0.068 -12.715  -2.803  1.00  0.00     0.012 A 
ATOM     88  C   UNL     1       1.977 -11.959  -1.888  1.00  0.00     0.148 A 
ATOM     89  C   UNL     1       0.321 -13.998  -2.350  1.00  0.00     0.002 A 
ATOM     90  C   UNL     1       2.344 -13.251  -1.595  1.00  0.00     0.091 A 
ATOM     91  F   UNL     1       2.827 -10.963  -1.654  1.00  0.00    -0.205 F 
ATOM     92  C   UNL     1       1.528 -14.302  -1.909  1.00  0.00     0.022 A 
BRANCH  90  93
ATOM     93  S   UNL     1       3.930 -13.564  -0.782  1.00  0.00     0.127 S 
ATOM     94  O   UNL     1       3.687 -14.265   0.557  1.00  0.00    -0.237 OA
ATOM     95  O   UNL     1       4.794 -14.457  -1.675  1.00  0.00    -0.237 OA
ATOM     96  O   UNL     1       4.735 -12.080  -0.510  1.00  0.00    -0.744 OA
ENDBRANCH  90  93
ENDBRANCH  63  86
ENDBRANCH  37  38
ENDBRANCH  30  32
ENDBRANCH  29  30
ENDBRANCH   1  29
TORSDOF 18
