REMARK SMILES O=C(C[NH+]1CCN(C(=O)c2ccc(F)c(F)c2F)CC1)OCCOC(=O)c1ccc(-c2c3nc(c(-c4cccc(S(=O)(=O)[O-])c4F)c4ccc([nH]4)c(-c4cccc(S(=O)(=O)[O-])c4F)c4nc(c(-c5cccc(S(=O)(=O)[O-])c5F)c5ccc2[nH]5)C=C4)C=C3)cc1
REMARK SMILES IDX 23 1 22 2 21 3 2 4 1 5 3 6 4 7 5 8 20 9 6 11 19 12 7 13 8 14
REMARK SMILES IDX 9 15 10 16 11 17 17 18 12 19 15 20 18 21 13 22 16 23 14 24
REMARK SMILES IDX 24 25 25 26 26 27 27 28 28 29 89 30 29 31 88 32 30 33 31 34
REMARK SMILES IDX 32 35 82 36 33 37 87 38 81 39 83 40 34 41 86 42 80 43 79 44
REMARK SMILES IDX 35 46 67 47 47 48 66 49 48 50 51 51 65 52 84 53 49 54 50 55
REMARK SMILES IDX 64 57 85 58 52 59 36 60 37 61 45 62 38 63 40 64 46 65 39 66
REMARK SMILES IDX 41 67 42 68 43 69 44 70 68 71 69 72 77 73 70 74 72 75 78 76
REMARK SMILES IDX 71 77 73 78 74 79 75 80 76 81 53 82 54 83 62 84 55 85 57 86
REMARK SMILES IDX 63 87 56 88 58 89 59 90 60 91 61 92
REMARK H PARENT 4 10 83 45 51 56
REMARK Flexibility Score: inf
ROOT
ATOM      1  C   UNL     1       4.410   1.125  -2.203  1.00  0.00     0.275 C 
ENDROOT
BRANCH   1   2
ATOM      2  C   UNL     1       4.230  -0.136  -1.358  1.00  0.00     0.274 C 
BRANCH   2   3
ATOM      3  O   UNL     1       2.889  -0.280  -0.841  1.00  0.00    -0.458 OA
BRANCH   3   4
ATOM      4  C   UNL     1       2.436   0.189   0.354  1.00  0.00     0.361 C 
ATOM      5  O   UNL     1       1.250   0.047   0.644  1.00  0.00    -0.245 OA
BRANCH   4   6
ATOM      6  C   UNL     1       3.422   0.831   1.323  1.00  0.00     0.386 C 
BRANCH   6   7
ATOM      7  N   UNL     1       3.890  -0.016   2.433  1.00  0.00    -0.323 N 
ATOM      8  C   UNL     1       2.961  -0.118   3.576  1.00  0.00     0.284 C 
ATOM      9  C   UNL     1       4.423  -1.328   2.067  1.00  0.00     0.284 C 
ATOM     10  H   UNL     1       4.696   0.523   2.749  1.00  0.00     0.348 HD
ATOM     11  C   UNL     1       1.954  -1.290   3.563  1.00  0.00     0.181 C 
ATOM     12  C   UNL     1       3.357  -2.416   1.877  1.00  0.00     0.181 C 
ATOM     13  N   UNL     1       2.537  -2.551   3.080  1.00  0.00    -0.327 N 
ATOM     14  C   UNL     1       2.093  -3.748   3.629  1.00  0.00     0.257 C 
ATOM     15  O   UNL     1       1.378  -3.840   4.621  1.00  0.00    -0.269 OA
BRANCH  14  16
ATOM     16  C   UNL     1       2.489  -5.002   2.968  1.00  0.00     0.079 A 
ATOM     17  C   UNL     1       3.834  -5.400   2.929  1.00  0.00     0.020 A 
ATOM     18  C   UNL     1       1.504  -5.765   2.343  1.00  0.00     0.174 A 
ATOM     19  C   UNL     1       4.195  -6.521   2.182  1.00  0.00     0.043 A 
ATOM     20  C   UNL     1       1.868  -6.896   1.625  1.00  0.00     0.195 A 
ATOM     21  F   UNL     1       0.215  -5.400   2.385  1.00  0.00    -0.203 F 
ATOM     22  C   UNL     1       3.207  -7.258   1.531  1.00  0.00     0.161 A 
ATOM     23  F   UNL     1       0.933  -7.625   0.999  1.00  0.00    -0.200 F 
ATOM     24  F   UNL     1       3.565  -8.320   0.796  1.00  0.00    -0.204 F 
ENDBRANCH  14  16
ENDBRANCH   6   7
ENDBRANCH   4   6
ENDBRANCH   3   4
ENDBRANCH   2   3
ENDBRANCH   1   2
BRANCH   1  25
ATOM     25  O   UNL     1       3.959   2.277  -1.480  1.00  0.00    -0.458 OA
BRANCH  25  26
ATOM     26  C   UNL     1       2.675   2.641  -1.753  1.00  0.00     0.338 C 
ATOM     27  O   UNL     1       1.972   2.199  -2.635  1.00  0.00    -0.246 OA
BRANCH  26  28
ATOM     28  C   UNL     1       2.190   3.521  -0.666  1.00  0.00     0.060 A 
ATOM     29  C   UNL     1       0.879   3.328  -0.216  1.00  0.00     0.016 A 
ATOM     30  C   UNL     1       3.002   4.498  -0.083  1.00  0.00     0.016 A 
ATOM     31  C   UNL     1       0.359   4.148   0.784  1.00  0.00     0.010 A 
ATOM     32  C   UNL     1       2.480   5.319   0.920  1.00  0.00     0.010 A 
ATOM     33  C   UNL     1       1.144   5.173   1.329  1.00  0.00    -0.014 A 
BRANCH  33  34
ATOM     34  C   UNL     1       0.506   6.184   2.203  1.00  0.00     0.031 A 
ATOM     35  C   UNL     1       0.047   7.480   1.591  1.00  0.00     0.074 A 
ATOM     36  C   UNL     1       0.315   5.951   3.513  1.00  0.00     0.049 A 
ATOM     37  N   UNL     1      -0.608   8.468   2.141  1.00  0.00    -0.248 NA
ATOM     38  C   UNL     1       0.369   7.689   0.169  1.00  0.00     0.031 C 
ATOM     39  C   UNL     1       0.744   4.753   4.233  1.00  0.00     0.029 A 
ATOM     40  N   UNL     1      -0.278   6.729   4.475  1.00  0.00    -0.354 N 
ATOM     41  C   UNL     1      -0.784   9.410   1.136  1.00  0.00     0.074 A 
ATOM     42  C   UNL     1      -0.131   8.896  -0.048  1.00  0.00     0.031 C 
ATOM     43  C   UNL     1       0.423   4.889   5.532  1.00  0.00     0.029 A 
ATOM     44  C   UNL     1      -0.236   6.178   5.733  1.00  0.00     0.049 A 
ATOM     45  H   UNL     1      -0.695   7.600   4.282  1.00  0.00     0.167 HD
ATOM     46  C   UNL     1      -1.458  10.583   1.181  1.00  0.00     0.034 A 
ATOM     47  C   UNL     1      -0.681   6.663   6.910  1.00  0.00     0.034 A 
ATOM     48  C   UNL     1      -2.108  11.099   2.355  1.00  0.00     0.049 A 
ATOM     49  C   UNL     1      -1.418   7.978   6.936  1.00  0.00     0.074 A 
ATOM     50  C   UNL     1      -2.840  12.265   2.491  1.00  0.00     0.029 A 
ATOM     51  N   UNL     1      -2.095  10.487   3.598  1.00  0.00    -0.354 N 
ATOM     52  N   UNL     1      -1.714   8.783   5.943  1.00  0.00    -0.248 NA
ATOM     53  C   UNL     1      -1.927   8.428   8.241  1.00  0.00     0.031 C 
ATOM     54  C   UNL     1      -3.256  12.367   3.823  1.00  0.00     0.029 A 
ATOM     55  C   UNL     1      -2.799  11.254   4.510  1.00  0.00     0.049 A 
ATOM     56  H   UNL     1      -1.649   9.633   3.803  1.00  0.00     0.167 HD
ATOM     57  C   UNL     1      -2.468   9.813   6.497  1.00  0.00     0.074 A 
ATOM     58  C   UNL     1      -2.611   9.514   7.906  1.00  0.00     0.031 C 
ATOM     59  C   UNL     1      -2.978  10.919   5.899  1.00  0.00     0.034 A 
BRANCH  46  60
ATOM     60  C   UNL     1      -1.574  11.363  -0.100  1.00  0.00     0.023 A 
ATOM     61  C   UNL     1      -2.446  10.901  -1.107  1.00  0.00     0.012 A 
ATOM     62  C   UNL     1      -0.872  12.568  -0.289  1.00  0.00     0.148 A 
ATOM     63  C   UNL     1      -2.601  11.615  -2.294  1.00  0.00     0.002 A 
ATOM     64  C   UNL     1      -1.061  13.294  -1.459  1.00  0.00     0.091 A 
ATOM     65  F   UNL     1      -0.030  12.975   0.671  1.00  0.00    -0.205 F 
ATOM     66  C   UNL     1      -1.917  12.815  -2.465  1.00  0.00     0.022 A 
BRANCH  64  67
ATOM     67  S   UNL     1      -0.280  14.885  -1.751  1.00  0.00     0.127 S 
ATOM     68  O   UNL     1       0.663  14.557  -2.820  1.00  0.00    -0.237 OA
ATOM     69  O   UNL     1      -1.412  15.711  -2.169  1.00  0.00    -0.237 OA
ATOM     70  O   UNL     1       0.325  15.275  -0.485  1.00  0.00    -0.744 OA
ENDBRANCH  64  67
ENDBRANCH  46  60
BRANCH  47  71
ATOM     71  C   UNL     1      -0.487   5.880   8.163  1.00  0.00     0.023 A 
ATOM     72  C   UNL     1      -1.600   5.312   8.813  1.00  0.00     0.012 A 
ATOM     73  C   UNL     1       0.795   5.706   8.719  1.00  0.00     0.148 A 
ATOM     74  C   UNL     1      -1.444   4.622  10.016  1.00  0.00     0.002 A 
ATOM     75  C   UNL     1       0.949   4.971   9.889  1.00  0.00     0.091 A 
ATOM     76  F   UNL     1       1.840   6.271   8.097  1.00  0.00    -0.205 F 
ATOM     77  C   UNL     1      -0.171   4.444  10.549  1.00  0.00     0.022 A 
BRANCH  75  78
ATOM     78  S   UNL     1       2.567   4.594  10.572  1.00  0.00     0.127 S 
ATOM     79  O   UNL     1       2.635   5.512  11.706  1.00  0.00    -0.237 OA
ATOM     80  O   UNL     1       2.427   3.182  10.930  1.00  0.00    -0.237 OA
ATOM     81  O   UNL     1       3.512   4.844   9.492  1.00  0.00    -0.744 OA
ENDBRANCH  75  78
ENDBRANCH  47  71
BRANCH  59  82
ATOM     82  C   UNL     1      -3.757  11.882   6.761  1.00  0.00     0.023 A 
ATOM     83  C   UNL     1      -3.078  12.676   7.708  1.00  0.00     0.012 A 
ATOM     84  C   UNL     1      -5.147  12.044   6.596  1.00  0.00     0.148 A 
ATOM     85  C   UNL     1      -3.775  13.582   8.505  1.00  0.00     0.002 A 
ATOM     86  C   UNL     1      -5.828  12.985   7.361  1.00  0.00     0.091 A 
ATOM     87  F   UNL     1      -5.782  11.271   5.703  1.00  0.00    -0.205 F 
ATOM     88  C   UNL     1      -5.146  13.745   8.325  1.00  0.00     0.022 A 
BRANCH  86  89
ATOM     89  S   UNL     1      -7.577  13.325   7.126  1.00  0.00     0.127 S 
ATOM     90  O   UNL     1      -8.174  12.606   8.249  1.00  0.00    -0.237 OA
ATOM     91  O   UNL     1      -7.631  14.783   7.238  1.00  0.00    -0.237 OA
ATOM     92  O   UNL     1      -7.904  12.813   5.802  1.00  0.00    -0.744 OA
ENDBRANCH  86  89
ENDBRANCH  59  82
ENDBRANCH  33  34
ENDBRANCH  26  28
ENDBRANCH  25  26
ENDBRANCH   1  25
TORSDOF 16
