REMARK SMILES CC[C@H](C)CN(CC)C(=O)Nc1ccc(C(=O)OCCOC(=O)c2ccc(-c3c4nc(c(-c5cccc(S(=O)(=O)[O-])c5F)c5ccc([nH]5)c(-c5cccc(S(=O)(=O)[O-])c5F)c5nc(c(-c6cccc(S(=O)(=O)[O-])c6F)c6ccc3[nH]6)C=C5)C=C4)cc2)cc1Cl
REMARK SMILES IDX 19 1 18 2 16 3 17 4 15 5 12 6 13 7 88 8 14 9 87 10 89 11
REMARK SMILES IDX 11 12 9 13 10 14 6 16 5 17 3 18 4 19 2 20 1 21 7 22 8 23
REMARK SMILES IDX 20 24 21 25 22 26 23 27 24 28 25 29 86 30 26 31 85 32 27 33
REMARK SMILES IDX 28 34 29 35 79 36 30 37 84 38 78 39 80 40 31 41 83 42 77 43
REMARK SMILES IDX 76 44 32 46 64 47 44 48 63 49 45 50 48 51 62 52 81 53 46 54
REMARK SMILES IDX 47 55 61 57 82 58 49 59 33 60 34 61 42 62 35 63 37 64 43 65
REMARK SMILES IDX 36 66 38 67 39 68 40 69 41 70 65 71 66 72 74 73 67 74 69 75
REMARK SMILES IDX 75 76 68 77 70 78 71 79 72 80 73 81 50 82 51 83 59 84 52 85
REMARK SMILES IDX 54 86 60 87 53 88 55 89 56 90 57 91 58 92
REMARK H PARENT 11 15 80 45 48 56
REMARK Flexibility Score: inf
ROOT
ATOM      1  C   UNL     1       4.430   6.523   9.143  1.00  0.00     0.275 C 
ENDROOT
BRANCH   1   2
ATOM      2  O   UNL     1       3.573   5.574   8.483  1.00  0.00    -0.458 OA
BRANCH   2   3
ATOM      3  C   UNL     1       4.202   4.684   7.681  1.00  0.00     0.338 C 
ATOM      4  O   UNL     1       5.388   4.683   7.390  1.00  0.00    -0.246 OA
BRANCH   3   5
ATOM      5  C   UNL     1       3.267   3.639   7.194  1.00  0.00     0.061 A 
ATOM      6  C   UNL     1       1.620   1.809   5.912  1.00  0.00     0.061 A 
ATOM      7  C   UNL     1       2.992   1.566   5.955  1.00  0.00     0.028 A 
ATOM      8  C   UNL     1       1.055   2.846   6.670  1.00  0.00     0.065 A 
ATOM      9  C   UNL     1       3.817   2.517   6.549  1.00  0.00     0.018 A 
ATOM     10  C   UNL     1       1.881   3.758   7.325  1.00  0.00     0.038 A 
ATOM     11  Cl  UNL     1      -0.657   3.030   6.821  1.00  0.00    -0.082 Cl
BRANCH   6  12
ATOM     12  N   UNL     1       0.889   1.083   4.972  1.00  0.00    -0.306 N 
ATOM     13  C   UNL     1       0.195   1.516   3.884  1.00  0.00     0.321 C 
ATOM     14  O   UNL     1      -0.694   0.762   3.473  1.00  0.00    -0.248 OA
ATOM     15  H   UNL     1       0.873   0.110   5.118  1.00  0.00     0.171 HD
BRANCH  13  16
ATOM     16  N   UNL     1       0.568   2.653   3.178  1.00  0.00    -0.325 N 
BRANCH  16  17
ATOM     17  C   UNL     1      -0.051   2.832   1.858  1.00  0.00     0.124 C 
BRANCH  17  18
ATOM     18  C   UNL     1       0.777   2.156   0.730  1.00  0.00     0.005 C 
ATOM     19  C   UNL     1       0.514   0.647   0.678  1.00  0.00     0.009 C 
BRANCH  18  20
ATOM     20  C   UNL     1       0.473   2.835  -0.619  1.00  0.00     0.002 C 
ATOM     21  C   UNL     1       1.394   2.385  -1.747  1.00  0.00     0.004 C 
ENDBRANCH  18  20
ENDBRANCH  17  18
ENDBRANCH  16  17
BRANCH  16  22
ATOM     22  C   UNL     1       1.634   3.626   3.468  1.00  0.00     0.118 C 
ATOM     23  C   UNL     1       1.098   4.949   4.002  1.00  0.00     0.027 C 
ENDBRANCH  16  22
ENDBRANCH  13  16
ENDBRANCH   6  12
ENDBRANCH   3   5
ENDBRANCH   2   3
ENDBRANCH   1   2
BRANCH   1  24
ATOM     24  C   UNL     1       4.611   6.139  10.611  1.00  0.00     0.275 C 
BRANCH  24  25
ATOM     25  O   UNL     1       5.272   4.865  10.723  1.00  0.00    -0.458 OA
BRANCH  25  26
ATOM     26  C   UNL     1       4.471   3.821  11.041  1.00  0.00     0.338 C 
ATOM     27  O   UNL     1       3.275   3.850  11.280  1.00  0.00    -0.246 OA
BRANCH  26  28
ATOM     28  C   UNL     1       5.236   2.568  10.969  1.00  0.00     0.060 A 
ATOM     29  C   UNL     1       5.417   1.977   9.722  1.00  0.00     0.016 A 
ATOM     30  C   UNL     1       5.647   1.907  12.122  1.00  0.00     0.016 A 
ATOM     31  C   UNL     1       5.933   0.691   9.615  1.00  0.00     0.010 A 
ATOM     32  C   UNL     1       6.249   0.647  12.009  1.00  0.00     0.010 A 
ATOM     33  C   UNL     1       6.366   0.010  10.758  1.00  0.00    -0.014 A 
BRANCH  33  34
ATOM     34  C   UNL     1       6.903  -1.374  10.642  1.00  0.00     0.031 A 
ATOM     35  C   UNL     1       6.236  -2.506  11.378  1.00  0.00     0.074 A 
ATOM     36  C   UNL     1       7.989  -1.622   9.882  1.00  0.00     0.049 A 
ATOM     37  N   UNL     1       6.639  -3.740  11.536  1.00  0.00    -0.248 NA
ATOM     38  C   UNL     1       4.953  -2.207  12.036  1.00  0.00     0.031 C 
ATOM     39  C   UNL     1       8.722  -0.624   9.101  1.00  0.00     0.029 A 
ATOM     40  N   UNL     1       8.675  -2.790   9.652  1.00  0.00    -0.354 N 
ATOM     41  C   UNL     1       5.710  -4.339  12.377  1.00  0.00     0.074 A 
ATOM     42  C   UNL     1       4.710  -3.338  12.683  1.00  0.00     0.031 C 
ATOM     43  C   UNL     1       9.744  -1.220   8.471  1.00  0.00     0.029 A 
ATOM     44  C   UNL     1       9.789  -2.625   8.861  1.00  0.00     0.049 A 
ATOM     45  H   UNL     1       8.397  -3.660  10.018  1.00  0.00     0.167 HD
ATOM     46  C   UNL     1       5.686  -5.609  12.847  1.00  0.00     0.034 A 
ATOM     47  C   UNL     1      10.764  -3.491   8.521  1.00  0.00     0.034 A 
ATOM     48  C   UNL     1       6.634  -6.625  12.476  1.00  0.00     0.049 A 
ATOM     49  C   UNL     1      10.701  -4.902   9.034  1.00  0.00     0.074 A 
ATOM     50  C   UNL     1       6.662  -7.955  12.856  1.00  0.00     0.029 A 
ATOM     51  N   UNL     1       7.715  -6.429  11.630  1.00  0.00    -0.354 N 
ATOM     52  N   UNL     1       9.787  -5.465   9.787  1.00  0.00    -0.248 NA
ATOM     53  C   UNL     1      11.795  -5.802   8.643  1.00  0.00     0.031 C 
ATOM     54  C   UNL     1       7.767  -8.562  12.247  1.00  0.00     0.029 A 
ATOM     55  C   UNL     1       8.417  -7.612  11.476  1.00  0.00     0.049 A 
ATOM     56  H   UNL     1       7.949  -5.574  11.201  1.00  0.00     0.167 HD
ATOM     57  C   UNL     1      10.184  -6.787   9.945  1.00  0.00     0.074 A 
ATOM     58  C   UNL     1      11.407  -6.949   9.185  1.00  0.00     0.031 C 
ATOM     59  C   UNL     1       9.602  -7.772  10.672  1.00  0.00     0.034 A 
BRANCH  46  60
ATOM     60  C   UNL     1       4.585  -5.981  13.806  1.00  0.00     0.023 A 
ATOM     61  C   UNL     1       3.272  -6.169  13.331  1.00  0.00     0.012 A 
ATOM     62  C   UNL     1       4.865  -6.196  15.170  1.00  0.00     0.148 A 
ATOM     63  C   UNL     1       2.248  -6.532  14.205  1.00  0.00     0.002 A 
ATOM     64  C   UNL     1       3.847  -6.599  16.027  1.00  0.00     0.091 A 
ATOM     65  F   UNL     1       6.115  -5.988  15.609  1.00  0.00    -0.205 F 
ATOM     66  C   UNL     1       2.537  -6.757  15.549  1.00  0.00     0.022 A 
BRANCH  64  67
ATOM     67  S   UNL     1       4.143  -6.986  17.757  1.00  0.00     0.127 S 
ATOM     68  O   UNL     1       3.595  -5.806  18.422  1.00  0.00    -0.237 OA
ATOM     69  O   UNL     1       3.358  -8.208  17.941  1.00  0.00    -0.237 OA
ATOM     70  O   UNL     1       5.582  -7.169  17.883  1.00  0.00    -0.744 OA
ENDBRANCH  64  67
ENDBRANCH  46  60
BRANCH  47  71
ATOM     71  C   UNL     1      11.875  -3.041   7.634  1.00  0.00     0.023 A 
ATOM     72  C   UNL     1      11.960  -3.542   6.321  1.00  0.00     0.012 A 
ATOM     73  C   UNL     1      12.811  -2.079   8.065  1.00  0.00     0.148 A 
ATOM     74  C   UNL     1      12.966  -3.104   5.458  1.00  0.00     0.002 A 
ATOM     75  C   UNL     1      13.770  -1.601   7.180  1.00  0.00     0.091 A 
ATOM     76  F   UNL     1      12.729  -1.633   9.326  1.00  0.00    -0.205 F 
ATOM     77  C   UNL     1      13.860  -2.123   5.881  1.00  0.00     0.022 A 
BRANCH  75  78
ATOM     78  S   UNL     1      14.856  -0.231   7.596  1.00  0.00     0.127 S 
ATOM     79  O   UNL     1      16.134  -0.910   7.790  1.00  0.00    -0.237 OA
ATOM     80  O   UNL     1      14.774   0.597   6.392  1.00  0.00    -0.237 OA
ATOM     81  O   UNL     1      14.273   0.382   8.782  1.00  0.00    -0.744 OA
ENDBRANCH  75  78
ENDBRANCH  47  71
BRANCH  59  82
ATOM     82  C   UNL     1      10.261  -9.125  10.664  1.00  0.00     0.023 A 
ATOM     83  C   UNL     1      11.443  -9.328  11.403  1.00  0.00     0.012 A 
ATOM     84  C   UNL     1       9.672 -10.210   9.987  1.00  0.00     0.148 A 
ATOM     85  C   UNL     1      12.043 -10.586  11.447  1.00  0.00     0.002 A 
ATOM     86  C   UNL     1      10.252 -11.470  10.071  1.00  0.00     0.091 A 
ATOM     87  F   UNL     1       8.559  -9.991   9.272  1.00  0.00    -0.205 F 
ATOM     88  C   UNL     1      11.442 -11.658  10.792  1.00  0.00     0.022 A 
BRANCH  86  89
ATOM     89  S   UNL     1       9.497 -12.924   9.332  1.00  0.00     0.127 S 
ATOM     90  O   UNL     1      10.347 -13.139   8.162  1.00  0.00    -0.237 OA
ATOM     91  O   UNL     1       9.648 -13.926  10.388  1.00  0.00    -0.237 OA
ATOM     92  O   UNL     1       8.117 -12.554   9.047  1.00  0.00    -0.744 OA
ENDBRANCH  86  89
ENDBRANCH  59  82
ENDBRANCH  33  34
ENDBRANCH  26  28
ENDBRANCH  25  26
ENDBRANCH  24  25
ENDBRANCH   1  24
TORSDOF 20
