REMARK SMILES CC(C)(C)OC(=O)N1CCC[C@H]1C(=O)N[C@@H](Cc1ccccc1)C(=O)OCCOC(=O)c1ccc(-c2c3nc(c(-c4cccc(S(=O)(=O)[O-])c4F)c4ccc([nH]4)c(-c4cccc(S(=O)(=O)[O-])c4F)c4nc(c(-c5cccc(S(=O)(=O)[O-])c5F)c5ccc2[nH]5)C=C4)C=C3)cc1
REMARK SMILES IDX 27 1 26 2 24 3 25 4 16 5 15 6 13 7 14 8 12 10 8 11 9 12
REMARK SMILES IDX 10 13 11 14 6 15 7 16 5 17 2 18 1 19 3 20 4 21 17 22 18 23
REMARK SMILES IDX 19 24 23 25 20 26 22 27 21 28 28 29 29 30 30 31 31 32 32 33
REMARK SMILES IDX 33 34 94 35 34 36 93 37 35 38 36 39 37 40 87 41 38 42 92 43
REMARK SMILES IDX 86 44 88 45 39 46 91 47 85 48 84 49 40 51 72 52 52 53 71 54
REMARK SMILES IDX 53 55 56 56 70 57 89 58 54 59 55 60 69 62 90 63 57 64 41 65
REMARK SMILES IDX 42 66 50 67 43 68 45 69 51 70 44 71 46 72 47 73 48 74 49 75
REMARK SMILES IDX 73 76 74 77 82 78 75 79 77 80 83 81 76 82 78 83 79 84 80 85
REMARK SMILES IDX 81 86 58 87 59 88 67 89 60 90 62 91 68 92 61 93 63 94 64 95
REMARK SMILES IDX 65 96 66 97
REMARK H PARENT 15 9 88 50 56 61
REMARK Flexibility Score: inf
ROOT
ATOM      1  C   UNL     1       2.072   7.218  -1.920  1.00  0.00     0.274 C 
ENDROOT
BRANCH   1   2
ATOM      2  O   UNL     1       1.207   7.029  -0.787  1.00  0.00    -0.461 OA
BRANCH   2   3
ATOM      3  C   UNL     1       0.378   5.955  -0.886  1.00  0.00     0.329 C 
ATOM      4  O   UNL     1       0.303   5.226  -1.871  1.00  0.00    -0.250 OA
BRANCH   3   5
ATOM      5  C   UNL     1      -0.467   5.731   0.371  1.00  0.00     0.196 C 
BRANCH   5   6
ATOM      6  N   UNL     1      -0.178   6.604   1.509  1.00  0.00    -0.341 N 
ATOM      7  C   UNL     1      -0.223   6.381   2.851  1.00  0.00     0.243 C 
ATOM      8  O   UNL     1      -0.191   7.407   3.546  1.00  0.00    -0.273 OA
ATOM      9  H   UNL     1       0.099   7.515   1.259  1.00  0.00     0.164 HD
BRANCH   7  10
ATOM     10  C   UNL     1      -0.479   4.988   3.524  1.00  0.00     0.178 C 
ATOM     11  N   UNL     1      -0.028   3.782   2.840  1.00  0.00    -0.296 N 
ATOM     12  C   UNL     1       1.306   3.437   3.266  1.00  0.00     0.124 C 
ATOM     13  C   UNL     1       1.373   3.878   4.714  1.00  0.00     0.024 C 
ATOM     14  C   UNL     1       0.273   4.931   4.872  1.00  0.00     0.037 C 
BRANCH  11  15
ATOM     15  C   UNL     1      -0.841   3.038   2.013  1.00  0.00     0.410 C 
ATOM     16  O   UNL     1      -2.030   3.304   1.878  1.00  0.00    -0.224 OA
BRANCH  15  17
ATOM     17  O   UNL     1      -0.159   2.122   1.276  1.00  0.00    -0.444 OA
BRANCH  17  18
ATOM     18  C   UNL     1      -0.716   1.394   0.129  1.00  0.00     0.106 C 
ATOM     19  C   UNL     1      -0.180  -0.038   0.232  1.00  0.00     0.056 C 
ATOM     20  C   UNL     1      -0.173   2.016  -1.165  1.00  0.00     0.056 C 
ATOM     21  C   UNL     1      -2.244   1.338   0.041  1.00  0.00     0.056 C 
ENDBRANCH  17  18
ENDBRANCH  15  17
ENDBRANCH  11  15
ENDBRANCH   7  10
ENDBRANCH   5   6
BRANCH   5  22
ATOM     22  C   UNL     1      -1.968   5.742   0.020  1.00  0.00     0.072 C 
BRANCH  22  23
ATOM     23  C   UNL     1      -2.411   6.979  -0.732  1.00  0.00    -0.045 A 
ATOM     24  C   UNL     1      -2.825   8.129  -0.050  1.00  0.00     0.004 A 
ATOM     25  C   UNL     1      -2.363   7.000  -2.134  1.00  0.00     0.004 A 
ATOM     26  C   UNL     1      -3.165   9.282  -0.760  1.00  0.00     0.000 A 
ATOM     27  C   UNL     1      -2.687   8.157  -2.840  1.00  0.00     0.000 A 
ATOM     28  C   UNL     1      -3.086   9.299  -2.152  1.00  0.00     0.000 A 
ENDBRANCH  22  23
ENDBRANCH   5  22
ENDBRANCH   3   5
ENDBRANCH   2   3
ENDBRANCH   1   2
BRANCH   1  29
ATOM     29  C   UNL     1       3.507   6.854  -1.554  1.00  0.00     0.275 C 
BRANCH  29  30
ATOM     30  O   UNL     1       3.581   5.505  -1.052  1.00  0.00    -0.458 OA
BRANCH  30  31
ATOM     31  C   UNL     1       4.259   5.360   0.114  1.00  0.00     0.338 C 
ATOM     32  O   UNL     1       4.775   6.251   0.769  1.00  0.00    -0.246 OA
BRANCH  31  33
ATOM     33  C   UNL     1       4.322   3.941   0.530  1.00  0.00     0.060 A 
ATOM     34  C   UNL     1       3.199   3.126   0.459  1.00  0.00     0.016 A 
ATOM     35  C   UNL     1       5.480   3.461   1.150  1.00  0.00     0.016 A 
ATOM     36  C   UNL     1       3.209   1.883   1.104  1.00  0.00     0.010 A 
ATOM     37  C   UNL     1       5.501   2.183   1.734  1.00  0.00     0.010 A 
ATOM     38  C   UNL     1       4.341   1.395   1.780  1.00  0.00    -0.014 A 
BRANCH  38  39
ATOM     39  C   UNL     1       4.260   0.149   2.618  1.00  0.00     0.031 A 
ATOM     40  C   UNL     1       4.644   0.180   4.083  1.00  0.00     0.074 A 
ATOM     41  C   UNL     1       3.763  -1.008   2.127  1.00  0.00     0.049 A 
ATOM     42  N   UNL     1       4.803  -0.819   4.916  1.00  0.00    -0.248 NA
ATOM     43  C   UNL     1       4.880   1.500   4.692  1.00  0.00     0.031 C 
ATOM     44  C   UNL     1       3.278  -1.205   0.765  1.00  0.00     0.029 A 
ATOM     45  N   UNL     1       3.543  -2.229   2.728  1.00  0.00    -0.354 N 
ATOM     46  C   UNL     1       5.259  -0.261   6.105  1.00  0.00     0.074 A 
ATOM     47  C   UNL     1       5.301   1.171   5.906  1.00  0.00     0.031 C 
ATOM     48  C   UNL     1       2.713  -2.417   0.665  1.00  0.00     0.029 A 
ATOM     49  C   UNL     1       2.926  -3.150   1.908  1.00  0.00     0.049 A 
ATOM     50  H   UNL     1       3.803  -2.425   3.657  1.00  0.00     0.167 HD
ATOM     51  C   UNL     1       5.627  -0.883   7.252  1.00  0.00     0.034 A 
ATOM     52  C   UNL     1       2.608  -4.448   2.106  1.00  0.00     0.034 A 
ATOM     53  C   UNL     1       5.519  -2.299   7.485  1.00  0.00     0.049 A 
ATOM     54  C   UNL     1       3.036  -5.119   3.384  1.00  0.00     0.074 A 
ATOM     55  C   UNL     1       5.944  -3.026   8.585  1.00  0.00     0.029 A 
ATOM     56  N   UNL     1       4.917  -3.200   6.623  1.00  0.00    -0.354 N 
ATOM     57  N   UNL     1       3.561  -4.591   4.462  1.00  0.00    -0.248 NA
ATOM     58  C   UNL     1       2.862  -6.579   3.455  1.00  0.00     0.031 C 
ATOM     59  C   UNL     1       5.598  -4.368   8.386  1.00  0.00     0.029 A 
ATOM     60  C   UNL     1       4.947  -4.472   7.169  1.00  0.00     0.049 A 
ATOM     61  H   UNL     1       4.524  -2.969   5.750  1.00  0.00     0.167 HD
ATOM     62  C   UNL     1       3.789  -5.652   5.332  1.00  0.00     0.074 A 
ATOM     63  C   UNL     1       3.292  -6.846   4.681  1.00  0.00     0.031 C 
ATOM     64  C   UNL     1       4.402  -5.646   6.540  1.00  0.00     0.034 A 
BRANCH  51  65
ATOM     65  C   UNL     1       6.216  -0.038   8.349  1.00  0.00     0.023 A 
ATOM     66  C   UNL     1       5.379   0.717   9.191  1.00  0.00     0.012 A 
ATOM     67  C   UNL     1       7.607  -0.049   8.581  1.00  0.00     0.148 A 
ATOM     68  C   UNL     1       5.920   1.465  10.238  1.00  0.00     0.002 A 
ATOM     69  C   UNL     1       8.135   0.669   9.646  1.00  0.00     0.091 A 
ATOM     70  F   UNL     1       8.386  -0.759   7.752  1.00  0.00    -0.205 F 
ATOM     71  C   UNL     1       7.294   1.433  10.472  1.00  0.00     0.022 A 
BRANCH  69  72
ATOM     72  S   UNL     1       9.882   0.634  10.063  1.00  0.00     0.127 S 
ATOM     73  O   UNL     1      10.307   1.975   9.662  1.00  0.00    -0.237 OA
ATOM     74  O   UNL     1       9.851   0.412  11.509  1.00  0.00    -0.237 OA
ATOM     75  O   UNL     1      10.456  -0.460   9.294  1.00  0.00    -0.744 OA
ENDBRANCH  69  72
ENDBRANCH  51  65
BRANCH  52  76
ATOM     76  C   UNL     1       1.875  -5.225   1.060  1.00  0.00     0.023 A 
ATOM     77  C   UNL     1       0.610  -5.771   1.358  1.00  0.00     0.012 A 
ATOM     78  C   UNL     1       2.407  -5.424  -0.228  1.00  0.00     0.148 A 
ATOM     79  C   UNL     1      -0.097  -6.507   0.403  1.00  0.00     0.002 A 
ATOM     80  C   UNL     1       1.659  -6.076  -1.201  1.00  0.00     0.091 A 
ATOM     81  F   UNL     1       3.639  -4.964  -0.492  1.00  0.00    -0.205 F 
ATOM     82  C   UNL     1       0.417  -6.640  -0.884  1.00  0.00     0.022 A 
BRANCH  80  83
ATOM     83  S   UNL     1       2.192  -6.080  -2.916  1.00  0.00     0.127 S 
ATOM     84  O   UNL     1       2.931  -7.336  -3.004  1.00  0.00    -0.237 OA
ATOM     85  O   UNL     1       0.922  -6.059  -3.643  1.00  0.00    -0.237 OA
ATOM     86  O   UNL     1       2.972  -4.856  -3.059  1.00  0.00    -0.744 OA
ENDBRANCH  80  83
ENDBRANCH  52  76
BRANCH  64  87
ATOM     87  C   UNL     1       4.568  -6.965   7.245  1.00  0.00     0.023 A 
ATOM     88  C   UNL     1       5.543  -7.875   6.789  1.00  0.00     0.012 A 
ATOM     89  C   UNL     1       3.808  -7.281   8.388  1.00  0.00     0.148 A 
ATOM     90  C   UNL     1       5.739  -9.091   7.442  1.00  0.00     0.002 A 
ATOM     91  C   UNL     1       4.037  -8.478   9.058  1.00  0.00     0.091 A 
ATOM     92  F   UNL     1       2.872  -6.411   8.794  1.00  0.00    -0.205 F 
ATOM     93  C   UNL     1       4.995  -9.388   8.581  1.00  0.00     0.022 A 
BRANCH  91  94
ATOM     94  S   UNL     1       3.181  -8.909  10.577  1.00  0.00     0.127 S 
ATOM     95  O   UNL     1       2.242  -9.928  10.111  1.00  0.00    -0.237 OA
ATOM     96  O   UNL     1       4.268  -9.418  11.414  1.00  0.00    -0.237 OA
ATOM     97  O   UNL     1       2.578  -7.673  11.059  1.00  0.00    -0.744 OA
ENDBRANCH  91  94
ENDBRANCH  64  87
ENDBRANCH  38  39
ENDBRANCH  31  33
ENDBRANCH  30  31
ENDBRANCH  29  30
ENDBRANCH   1  29
TORSDOF 21
