REMARK SMILES C#CCN(CC(=O)OCCOC(=O)c1ccc(-c2c3nc(c(-c4cccc(S(=O)(=O)[O-])c4F)c4ccc([nH]4)c(-c4cccc(S(=O)(=O)[O-])c4F)c4nc(c(-c5cccc(S(=O)(=O)[O-])c5F)c5ccc2[nH]5)C=C4)C=C3)cc1)C(=O)N1CCO[C@@H](C#N)C1
REMARK SMILES IDX 9 1 8 2 6 3 7 4 5 5 4 6 3 7 2 8 1 9 77 10 78 11 79 12 80 13
REMARK SMILES IDX 86 14 81 15 83 16 82 17 84 18 85 19 10 20 11 21 12 22 13 23
REMARK SMILES IDX 14 24 15 25 76 26 16 27 75 28 17 29 18 30 19 31 69 32 20 33
REMARK SMILES IDX 74 34 68 35 70 36 21 37 73 38 67 39 66 40 22 42 54 43 34 44
REMARK SMILES IDX 53 45 35 46 38 47 52 48 71 49 36 50 37 51 51 53 72 54 39 55
REMARK SMILES IDX 23 56 24 57 32 58 25 59 27 60 33 61 26 62 28 63 29 64 30 65
REMARK SMILES IDX 31 66 55 67 56 68 64 69 57 70 59 71 65 72 58 73 60 74 61 75
REMARK SMILES IDX 62 76 63 77 40 78 41 79 49 80 42 81 44 82 50 83 43 84 45 85
REMARK SMILES IDX 46 86 47 87 48 88
REMARK H PARENT 70 41 38 52
REMARK Flexibility Score: inf
ROOT
ATOM      1  C   UNL     1      -6.739   1.577   1.758  1.00  0.00     0.274 C 
ENDROOT
BRANCH   1   2
ATOM      2  O   UNL     1      -5.391   1.235   1.381  1.00  0.00    -0.461 OA
BRANCH   2   3
ATOM      3  C   UNL     1      -5.048   1.577   0.117  1.00  0.00     0.325 C 
ATOM      4  O   UNL     1      -5.830   1.982  -0.738  1.00  0.00    -0.250 OA
BRANCH   3   5
ATOM      5  C   UNL     1      -3.543   1.576  -0.136  1.00  0.00     0.245 C 
BRANCH   5   6
ATOM      6  N   UNL     1      -2.526   0.922   0.741  1.00  0.00    -0.302 N 
BRANCH   6   7
ATOM      7  C   UNL     1      -1.820  -0.091   0.042  1.00  0.00     0.211 C 
BRANCH   7   8
ATOM      8  C   UNL     1      -0.300  -0.091   0.042  1.00  0.00    -0.085 C 
ATOM      9  C   UNL     1       1.004  -0.091   0.042  1.00  0.00     0.006 C 
ENDBRANCH   7   8
ENDBRANCH   6   7
BRANCH   6  10
ATOM     10  C   UNL     1      -2.033   1.095   2.027  1.00  0.00     0.321 C 
ATOM     11  O   UNL     1      -1.392   0.203   2.594  1.00  0.00    -0.248 OA
BRANCH  10  12
ATOM     12  N   UNL     1      -2.134   2.302   2.643  1.00  0.00    -0.319 N 
ATOM     13  C   UNL     1      -1.099   2.771   3.589  1.00  0.00     0.150 C 
ATOM     14  C   UNL     1      -2.975   3.363   2.218  1.00  0.00     0.169 C 
ATOM     15  C   UNL     1      -0.415   4.080   3.089  1.00  0.00     0.183 C 
ATOM     16  C   UNL     1      -2.115   4.367   1.484  1.00  0.00     0.240 C 
ATOM     17  O   UNL     1      -1.310   5.019   2.471  1.00  0.00    -0.360 OA
BRANCH  16  18
ATOM     18  C   UNL     1      -1.349   3.926   0.307  1.00  0.00     0.096 C 
ATOM     19  N   UNL     1      -0.801   3.592  -0.667  1.00  0.00    -0.195 NA
ENDBRANCH  16  18
ENDBRANCH  10  12
ENDBRANCH   6  10
ENDBRANCH   5   6
ENDBRANCH   3   5
ENDBRANCH   2   3
ENDBRANCH   1   2
BRANCH   1  20
ATOM     20  C   UNL     1      -6.715   2.370   3.072  1.00  0.00     0.275 C 
BRANCH  20  21
ATOM     21  O   UNL     1      -5.976   3.618   3.053  1.00  0.00    -0.458 OA
BRANCH  21  22
ATOM     22  C   UNL     1      -6.394   4.594   2.209  1.00  0.00     0.338 C 
ATOM     23  O   UNL     1      -7.314   4.503   1.416  1.00  0.00    -0.246 OA
BRANCH  22  24
ATOM     24  C   UNL     1      -5.409   5.711   2.213  1.00  0.00     0.060 A 
ATOM     25  C   UNL     1      -4.919   6.085   0.973  1.00  0.00     0.016 A 
ATOM     26  C   UNL     1      -4.855   6.300   3.363  1.00  0.00     0.016 A 
ATOM     27  C   UNL     1      -3.816   6.944   0.911  1.00  0.00     0.010 A 
ATOM     28  C   UNL     1      -3.837   7.292   3.261  1.00  0.00     0.010 A 
ATOM     29  C   UNL     1      -3.286   7.642   2.021  1.00  0.00    -0.014 A 
BRANCH  29  30
ATOM     30  C   UNL     1      -2.257   8.733   1.772  1.00  0.00     0.031 A 
ATOM     31  C   UNL     1      -1.016   8.992   2.626  1.00  0.00     0.074 A 
ATOM     32  C   UNL     1      -2.439   9.532   0.689  1.00  0.00     0.049 A 
ATOM     33  N   UNL     1      -0.176  10.005   2.570  1.00  0.00    -0.248 NA
ATOM     34  C   UNL     1      -0.654   8.008   3.657  1.00  0.00     0.031 C 
ATOM     35  C   UNL     1      -3.553   9.428  -0.265  1.00  0.00     0.029 A 
ATOM     36  N   UNL     1      -1.708  10.583   0.182  1.00  0.00    -0.354 N 
ATOM     37  C   UNL     1       0.768   9.811   3.581  1.00  0.00     0.074 A 
ATOM     38  C   UNL     1       0.424   8.555   4.214  1.00  0.00     0.031 C 
ATOM     39  C   UNL     1      -3.367  10.256  -1.288  1.00  0.00     0.029 A 
ATOM     40  C   UNL     1      -2.303  11.161  -0.919  1.00  0.00     0.049 A 
ATOM     41  H   UNL     1      -0.853  10.889   0.565  1.00  0.00     0.167 HD
ATOM     42  C   UNL     1       1.801  10.613   3.962  1.00  0.00     0.034 A 
ATOM     43  C   UNL     1      -2.163  12.361  -1.506  1.00  0.00     0.034 A 
ATOM     44  C   UNL     1       2.126  11.874   3.332  1.00  0.00     0.049 A 
ATOM     45  C   UNL     1      -1.138  13.294  -0.972  1.00  0.00     0.074 A 
ATOM     46  C   UNL     1       3.136  12.768   3.656  1.00  0.00     0.029 A 
ATOM     47  N   UNL     1       1.434  12.437   2.270  1.00  0.00    -0.354 N 
ATOM     48  N   UNL     1      -0.282  13.096  -0.003  1.00  0.00    -0.248 NA
ATOM     49  C   UNL     1      -1.052  14.607  -1.614  1.00  0.00     0.031 C 
ATOM     50  C   UNL     1       3.003  13.901   2.844  1.00  0.00     0.029 A 
ATOM     51  C   UNL     1       1.962  13.682   1.959  1.00  0.00     0.049 A 
ATOM     52  H   UNL     1       0.676  12.015   1.804  1.00  0.00     0.167 HD
ATOM     53  C   UNL     1       0.475  14.252   0.062  1.00  0.00     0.074 A 
ATOM     54  C   UNL     1      -0.016  15.135  -0.979  1.00  0.00     0.031 C 
ATOM     55  C   UNL     1       1.485  14.550   0.912  1.00  0.00     0.034 A 
BRANCH  42  56
ATOM     56  C   UNL     1       2.637  10.208   5.164  1.00  0.00     0.023 A 
ATOM     57  C   UNL     1       3.566   9.151   5.077  1.00  0.00     0.012 A 
ATOM     58  C   UNL     1       2.561  10.950   6.366  1.00  0.00     0.148 A 
ATOM     59  C   UNL     1       4.369   8.815   6.173  1.00  0.00     0.002 A 
ATOM     60  C   UNL     1       3.392  10.634   7.438  1.00  0.00     0.091 A 
ATOM     61  F   UNL     1       1.680  11.957   6.437  1.00  0.00    -0.205 F 
ATOM     62  C   UNL     1       4.287   9.558   7.348  1.00  0.00     0.022 A 
BRANCH  60  63
ATOM     63  S   UNL     1       3.406  11.575   8.971  1.00  0.00     0.127 S 
ATOM     64  O   UNL     1       2.842  10.609   9.913  1.00  0.00    -0.237 OA
ATOM     65  O   UNL     1       4.833  11.844   9.155  1.00  0.00    -0.237 OA
ATOM     66  O   UNL     1       2.590  12.756   8.729  1.00  0.00    -0.744 OA
ENDBRANCH  60  63
ENDBRANCH  42  56
BRANCH  43  67
ATOM     67  C   UNL     1      -3.108  12.757  -2.591  1.00  0.00     0.023 A 
ATOM     68  C   UNL     1      -2.639  12.891  -3.907  1.00  0.00     0.012 A 
ATOM     69  C   UNL     1      -4.491  12.902  -2.331  1.00  0.00     0.148 A 
ATOM     70  C   UNL     1      -3.526  13.174  -4.946  1.00  0.00     0.002 A 
ATOM     71  C   UNL     1      -5.376  13.107  -3.380  1.00  0.00     0.091 A 
ATOM     72  F   UNL     1      -4.919  12.771  -1.067  1.00  0.00    -0.205 F 
ATOM     73  C   UNL     1      -4.893  13.264  -4.686  1.00  0.00     0.022 A 
BRANCH  71  74
ATOM     74  S   UNL     1      -7.159  13.065  -3.159  1.00  0.00     0.127 S 
ATOM     75  O   UNL     1      -7.520  14.461  -3.393  1.00  0.00    -0.237 OA
ATOM     76  O   UNL     1      -7.571  12.137  -4.213  1.00  0.00    -0.237 OA
ATOM     77  O   UNL     1      -7.381  12.572  -1.807  1.00  0.00    -0.744 OA
ENDBRANCH  71  74
ENDBRANCH  43  67
BRANCH  55  78
ATOM     78  C   UNL     1       2.170  15.870   0.705  1.00  0.00     0.023 A 
ATOM     79  C   UNL     1       1.503  17.076   0.999  1.00  0.00     0.012 A 
ATOM     80  C   UNL     1       3.491  15.908   0.219  1.00  0.00     0.148 A 
ATOM     81  C   UNL     1       2.125  18.301   0.767  1.00  0.00     0.002 A 
ATOM     82  C   UNL     1       4.126  17.129   0.051  1.00  0.00     0.091 A 
ATOM     83  F   UNL     1       4.095  14.749  -0.081  1.00  0.00    -0.205 F 
ATOM     84  C   UNL     1       3.439  18.328   0.305  1.00  0.00     0.022 A 
BRANCH  82  85
ATOM     85  S   UNL     1       5.846  17.257  -0.445  1.00  0.00     0.127 S 
ATOM     86  O   UNL     1       5.729  17.856  -1.774  1.00  0.00    -0.237 OA
ATOM     87  O   UNL     1       6.393  18.147   0.580  1.00  0.00    -0.237 OA
ATOM     88  O   UNL     1       6.377  15.901  -0.419  1.00  0.00    -0.744 OA
ENDBRANCH  82  85
ENDBRANCH  55  78
ENDBRANCH  29  30
ENDBRANCH  22  24
ENDBRANCH  21  22
ENDBRANCH  20  21
ENDBRANCH   1  20
TORSDOF 20
