REMARK SMILES Cc1cc(Cl)cc2c1O[C@H](C(F)(F)F)C(C(=O)OCCOC(=O)c1ccc(-c3c4nc(c(-c5cccc(S(=O)(=O)[O-])c5F)c5ccc([nH]5)c(-c5cccc(S(=O)(=O)[O-])c5F)c5nc(c(-c6cccc(S(=O)(=O)[O-])c6F)c6ccc3[nH]6)C=C5)C=C4)cc1)=C2
REMARK SMILES IDX 20 1 19 2 18 3 16 4 17 5 15 6 1 7 2 8 3 9 8 10 4 11 7 12
REMARK SMILES IDX 9 13 5 14 6 15 87 16 10 17 11 18 12 19 13 20 14 21 21 22
REMARK SMILES IDX 22 23 23 24 24 25 25 26 86 27 26 28 85 29 27 30 28 31 29 32
REMARK SMILES IDX 79 33 30 34 84 35 78 36 80 37 31 38 83 39 77 40 76 41 32 43
REMARK SMILES IDX 64 44 44 45 63 46 45 47 48 48 62 49 81 50 46 51 47 52 61 54
REMARK SMILES IDX 82 55 49 56 33 57 34 58 42 59 35 60 37 61 43 62 36 63 38 64
REMARK SMILES IDX 39 65 40 66 41 67 65 68 66 69 74 70 67 71 69 72 75 73 68 74
REMARK SMILES IDX 70 75 71 76 72 77 73 78 50 79 51 80 59 81 52 82 54 83 60 84
REMARK SMILES IDX 53 85 55 86 56 87 57 88 58 89
REMARK H PARENT 80 42 48 53
REMARK Flexibility Score: inf
ROOT
ATOM      1  C   UNL     1      -5.880   1.708  -5.751  1.00  0.00     0.275 C 
ENDROOT
BRANCH   1   2
ATOM      2  C   UNL     1      -4.699   0.760  -5.960  1.00  0.00     0.275 C 
BRANCH   2   3
ATOM      3  O   UNL     1      -3.864   0.693  -4.783  1.00  0.00    -0.459 OA
BRANCH   3   4
ATOM      4  C   UNL     1      -2.694   1.367  -4.865  1.00  0.00     0.338 C 
ATOM      5  O   UNL     1      -2.270   1.977  -5.835  1.00  0.00    -0.246 OA
BRANCH   4   6
ATOM      6  C   UNL     1      -1.947   1.276  -3.598  1.00  0.00     0.087 C 
ATOM      7  C   UNL     1       1.133  -0.293   0.230  1.00  0.00     0.048 C 
ATOM      8  C   UNL     1       0.686   1.015  -0.354  1.00  0.00    -0.007 A 
ATOM      9  C   UNL     1       1.222   2.203   0.174  1.00  0.00     0.027 A 
ATOM     10  C   UNL     1      -0.253   1.090  -1.395  1.00  0.00     0.131 A 
ATOM     11  C   UNL     1       0.833   3.442  -0.330  1.00  0.00     0.042 A 
ATOM     12  C   UNL     1      -0.622   2.338  -1.905  1.00  0.00     0.019 A 
ATOM     13  O   UNL     1      -0.786  -0.082  -1.859  1.00  0.00    -0.475 OA
ATOM     14  Cl  UNL     1       1.507   4.882   0.323  1.00  0.00    -0.084 Cl
ATOM     15  C   UNL     1      -0.088   3.516  -1.368  1.00  0.00     0.032 A 
ATOM     16  C   UNL     1      -1.524   2.413  -3.036  1.00  0.00     0.027 C 
ATOM     17  C   UNL     1      -1.556  -0.079  -3.094  1.00  0.00     0.316 C 
BRANCH  17  18
ATOM     18  C   UNL     1      -0.788  -0.879  -4.158  1.00  0.00     0.430 C 
ATOM     19  F   UNL     1      -0.423  -2.097  -3.686  1.00  0.00    -0.167 F 
ATOM     20  F   UNL     1      -1.550  -1.109  -5.255  1.00  0.00    -0.167 F 
ATOM     21  F   UNL     1       0.336  -0.251  -4.566  1.00  0.00    -0.167 F 
ENDBRANCH  17  18
ENDBRANCH   4   6
ENDBRANCH   3   4
ENDBRANCH   2   3
ENDBRANCH   1   2
BRANCH   1  22
ATOM     22  O   UNL     1      -5.419   3.065  -5.639  1.00  0.00    -0.458 OA
BRANCH  22  23
ATOM     23  C   UNL     1      -5.392   3.558  -4.381  1.00  0.00     0.338 C 
ATOM     24  O   UNL     1      -5.753   2.998  -3.360  1.00  0.00    -0.246 OA
BRANCH  23  25
ATOM     25  C   UNL     1      -4.748   4.880  -4.365  1.00  0.00     0.060 A 
ATOM     26  C   UNL     1      -3.383   4.948  -4.609  1.00  0.00     0.016 A 
ATOM     27  C   UNL     1      -5.428   5.998  -3.893  1.00  0.00     0.016 A 
ATOM     28  C   UNL     1      -2.660   6.060  -4.194  1.00  0.00     0.010 A 
ATOM     29  C   UNL     1      -4.717   7.179  -3.643  1.00  0.00     0.010 A 
ATOM     30  C   UNL     1      -3.313   7.207  -3.725  1.00  0.00    -0.014 A 
BRANCH  30  31
ATOM     31  C   UNL     1      -2.525   8.406  -3.305  1.00  0.00     0.031 A 
ATOM     32  C   UNL     1      -2.749   9.037  -1.950  1.00  0.00     0.074 A 
ATOM     33  C   UNL     1      -1.592   8.929  -4.130  1.00  0.00     0.049 A 
ATOM     34  N   UNL     1      -2.289  10.169  -1.480  1.00  0.00    -0.248 NA
ATOM     35  C   UNL     1      -3.617   8.314  -1.004  1.00  0.00     0.031 C 
ATOM     36  C   UNL     1      -1.245   8.410  -5.455  1.00  0.00     0.029 A 
ATOM     37  N   UNL     1      -0.758  10.012  -3.979  1.00  0.00    -0.354 N 
ATOM     38  C   UNL     1      -2.869  10.330  -0.226  1.00  0.00     0.074 A 
ATOM     39  C   UNL     1      -3.718   9.181  -0.005  1.00  0.00     0.031 C 
ATOM     40  C   UNL     1      -0.242   9.133  -5.970  1.00  0.00     0.029 A 
ATOM     41  C   UNL     1       0.049  10.241  -5.071  1.00  0.00     0.049 A 
ATOM     42  H   UNL     1      -0.740  10.570  -3.168  1.00  0.00     0.167 HD
ATOM     43  C   UNL     1      -2.698  11.335   0.667  1.00  0.00     0.034 A 
ATOM     44  C   UNL     1       0.894  11.252  -5.353  1.00  0.00     0.034 A 
ATOM     45  C   UNL     1      -1.788  12.433   0.476  1.00  0.00     0.049 A 
ATOM     46  C   UNL     1       1.046  12.367  -4.358  1.00  0.00     0.074 A 
ATOM     47  C   UNL     1      -1.515  13.480   1.339  1.00  0.00     0.029 A 
ATOM     48  N   UNL     1      -0.992  12.621  -0.643  1.00  0.00    -0.354 N 
ATOM     49  N   UNL     1       0.509  12.487  -3.169  1.00  0.00    -0.248 NA
ATOM     50  C   UNL     1       1.918  13.485  -4.742  1.00  0.00     0.031 C 
ATOM     51  C   UNL     1      -0.576  14.316   0.729  1.00  0.00     0.029 A 
ATOM     52  C   UNL     1      -0.239  13.774  -0.501  1.00  0.00     0.049 A 
ATOM     53  H   UNL     1      -0.965  12.022  -1.425  1.00  0.00     0.167 HD
ATOM     54  C   UNL     1       0.986  13.686  -2.655  1.00  0.00     0.074 A 
ATOM     55  C   UNL     1       1.885  14.237  -3.649  1.00  0.00     0.031 C 
ATOM     56  C   UNL     1       0.685  14.289  -1.480  1.00  0.00     0.034 A 
BRANCH  43  57
ATOM     57  C   UNL     1      -3.486  11.290   1.954  1.00  0.00     0.023 A 
ATOM     58  C   UNL     1      -3.151  10.353   2.952  1.00  0.00     0.012 A 
ATOM     59  C   UNL     1      -4.497  12.239   2.213  1.00  0.00     0.148 A 
ATOM     60  C   UNL     1      -3.827  10.340   4.172  1.00  0.00     0.002 A 
ATOM     61  C   UNL     1      -5.133  12.252   3.450  1.00  0.00     0.091 A 
ATOM     62  F   UNL     1      -4.813  13.115   1.248  1.00  0.00    -0.205 F 
ATOM     63  C   UNL     1      -4.808  11.296   4.425  1.00  0.00     0.022 A 
BRANCH  61  64
ATOM     64  S   UNL     1      -6.346  13.496   3.910  1.00  0.00     0.127 S 
ATOM     65  O   UNL     1      -7.564  12.694   4.018  1.00  0.00    -0.237 OA
ATOM     66  O   UNL     1      -5.820  13.979   5.187  1.00  0.00    -0.237 OA
ATOM     67  O   UNL     1      -6.344  14.479   2.837  1.00  0.00    -0.744 OA
ENDBRANCH  61  64
ENDBRANCH  43  57
BRANCH  44  68
ATOM     68  C   UNL     1       1.659  11.244  -6.635  1.00  0.00     0.023 A 
ATOM     69  C   UNL     1       3.058  11.085  -6.602  1.00  0.00     0.012 A 
ATOM     70  C   UNL     1       1.008  11.323  -7.884  1.00  0.00     0.148 A 
ATOM     71  C   UNL     1       3.794  11.017  -7.786  1.00  0.00     0.002 A 
ATOM     72  C   UNL     1       1.739  11.184  -9.058  1.00  0.00     0.091 A 
ATOM     73  F   UNL     1      -0.321  11.494  -7.897  1.00  0.00    -0.205 F 
ATOM     74  C   UNL     1       3.135  11.049  -9.012  1.00  0.00     0.022 A 
BRANCH  72  75
ATOM     75  S   UNL     1       0.959  11.056 -10.672  1.00  0.00     0.127 S 
ATOM     76  O   UNL     1       1.390  12.296 -11.312  1.00  0.00    -0.237 OA
ATOM     77  O   UNL     1       1.574   9.840 -11.206  1.00  0.00    -0.237 OA
ATOM     78  O   UNL     1      -0.469  10.943 -10.413  1.00  0.00    -0.744 OA
ENDBRANCH  72  75
ENDBRANCH  44  68
BRANCH  56  79
ATOM     79  C   UNL     1       1.329  15.619  -1.188  1.00  0.00     0.023 A 
ATOM     80  C   UNL     1       0.898  16.765  -1.885  1.00  0.00     0.012 A 
ATOM     81  C   UNL     1       2.276  15.753  -0.152  1.00  0.00     0.148 A 
ATOM     82  C   UNL     1       1.415  18.021  -1.571  1.00  0.00     0.002 A 
ATOM     83  C   UNL     1       2.746  17.014   0.191  1.00  0.00     0.091 A 
ATOM     84  F   UNL     1       2.683  14.647   0.488  1.00  0.00    -0.205 F 
ATOM     85  C   UNL     1       2.325  18.148  -0.525  1.00  0.00     0.022 A 
BRANCH  83  86
ATOM     86  S   UNL     1       3.837  17.294   1.590  1.00  0.00     0.127 S 
ATOM     87  O   UNL     1       5.066  17.728   0.927  1.00  0.00    -0.237 OA
ATOM     88  O   UNL     1       3.135  18.349   2.322  1.00  0.00    -0.237 OA
ATOM     89  O   UNL     1       3.928  16.022   2.293  1.00  0.00    -0.744 OA
ENDBRANCH  83  86
ENDBRANCH  56  79
ENDBRANCH  30  31
ENDBRANCH  23  25
ENDBRANCH  22  23
ENDBRANCH   1  22
TORSDOF 15
