REMARK SMILES Cc1c(C(=O)OCCOC(=O)c2ccc(-c3c4nc(c(-c5cccc(S(=O)(=O)[O-])c5F)c5ccc([nH]5)c(-c5cccc(S(=O)(=O)[O-])c5F)c5nc(c(-c6cccc(S(=O)(=O)[O-])c6F)c6ccc3[nH]6)C=C5)C=C4)cc2)sc2ncn(N3CCCCCC3)c(=O)c12
REMARK SMILES IDX 7 1 6 2 4 3 5 4 3 5 1 6 2 7 89 8 75 9 76 10 87 11 77 12
REMARK SMILES IDX 79 13 88 14 78 15 80 16 81 17 82 18 83 19 86 21 85 22 84 23
REMARK SMILES IDX 8 25 9 26 10 27 11 28 12 29 13 30 74 31 14 32 73 33 15 34
REMARK SMILES IDX 16 35 17 36 67 37 18 38 72 39 66 40 68 41 19 42 71 43 65 44
REMARK SMILES IDX 64 45 20 47 52 48 32 49 51 50 33 51 36 52 50 53 69 54 34 55
REMARK SMILES IDX 35 56 49 58 70 59 37 60 21 61 22 62 30 63 23 64 25 65 31 66
REMARK SMILES IDX 24 67 26 68 27 69 28 70 29 71 53 72 54 73 62 74 55 75 57 76
REMARK SMILES IDX 63 77 56 78 58 79 59 80 60 81 61 82 38 83 39 84 47 85 40 86
REMARK SMILES IDX 42 87 48 88 41 89 43 90 44 91 45 92 46 93
REMARK H PARENT 68 46 36 57
REMARK Flexibility Score: 90.00
ROOT
ATOM      1  C   UNL     1       2.471   5.003   0.580  1.00  0.00     0.275 C 
ENDROOT
BRANCH   1   2
ATOM      2  O   UNL     1       1.888   4.250  -0.502  1.00  0.00    -0.458 OA
BRANCH   2   3
ATOM      3  C   UNL     1       2.110   2.898  -0.503  1.00  0.00     0.348 C 
ATOM      4  O   UNL     1       2.901   2.348   0.262  1.00  0.00    -0.245 OA
BRANCH   3   5
ATOM      5  C   UNL     1       1.270   2.197  -1.475  1.00  0.00     0.118 A 
ATOM      6  C   UNL     1       1.273  -0.192  -0.479  1.00  0.00     0.047 C 
ATOM      7  C   UNL     1       0.925   0.844  -1.507  1.00  0.00    -0.010 A 
ATOM      8  C   UNL     1       0.130   0.539  -2.675  1.00  0.00     0.082 A 
ATOM      9  S   UNL     1       0.551   3.054  -2.781  1.00  0.00    -0.108 S 
ATOM     10  C   UNL     1      -0.181   1.657  -3.415  1.00  0.00     0.131 A 
ATOM     11  C   UNL     1      -0.373  -0.751  -3.139  1.00  0.00     0.281 A 
ATOM     12  N   UNL     1      -0.959   1.709  -4.528  1.00  0.00    -0.225 NA
ATOM     13  N   UNL     1      -1.266  -0.641  -4.219  1.00  0.00    -0.210 N 
ATOM     14  O   UNL     1       0.026  -1.809  -2.659  1.00  0.00    -0.267 OA
ATOM     15  C   UNL     1      -1.481   0.570  -4.861  1.00  0.00     0.226 A 
BRANCH  13  16
ATOM     16  N   UNL     1      -1.881  -1.787  -4.783  1.00  0.00    -0.309 N 
BRANCH  16  17
ATOM     17  C   UNL     1      -2.954  -2.409  -4.025  1.00  0.00     0.137 C 
BRANCH  17  18
ATOM     18  C   UNL     1      -2.595  -3.542  -3.060  1.00  0.00     0.023 C 
BRANCH  18  19
ATOM     19  C   UNL     1      -2.207  -4.869  -3.702  1.00  0.00     0.002 CG0
ATOM     20  G   UNL     1      -1.037  -4.808  -4.673  1.00  0.00     0.000 G0
ENDBRANCH  18  19
ENDBRANCH  17  18
ENDBRANCH  16  17
BRANCH  16  21
ATOM     21  C   UNL     1      -1.081  -2.509  -5.753  1.00  0.00     0.137 C 
BRANCH  21  22
ATOM     22  C   UNL     1      -1.351  -4.001  -5.927  1.00  0.00     0.023 C 
BRANCH  22  23
ATOM     23  C   UNL     1      -1.037  -4.808  -4.673  1.00  0.00     0.002 CG0
ATOM     24  G   UNL     1      -2.207  -4.869  -3.702  1.00  0.00     0.000 G0
ENDBRANCH  22  23
ENDBRANCH  21  22
ENDBRANCH  16  21
ENDBRANCH  13  16
ENDBRANCH   3   5
ENDBRANCH   2   3
ENDBRANCH   1   2
BRANCH   1  25
ATOM     25  C   UNL     1       1.522   5.162   1.767  1.00  0.00     0.275 C 
BRANCH  25  26
ATOM     26  O   UNL     1       1.333   3.933   2.467  1.00  0.00    -0.458 OA
BRANCH  26  27
ATOM     27  C   UNL     1       0.319   3.197   1.969  1.00  0.00     0.338 C 
ATOM     28  O   UNL     1      -0.253   3.351   0.901  1.00  0.00    -0.246 OA
BRANCH  27  29
ATOM     29  C   UNL     1      -0.190   2.268   2.966  1.00  0.00     0.060 A 
ATOM     30  C   UNL     1      -0.953   1.205   2.473  1.00  0.00     0.016 A 
ATOM     31  C   UNL     1      -0.255   2.699   4.295  1.00  0.00     0.016 A 
ATOM     32  C   UNL     1      -1.942   0.694   3.274  1.00  0.00     0.010 A 
ATOM     33  C   UNL     1      -1.249   2.189   5.093  1.00  0.00     0.010 A 
ATOM     34  C   UNL     1      -2.130   1.260   4.537  1.00  0.00    -0.014 A 
BRANCH  34  35
ATOM     35  C   UNL     1      -3.263   0.792   5.304  1.00  0.00     0.031 A 
ATOM     36  C   UNL     1      -3.080  -0.594   5.798  1.00  0.00     0.074 A 
ATOM     37  C   UNL     1      -4.289   1.614   5.593  1.00  0.00     0.049 A 
ATOM     38  N   UNL     1      -3.794  -1.640   5.540  1.00  0.00    -0.248 NA
ATOM     39  C   UNL     1      -1.830  -0.877   6.529  1.00  0.00     0.031 C 
ATOM     40  C   UNL     1      -4.379   3.060   5.363  1.00  0.00     0.029 A 
ATOM     41  N   UNL     1      -5.408   1.352   6.315  1.00  0.00    -0.354 N 
ATOM     42  C   UNL     1      -3.200  -2.665   6.271  1.00  0.00     0.074 A 
ATOM     43  C   UNL     1      -1.905  -2.195   6.689  1.00  0.00     0.031 C 
ATOM     44  C   UNL     1      -5.329   3.575   6.176  1.00  0.00     0.029 A 
ATOM     45  C   UNL     1      -5.981   2.487   6.884  1.00  0.00     0.049 A 
ATOM     46  H   UNL     1      -5.779   0.447   6.426  1.00  0.00     0.167 HD
ATOM     47  C   UNL     1      -3.906  -3.728   6.734  1.00  0.00     0.034 A 
ATOM     48  C   UNL     1      -6.817   2.494   7.953  1.00  0.00     0.034 A 
ATOM     49  C   UNL     1      -5.159  -3.899   6.063  1.00  0.00     0.049 A 
ATOM     50  C   UNL     1      -7.344   1.111   8.084  1.00  0.00     0.074 A 
ATOM     51  C   UNL     1      -5.535  -4.150   4.760  1.00  0.00     0.029 A 
ATOM     52  N   UNL     1      -6.273  -3.405   6.696  1.00  0.00    -0.354 N 
ATOM     53  N   UNL     1      -8.112   0.534   7.202  1.00  0.00    -0.248 NA
ATOM     54  C   UNL     1      -6.667   0.215   9.009  1.00  0.00     0.031 C 
ATOM     55  C   UNL     1      -6.709  -3.368   4.559  1.00  0.00     0.029 A 
ATOM     56  C   UNL     1      -7.006  -2.723   5.761  1.00  0.00     0.049 A 
ATOM     57  H   UNL     1      -6.502  -3.520   7.646  1.00  0.00     0.167 HD
ATOM     58  C   UNL     1      -7.685  -0.788   7.182  1.00  0.00     0.074 A 
ATOM     59  C   UNL     1      -6.869  -0.946   8.382  1.00  0.00     0.031 C 
ATOM     60  C   UNL     1      -7.789  -1.543   6.051  1.00  0.00     0.034 A 
BRANCH  47  61
ATOM     61  C   UNL     1      -3.594  -4.366   8.054  1.00  0.00     0.023 A 
ATOM     62  C   UNL     1      -4.023  -5.682   8.297  1.00  0.00     0.012 A 
ATOM     63  C   UNL     1      -3.085  -3.629   9.150  1.00  0.00     0.148 A 
ATOM     64  C   UNL     1      -3.920  -6.247   9.573  1.00  0.00     0.002 A 
ATOM     65  C   UNL     1      -2.900  -4.222  10.388  1.00  0.00     0.091 A 
ATOM     66  F   UNL     1      -2.895  -2.309   9.026  1.00  0.00    -0.205 F 
ATOM     67  C   UNL     1      -3.335  -5.528  10.612  1.00  0.00     0.022 A 
BRANCH  65  68
ATOM     68  S   UNL     1      -2.089  -3.346  11.729  1.00  0.00     0.127 S 
ATOM     69  O   UNL     1      -3.221  -3.012  12.587  1.00  0.00    -0.237 OA
ATOM     70  O   UNL     1      -1.190  -4.373  12.257  1.00  0.00    -0.237 OA
ATOM     71  O   UNL     1      -1.404  -2.226  11.096  1.00  0.00    -0.744 OA
ENDBRANCH  65  68
ENDBRANCH  47  61
BRANCH  48  72
ATOM     72  C   UNL     1      -6.912   3.456   9.087  1.00  0.00     0.023 A 
ATOM     73  C   UNL     1      -7.970   3.296  10.010  1.00  0.00     0.012 A 
ATOM     74  C   UNL     1      -5.842   4.301   9.457  1.00  0.00     0.148 A 
ATOM     75  C   UNL     1      -7.922   3.881  11.281  1.00  0.00     0.002 A 
ATOM     76  C   UNL     1      -5.807   4.893  10.718  1.00  0.00     0.091 A 
ATOM     77  F   UNL     1      -4.805   4.449   8.625  1.00  0.00    -0.205 F 
ATOM     78  C   UNL     1      -6.833   4.667  11.641  1.00  0.00     0.022 A 
BRANCH  76  79
ATOM     79  S   UNL     1      -4.426   5.919  11.246  1.00  0.00     0.127 S 
ATOM     80  O   UNL     1      -5.103   7.012  11.945  1.00  0.00    -0.237 OA
ATOM     81  O   UNL     1      -3.683   5.007  12.111  1.00  0.00    -0.237 OA
ATOM     82  O   UNL     1      -3.749   6.327  10.021  1.00  0.00    -0.744 OA
ENDBRANCH  76  79
ENDBRANCH  48  72
BRANCH  60  83
ATOM     83  C   UNL     1      -8.582  -0.980   4.900  1.00  0.00     0.023 A 
ATOM     84  C   UNL     1      -8.114   0.104   4.126  1.00  0.00     0.012 A 
ATOM     85  C   UNL     1      -9.713  -1.690   4.471  1.00  0.00     0.148 A 
ATOM     86  C   UNL     1      -8.768   0.472   2.946  1.00  0.00     0.002 A 
ATOM     87  C   UNL     1     -10.336  -1.346   3.278  1.00  0.00     0.091 A 
ATOM     88  F   UNL     1     -10.127  -2.725   5.217  1.00  0.00    -0.205 F 
ATOM     89  C   UNL     1      -9.871  -0.263   2.515  1.00  0.00     0.022 A 
BRANCH  87  90
ATOM     90  S   UNL     1     -11.684  -2.317   2.604  1.00  0.00     0.127 S 
ATOM     91  O   UNL     1     -12.806  -1.385   2.690  1.00  0.00    -0.237 OA
ATOM     92  O   UNL     1     -11.218  -2.591   1.244  1.00  0.00    -0.237 OA
ATOM     93  O   UNL     1     -11.796  -3.501   3.448  1.00  0.00    -0.744 OA
ENDBRANCH  87  90
ENDBRANCH  60  83
ENDBRANCH  34  35
ENDBRANCH  27  29
ENDBRANCH  26  27
ENDBRANCH  25  26
ENDBRANCH   1  25
TORSDOF 15
