REMARK SMILES O=C(CNC(=O)[C@H]1CC[C@@H](Cn2cnc3ccccc3c2=O)CC1)OCCOC(=O)c1ccc(-c2c3nc(c(-c4cccc(S(=O)(=O)[O-])c4F)c4ccc([nH]4)c(-c4cccc(S(=O)(=O)[O-])c4F)c4nc(c(-c5cccc(S(=O)(=O)[O-])c5F)c5ccc2[nH]5)C=C4)C=C3)cc1
REMARK SMILES IDX 26 1 25 2 2 3 1 4 3 5 4 6 5 7 6 9 7 10 24 11 8 12 23 13 9 14
REMARK SMILES IDX 10 15 11 16 12 17 13 18 21 19 14 20 20 21 22 22 15 23 19 24
REMARK SMILES IDX 16 25 18 26 17 27 27 28 28 29 29 30 30 31 31 32 32 33 93 34
REMARK SMILES IDX 33 35 92 36 34 37 35 38 36 39 86 40 37 41 91 42 85 43 87 44
REMARK SMILES IDX 38 45 90 46 84 47 83 48 39 50 71 51 51 52 70 53 52 54 55 55
REMARK SMILES IDX 69 56 88 57 53 58 54 59 68 61 89 62 56 63 40 64 41 65 49 66
REMARK SMILES IDX 42 67 44 68 50 69 43 70 45 71 46 72 47 73 48 74 72 75 73 76
REMARK SMILES IDX 81 77 74 78 76 79 82 80 75 81 77 82 78 83 79 84 80 85 57 86
REMARK SMILES IDX 58 87 66 88 59 89 61 90 67 91 60 92 62 93 63 94 64 95 65 96
REMARK H PARENT 4 8 87 49 55 60
REMARK Flexibility Score: inf
ROOT
ATOM      1  C   UNL     1       4.049  -0.931  -0.883  1.00  0.00     0.274 C 
ENDROOT
BRANCH   1   2
ATOM      2  O   UNL     1       2.812  -1.055  -0.156  1.00  0.00    -0.461 OA
BRANCH   2   3
ATOM      3  C   UNL     1       2.514  -0.416   1.000  1.00  0.00     0.325 C 
ATOM      4  O   UNL     1       1.545  -0.782   1.665  1.00  0.00    -0.250 OA
BRANCH   3   5
ATOM      5  C   UNL     1       3.393   0.739   1.477  1.00  0.00     0.238 C 
BRANCH   5   6
ATOM      6  N   UNL     1       4.554   0.373   2.261  1.00  0.00    -0.345 N 
ATOM      7  C   UNL     1       5.857   0.732   2.083  1.00  0.00     0.223 C 
ATOM      8  H   UNL     1       4.378  -0.216   3.029  1.00  0.00     0.164 HD
ATOM      9  O   UNL     1       6.665   0.418   2.956  1.00  0.00    -0.275 OA
BRANCH   7  10
ATOM     10  C   UNL     1       6.284   1.468   0.809  1.00  0.00     0.078 C 
ATOM     11  C   UNL     1       6.269   2.989   0.969  1.00  0.00     0.014 C 
ATOM     12  C   UNL     1       7.660   0.960   0.363  1.00  0.00     0.014 C 
ATOM     13  C   UNL     1       6.770   3.683  -0.308  1.00  0.00     0.006 C 
ATOM     14  C   UNL     1       8.143   1.664  -0.899  1.00  0.00     0.006 C 
ATOM     15  C   UNL     1       8.157   3.194  -0.764  1.00  0.00     0.009 C 
BRANCH  15  16
ATOM     16  C   UNL     1       9.253   3.756   0.171  1.00  0.00     0.130 C 
BRANCH  16  17
ATOM     17  N   UNL     1      10.579   3.198  -0.060  1.00  0.00    -0.298 N 
ATOM     18  C   UNL     1      11.296   3.554  -1.178  1.00  0.00     0.203 A 
ATOM     19  C   UNL     1      11.124   2.356   0.900  1.00  0.00     0.261 A 
ATOM     20  N   UNL     1      12.486   3.139  -1.461  1.00  0.00    -0.238 NA
ATOM     21  C   UNL     1      12.469   1.836   0.616  1.00  0.00     0.066 A 
ATOM     22  O   UNL     1      10.569   2.039   1.947  1.00  0.00    -0.269 OA
ATOM     23  C   UNL     1      13.099   2.263  -0.552  1.00  0.00     0.077 A 
ATOM     24  C   UNL     1      13.096   0.955   1.505  1.00  0.00     0.016 A 
ATOM     25  C   UNL     1      14.390   1.802  -0.816  1.00  0.00     0.029 A 
ATOM     26  C   UNL     1      14.383   0.500   1.227  1.00  0.00     0.001 A 
ATOM     27  C   UNL     1      15.031   0.928   0.069  1.00  0.00     0.002 A 
ENDBRANCH  16  17
ENDBRANCH  15  16
ENDBRANCH   7  10
ENDBRANCH   5   6
ENDBRANCH   3   5
ENDBRANCH   2   3
ENDBRANCH   1   2
BRANCH   1  28
ATOM     28  C   UNL     1       3.917   0.001  -2.091  1.00  0.00     0.275 C 
BRANCH  28  29
ATOM     29  O   UNL     1       3.591   1.341  -1.679  1.00  0.00    -0.458 OA
BRANCH  29  30
ATOM     30  C   UNL     1       2.277   1.688  -1.749  1.00  0.00     0.338 C 
ATOM     31  O   UNL     1       1.382   1.026  -2.243  1.00  0.00    -0.246 OA
BRANCH  30  32
ATOM     32  C   UNL     1       2.062   2.903  -0.922  1.00  0.00     0.060 A 
ATOM     33  C   UNL     1       3.024   3.914  -0.844  1.00  0.00     0.016 A 
ATOM     34  C   UNL     1       0.901   2.990  -0.145  1.00  0.00     0.016 A 
ATOM     35  C   UNL     1       2.836   4.993   0.026  1.00  0.00     0.010 A 
ATOM     36  C   UNL     1       0.698   4.089   0.699  1.00  0.00     0.010 A 
ATOM     37  C   UNL     1       1.661   5.104   0.791  1.00  0.00    -0.014 A 
BRANCH  37  38
ATOM     38  C   UNL     1       1.382   6.359   1.541  1.00  0.00     0.031 A 
ATOM     39  C   UNL     1       1.363   6.423   3.043  1.00  0.00     0.074 A 
ATOM     40  C   UNL     1       1.107   7.471   0.829  1.00  0.00     0.049 A 
ATOM     41  N   UNL     1       1.186   7.470   3.811  1.00  0.00    -0.248 NA
ATOM     42  C   UNL     1       1.564   5.168   3.782  1.00  0.00     0.031 C 
ATOM     43  C   UNL     1       1.022   7.529  -0.632  1.00  0.00     0.029 A 
ATOM     44  N   UNL     1       0.841   8.756   1.229  1.00  0.00    -0.354 N 
ATOM     45  C   UNL     1       1.240   7.005   5.119  1.00  0.00     0.074 A 
ATOM     46  C   UNL     1       1.458   5.575   5.043  1.00  0.00     0.031 C 
ATOM     47  C   UNL     1       0.739   8.786  -1.006  1.00  0.00     0.029 A 
ATOM     48  C   UNL     1       0.599   9.618   0.186  1.00  0.00     0.049 A 
ATOM     49  H   UNL     1       0.826   9.035   2.173  1.00  0.00     0.167 HD
ATOM     50  C   UNL     1       1.142   7.710   6.272  1.00  0.00     0.034 A 
ATOM     51  C   UNL     1       0.295  10.930   0.175  1.00  0.00     0.034 A 
ATOM     52  C   UNL     1       0.955   9.136   6.351  1.00  0.00     0.049 A 
ATOM     53  C   UNL     1       0.211  11.687   1.466  1.00  0.00     0.074 A 
ATOM     54  C   UNL     1       0.928   9.932   7.486  1.00  0.00     0.029 A 
ATOM     55  N   UNL     1       0.753   9.977   5.271  1.00  0.00    -0.354 N 
ATOM     56  N   UNL     1       0.422  11.253   2.683  1.00  0.00    -0.248 NA
ATOM     57  C   UNL     1      -0.128  13.116   1.386  1.00  0.00     0.031 C 
ATOM     58  C   UNL     1       0.703  11.253   7.092  1.00  0.00     0.029 A 
ATOM     59  C   UNL     1       0.592  11.280   5.713  1.00  0.00     0.049 A 
ATOM     60  H   UNL     1       0.727   9.692   4.330  1.00  0.00     0.167 HD
ATOM     61  C   UNL     1       0.252  12.354   3.513  1.00  0.00     0.074 A 
ATOM     62  C   UNL     1      -0.057  13.482   2.660  1.00  0.00     0.031 C 
ATOM     63  C   UNL     1       0.328  12.411   4.863  1.00  0.00     0.034 A 
BRANCH  50  64
ATOM     64  C   UNL     1       1.320   6.984   7.578  1.00  0.00     0.023 A 
ATOM     65  C   UNL     1       2.628   6.738   8.038  1.00  0.00     0.012 A 
ATOM     66  C   UNL     1       0.224   6.719   8.423  1.00  0.00     0.148 A 
ATOM     67  C   UNL     1       2.846   6.243   9.322  1.00  0.00     0.002 A 
ATOM     68  C   UNL     1       0.450   6.248   9.711  1.00  0.00     0.091 A 
ATOM     69  F   UNL     1      -1.011   6.963   7.960  1.00  0.00    -0.205 F 
ATOM     70  C   UNL     1       1.760   6.010  10.162  1.00  0.00     0.022 A 
BRANCH  68  71
ATOM     71  S   UNL     1      -0.870   5.973  10.899  1.00  0.00     0.127 S 
ATOM     72  O   UNL     1      -0.772   4.530  11.119  1.00  0.00    -0.237 OA
ATOM     73  O   UNL     1      -0.439   6.792  12.031  1.00  0.00    -0.237 OA
ATOM     74  O   UNL     1      -2.096   6.415  10.250  1.00  0.00    -0.744 OA
ENDBRANCH  68  71
ENDBRANCH  50  64
BRANCH  51  75
ATOM     75  C   UNL     1       0.115  11.615  -1.132  1.00  0.00     0.023 A 
ATOM     76  C   UNL     1       1.143  12.440  -1.622  1.00  0.00     0.012 A 
ATOM     77  C   UNL     1      -1.025  11.379  -1.924  1.00  0.00     0.148 A 
ATOM     78  C   UNL     1       1.038  13.026  -2.883  1.00  0.00     0.002 A 
ATOM     79  C   UNL     1      -1.103  11.929  -3.197  1.00  0.00     0.091 A 
ATOM     80  F   UNL     1      -1.991  10.594  -1.427  1.00  0.00    -0.205 F 
ATOM     81  C   UNL     1      -0.077  12.760  -3.674  1.00  0.00     0.022 A 
BRANCH  79  82
ATOM     82  S   UNL     1      -2.438  11.543  -4.334  1.00  0.00     0.127 S 
ATOM     83  O   UNL     1      -3.139  12.821  -4.414  1.00  0.00    -0.237 OA
ATOM     84  O   UNL     1      -1.703  11.164  -5.541  1.00  0.00    -0.237 OA
ATOM     85  O   UNL     1      -3.180  10.453  -3.715  1.00  0.00    -0.744 OA
ENDBRANCH  79  82
ENDBRANCH  51  75
BRANCH  63  86
ATOM     86  C   UNL     1       0.067  13.731   5.534  1.00  0.00     0.023 A 
ATOM     87  C   UNL     1      -1.264  14.143   5.734  1.00  0.00     0.012 A 
ATOM     88  C   UNL     1       1.121  14.491   6.077  1.00  0.00     0.148 A 
ATOM     89  C   UNL     1      -1.545  15.298   6.463  1.00  0.00     0.002 A 
ATOM     90  C   UNL     1       0.833  15.626   6.827  1.00  0.00     0.091 A 
ATOM     91  F   UNL     1       2.379  14.076   5.869  1.00  0.00    -0.205 F 
ATOM     92  C   UNL     1      -0.499  16.032   7.018  1.00  0.00     0.022 A 
BRANCH  90  93
ATOM     93  S   UNL     1       2.102  16.606   7.637  1.00  0.00     0.127 S 
ATOM     94  O   UNL     1       1.952  17.899   6.970  1.00  0.00    -0.237 OA
ATOM     95  O   UNL     1       1.663  16.585   9.032  1.00  0.00    -0.237 OA
ATOM     96  O   UNL     1       3.365  15.926   7.382  1.00  0.00    -0.744 OA
ENDBRANCH  90  93
ENDBRANCH  63  86
ENDBRANCH  37  38
ENDBRANCH  30  32
ENDBRANCH  29  30
ENDBRANCH  28  29
ENDBRANCH   1  28
TORSDOF 18
