REMARK SMILES O=C(OCCOC(=O)c1ccc2c(c1)NC1=[NH+]S(=O)(=O)[NH+]=C1N2)c1ccc(-c2c3nc(c(-c4cccc(S(=O)(=O)[O-])c4F)c4ccc([nH]4)c(-c4cccc(S(=O)(=O)[O-])c4F)c4nc(c(-c5cccc(S(=O)(=O)[O-])c5F)c5ccc2[nH]5)C=C4)C=C3)cc1
REMARK SMILES IDX 3 1 2 2 1 3 24 4 25 5 86 6 26 7 85 8 27 9 28 10 29 11 79 12
REMARK SMILES IDX 30 13 84 14 78 15 80 16 31 17 83 18 77 19 76 20 32 22 64 23
REMARK SMILES IDX 44 24 63 25 45 26 48 27 62 28 81 29 46 30 47 31 61 33 82 34
REMARK SMILES IDX 49 35 33 36 34 37 42 38 35 39 37 40 43 41 36 42 38 43 39 44
REMARK SMILES IDX 40 45 41 46 65 47 66 48 74 49 67 50 69 51 75 52 68 53 70 54
REMARK SMILES IDX 71 55 72 56 73 57 50 58 51 59 59 60 52 61 54 62 60 63 53 64
REMARK SMILES IDX 55 65 56 66 57 67 58 68 4 69 5 70 6 71 7 72 8 73 9 74 10 75
REMARK SMILES IDX 14 76 11 77 13 78 12 79 15 80 23 81 16 82 22 84 17 86 21 87
REMARK SMILES IDX 18 88 19 91 20 92
REMARK H PARENT 80 21 48 32 15 83 23 85 17 89 21 90
REMARK Flexibility Score: inf
ROOT
ATOM      1  O   UNL     1       2.972  -0.332   1.279  1.00  0.00    -0.458 OA
ENDROOT
BRANCH   1   2
ATOM      2  C   UNL     1       3.557   0.887   1.093  1.00  0.00     0.338 C 
ATOM      3  O   UNL     1       3.173   1.888   1.687  1.00  0.00    -0.246 OA
BRANCH   2   4
ATOM      4  C   UNL     1       4.534   0.999  -0.003  1.00  0.00     0.060 A 
ATOM      5  C   UNL     1       4.151   1.789  -1.082  1.00  0.00     0.016 A 
ATOM      6  C   UNL     1       5.637   0.146  -0.089  1.00  0.00     0.016 A 
ATOM      7  C   UNL     1       4.653   1.469  -2.327  1.00  0.00     0.010 A 
ATOM      8  C   UNL     1       6.145  -0.167  -1.343  1.00  0.00     0.010 A 
ATOM      9  C   UNL     1       5.567   0.412  -2.472  1.00  0.00    -0.014 A 
BRANCH   9  10
ATOM     10  C   UNL     1       5.982   0.088  -3.840  1.00  0.00     0.031 A 
ATOM     11  C   UNL     1       6.480   1.279  -4.580  1.00  0.00     0.074 A 
ATOM     12  C   UNL     1       5.997  -1.148  -4.382  1.00  0.00     0.049 A 
ATOM     13  N   UNL     1       6.044   1.785  -5.691  1.00  0.00    -0.248 NA
ATOM     14  C   UNL     1       7.467   2.112  -3.868  1.00  0.00     0.031 C 
ATOM     15  C   UNL     1       5.741  -2.422  -3.709  1.00  0.00     0.029 A 
ATOM     16  N   UNL     1       6.390  -1.537  -5.637  1.00  0.00    -0.354 N 
ATOM     17  C   UNL     1       6.862   2.888  -5.912  1.00  0.00     0.074 A 
ATOM     18  C   UNL     1       7.567   3.156  -4.685  1.00  0.00     0.031 C 
ATOM     19  C   UNL     1       6.226  -3.429  -4.465  1.00  0.00     0.029 A 
ATOM     20  C   UNL     1       6.757  -2.881  -5.699  1.00  0.00     0.049 A 
ATOM     21  H   UNL     1       6.412  -0.931  -6.412  1.00  0.00     0.167 HD
ATOM     22  C   UNL     1       7.145   3.369  -7.149  1.00  0.00     0.034 A 
ATOM     23  C   UNL     1       7.557  -3.462  -6.629  1.00  0.00     0.034 A 
ATOM     24  C   UNL     1       6.226   2.953  -8.158  1.00  0.00     0.049 A 
ATOM     25  C   UNL     1       7.572  -2.574  -7.813  1.00  0.00     0.074 A 
ATOM     26  C   UNL     1       4.888   3.156  -8.413  1.00  0.00     0.029 A 
ATOM     27  N   UNL     1       6.627   1.914  -8.957  1.00  0.00    -0.354 N 
ATOM     28  N   UNL     1       6.557  -2.384  -8.606  1.00  0.00    -0.248 NA
ATOM     29  C   UNL     1       8.668  -1.628  -7.958  1.00  0.00     0.031 C 
ATOM     30  C   UNL     1       4.446   1.979  -9.079  1.00  0.00     0.029 A 
ATOM     31  C   UNL     1       5.540   1.119  -9.199  1.00  0.00     0.049 A 
ATOM     32  H   UNL     1       7.538   1.766  -9.297  1.00  0.00     0.167 HD
ATOM     33  C   UNL     1       6.701  -1.076  -9.044  1.00  0.00     0.074 A 
ATOM     34  C   UNL     1       8.078  -0.718  -8.734  1.00  0.00     0.031 C 
ATOM     35  C   UNL     1       5.610  -0.319  -9.351  1.00  0.00     0.034 A 
BRANCH  22  36
ATOM     36  C   UNL     1       8.502   3.928  -7.454  1.00  0.00     0.023 A 
ATOM     37  C   UNL     1       8.660   4.857  -8.493  1.00  0.00     0.012 A 
ATOM     38  C   UNL     1       9.672   3.413  -6.849  1.00  0.00     0.148 A 
ATOM     39  C   UNL     1       9.934   5.299  -8.868  1.00  0.00     0.002 A 
ATOM     40  C   UNL     1      10.920   3.931  -7.147  1.00  0.00     0.091 A 
ATOM     41  F   UNL     1       9.585   2.336  -6.053  1.00  0.00    -0.205 F 
ATOM     42  C   UNL     1      11.062   4.865  -8.172  1.00  0.00     0.022 A 
BRANCH  40  43
ATOM     43  S   UNL     1      12.354   3.465  -6.175  1.00  0.00     0.127 S 
ATOM     44  O   UNL     1      12.959   2.436  -7.014  1.00  0.00    -0.237 OA
ATOM     45  O   UNL     1      13.096   4.724  -6.100  1.00  0.00    -0.237 OA
ATOM     46  O   UNL     1      11.807   3.025  -4.896  1.00  0.00    -0.744 OA
ENDBRANCH  40  43
ENDBRANCH  22  36
BRANCH  23  47
ATOM     47  C   UNL     1       8.534  -4.578  -6.492  1.00  0.00     0.023 A 
ATOM     48  C   UNL     1       9.119  -5.118  -7.660  1.00  0.00     0.012 A 
ATOM     49  C   UNL     1       9.112  -4.931  -5.253  1.00  0.00     0.148 A 
ATOM     50  C   UNL     1      10.268  -5.918  -7.598  1.00  0.00     0.002 A 
ATOM     51  C   UNL     1      10.239  -5.748  -5.194  1.00  0.00     0.091 A 
ATOM     52  F   UNL     1       8.636  -4.388  -4.126  1.00  0.00    -0.205 F 
ATOM     53  C   UNL     1      10.834  -6.227  -6.366  1.00  0.00     0.022 A 
BRANCH  51  54
ATOM     54  S   UNL     1      10.997  -6.179  -3.622  1.00  0.00     0.127 S 
ATOM     55  O   UNL     1      11.413  -7.565  -3.845  1.00  0.00    -0.237 OA
ATOM     56  O   UNL     1      12.091  -5.217  -3.537  1.00  0.00    -0.237 OA
ATOM     57  O   UNL     1       9.938  -6.033  -2.630  1.00  0.00    -0.744 OA
ENDBRANCH  51  54
ENDBRANCH  23  47
BRANCH  35  58
ATOM     58  C   UNL     1       4.303  -1.027  -9.580  1.00  0.00     0.023 A 
ATOM     59  C   UNL     1       3.616  -1.687  -8.540  1.00  0.00     0.012 A 
ATOM     60  C   UNL     1       3.672  -0.862 -10.825  1.00  0.00     0.148 A 
ATOM     61  C   UNL     1       2.325  -2.181  -8.744  1.00  0.00     0.002 A 
ATOM     62  C   UNL     1       2.372  -1.314 -11.008  1.00  0.00     0.091 A 
ATOM     63  F   UNL     1       4.344  -0.222 -11.794  1.00  0.00    -0.205 F 
ATOM     64  C   UNL     1       1.698  -1.981  -9.973  1.00  0.00     0.022 A 
BRANCH  62  65
ATOM     65  S   UNL     1       1.457  -0.981 -12.515  1.00  0.00     0.127 S 
ATOM     66  O   UNL     1       1.307  -2.319 -13.085  1.00  0.00    -0.237 OA
ATOM     67  O   UNL     1       0.220  -0.392 -11.999  1.00  0.00    -0.237 OA
ATOM     68  O   UNL     1       2.278  -0.062 -13.294  1.00  0.00    -0.744 OA
ENDBRANCH  62  65
ENDBRANCH  35  58
ENDBRANCH   9  10
ENDBRANCH   2   4
ENDBRANCH   1   2
BRANCH   1  69
ATOM     69  C   UNL     1       3.251  -1.556   0.540  1.00  0.00     0.275 C 
BRANCH  69  70
ATOM     70  C   UNL     1       2.686  -1.644  -0.887  1.00  0.00     0.275 C 
BRANCH  70  71
ATOM     71  O   UNL     1       2.261  -0.368  -1.364  1.00  0.00    -0.458 OA
BRANCH  71  72
ATOM     72  C   UNL     1       1.236  -0.325  -2.235  1.00  0.00     0.338 C 
ATOM     73  O   UNL     1       0.544  -1.247  -2.638  1.00  0.00    -0.246 OA
BRANCH  72  74
ATOM     74  C   UNL     1       1.068   1.091  -2.595  1.00  0.00     0.064 A 
ATOM     75  C   UNL     1       1.527   1.569  -3.826  1.00  0.00     0.020 A 
ATOM     76  C   UNL     1       0.544   1.964  -1.635  1.00  0.00     0.072 A 
ATOM     77  C   UNL     1       1.489   2.942  -4.093  1.00  0.00     0.057 A 
ATOM     78  C   UNL     1       0.492   3.333  -1.899  1.00  0.00     0.173 A 
ATOM     79  C   UNL     1       0.977   3.833  -3.141  1.00  0.00     0.172 A 
ATOM     80  N   UNL     1      -0.033   4.215  -0.936  1.00  0.00    -0.229 N 
ATOM     81  N   UNL     1       0.939   5.218  -3.401  1.00  0.00    -0.229 N 
ATOM     82  C   UNL     1      -0.122   5.556  -1.179  1.00  0.00     0.383 C 
ATOM     83  H   UNL     1      -0.341   3.859  -0.072  1.00  0.00     0.313 HD
ATOM     84  C   UNL     1       0.403   6.097  -2.499  1.00  0.00     0.383 C 
ATOM     85  H   UNL     1       1.305   5.560  -4.249  1.00  0.00     0.313 HD
ATOM     86  N   UNL     1      -0.609   6.473  -0.421  1.00  0.00    -0.122 N 
ATOM     87  N   UNL     1       0.262   7.372  -2.598  1.00  0.00    -0.122 N 
ATOM     88  S   UNL     1      -0.463   7.889  -1.226  1.00  0.00     0.469 S 
ATOM     89  H   UNL     1      -0.997   6.347   0.475  1.00  0.00     0.331 HD
ATOM     90  H   UNL     1       0.539   7.932  -3.358  1.00  0.00     0.331 HD
ATOM     91  O   UNL     1      -1.795   8.357  -1.560  1.00  0.00    -0.143 OA
ATOM     92  O   UNL     1       0.454   8.737  -0.501  1.00  0.00    -0.143 OA
ENDBRANCH  72  74
ENDBRANCH  71  72
ENDBRANCH  70  71
ENDBRANCH  69  70
ENDBRANCH   1  69
TORSDOF 14
