REMARK SMILES COC(=O)[C@@H]1CCN(S(=O)(=O)N2CCC(C(=O)OCCOC(=O)c3ccc(-c4c5nc(c(-c6cccc(S(=O)(=O)[O-])c6F)c6ccc([nH]6)c(-c6cccc(S(=O)(=O)[O-])c6F)c6nc(c(-c7cccc(S(=O)(=O)[O-])c7F)c7ccc4[nH]7)C=C6)C=C5)cc3)CC2)C1
REMARK SMILES IDX 19 1 18 2 16 3 17 4 15 5 12 6 13 7 88 8 14 9 87 10 9 11
REMARK SMILES IDX 10 12 11 13 8 14 5 15 6 16 89 17 7 18 3 19 4 20 2 21 1 22
REMARK SMILES IDX 20 23 21 24 22 25 23 26 24 27 25 28 86 29 26 30 85 31 27 32
REMARK SMILES IDX 28 33 29 34 79 35 30 36 84 37 78 38 80 39 31 40 83 41 77 42
REMARK SMILES IDX 76 43 32 45 64 46 44 47 63 48 45 49 48 50 62 51 81 52 46 53
REMARK SMILES IDX 47 54 61 56 82 57 49 58 33 59 34 60 42 61 35 62 37 63 43 64
REMARK SMILES IDX 36 65 38 66 39 67 40 68 41 69 65 70 66 71 74 72 67 73 69 74
REMARK SMILES IDX 75 75 68 76 70 77 71 78 72 79 73 80 50 81 51 82 59 83 52 84
REMARK SMILES IDX 54 85 60 86 53 87 55 88 56 89 57 90 58 91
REMARK H PARENT 80 44 48 55
REMARK Flexibility Score: inf
ROOT
ATOM      1  C   UNL     1      -1.759 -13.463   2.948  1.00  0.00     0.274 C 
ENDROOT
BRANCH   1   2
ATOM      2  O   UNL     1      -1.817 -12.026   3.019  1.00  0.00    -0.462 OA
BRANCH   2   3
ATOM      3  C   UNL     1      -0.753 -11.391   2.474  1.00  0.00     0.309 C 
ATOM      4  O   UNL     1       0.254 -11.947   2.046  1.00  0.00    -0.252 OA
BRANCH   3   5
ATOM      5  C   UNL     1      -0.876  -9.891   2.470  1.00  0.00     0.102 C 
ATOM      6  N   UNL     1      -1.302  -7.212   3.376  1.00  0.00    -0.189 NA
ATOM      7  C   UNL     1      -2.193  -7.755   2.321  1.00  0.00     0.104 C 
ATOM      8  C   UNL     1       0.037  -7.829   3.417  1.00  0.00     0.104 C 
ATOM      9  C   UNL     1      -2.278  -9.284   2.444  1.00  0.00     0.032 C 
ATOM     10  C   UNL     1      -0.082  -9.322   3.635  1.00  0.00     0.032 C 
BRANCH   6  11
ATOM     11  S   UNL     1      -1.423  -5.571   3.728  1.00  0.00     0.281 S 
ATOM     12  O   UNL     1      -0.589  -5.282   4.874  1.00  0.00    -0.195 OA
ATOM     13  O   UNL     1      -2.825  -5.222   3.741  1.00  0.00    -0.195 OA
BRANCH  11  14
ATOM     14  N   UNL     1      -0.725  -4.801   2.384  1.00  0.00    -0.188 NA
ATOM     15  C   UNL     1       0.399  -2.635   2.501  1.00  0.00     0.116 C 
ATOM     16  C   UNL     1       1.363  -3.755   2.840  1.00  0.00     0.033 C 
ATOM     17  C   UNL     1      -0.966  -3.309   2.358  1.00  0.00     0.118 C 
ATOM     18  C   UNL     1       0.735  -4.950   2.157  1.00  0.00     0.104 C 
BRANCH  15  19
ATOM     19  C   UNL     1       0.817  -1.950   1.222  1.00  0.00     0.310 C 
ATOM     20  O   UNL     1       1.500  -2.465   0.348  1.00  0.00    -0.252 OA
BRANCH  19  21
ATOM     21  O   UNL     1       0.368  -0.666   1.204  1.00  0.00    -0.469 OA
ATOM     22  C   UNL     1       0.843   0.077   0.079  1.00  0.00     0.282 C 
ENDBRANCH  19  21
ENDBRANCH  15  19
ENDBRANCH  11  14
ENDBRANCH   6  11
ENDBRANCH   3   5
ENDBRANCH   2   3
ENDBRANCH   1   2
BRANCH   1  23
ATOM     23  C   UNL     1      -2.522 -13.987   1.730  1.00  0.00     0.275 C 
BRANCH  23  24
ATOM     24  O   UNL     1      -1.909 -13.581   0.491  1.00  0.00    -0.458 OA
BRANCH  24  25
ATOM     25  C   UNL     1      -2.423 -12.460  -0.066  1.00  0.00     0.338 C 
ATOM     26  O   UNL     1      -3.339 -11.777   0.360  1.00  0.00    -0.246 OA
BRANCH  25  27
ATOM     27  C   UNL     1      -1.660 -12.096  -1.267  1.00  0.00     0.060 A 
ATOM     28  C   UNL     1      -0.754 -11.035  -1.199  1.00  0.00     0.016 A 
ATOM     29  C   UNL     1      -1.929 -12.719  -2.483  1.00  0.00     0.016 A 
ATOM     30  C   UNL     1      -0.128 -10.570  -2.351  1.00  0.00     0.010 A 
ATOM     31  C   UNL     1      -1.273 -12.275  -3.634  1.00  0.00     0.010 A 
ATOM     32  C   UNL     1      -0.381 -11.188  -3.580  1.00  0.00    -0.014 A 
BRANCH  32  33
ATOM     33  C   UNL     1       0.273 -10.700  -4.819  1.00  0.00     0.031 A 
ATOM     34  C   UNL     1      -0.557 -10.091  -5.912  1.00  0.00     0.074 A 
ATOM     35  C   UNL     1       1.601 -10.856  -4.977  1.00  0.00     0.049 A 
ATOM     36  N   UNL     1      -0.207  -9.757  -7.126  1.00  0.00    -0.248 NA
ATOM     37  C   UNL     1      -1.974  -9.835  -5.603  1.00  0.00     0.031 C 
ATOM     38  C   UNL     1       2.512 -11.419  -3.979  1.00  0.00     0.029 A 
ATOM     39  N   UNL     1       2.411 -10.588  -6.053  1.00  0.00    -0.354 N 
ATOM     40  C   UNL     1      -1.365  -9.302  -7.744  1.00  0.00     0.074 A 
ATOM     41  C   UNL     1      -2.430  -9.402  -6.770  1.00  0.00     0.031 C 
ATOM     42  C   UNL     1       3.748 -11.481  -4.497  1.00  0.00     0.029 A 
ATOM     43  C   UNL     1       3.706 -11.017  -5.880  1.00  0.00     0.049 A 
ATOM     44  H   UNL     1       2.095 -10.135  -6.868  1.00  0.00     0.167 HD
ATOM     45  C   UNL     1      -1.523  -8.840  -9.007  1.00  0.00     0.034 A 
ATOM     46  C   UNL     1       4.732 -11.075  -6.750  1.00  0.00     0.034 A 
ATOM     47  C   UNL     1      -0.450  -8.722  -9.959  1.00  0.00     0.049 A 
ATOM     48  C   UNL     1       4.522 -10.585  -8.157  1.00  0.00     0.074 A 
ATOM     49  C   UNL     1      -0.495  -8.223 -11.248  1.00  0.00     0.029 A 
ATOM     50  N   UNL     1       0.859  -9.120  -9.730  1.00  0.00    -0.354 N 
ATOM     51  N   UNL     1       3.442 -10.077  -8.702  1.00  0.00    -0.248 NA
ATOM     52  C   UNL     1       5.676 -10.653  -9.064  1.00  0.00     0.031 C 
ATOM     53  C   UNL     1       0.778  -8.352 -11.811  1.00  0.00     0.029 A 
ATOM     54  C   UNL     1       1.628  -8.890 -10.858  1.00  0.00     0.049 A 
ATOM     55  H   UNL     1       1.192  -9.508  -8.889  1.00  0.00     0.167 HD
ATOM     56  C   UNL     1       3.798  -9.728  -9.999  1.00  0.00     0.074 A 
ATOM     57  C   UNL     1       5.197 -10.069 -10.154  1.00  0.00     0.031 C 
ATOM     58  C   UNL     1       3.033  -9.184 -10.978  1.00  0.00     0.034 A 
BRANCH  45  59
ATOM     59  C   UNL     1      -2.904  -8.418  -9.436  1.00  0.00     0.023 A 
ATOM     60  C   UNL     1      -3.473  -7.238  -8.915  1.00  0.00     0.012 A 
ATOM     61  C   UNL     1      -3.616  -9.159 -10.400  1.00  0.00     0.148 A 
ATOM     62  C   UNL     1      -4.741  -6.821  -9.321  1.00  0.00     0.002 A 
ATOM     63  C   UNL     1      -4.858  -8.713 -10.835  1.00  0.00     0.091 A 
ATOM     64  F   UNL     1      -3.067 -10.289 -10.870  1.00  0.00    -0.205 F 
ATOM     65  C   UNL     1      -5.428  -7.552 -10.287  1.00  0.00     0.022 A 
BRANCH  63  66
ATOM     66  S   UNL     1      -5.787  -9.538 -12.132  1.00  0.00     0.127 S 
ATOM     67  O   UNL     1      -6.922 -10.078 -11.384  1.00  0.00    -0.237 OA
ATOM     68  O   UNL     1      -6.118  -8.428 -13.025  1.00  0.00    -0.237 OA
ATOM     69  O   UNL     1      -4.889 -10.532 -12.702  1.00  0.00    -0.744 OA
ENDBRANCH  63  66
ENDBRANCH  45  59
BRANCH  46  70
ATOM     70  C   UNL     1       6.054 -11.606  -6.313  1.00  0.00     0.023 A 
ATOM     71  C   UNL     1       7.155 -10.732  -6.219  1.00  0.00     0.012 A 
ATOM     72  C   UNL     1       6.224 -12.963  -5.975  1.00  0.00     0.148 A 
ATOM     73  C   UNL     1       8.408 -11.207  -5.830  1.00  0.00     0.002 A 
ATOM     74  C   UNL     1       7.460 -13.417  -5.532  1.00  0.00     0.091 A 
ATOM     75  F   UNL     1       5.168 -13.781  -6.082  1.00  0.00    -0.205 F 
ATOM     76  C   UNL     1       8.558 -12.545  -5.477  1.00  0.00     0.022 A 
BRANCH  74  77
ATOM     77  S   UNL     1       7.718 -15.092  -4.937  1.00  0.00     0.127 S 
ATOM     78  O   UNL     1       8.577 -15.650  -5.977  1.00  0.00    -0.237 OA
ATOM     79  O   UNL     1       8.378 -14.856  -3.652  1.00  0.00    -0.237 OA
ATOM     80  O   UNL     1       6.390 -15.682  -4.830  1.00  0.00    -0.744 OA
ENDBRANCH  74  77
ENDBRANCH  46  70
BRANCH  58  81
ATOM     81  C   UNL     1       3.699  -8.865 -12.291  1.00  0.00     0.023 A 
ATOM     82  C   UNL     1       4.069  -9.903 -13.168  1.00  0.00     0.012 A 
ATOM     83  C   UNL     1       3.881  -7.525 -12.688  1.00  0.00     0.148 A 
ATOM     84  C   UNL     1       4.638  -9.612 -14.408  1.00  0.00     0.002 A 
ATOM     85  C   UNL     1       4.399  -7.242 -13.945  1.00  0.00     0.091 A 
ATOM     86  F   UNL     1       3.538  -6.553 -11.830  1.00  0.00    -0.205 F 
ATOM     87  C   UNL     1       4.790  -8.285 -14.801  1.00  0.00     0.022 A 
BRANCH  85  88
ATOM     88  S   UNL     1       4.537  -5.567 -14.578  1.00  0.00     0.127 S 
ATOM     89  O   UNL     1       5.987  -5.381 -14.615  1.00  0.00    -0.237 OA
ATOM     90  O   UNL     1       3.903  -5.681 -15.892  1.00  0.00    -0.237 OA
ATOM     91  O   UNL     1       3.825  -4.718 -13.633  1.00  0.00    -0.744 OA
ENDBRANCH  85  88
ENDBRANCH  58  81
ENDBRANCH  32  33
ENDBRANCH  25  27
ENDBRANCH  24  25
ENDBRANCH  23  24
ENDBRANCH   1  23
TORSDOF 18
