REMARK SMILES C[C@H](SCC[NH3+])c1ccc(C(=O)OCCOC(=O)c2ccc(-c3c4nc(c(-c5cccc(S(=O)(=O)[O-])c5F)c5ccc([nH]5)c(-c5cccc(S(=O)(=O)[O-])c5F)c5nc(c(-c6cccc(S(=O)(=O)[O-])c6F)c6ccc3[nH]6)C=C5)C=C4)cc2)o1
REMARK SMILES IDX 14 1 13 2 11 3 12 4 10 5 7 6 8 7 82 8 9 9 2 10 1 11 3 12
REMARK SMILES IDX 4 13 5 14 6 15 15 19 16 20 17 21 18 22 19 23 20 24 81 25
REMARK SMILES IDX 21 26 80 27 22 28 23 29 24 30 74 31 25 32 79 33 73 34 75 35
REMARK SMILES IDX 26 36 78 37 72 38 71 39 27 41 59 42 39 43 58 44 40 45 43 46
REMARK SMILES IDX 57 47 76 48 41 49 42 50 56 52 77 53 44 54 28 55 29 56 37 57
REMARK SMILES IDX 30 58 32 59 38 60 31 61 33 62 34 63 35 64 36 65 60 66 61 67
REMARK SMILES IDX 69 68 62 69 64 70 70 71 63 72 65 73 66 74 67 75 68 76 45 77
REMARK SMILES IDX 46 78 54 79 47 80 49 81 55 82 48 83 50 84 51 85 52 86 53 87
REMARK H PARENT 6 16 6 17 6 18 75 40 43 51
REMARK Flexibility Score: inf
ROOT
ATOM      1  C   UNL     1      -6.514   1.748  -1.737  1.00  0.00     0.275 C 
ENDROOT
BRANCH   1   2
ATOM      2  O   UNL     1      -5.496   0.733  -1.638  1.00  0.00    -0.456 OA
BRANCH   2   3
ATOM      3  C   UNL     1      -4.318   1.013  -2.278  1.00  0.00     0.374 C 
ATOM      4  O   UNL     1      -4.147   1.974  -3.010  1.00  0.00    -0.242 OA
BRANCH   3   5
ATOM      5  C   UNL     1      -3.303   0.056  -1.893  1.00  0.00     0.211 A 
ATOM      6  C   UNL     1      -1.200  -0.562  -1.566  1.00  0.00     0.117 A 
ATOM      7  C   UNL     1      -1.992  -1.574  -1.061  1.00  0.00     0.048 A 
ATOM      8  O   UNL     1      -1.995   0.395  -2.125  1.00  0.00    -0.453 OA
ATOM      9  C   UNL     1      -3.339  -1.173  -1.261  1.00  0.00     0.058 A 
BRANCH   6  10
ATOM     10  C   UNL     1       0.273  -0.306  -1.640  1.00  0.00     0.110 C 
ATOM     11  C   UNL     1       0.965  -1.326  -2.541  1.00  0.00     0.028 C 
BRANCH  10  12
ATOM     12  S   UNL     1       1.065  -0.399   0.017  1.00  0.00    -0.145 SA
BRANCH  12  13
ATOM     13  C   UNL     1       0.864   1.333   0.570  1.00  0.00     0.131 C 
BRANCH  13  14
ATOM     14  C   UNL     1       2.002   2.278   0.150  1.00  0.00     0.269 C 
BRANCH  14  15
ATOM     15  N   UNL     1       2.125   2.469  -1.295  1.00  0.00    -0.357 N 
ATOM     16  H   UNL     1       2.342   1.577  -1.739  1.00  0.00     0.344 HD
ATOM     17  H   UNL     1       2.872   3.136  -1.488  1.00  0.00     0.344 HD
ATOM     18  H   UNL     1       1.245   2.828  -1.666  1.00  0.00     0.344 HD
ENDBRANCH  14  15
ENDBRANCH  13  14
ENDBRANCH  12  13
ENDBRANCH  10  12
ENDBRANCH   6  10
ENDBRANCH   3   5
ENDBRANCH   2   3
ENDBRANCH   1   2
BRANCH   1  19
ATOM     19  C   UNL     1      -6.542   2.633  -0.485  1.00  0.00     0.275 C 
BRANCH  19  20
ATOM     20  O   UNL     1      -5.408   3.517  -0.431  1.00  0.00    -0.458 OA
BRANCH  20  21
ATOM     21  C   UNL     1      -4.364   3.077   0.308  1.00  0.00     0.338 C 
ATOM     22  O   UNL     1      -4.300   2.036   0.942  1.00  0.00    -0.246 OA
BRANCH  21  23
ATOM     23  C   UNL     1      -3.223   3.991   0.145  1.00  0.00     0.060 A 
ATOM     24  C   UNL     1      -2.135   3.541  -0.598  1.00  0.00     0.016 A 
ATOM     25  C   UNL     1      -3.176   5.232   0.781  1.00  0.00     0.016 A 
ATOM     26  C   UNL     1      -0.980   4.310  -0.683  1.00  0.00     0.010 A 
ATOM     27  C   UNL     1      -2.015   6.012   0.681  1.00  0.00     0.010 A 
ATOM     28  C   UNL     1      -0.895   5.544  -0.028  1.00  0.00    -0.014 A 
BRANCH  28  29
ATOM     29  C   UNL     1       0.383   6.302  -0.068  1.00  0.00     0.031 A 
ATOM     30  C   UNL     1       1.208   6.474   1.179  1.00  0.00     0.074 A 
ATOM     31  C   UNL     1       0.827   6.808  -1.235  1.00  0.00     0.049 A 
ATOM     32  N   UNL     1       2.336   7.118   1.340  1.00  0.00    -0.248 NA
ATOM     33  C   UNL     1       0.704   5.835   2.405  1.00  0.00     0.031 C 
ATOM     34  C   UNL     1       0.136   6.692  -2.519  1.00  0.00     0.029 A 
ATOM     35  N   UNL     1       1.962   7.524  -1.529  1.00  0.00    -0.354 N 
ATOM     36  C   UNL     1       2.651   7.006   2.689  1.00  0.00     0.074 A 
ATOM     37  C   UNL     1       1.599   6.225   3.303  1.00  0.00     0.031 C 
ATOM     38  C   UNL     1       0.859   7.314  -3.464  1.00  0.00     0.029 A 
ATOM     39  C   UNL     1       2.041   7.909  -2.847  1.00  0.00     0.049 A 
ATOM     40  H   UNL     1       2.651   7.741  -0.861  1.00  0.00     0.167 HD
ATOM     41  C   UNL     1       3.725   7.495   3.354  1.00  0.00     0.034 A 
ATOM     42  C   UNL     1       2.950   8.671  -3.486  1.00  0.00     0.034 A 
ATOM     43  C   UNL     1       4.798   8.230   2.738  1.00  0.00     0.049 A 
ATOM     44  C   UNL     1       4.127   9.210  -2.722  1.00  0.00     0.074 A 
ATOM     45  C   UNL     1       5.953   8.720   3.325  1.00  0.00     0.029 A 
ATOM     46  N   UNL     1       4.851   8.584   1.399  1.00  0.00    -0.354 N 
ATOM     47  N   UNL     1       4.456   9.013  -1.468  1.00  0.00    -0.248 NA
ATOM     48  C   UNL     1       5.068  10.061  -3.464  1.00  0.00     0.031 C 
ATOM     49  C   UNL     1       6.699   9.379   2.342  1.00  0.00     0.029 A 
ATOM     50  C   UNL     1       6.013   9.292   1.141  1.00  0.00     0.049 A 
ATOM     51  H   UNL     1       4.164   8.364   0.730  1.00  0.00     0.167 HD
ATOM     52  C   UNL     1       5.651   9.697  -1.276  1.00  0.00     0.074 A 
ATOM     53  C   UNL     1       6.002  10.292  -2.549  1.00  0.00     0.031 C 
ATOM     54  C   UNL     1       6.379   9.838  -0.141  1.00  0.00     0.034 A 
BRANCH  41  55
ATOM     55  C   UNL     1       3.814   7.221   4.831  1.00  0.00     0.023 A 
ATOM     56  C   UNL     1       4.204   5.942   5.277  1.00  0.00     0.012 A 
ATOM     57  C   UNL     1       3.567   8.237   5.774  1.00  0.00     0.148 A 
ATOM     58  C   UNL     1       4.321   5.672   6.640  1.00  0.00     0.002 A 
ATOM     59  C   UNL     1       3.719   7.969   7.130  1.00  0.00     0.091 A 
ATOM     60  F   UNL     1       3.170   9.439   5.332  1.00  0.00    -0.205 F 
ATOM     61  C   UNL     1       4.089   6.686   7.565  1.00  0.00     0.022 A 
BRANCH  59  62
ATOM     62  S   UNL     1       3.503   9.238   8.384  1.00  0.00     0.127 S 
ATOM     63  O   UNL     1       2.155   8.950   8.868  1.00  0.00    -0.237 OA
ATOM     64  O   UNL     1       4.571   8.926   9.335  1.00  0.00    -0.237 OA
ATOM     65  O   UNL     1       3.671  10.508   7.690  1.00  0.00    -0.744 OA
ENDBRANCH  59  62
ENDBRANCH  41  55
BRANCH  42  66
ATOM     66  C   UNL     1       2.796   8.932  -4.944  1.00  0.00     0.023 A 
ATOM     67  C   UNL     1       3.686   8.331  -5.853  1.00  0.00     0.012 A 
ATOM     68  C   UNL     1       1.744   9.730  -5.438  1.00  0.00     0.148 A 
ATOM     69  C   UNL     1       3.541   8.529  -7.226  1.00  0.00     0.002 A 
ATOM     70  C   UNL     1       1.573   9.879  -6.809  1.00  0.00     0.091 A 
ATOM     71  F   UNL     1       0.924  10.318  -4.555  1.00  0.00    -0.205 F 
ATOM     72  C   UNL     1       2.478   9.290  -7.705  1.00  0.00     0.022 A 
BRANCH  70  73
ATOM     73  S   UNL     1       0.154  10.732  -7.507  1.00  0.00     0.127 S 
ATOM     74  O   UNL     1       0.746  11.995  -7.938  1.00  0.00    -0.237 OA
ATOM     75  O   UNL     1      -0.239   9.833  -8.593  1.00  0.00    -0.237 OA
ATOM     76  O   UNL     1      -0.817  10.820  -6.425  1.00  0.00    -0.744 OA
ENDBRANCH  70  73
ENDBRANCH  42  66
BRANCH  54  77
ATOM     77  C   UNL     1       7.638  10.661  -0.218  1.00  0.00     0.023 A 
ATOM     78  C   UNL     1       7.543  12.065  -0.280  1.00  0.00     0.012 A 
ATOM     79  C   UNL     1       8.907  10.054  -0.158  1.00  0.00     0.148 A 
ATOM     80  C   UNL     1       8.694  12.852  -0.303  1.00  0.00     0.002 A 
ATOM     81  C   UNL     1      10.049  10.848  -0.142  1.00  0.00     0.091 A 
ATOM     82  F   UNL     1       8.978   8.716  -0.124  1.00  0.00    -0.205 F 
ATOM     83  C   UNL     1       9.945  12.246  -0.223  1.00  0.00     0.022 A 
BRANCH  81  84
ATOM     84  S   UNL     1      11.694  10.149   0.045  1.00  0.00     0.127 S 
ATOM     85  O   UNL     1      12.191  10.181  -1.328  1.00  0.00    -0.237 OA
ATOM     86  O   UNL     1      12.341  11.100   0.950  1.00  0.00    -0.237 OA
ATOM     87  O   UNL     1      11.496   8.822   0.614  1.00  0.00    -0.744 OA
ENDBRANCH  81  84
ENDBRANCH  54  77
ENDBRANCH  28  29
ENDBRANCH  21  23
ENDBRANCH  20  21
ENDBRANCH  19  20
ENDBRANCH   1  19
TORSDOF 19
