REMARK SMILES CCCNC(=O)CN(C)C(=O)c1csc(/C=C/C(=O)OCCOC(=O)c2ccc(-c3c4nc(c(-c5cccc(S(=O)(=O)[O-])c5F)c5ccc([nH]5)c(-c5cccc(S(=O)(=O)[O-])c5F)c5nc(c(-c6cccc(S(=O)(=O)[O-])c6F)c6ccc3[nH]6)C=C5)C=C4)cc2)c1
REMARK SMILES IDX 18 1 19 2 17 3 16 4 15 5 12 6 13 7 89 8 14 9 10 10 11 11
REMARK SMILES IDX 8 12 9 13 7 14 5 15 4 16 6 18 3 19 2 20 1 21 20 22 21 23
REMARK SMILES IDX 22 24 23 25 24 26 25 27 26 28 27 29 88 30 28 31 87 32 29 33
REMARK SMILES IDX 30 34 31 35 81 36 32 37 86 38 80 39 82 40 33 41 85 42 79 43
REMARK SMILES IDX 78 44 34 46 66 47 46 48 65 49 47 50 50 51 64 52 83 53 48 54
REMARK SMILES IDX 49 55 63 57 84 58 51 59 35 60 36 61 44 62 37 63 39 64 45 65
REMARK SMILES IDX 38 66 40 67 41 68 42 69 43 70 67 71 68 72 76 73 69 74 71 75
REMARK SMILES IDX 77 76 70 77 72 78 73 79 74 80 75 81 52 82 53 83 61 84 54 85
REMARK SMILES IDX 56 86 62 87 55 88 57 89 58 90 59 91 60 92
REMARK H PARENT 4 17 82 45 50 56
REMARK Flexibility Score: inf
ROOT
ATOM      1  C   UNL     1      -6.875  -2.296   3.264  1.00  0.00     0.330 C 
ATOM      2  O   UNL     1      -7.890  -2.494   3.916  1.00  0.00    -0.247 OA
ENDROOT
BRANCH   1   3
ATOM      3  C   UNL     1      -6.278  -0.950   3.174  1.00  0.00     0.095 C 
ATOM      4  C   UNL     1      -5.176  -0.640   2.474  1.00  0.00     0.026 C 
BRANCH   4   5
ATOM      5  C   UNL     1      -4.618   0.675   2.456  1.00  0.00     0.028 A 
ATOM      6  C   UNL     1      -3.422   2.590   1.725  1.00  0.00     0.051 A 
ATOM      7  C   UNL     1      -3.861   2.986   2.971  1.00  0.00     0.079 A 
ATOM      8  C   UNL     1      -3.897   1.264   1.432  1.00  0.00     0.033 A 
ATOM      9  S   UNL     1      -4.714   1.756   3.793  1.00  0.00    -0.144 S 
BRANCH   6  10
ATOM     10  C   UNL     1      -2.672   3.400   0.764  1.00  0.00     0.254 C 
ATOM     11  O   UNL     1      -3.040   3.431  -0.409  1.00  0.00    -0.269 OA
BRANCH  10  12
ATOM     12  N   UNL     1      -1.504   4.053   1.173  1.00  0.00    -0.332 N 
ATOM     13  C   UNL     1      -1.038   4.152   2.548  1.00  0.00     0.147 C 
BRANCH  12  14
ATOM     14  C   UNL     1      -0.826   4.856   0.153  1.00  0.00     0.219 C 
BRANCH  14  15
ATOM     15  C   UNL     1      -0.219   4.064  -1.022  1.00  0.00     0.239 C 
ATOM     16  N   UNL     1       0.574   2.970  -0.817  1.00  0.00    -0.355 N 
ATOM     17  H   UNL     1       0.787   2.451  -1.626  1.00  0.00     0.163 HD
ATOM     18  O   UNL     1      -0.291   4.491  -2.180  1.00  0.00    -0.273 OA
BRANCH  16  19
ATOM     19  C   UNL     1       1.148   2.458   0.409  1.00  0.00     0.115 C 
BRANCH  19  20
ATOM     20  C   UNL     1       0.493   1.165   0.884  1.00  0.00     0.018 C 
ATOM     21  C   UNL     1       0.853  -0.025   0.005  1.00  0.00     0.006 C 
ENDBRANCH  19  20
ENDBRANCH  16  19
ENDBRANCH  14  15
ENDBRANCH  12  14
ENDBRANCH  10  12
ENDBRANCH   6  10
ENDBRANCH   4   5
ENDBRANCH   1   3
BRANCH   1  22
ATOM     22  O   UNL     1      -6.156  -3.236   2.605  1.00  0.00    -0.459 OA
BRANCH  22  23
ATOM     23  C   UNL     1      -6.582  -4.596   2.806  1.00  0.00     0.275 C 
BRANCH  23  24
ATOM     24  C   UNL     1      -5.691  -5.319   3.822  1.00  0.00     0.275 C 
BRANCH  24  25
ATOM     25  O   UNL     1      -5.806  -4.759   5.142  1.00  0.00    -0.458 OA
BRANCH  25  26
ATOM     26  C   UNL     1      -4.928  -3.765   5.421  1.00  0.00     0.338 C 
ATOM     27  O   UNL     1      -4.056  -3.334   4.683  1.00  0.00    -0.246 OA
BRANCH  26  28
ATOM     28  C   UNL     1      -5.227  -3.168   6.737  1.00  0.00     0.060 A 
ATOM     29  C   UNL     1      -5.279  -1.773   6.823  1.00  0.00     0.016 A 
ATOM     30  C   UNL     1      -5.375  -3.952   7.885  1.00  0.00     0.016 A 
ATOM     31  C   UNL     1      -5.462  -1.156   8.060  1.00  0.00     0.010 A 
ATOM     32  C   UNL     1      -5.555  -3.330   9.126  1.00  0.00     0.010 A 
ATOM     33  C   UNL     1      -5.580  -1.928   9.224  1.00  0.00    -0.014 A 
BRANCH  33  34
ATOM     34  C   UNL     1      -5.674  -1.255  10.543  1.00  0.00     0.031 A 
ATOM     35  C   UNL     1      -4.476  -1.205  11.450  1.00  0.00     0.074 A 
ATOM     36  C   UNL     1      -6.830  -0.679  10.921  1.00  0.00     0.049 A 
ATOM     37  N   UNL     1      -4.353  -0.641  12.624  1.00  0.00    -0.248 NA
ATOM     38  C   UNL     1      -3.257  -1.879  10.976  1.00  0.00     0.031 C 
ATOM     39  C   UNL     1      -8.065  -0.674  10.137  1.00  0.00     0.029 A 
ATOM     40  N   UNL     1      -7.157   0.002  12.068  1.00  0.00    -0.354 N 
ATOM     41  C   UNL     1      -3.055  -0.910  13.041  1.00  0.00     0.074 A 
ATOM     42  C   UNL     1      -2.433  -1.699  12.000  1.00  0.00     0.031 C 
ATOM     43  C   UNL     1      -9.020  -0.033  10.831  1.00  0.00     0.029 A 
ATOM     44  C   UNL     1      -8.471   0.403  12.114  1.00  0.00     0.049 A 
ATOM     45  H   UNL     1      -6.511   0.186  12.788  1.00  0.00     0.167 HD
ATOM     46  C   UNL     1      -2.432  -0.517  14.178  1.00  0.00     0.034 A 
ATOM     47  C   UNL     1      -9.157   1.042  13.082  1.00  0.00     0.034 A 
ATOM     48  C   UNL     1      -3.042   0.290  15.201  1.00  0.00     0.049 A 
ATOM     49  C   UNL     1      -8.438   1.470  14.334  1.00  0.00     0.074 A 
ATOM     50  C   UNL     1      -2.473   0.780  16.364  1.00  0.00     0.029 A 
ATOM     51  N   UNL     1      -4.359   0.721  15.189  1.00  0.00    -0.354 N 
ATOM     52  N   UNL     1      -7.174   1.324  14.651  1.00  0.00    -0.248 NA
ATOM     53  C   UNL     1      -9.231   2.182  15.347  1.00  0.00     0.031 C 
ATOM     54  C   UNL     1      -3.452   1.494  17.063  1.00  0.00     0.029 A 
ATOM     55  C   UNL     1      -4.625   1.465  16.326  1.00  0.00     0.049 A 
ATOM     56  H   UNL     1      -5.010   0.527  14.476  1.00  0.00     0.167 HD
ATOM     57  C   UNL     1      -7.012   1.954  15.880  1.00  0.00     0.074 A 
ATOM     58  C   UNL     1      -8.304   2.501  16.241  1.00  0.00     0.031 C 
ATOM     59  C   UNL     1      -5.899   2.055  16.648  1.00  0.00     0.034 A 
BRANCH  46  60
ATOM     60  C   UNL     1      -0.992  -0.921  14.360  1.00  0.00     0.023 A 
ATOM     61  C   UNL     1       0.009  -0.266  13.616  1.00  0.00     0.012 A 
ATOM     62  C   UNL     1      -0.624  -1.898  15.306  1.00  0.00     0.148 A 
ATOM     63  C   UNL     1       1.353  -0.594  13.791  1.00  0.00     0.002 A 
ATOM     64  C   UNL     1       0.720  -2.194  15.502  1.00  0.00     0.091 A 
ATOM     65  F   UNL     1      -1.593  -2.526  15.988  1.00  0.00    -0.205 F 
ATOM     66  C   UNL     1       1.709  -1.550  14.739  1.00  0.00     0.022 A 
BRANCH  64  67
ATOM     67  S   UNL     1       1.281  -3.358  16.749  1.00  0.00     0.127 S 
ATOM     68  O   UNL     1       1.661  -4.508  15.930  1.00  0.00    -0.237 OA
ATOM     69  O   UNL     1       2.406  -2.645  17.357  1.00  0.00    -0.237 OA
ATOM     70  O   UNL     1       0.147  -3.567  17.638  1.00  0.00    -0.744 OA
ENDBRANCH  64  67
ENDBRANCH  46  60
BRANCH  47  71
ATOM     71  C   UNL     1     -10.597   1.367  12.879  1.00  0.00     0.023 A 
ATOM     72  C   UNL     1     -10.985   2.707  12.691  1.00  0.00     0.012 A 
ATOM     73  C   UNL     1     -11.576   0.356  12.841  1.00  0.00     0.148 A 
ATOM     74  C   UNL     1     -12.327   3.037  12.494  1.00  0.00     0.002 A 
ATOM     75  C   UNL     1     -12.903   0.686  12.592  1.00  0.00     0.091 A 
ATOM     76  F   UNL     1     -11.189  -0.912  13.045  1.00  0.00    -0.205 F 
ATOM     77  C   UNL     1     -13.283   2.027  12.432  1.00  0.00     0.022 A 
BRANCH  75  78
ATOM     78  S   UNL     1     -14.175  -0.563  12.371  1.00  0.00     0.127 S 
ATOM     79  O   UNL     1     -14.915  -0.461  13.626  1.00  0.00    -0.237 OA
ATOM     80  O   UNL     1     -14.889  -0.068  11.193  1.00  0.00    -0.237 OA
ATOM     81  O   UNL     1     -13.460  -1.813  12.155  1.00  0.00    -0.744 OA
ENDBRANCH  75  78
ENDBRANCH  47  71
BRANCH  59  82
ATOM     82  C   UNL     1      -6.009   2.812  17.946  1.00  0.00     0.023 A 
ATOM     83  C   UNL     1      -6.678   2.227  19.039  1.00  0.00     0.012 A 
ATOM     84  C   UNL     1      -5.384   4.064  18.107  1.00  0.00     0.148 A 
ATOM     85  C   UNL     1      -6.746   2.889  20.265  1.00  0.00     0.002 A 
ATOM     86  C   UNL     1      -5.419   4.698  19.344  1.00  0.00     0.091 A 
ATOM     87  F   UNL     1      -4.771   4.615  17.049  1.00  0.00    -0.205 F 
ATOM     88  C   UNL     1      -6.107   4.117  20.421  1.00  0.00     0.022 A 
BRANCH  86  89
ATOM     89  S   UNL     1      -4.545   6.237  19.657  1.00  0.00     0.127 S 
ATOM     90  O   UNL     1      -5.637   7.208  19.648  1.00  0.00    -0.237 OA
ATOM     91  O   UNL     1      -3.951   5.998  20.974  1.00  0.00    -0.237 OA
ATOM     92  O   UNL     1      -3.575   6.370  18.577  1.00  0.00    -0.744 OA
ENDBRANCH  86  89
ENDBRANCH  59  82
ENDBRANCH  33  34
ENDBRANCH  26  28
ENDBRANCH  25  26
ENDBRANCH  24  25
ENDBRANCH  23  24
ENDBRANCH  22  23
ENDBRANCH   1  22
TORSDOF 21
