REMARK SMILES NC(=O)C[C@@H](NC(=O)c1ccc(CO)cc1)C(=O)OCCOC(=O)c1ccc(-c2c3nc(c(-c4cccc(S(=O)(=O)[O-])c4F)c4ccc([nH]4)c(-c4cccc(S(=O)(=O)[O-])c4F)c4nc(c(-c5cccc(S(=O)(=O)[O-])c5F)c5ccc2[nH]5)C=C4)C=C3)cc1
REMARK SMILES IDX 20 1 19 2 17 3 18 4 5 5 4 6 2 7 1 8 3 11 6 12 7 13 8 15 9 16
REMARK SMILES IDX 10 17 16 18 11 19 15 20 12 21 13 22 14 23 21 25 22 26 23 27
REMARK SMILES IDX 24 28 25 29 26 30 87 31 27 32 86 33 28 34 29 35 30 36 80 37
REMARK SMILES IDX 31 38 85 39 79 40 81 41 32 42 84 43 78 44 77 45 33 47 65 48
REMARK SMILES IDX 45 49 64 50 46 51 49 52 63 53 82 54 47 55 48 56 62 58 83 59
REMARK SMILES IDX 50 60 34 61 35 62 43 63 36 64 38 65 44 66 37 67 39 68 40 69
REMARK SMILES IDX 41 70 42 71 66 72 67 73 75 74 68 75 70 76 76 77 69 78 71 79
REMARK SMILES IDX 72 80 73 81 74 82 51 83 52 84 60 85 53 86 55 87 61 88 54 89
REMARK SMILES IDX 56 90 57 91 58 92 59 93
REMARK H PARENT 1 9 1 10 6 14 14 24 81 46 49 57
REMARK Flexibility Score: inf
ROOT
ATOM      1  C   UNL     1       3.490  -0.285  -5.862  1.00  0.00     0.274 C 
ENDROOT
BRANCH   1   2
ATOM      2  O   UNL     1       3.051  -0.334  -4.488  1.00  0.00    -0.461 OA
BRANCH   2   3
ATOM      3  C   UNL     1       2.848   0.878  -3.903  1.00  0.00     0.329 C 
ATOM      4  O   UNL     1       2.947   1.950  -4.490  1.00  0.00    -0.250 OA
BRANCH   3   5
ATOM      5  C   UNL     1       2.566   0.802  -2.398  1.00  0.00     0.201 C 
BRANCH   5   6
ATOM      6  C   UNL     1       1.602  -0.355  -2.104  1.00  0.00     0.136 C 
BRANCH   6   7
ATOM      7  C   UNL     1       0.686   0.014  -0.967  1.00  0.00     0.220 C 
ATOM      8  N   UNL     1       1.138  -0.301   0.280  1.00  0.00    -0.370 N 
ATOM      9  H   UNL     1       0.590  -0.088   1.070  1.00  0.00     0.159 HD
ATOM     10  H   UNL     1       2.011  -0.742   0.390  1.00  0.00     0.159 HD
ATOM     11  O   UNL     1      -0.375   0.603  -1.123  1.00  0.00    -0.275 OA
ENDBRANCH   6   7
ENDBRANCH   5   6
BRANCH   5  12
ATOM     12  N   UNL     1       3.709   0.766  -1.453  1.00  0.00    -0.338 N 
ATOM     13  C   UNL     1       4.956   1.334  -1.505  1.00  0.00     0.251 C 
ATOM     14  H   UNL     1       3.542   0.237  -0.640  1.00  0.00     0.164 HD
ATOM     15  O   UNL     1       5.590   1.515  -0.470  1.00  0.00    -0.269 OA
BRANCH  13  16
ATOM     16  C   UNL     1       5.606   1.558  -2.801  1.00  0.00     0.039 A 
ATOM     17  C   UNL     1       6.340   0.506  -3.357  1.00  0.00     0.014 A 
ATOM     18  C   UNL     1       5.465   2.768  -3.478  1.00  0.00     0.014 A 
ATOM     19  C   UNL     1       6.841   0.628  -4.652  1.00  0.00     0.007 A 
ATOM     20  C   UNL     1       5.943   2.874  -4.787  1.00  0.00     0.007 A 
ATOM     21  C   UNL     1       6.589   1.788  -5.400  1.00  0.00    -0.023 A 
BRANCH  21  22
ATOM     22  C   UNL     1       6.955   1.836  -6.859  1.00  0.00     0.191 C 
BRANCH  22  23
ATOM     23  O   UNL     1       8.328   2.147  -7.015  1.00  0.00    -0.392 OA
ATOM     24  H   UNL     1       8.509   3.015  -6.622  1.00  0.00     0.211 HD
ENDBRANCH  22  23
ENDBRANCH  21  22
ENDBRANCH  13  16
ENDBRANCH   5  12
ENDBRANCH   3   5
ENDBRANCH   2   3
ENDBRANCH   1   2
BRANCH   1  25
ATOM     25  C   UNL     1       2.360  -0.253  -6.899  1.00  0.00     0.275 C 
BRANCH  25  26
ATOM     26  O   UNL     1       1.655   1.001  -6.911  1.00  0.00    -0.458 OA
BRANCH  26  27
ATOM     27  C   UNL     1       0.609   1.064  -6.050  1.00  0.00     0.338 C 
ATOM     28  O   UNL     1       0.196   0.148  -5.356  1.00  0.00    -0.246 OA
BRANCH  27  29
ATOM     29  C   UNL     1       0.124   2.452  -5.912  1.00  0.00     0.060 A 
ATOM     30  C   UNL     1      -0.112   2.923  -4.613  1.00  0.00     0.016 A 
ATOM     31  C   UNL     1      -0.158   3.256  -7.017  1.00  0.00     0.016 A 
ATOM     32  C   UNL     1      -0.657   4.187  -4.412  1.00  0.00     0.010 A 
ATOM     33  C   UNL     1      -0.725   4.520  -6.815  1.00  0.00     0.010 A 
ATOM     34  C   UNL     1      -1.002   4.976  -5.514  1.00  0.00    -0.014 A 
BRANCH  34  35
ATOM     35  C   UNL     1      -1.792   6.210  -5.302  1.00  0.00     0.031 A 
ATOM     36  C   UNL     1      -3.279   6.162  -5.517  1.00  0.00     0.074 A 
ATOM     37  C   UNL     1      -1.195   7.350  -4.911  1.00  0.00     0.049 A 
ATOM     38  N   UNL     1      -4.157   7.127  -5.451  1.00  0.00    -0.248 NA
ATOM     39  C   UNL     1      -3.852   4.848  -5.855  1.00  0.00     0.031 C 
ATOM     40  C   UNL     1       0.234   7.505  -4.646  1.00  0.00     0.029 A 
ATOM     41  N   UNL     1      -1.718   8.600  -4.693  1.00  0.00    -0.354 N 
ATOM     42  C   UNL     1      -5.378   6.549  -5.776  1.00  0.00     0.074 A 
ATOM     43  C   UNL     1      -5.129   5.148  -6.039  1.00  0.00     0.031 C 
ATOM     44  C   UNL     1       0.481   8.789  -4.332  1.00  0.00     0.029 A 
ATOM     45  C   UNL     1      -0.766   9.548  -4.403  1.00  0.00     0.049 A 
ATOM     46  H   UNL     1      -2.681   8.798  -4.740  1.00  0.00     0.167 HD
ATOM     47  C   UNL     1      -6.598   7.131  -5.838  1.00  0.00     0.034 A 
ATOM     48  C   UNL     1      -0.887  10.880  -4.241  1.00  0.00     0.034 A 
ATOM     49  C   UNL     1      -6.843   8.517  -5.544  1.00  0.00     0.049 A 
ATOM     50  C   UNL     1      -2.255  11.507  -4.333  1.00  0.00     0.074 A 
ATOM     51  C   UNL     1      -8.048   9.195  -5.541  1.00  0.00     0.029 A 
ATOM     52  N   UNL     1      -5.862   9.437  -5.207  1.00  0.00    -0.354 N 
ATOM     53  N   UNL     1      -3.414  10.932  -4.545  1.00  0.00    -0.248 NA
ATOM     54  C   UNL     1      -2.336  12.962  -4.134  1.00  0.00     0.031 C 
ATOM     55  C   UNL     1      -7.793  10.533  -5.221  1.00  0.00     0.029 A 
ATOM     56  C   UNL     1      -6.432  10.681  -5.003  1.00  0.00     0.049 A 
ATOM     57  H   UNL     1      -4.902   9.235  -5.126  1.00  0.00     0.167 HD
ATOM     58  C   UNL     1      -4.364  11.945  -4.473  1.00  0.00     0.074 A 
ATOM     59  C   UNL     1      -3.646  13.168  -4.178  1.00  0.00     0.031 C 
ATOM     60  C   UNL     1      -5.707  11.876  -4.652  1.00  0.00     0.034 A 
BRANCH  47  61
ATOM     61  C   UNL     1      -7.766   6.263  -6.222  1.00  0.00     0.023 A 
ATOM     62  C   UNL     1      -8.282   5.335  -5.295  1.00  0.00     0.012 A 
ATOM     63  C   UNL     1      -8.381   6.399  -7.482  1.00  0.00     0.148 A 
ATOM     64  C   UNL     1      -9.374   4.535  -5.627  1.00  0.00     0.002 A 
ATOM     65  C   UNL     1      -9.494   5.626  -7.790  1.00  0.00     0.091 A 
ATOM     66  F   UNL     1      -7.859   7.268  -8.358  1.00  0.00    -0.205 F 
ATOM     67  C   UNL     1      -9.986   4.687  -6.868  1.00  0.00     0.022 A 
BRANCH  65  68
ATOM     68  S   UNL     1     -10.393   5.800  -9.336  1.00  0.00     0.127 S 
ATOM     69  O   UNL     1     -10.020   4.570 -10.034  1.00  0.00    -0.237 OA
ATOM     70  O   UNL     1     -11.783   5.844  -8.881  1.00  0.00    -0.237 OA
ATOM     71  O   UNL     1      -9.914   7.034  -9.942  1.00  0.00    -0.744 OA
ENDBRANCH  65  68
ENDBRANCH  47  61
BRANCH  48  72
ATOM     72  C   UNL     1       0.318  11.708  -3.952  1.00  0.00     0.023 A 
ATOM     73  C   UNL     1       0.467  12.304  -2.685  1.00  0.00     0.012 A 
ATOM     74  C   UNL     1       1.329  11.887  -4.918  1.00  0.00     0.148 A 
ATOM     75  C   UNL     1       1.586  13.085  -2.393  1.00  0.00     0.002 A 
ATOM     76  C   UNL     1       2.467  12.620  -4.602  1.00  0.00     0.091 A 
ATOM     77  F   UNL     1       1.160  11.332  -6.126  1.00  0.00    -0.205 F 
ATOM     78  C   UNL     1       2.591  13.233  -3.346  1.00  0.00     0.022 A 
BRANCH  76  79
ATOM     79  S   UNL     1       3.866  12.751  -5.722  1.00  0.00     0.127 S 
ATOM     80  O   UNL     1       3.753  14.132  -6.182  1.00  0.00    -0.237 OA
ATOM     81  O   UNL     1       4.996  12.488  -4.830  1.00  0.00    -0.237 OA
ATOM     82  O   UNL     1       3.653  11.725  -6.734  1.00  0.00    -0.744 OA
ENDBRANCH  76  79
ENDBRANCH  48  72
BRANCH  60  83
ATOM     83  C   UNL     1      -6.500  13.147  -4.500  1.00  0.00     0.023 A 
ATOM     84  C   UNL     1      -6.446  14.129  -5.509  1.00  0.00     0.012 A 
ATOM     85  C   UNL     1      -7.365  13.329  -3.402  1.00  0.00     0.148 A 
ATOM     86  C   UNL     1      -7.219  15.285  -5.413  1.00  0.00     0.002 A 
ATOM     87  C   UNL     1      -8.166  14.462  -3.337  1.00  0.00     0.091 A 
ATOM     88  F   UNL     1      -7.388  12.391  -2.444  1.00  0.00    -0.205 F 
ATOM     89  C   UNL     1      -8.087  15.446  -4.336  1.00  0.00     0.022 A 
BRANCH  87  90
ATOM     90  S   UNL     1      -9.382  14.705  -2.037  1.00  0.00     0.127 S 
ATOM     91  O   UNL     1      -8.736  15.724  -1.212  1.00  0.00    -0.237 OA
ATOM     92  O   UNL     1     -10.550  15.174  -2.784  1.00  0.00    -0.237 OA
ATOM     93  O   UNL     1      -9.556  13.404  -1.404  1.00  0.00    -0.744 OA
ENDBRANCH  87  90
ENDBRANCH  60  83
ENDBRANCH  34  35
ENDBRANCH  27  29
ENDBRANCH  26  27
ENDBRANCH  25  26
ENDBRANCH   1  25
TORSDOF 20
