REMARK SMILES COc1ccc(NC(=O)[C@@H]2[C@@H](C(=O)OCCOC(=O)c3ccc(-c4c5nc(c(-c6cccc(S(=O)(=O)[O-])c6F)c6ccc([nH]6)c(-c6cccc(S(=O)(=O)[O-])c6F)c6nc(c(-c7cccc(S(=O)(=O)[O-])c7F)c7ccc4[nH]7)C=C6)C=C5)cc3)[C@H]3C=C[C@@H]2C3)cc1O
REMARK SMILES IDX 15 1 14 2 12 3 13 4 11 5 10 6 86 7 83 8 85 9 87 10 84 11
REMARK SMILES IDX 8 12 7 13 9 15 6 16 3 17 4 18 89 19 5 20 88 21 2 22 1 23
REMARK SMILES IDX 90 24 16 26 17 27 18 28 19 29 20 30 21 31 82 32 22 33 81 34
REMARK SMILES IDX 23 35 24 36 25 37 75 38 26 39 80 40 74 41 76 42 27 43 79 44
REMARK SMILES IDX 73 45 72 46 28 48 60 49 40 50 59 51 41 52 44 53 58 54 77 55
REMARK SMILES IDX 42 56 43 57 57 59 78 60 45 61 29 62 30 63 38 64 31 65 33 66
REMARK SMILES IDX 39 67 32 68 34 69 35 70 36 71 37 72 61 73 62 74 70 75 63 76
REMARK SMILES IDX 65 77 71 78 64 79 66 80 67 81 68 82 69 83 46 84 47 85 55 86
REMARK SMILES IDX 48 87 50 88 56 89 49 90 51 91 52 92 53 93 54 94
REMARK H PARENT 7 14 90 25 76 47 44 58
REMARK Flexibility Score: inf
ROOT
ATOM      1  C   UNL     1      -3.862  -2.918   6.106  1.00  0.00     0.274 C 
ENDROOT
BRANCH   1   2
ATOM      2  O   UNL     1      -2.429  -3.040   6.090  1.00  0.00    -0.462 OA
BRANCH   2   3
ATOM      3  C   UNL     1      -1.900  -4.139   5.489  1.00  0.00     0.310 C 
ATOM      4  O   UNL     1      -2.553  -5.083   5.063  1.00  0.00    -0.252 OA
BRANCH   3   5
ATOM      5  C   UNL     1      -0.405  -3.979   5.262  1.00  0.00     0.119 C 
ATOM      6  C   UNL     1       0.353  -5.323   5.284  1.00  0.00     0.100 C 
ATOM      7  C   UNL     1       1.363  -5.154   6.453  1.00  0.00     0.025 C 
ATOM      8  C   UNL     1       0.345  -3.170   6.360  1.00  0.00     0.027 C 
ATOM      9  C   UNL     1       0.601  -4.979   7.751  1.00  0.00    -0.027 C 
ATOM     10  C   UNL     1       1.786  -3.701   6.263  1.00  0.00     0.017 C 
ATOM     11  C   UNL     1       0.018  -3.772   7.710  1.00  0.00    -0.027 C 
BRANCH   6  12
ATOM     12  C   UNL     1       1.075  -5.863   4.053  1.00  0.00     0.228 C 
ATOM     13  N   UNL     1       1.473  -5.271   2.905  1.00  0.00    -0.326 N 
ATOM     14  H   UNL     1       1.840  -5.961   2.307  1.00  0.00     0.169 HD
ATOM     15  O   UNL     1       1.373  -7.074   4.099  1.00  0.00    -0.274 OA
BRANCH  13  16
ATOM     16  C   UNL     1       1.552  -4.023   2.256  1.00  0.00     0.045 A 
ATOM     17  C   UNL     1       1.489  -1.694   0.650  1.00  0.00     0.160 A 
ATOM     18  C   UNL     1       1.355  -1.603   2.027  1.00  0.00     0.052 A 
ATOM     19  C   UNL     1       1.726  -2.934   0.075  1.00  0.00     0.159 A 
ATOM     20  C   UNL     1       1.418  -2.759   2.820  1.00  0.00     0.030 A 
ATOM     21  C   UNL     1       1.780  -4.083   0.868  1.00  0.00     0.076 A 
BRANCH  17  22
ATOM     22  O   UNL     1       1.216  -0.592  -0.104  1.00  0.00    -0.493 OA
ATOM     23  C   UNL     1       2.398   0.081  -0.526  1.00  0.00     0.278 C 
ENDBRANCH  17  22
BRANCH  19  24
ATOM     24  O   UNL     1       1.820  -3.095  -1.276  1.00  0.00    -0.504 OA
ATOM     25  H   UNL     1       1.788  -2.348  -1.840  1.00  0.00     0.293 HD
ENDBRANCH  19  24
ENDBRANCH  13  16
ENDBRANCH   6  12
ENDBRANCH   3   5
ENDBRANCH   2   3
ENDBRANCH   1   2
BRANCH   1  26
ATOM     26  C   UNL     1      -4.275  -1.645   5.362  1.00  0.00     0.275 C 
BRANCH  26  27
ATOM     27  O   UNL     1      -4.098  -1.784   3.940  1.00  0.00    -0.458 OA
BRANCH  27  28
ATOM     28  C   UNL     1      -2.868  -1.467   3.477  1.00  0.00     0.338 C 
ATOM     29  O   UNL     1      -1.908  -1.069   4.123  1.00  0.00    -0.246 OA
BRANCH  28  30
ATOM     30  C   UNL     1      -2.787  -1.761   2.042  1.00  0.00     0.060 A 
ATOM     31  C   UNL     1      -1.970  -2.812   1.639  1.00  0.00     0.016 A 
ATOM     32  C   UNL     1      -3.400  -0.938   1.097  1.00  0.00     0.016 A 
ATOM     33  C   UNL     1      -1.687  -2.981   0.287  1.00  0.00     0.010 A 
ATOM     34  C   UNL     1      -3.148  -1.147  -0.267  1.00  0.00     0.010 A 
ATOM     35  C   UNL     1      -2.243  -2.136  -0.687  1.00  0.00    -0.014 A 
BRANCH  35  36
ATOM     36  C   UNL     1      -1.846  -2.301  -2.117  1.00  0.00     0.031 A 
ATOM     37  C   UNL     1      -1.176  -1.187  -2.886  1.00  0.00     0.074 A 
ATOM     38  C   UNL     1      -2.050  -3.484  -2.733  1.00  0.00     0.049 A 
ATOM     39  N   UNL     1      -0.707  -1.200  -4.110  1.00  0.00    -0.248 NA
ATOM     40  C   UNL     1      -0.988   0.099  -2.197  1.00  0.00     0.031 C 
ATOM     41  C   UNL     1      -2.695  -4.648  -2.125  1.00  0.00     0.029 A 
ATOM     42  N   UNL     1      -1.746  -3.901  -4.007  1.00  0.00    -0.354 N 
ATOM     43  C   UNL     1      -0.196   0.071  -4.344  1.00  0.00     0.074 A 
ATOM     44  C   UNL     1      -0.412   0.837  -3.136  1.00  0.00     0.031 C 
ATOM     45  C   UNL     1      -2.734  -5.646  -3.018  1.00  0.00     0.029 A 
ATOM     46  C   UNL     1      -2.175  -5.178  -4.282  1.00  0.00     0.049 A 
ATOM     47  H   UNL     1      -1.268  -3.339  -4.659  1.00  0.00     0.167 HD
ATOM     48  C   UNL     1       0.419   0.558  -5.450  1.00  0.00     0.034 A 
ATOM     49  C   UNL     1      -2.162  -5.890  -5.426  1.00  0.00     0.034 A 
ATOM     50  C   UNL     1       0.636  -0.183  -6.663  1.00  0.00     0.049 A 
ATOM     51  C   UNL     1      -1.549  -5.300  -6.662  1.00  0.00     0.074 A 
ATOM     52  C   UNL     1       1.300   0.220  -7.810  1.00  0.00     0.029 A 
ATOM     53  N   UNL     1       0.167  -1.464  -6.906  1.00  0.00    -0.354 N 
ATOM     54  N   UNL     1      -0.936  -4.151  -6.809  1.00  0.00    -0.248 NA
ATOM     55  C   UNL     1      -1.611  -6.110  -7.887  1.00  0.00     0.031 C 
ATOM     56  C   UNL     1       1.203  -0.805  -8.758  1.00  0.00     0.029 A 
ATOM     57  C   UNL     1       0.494  -1.853  -8.195  1.00  0.00     0.049 A 
ATOM     58  H   UNL     1      -0.326  -2.017  -6.257  1.00  0.00     0.167 HD
ATOM     59  C   UNL     1      -0.528  -4.105  -8.137  1.00  0.00     0.074 A 
ATOM     60  C   UNL     1      -0.939  -5.354  -8.745  1.00  0.00     0.031 C 
ATOM     61  C   UNL     1       0.110  -3.106  -8.795  1.00  0.00     0.034 A 
BRANCH  48  62
ATOM     62  C   UNL     1       0.942   1.968  -5.386  1.00  0.00     0.023 A 
ATOM     63  C   UNL     1       2.152   2.221  -4.709  1.00  0.00     0.012 A 
ATOM     64  C   UNL     1       0.276   3.026  -6.035  1.00  0.00     0.148 A 
ATOM     65  C   UNL     1       2.682   3.510  -4.660  1.00  0.00     0.002 A 
ATOM     66  C   UNL     1       0.824   4.304  -6.004  1.00  0.00     0.091 A 
ATOM     67  F   UNL     1      -0.886   2.769  -6.650  1.00  0.00    -0.205 F 
ATOM     68  C   UNL     1       2.023   4.548  -5.313  1.00  0.00     0.022 A 
BRANCH  66  69
ATOM     69  S   UNL     1       0.070   5.692  -6.860  1.00  0.00     0.127 S 
ATOM     70  O   UNL     1      -0.579   6.399  -5.757  1.00  0.00    -0.237 OA
ATOM     71  O   UNL     1       1.232   6.380  -7.424  1.00  0.00    -0.237 OA
ATOM     72  O   UNL     1      -0.823   5.107  -7.849  1.00  0.00    -0.744 OA
ENDBRANCH  66  69
ENDBRANCH  48  62
BRANCH  49  73
ATOM     73  C   UNL     1      -2.767  -7.252  -5.436  1.00  0.00     0.023 A 
ATOM     74  C   UNL     1      -1.942  -8.384  -5.558  1.00  0.00     0.012 A 
ATOM     75  C   UNL     1      -4.153  -7.424  -5.248  1.00  0.00     0.148 A 
ATOM     76  C   UNL     1      -2.490  -9.667  -5.496  1.00  0.00     0.002 A 
ATOM     77  C   UNL     1      -4.681  -8.702  -5.121  1.00  0.00     0.091 A 
ATOM     78  F   UNL     1      -4.926  -6.331  -5.168  1.00  0.00    -0.205 F 
ATOM     79  C   UNL     1      -3.854  -9.826  -5.259  1.00  0.00     0.022 A 
BRANCH  77  80
ATOM     80  S   UNL     1      -6.394  -8.975  -4.653  1.00  0.00     0.127 S 
ATOM     81  O   UNL     1      -7.000  -9.334  -5.932  1.00  0.00    -0.237 OA
ATOM     82  O   UNL     1      -6.281 -10.073  -3.693  1.00  0.00    -0.237 OA
ATOM     83  O   UNL     1      -6.838  -7.717  -4.066  1.00  0.00    -0.744 OA
ENDBRANCH  77  80
ENDBRANCH  49  73
BRANCH  61  84
ATOM     84  C   UNL     1       0.400  -3.309 -10.258  1.00  0.00     0.023 A 
ATOM     85  C   UNL     1      -0.655  -3.230 -11.189  1.00  0.00     0.012 A 
ATOM     86  C   UNL     1       1.714  -3.514 -10.722  1.00  0.00     0.148 A 
ATOM     87  C   UNL     1      -0.412  -3.378 -12.554  1.00  0.00     0.002 A 
ATOM     88  C   UNL     1       1.956  -3.618 -12.088  1.00  0.00     0.091 A 
ATOM     89  F   UNL     1       2.704  -3.611  -9.822  1.00  0.00    -0.205 F 
ATOM     90  C   UNL     1       0.893  -3.560 -13.004  1.00  0.00     0.022 A 
BRANCH  88  91
ATOM     91  S   UNL     1       3.618  -3.763 -12.755  1.00  0.00     0.127 S 
ATOM     92  O   UNL     1       3.699  -5.191 -13.051  1.00  0.00    -0.237 OA
ATOM     93  O   UNL     1       3.562  -2.897 -13.934  1.00  0.00    -0.237 OA
ATOM     94  O   UNL     1       4.507  -3.285 -11.703  1.00  0.00    -0.744 OA
ENDBRANCH  88  91
ENDBRANCH  61  84
ENDBRANCH  35  36
ENDBRANCH  28  30
ENDBRANCH  27  28
ENDBRANCH  26  27
ENDBRANCH   1  26
TORSDOF 18
