REMARK SMILES CCOc1ccc(N2C[C@H](C(=O)OCCOC(=O)c3ccc(-c4c5nc(c(-c6cccc(S(=O)(=O)[O-])c6F)c6ccc([nH]6)c(-c6cccc(S(=O)(=O)[O-])c6F)c6nc(c(-c7cccc(S(=O)(=O)[O-])c7F)c7ccc4[nH]7)C=C6)C=C5)cc3)CC2=O)cc1C(F)(F)F
REMARK SMILES IDX 14 1 13 2 11 3 12 4 10 5 8 6 9 7 83 8 82 9 84 10 7 11 4 12
REMARK SMILES IDX 5 13 86 14 6 15 85 16 3 17 2 18 1 19 87 20 88 21 89 22 90 23
REMARK SMILES IDX 15 24 16 25 17 26 18 27 19 28 20 29 81 30 21 31 80 32 22 33
REMARK SMILES IDX 23 34 24 35 74 36 25 37 79 38 73 39 75 40 26 41 78 42 72 43
REMARK SMILES IDX 71 44 27 46 59 47 39 48 58 49 40 50 43 51 57 52 76 53 41 54
REMARK SMILES IDX 42 55 56 57 77 58 44 59 28 60 29 61 37 62 30 63 32 64 38 65
REMARK SMILES IDX 31 66 33 67 34 68 35 69 36 70 60 71 61 72 69 73 62 74 64 75
REMARK SMILES IDX 70 76 63 77 65 78 66 79 67 80 68 81 45 82 46 83 54 84 47 85
REMARK SMILES IDX 49 86 55 87 48 88 50 89 51 90 52 91 53 92
REMARK H PARENT 75 45 43 56
REMARK Flexibility Score: inf
ROOT
ATOM      1  C   UNL     1       8.925   4.997   5.582  1.00  0.00     0.274 C 
ENDROOT
BRANCH   1   2
ATOM      2  O   UNL     1       8.611   4.178   4.436  1.00  0.00    -0.462 OA
BRANCH   2   3
ATOM      3  C   UNL     1       9.209   2.960   4.396  1.00  0.00     0.311 C 
ATOM      4  O   UNL     1       9.934   2.506   5.272  1.00  0.00    -0.252 OA
BRANCH   3   5
ATOM      5  C   UNL     1       8.851   2.163   3.165  1.00  0.00     0.128 C 
ATOM      6  N   UNL     1       6.680   2.147   2.227  1.00  0.00    -0.312 N 
ATOM      7  C   UNL     1       7.465   1.567   3.282  1.00  0.00     0.141 C 
ATOM      8  C   UNL     1       7.432   2.999   1.421  1.00  0.00     0.227 C 
ATOM      9  C   UNL     1       8.867   2.959   1.875  1.00  0.00     0.117 C 
ATOM     10  O   UNL     1       7.063   3.681   0.475  1.00  0.00    -0.274 OA
BRANCH   6  11
ATOM     11  C   UNL     1       5.307   1.833   2.052  1.00  0.00     0.044 A 
ATOM     12  C   UNL     1       2.579   1.230   1.665  1.00  0.00     0.131 A 
ATOM     13  C   UNL     1       3.150   1.115   2.932  1.00  0.00     0.049 A 
ATOM     14  C   UNL     1       3.352   1.643   0.579  1.00  0.00     0.100 A 
ATOM     15  C   UNL     1       4.511   1.389   3.118  1.00  0.00     0.030 A 
ATOM     16  C   UNL     1       4.712   1.943   0.791  1.00  0.00     0.043 A 
BRANCH  12  17
ATOM     17  O   UNL     1       1.234   1.073   1.498  1.00  0.00    -0.493 OA
BRANCH  17  18
ATOM     18  C   UNL     1       0.766  -0.265   1.697  1.00  0.00     0.226 C 
ATOM     19  C   UNL     1       0.343  -0.825   0.350  1.00  0.00     0.049 C 
ENDBRANCH  17  18
ENDBRANCH  12  17
BRANCH  14  20
ATOM     20  C   UNL     1       2.801   1.695  -0.819  1.00  0.00     0.420 C 
ATOM     21  F   UNL     1       3.510   2.523  -1.643  1.00  0.00    -0.166 F 
ATOM     22  F   UNL     1       2.843   0.474  -1.428  1.00  0.00    -0.166 F 
ATOM     23  F   UNL     1       1.511   2.119  -0.919  1.00  0.00    -0.166 F 
ENDBRANCH  14  20
ENDBRANCH   6  11
ENDBRANCH   3   5
ENDBRANCH   2   3
ENDBRANCH   1   2
BRANCH   1  24
ATOM     24  C   UNL     1       7.779   5.016   6.590  1.00  0.00     0.275 C 
BRANCH  24  25
ATOM     25  O   UNL     1       7.548   3.697   7.116  1.00  0.00    -0.458 OA
BRANCH  25  26
ATOM     26  C   UNL     1       6.413   3.106   6.685  1.00  0.00     0.338 C 
ATOM     27  O   UNL     1       5.580   3.569   5.923  1.00  0.00    -0.246 OA
BRANCH  26  28
ATOM     28  C   UNL     1       6.307   1.733   7.196  1.00  0.00     0.060 A 
ATOM     29  C   UNL     1       7.130   0.741   6.664  1.00  0.00     0.016 A 
ATOM     30  C   UNL     1       5.236   1.395   8.021  1.00  0.00     0.016 A 
ATOM     31  C   UNL     1       6.798  -0.598   6.845  1.00  0.00     0.010 A 
ATOM     32  C   UNL     1       4.983   0.050   8.302  1.00  0.00     0.010 A 
ATOM     33  C   UNL     1       5.727  -0.964   7.675  1.00  0.00    -0.014 A 
BRANCH  33  34
ATOM     34  C   UNL     1       5.391  -2.400   7.888  1.00  0.00     0.031 A 
ATOM     35  C   UNL     1       4.008  -2.923   7.581  1.00  0.00     0.074 A 
ATOM     36  C   UNL     1       6.322  -3.233   8.396  1.00  0.00     0.049 A 
ATOM     37  N   UNL     1       3.495  -4.098   7.844  1.00  0.00    -0.248 NA
ATOM     38  C   UNL     1       3.073  -2.004   6.910  1.00  0.00     0.031 C 
ATOM     39  C   UNL     1       7.689  -2.853   8.760  1.00  0.00     0.029 A 
ATOM     40  N   UNL     1       6.256  -4.567   8.716  1.00  0.00    -0.354 N 
ATOM     41  C   UNL     1       2.162  -4.032   7.454  1.00  0.00     0.074 A 
ATOM     42  C   UNL     1       1.948  -2.708   6.911  1.00  0.00     0.031 C 
ATOM     43  C   UNL     1       8.333  -3.924   9.242  1.00  0.00     0.029 A 
ATOM     44  C   UNL     1       7.408  -5.049   9.293  1.00  0.00     0.049 A 
ATOM     45  H   UNL     1       5.461  -5.124   8.550  1.00  0.00     0.167 HD
ATOM     46  C   UNL     1       1.207  -4.989   7.536  1.00  0.00     0.034 A 
ATOM     47  C   UNL     1       7.685  -6.248   9.842  1.00  0.00     0.034 A 
ATOM     48  C   UNL     1       1.445  -6.333   7.991  1.00  0.00     0.049 A 
ATOM     49  C   UNL     1       6.626  -7.311   9.846  1.00  0.00     0.074 A 
ATOM     50  C   UNL     1       0.556  -7.394   8.037  1.00  0.00     0.029 A 
ATOM     51  N   UNL     1       2.656  -6.808   8.467  1.00  0.00    -0.354 N 
ATOM     52  N   UNL     1       5.400  -7.253   9.386  1.00  0.00    -0.248 NA
ATOM     53  C   UNL     1       6.993  -8.613  10.421  1.00  0.00     0.031 C 
ATOM     54  C   UNL     1       1.229  -8.509   8.546  1.00  0.00     0.029 A 
ATOM     55  C   UNL     1       2.540  -8.146   8.805  1.00  0.00     0.049 A 
ATOM     56  H   UNL     1       3.478  -6.273   8.553  1.00  0.00     0.167 HD
ATOM     57  C   UNL     1       4.858  -8.515   9.593  1.00  0.00     0.074 A 
ATOM     58  C   UNL     1       5.899  -9.325  10.191  1.00  0.00     0.031 C 
ATOM     59  C   UNL     1       3.603  -8.957   9.336  1.00  0.00     0.034 A 
BRANCH  46  60
ATOM     60  C   UNL     1      -0.191  -4.644   7.095  1.00  0.00     0.023 A 
ATOM     61  C   UNL     1      -0.500  -4.583   5.723  1.00  0.00     0.012 A 
ATOM     62  C   UNL     1      -1.223  -4.492   8.045  1.00  0.00     0.148 A 
ATOM     63  C   UNL     1      -1.811  -4.362   5.300  1.00  0.00     0.002 A 
ATOM     64  C   UNL     1      -2.533  -4.310   7.616  1.00  0.00     0.091 A 
ATOM     65  F   UNL     1      -0.903  -4.533   9.346  1.00  0.00    -0.205 F 
ATOM     66  C   UNL     1      -2.827  -4.239   6.245  1.00  0.00     0.022 A 
BRANCH  64  67
ATOM     67  S   UNL     1      -3.922  -4.222   8.753  1.00  0.00     0.127 S 
ATOM     68  O   UNL     1      -4.304  -2.816   8.641  1.00  0.00    -0.237 OA
ATOM     69  O   UNL     1      -4.870  -5.162   8.154  1.00  0.00    -0.237 OA
ATOM     70  O   UNL     1      -3.404  -4.627  10.052  1.00  0.00    -0.744 OA
ENDBRANCH  64  67
ENDBRANCH  46  60
BRANCH  47  71
ATOM     71  C   UNL     1       9.037  -6.503  10.415  1.00  0.00     0.023 A 
ATOM     72  C   UNL     1       9.905  -7.405   9.771  1.00  0.00     0.012 A 
ATOM     73  C   UNL     1       9.484  -5.824  11.564  1.00  0.00     0.148 A 
ATOM     74  C   UNL     1      11.183  -7.645  10.278  1.00  0.00     0.002 A 
ATOM     75  C   UNL     1      10.781  -6.018  12.025  1.00  0.00     0.091 A 
ATOM     76  F   UNL     1       8.638  -4.985  12.181  1.00  0.00    -0.205 F 
ATOM     77  C   UNL     1      11.627  -6.941  11.395  1.00  0.00     0.022 A 
BRANCH  75  78
ATOM     78  S   UNL     1      11.458  -5.017  13.354  1.00  0.00     0.127 S 
ATOM     79  O   UNL     1      11.235  -5.868  14.518  1.00  0.00    -0.237 OA
ATOM     80  O   UNL     1      12.859  -4.871  12.955  1.00  0.00    -0.237 OA
ATOM     81  O   UNL     1      10.700  -3.772  13.308  1.00  0.00    -0.744 OA
ENDBRANCH  75  78
ENDBRANCH  47  71
BRANCH  59  82
ATOM     82  C   UNL     1       3.295 -10.392   9.662  1.00  0.00     0.023 A 
ATOM     83  C   UNL     1       3.126 -10.781  11.006  1.00  0.00     0.012 A 
ATOM     84  C   UNL     1       3.119 -11.342   8.638  1.00  0.00     0.148 A 
ATOM     85  C   UNL     1       2.821 -12.103  11.326  1.00  0.00     0.002 A 
ATOM     86  C   UNL     1       2.773 -12.648   8.963  1.00  0.00     0.091 A 
ATOM     87  F   UNL     1       3.308 -10.959   7.367  1.00  0.00    -0.205 F 
ATOM     88  C   UNL     1       2.634 -13.033  10.306  1.00  0.00     0.022 A 
BRANCH  86  89
ATOM     89  S   UNL     1       2.429 -13.876   7.698  1.00  0.00     0.127 S 
ATOM     90  O   UNL     1       3.703 -14.587   7.617  1.00  0.00    -0.237 OA
ATOM     91  O   UNL     1       1.337 -14.648   8.292  1.00  0.00    -0.237 OA
ATOM     92  O   UNL     1       2.049 -13.118   6.513  1.00  0.00    -0.744 OA
ENDBRANCH  86  89
ENDBRANCH  59  82
ENDBRANCH  33  34
ENDBRANCH  26  28
ENDBRANCH  25  26
ENDBRANCH  24  25
ENDBRANCH   1  24
TORSDOF 18
