REMARK SMILES O=C(OCCOC(=O)C1(C/C=C/c2ccccc2)Cc2ccccc2C1)c1ccc(-c2c3nc(c(-c4cccc(S(=O)(=O)[O-])c4F)c4ccc([nH]4)c(-c4cccc(S(=O)(=O)[O-])c4F)c4nc(c(-c5cccc(S(=O)(=O)[O-])c5F)c5ccc2[nH]5)C=C4)C=C3)cc1
REMARK SMILES IDX 4 1 3 2 2 3 1 4 27 5 28 6 89 7 29 8 88 9 30 10 31 11 32 12
REMARK SMILES IDX 82 13 33 14 87 15 81 16 83 17 34 18 86 19 80 20 79 21 35 23
REMARK SMILES IDX 67 24 47 25 66 26 48 27 51 28 65 29 84 30 49 31 50 32 64 34
REMARK SMILES IDX 85 35 52 36 36 37 37 38 45 39 38 40 40 41 46 42 39 43 41 44
REMARK SMILES IDX 42 45 43 46 44 47 68 48 69 49 77 50 70 51 72 52 78 53 71 54
REMARK SMILES IDX 73 55 74 56 75 57 76 58 53 59 54 60 62 61 55 62 57 63 63 64
REMARK SMILES IDX 56 65 58 66 59 67 60 68 61 69 5 70 6 71 7 72 8 73 9 74 19 75
REMARK SMILES IDX 26 76 20 77 25 78 21 79 24 80 22 81 23 82 10 83 11 84 12 85
REMARK SMILES IDX 13 86 14 87 18 88 15 89 17 90 16 91
REMARK H PARENT 83 22 51 33
REMARK Flexibility Score: inf
ROOT
ATOM      1  C   UNL     1       4.112   1.567  -0.384  1.00  0.00     0.275 C 
ENDROOT
BRANCH   1   2
ATOM      2  O   UNL     1       3.158   0.660  -0.953  1.00  0.00    -0.458 OA
BRANCH   2   3
ATOM      3  C   UNL     1       3.207  -0.687  -1.077  1.00  0.00     0.338 C 
ATOM      4  O   UNL     1       2.351  -1.252  -1.757  1.00  0.00    -0.246 OA
BRANCH   3   5
ATOM      5  C   UNL     1       4.155  -1.536  -0.293  1.00  0.00     0.060 A 
ATOM      6  C   UNL     1       5.401  -1.141   0.201  1.00  0.00     0.016 A 
ATOM      7  C   UNL     1       3.691  -2.814   0.052  1.00  0.00     0.016 A 
ATOM      8  C   UNL     1       6.073  -1.900   1.164  1.00  0.00     0.010 A 
ATOM      9  C   UNL     1       4.344  -3.556   1.042  1.00  0.00     0.010 A 
ATOM     10  C   UNL     1       5.521  -3.084   1.646  1.00  0.00    -0.014 A 
BRANCH  10  11
ATOM     11  C   UNL     1       6.226  -3.869   2.694  1.00  0.00     0.031 A 
ATOM     12  C   UNL     1       6.689  -5.251   2.339  1.00  0.00     0.074 A 
ATOM     13  C   UNL     1       6.475  -3.369   3.927  1.00  0.00     0.049 A 
ATOM     14  N   UNL     1       7.382  -6.093   3.055  1.00  0.00    -0.248 NA
ATOM     15  C   UNL     1       6.344  -5.750   0.994  1.00  0.00     0.031 C 
ATOM     16  C   UNL     1       6.089  -2.041   4.408  1.00  0.00     0.029 A 
ATOM     17  N   UNL     1       7.091  -3.932   5.022  1.00  0.00    -0.354 N 
ATOM     18  C   UNL     1       7.593  -7.185   2.228  1.00  0.00     0.074 A 
ATOM     19  C   UNL     1       6.828  -6.977   1.025  1.00  0.00     0.031 C 
ATOM     20  C   UNL     1       6.399  -1.923   5.713  1.00  0.00     0.029 A 
ATOM     21  C   UNL     1       7.035  -3.154   6.161  1.00  0.00     0.049 A 
ATOM     22  H   UNL     1       7.533  -4.811   4.995  1.00  0.00     0.167 HD
ATOM     23  C   UNL     1       8.446  -8.217   2.396  1.00  0.00     0.034 A 
ATOM     24  C   UNL     1       7.455  -3.409   7.418  1.00  0.00     0.034 A 
ATOM     25  C   UNL     1       9.215  -8.422   3.583  1.00  0.00     0.049 A 
ATOM     26  C   UNL     1       8.277  -4.652   7.644  1.00  0.00     0.074 A 
ATOM     27  C   UNL     1      10.124  -9.423   3.859  1.00  0.00     0.029 A 
ATOM     28  N   UNL     1       9.143  -7.613   4.706  1.00  0.00    -0.354 N 
ATOM     29  N   UNL     1       8.607  -5.587   6.786  1.00  0.00    -0.248 NA
ATOM     30  C   UNL     1       8.868  -4.827   8.978  1.00  0.00     0.031 C 
ATOM     31  C   UNL     1      10.580  -9.237   5.168  1.00  0.00     0.029 A 
ATOM     32  C   UNL     1       9.982  -8.099   5.689  1.00  0.00     0.049 A 
ATOM     33  H   UNL     1       8.578  -6.811   4.790  1.00  0.00     0.167 HD
ATOM     34  C   UNL     1       9.508  -6.411   7.448  1.00  0.00     0.074 A 
ATOM     35  C   UNL     1       9.664  -5.869   8.782  1.00  0.00     0.031 C 
ATOM     36  C   UNL     1      10.158  -7.509   6.990  1.00  0.00     0.034 A 
BRANCH  23  37
ATOM     37  C   UNL     1       8.619  -9.127   1.216  1.00  0.00     0.023 A 
ATOM     38  C   UNL     1       9.280  -8.642   0.065  1.00  0.00     0.012 A 
ATOM     39  C   UNL     1       8.078 -10.422   1.214  1.00  0.00     0.148 A 
ATOM     40  C   UNL     1       9.350  -9.414  -1.091  1.00  0.00     0.002 A 
ATOM     41  C   UNL     1       8.193 -11.204   0.073  1.00  0.00     0.091 A 
ATOM     42  F   UNL     1       7.432 -10.846   2.309  1.00  0.00    -0.205 F 
ATOM     43  C   UNL     1       8.811 -10.697  -1.085  1.00  0.00     0.022 A 
BRANCH  41  44
ATOM     44  S   UNL     1       7.577 -12.885  -0.015  1.00  0.00     0.127 S 
ATOM     45  O   UNL     1       6.574 -12.779  -1.072  1.00  0.00    -0.237 OA
ATOM     46  O   UNL     1       8.780 -13.628  -0.382  1.00  0.00    -0.237 OA
ATOM     47  O   UNL     1       7.045 -13.190   1.310  1.00  0.00    -0.744 OA
ENDBRANCH  41  44
ENDBRANCH  23  37
BRANCH  24  48
ATOM     48  C   UNL     1       7.207  -2.459   8.547  1.00  0.00     0.023 A 
ATOM     49  C   UNL     1       8.268  -1.706   9.087  1.00  0.00     0.012 A 
ATOM     50  C   UNL     1       5.936  -2.362   9.147  1.00  0.00     0.148 A 
ATOM     51  C   UNL     1       8.081  -0.916  10.226  1.00  0.00     0.002 A 
ATOM     52  C   UNL     1       5.743  -1.534  10.250  1.00  0.00     0.091 A 
ATOM     53  F   UNL     1       4.945  -3.119   8.660  1.00  0.00    -0.205 F 
ATOM     54  C   UNL     1       6.818  -0.825  10.804  1.00  0.00     0.022 A 
BRANCH  52  55
ATOM     55  S   UNL     1       4.128  -1.285  11.001  1.00  0.00     0.127 S 
ATOM     56  O   UNL     1       4.267  -2.010  12.261  1.00  0.00    -0.237 OA
ATOM     57  O   UNL     1       4.077   0.172  11.130  1.00  0.00    -0.237 OA
ATOM     58  O   UNL     1       3.172  -1.836  10.050  1.00  0.00    -0.744 OA
ENDBRANCH  52  55
ENDBRANCH  24  48
BRANCH  36  59
ATOM     59  C   UNL     1      11.149  -8.164   7.911  1.00  0.00     0.023 A 
ATOM     60  C   UNL     1      10.703  -8.880   9.037  1.00  0.00     0.012 A 
ATOM     61  C   UNL     1      12.523  -8.137   7.601  1.00  0.00     0.148 A 
ATOM     62  C   UNL     1      11.616  -9.533   9.863  1.00  0.00     0.002 A 
ATOM     63  C   UNL     1      13.418  -8.841   8.392  1.00  0.00     0.091 A 
ATOM     64  F   UNL     1      12.926  -7.429   6.535  1.00  0.00    -0.205 F 
ATOM     65  C   UNL     1      12.969  -9.526   9.532  1.00  0.00     0.022 A 
BRANCH  63  66
ATOM     66  S   UNL     1      15.157  -8.988   7.969  1.00  0.00     0.127 S 
ATOM     67  O   UNL     1      15.780  -8.125   8.971  1.00  0.00    -0.237 OA
ATOM     68  O   UNL     1      15.401 -10.418   8.157  1.00  0.00    -0.237 OA
ATOM     69  O   UNL     1      15.275  -8.533   6.591  1.00  0.00    -0.744 OA
ENDBRANCH  63  66
ENDBRANCH  36  59
ENDBRANCH  10  11
ENDBRANCH   3   5
ENDBRANCH   2   3
ENDBRANCH   1   2
BRANCH   1  70
ATOM     70  C   UNL     1       4.025   1.826   1.131  1.00  0.00     0.274 C 
BRANCH  70  71
ATOM     71  O   UNL     1       3.635   0.734   1.989  1.00  0.00    -0.462 OA
BRANCH  71  72
ATOM     72  C   UNL     1       2.284   0.580   2.130  1.00  0.00     0.313 C 
ATOM     73  O   UNL     1       1.493   1.144   1.381  1.00  0.00    -0.252 OA
BRANCH  72  74
ATOM     74  C   UNL     1       1.863  -0.423   3.229  1.00  0.00     0.079 C 
ATOM     75  C   UNL     1       2.078  -1.821   2.640  1.00  0.00     0.055 C 
ATOM     76  C   UNL     1       2.726  -0.423   4.527  1.00  0.00     0.055 C 
ATOM     77  C   UNL     1       2.343  -2.675   3.829  1.00  0.00    -0.044 A 
ATOM     78  C   UNL     1       2.715  -1.879   4.913  1.00  0.00    -0.044 A 
ATOM     79  C   UNL     1       2.361  -4.059   3.894  1.00  0.00     0.004 A 
ATOM     80  C   UNL     1       3.081  -2.467   6.110  1.00  0.00     0.004 A 
ATOM     81  C   UNL     1       2.768  -4.657   5.083  1.00  0.00     0.000 A 
ATOM     82  C   UNL     1       3.116  -3.865   6.185  1.00  0.00     0.000 A 
BRANCH  74  83
ATOM     83  C   UNL     1       0.353  -0.260   3.558  1.00  0.00     0.047 C 
BRANCH  83  84
ATOM     84  C   UNL     1       0.067   1.094   4.132  1.00  0.00    -0.025 C 
ATOM     85  C   UNL     1      -0.427   2.088   3.382  1.00  0.00     0.004 C 
BRANCH  85  86
ATOM     86  C   UNL     1      -0.345   3.475   3.817  1.00  0.00    -0.026 A 
ATOM     87  C   UNL     1      -1.473   4.291   3.763  1.00  0.00     0.008 A 
ATOM     88  C   UNL     1       0.891   4.015   4.202  1.00  0.00     0.008 A 
ATOM     89  C   UNL     1      -1.372   5.634   4.125  1.00  0.00     0.001 A 
ATOM     90  C   UNL     1       0.991   5.356   4.559  1.00  0.00     0.001 A 
ATOM     91  C   UNL     1      -0.143   6.164   4.523  1.00  0.00     0.000 A 
ENDBRANCH  85  86
ENDBRANCH  83  84
ENDBRANCH  74  83
ENDBRANCH  72  74
ENDBRANCH  71  72
ENDBRANCH  70  71
ENDBRANCH   1  70
TORSDOF 17
