REMARK SMILES Cc1cc(C)cc(C(=O)N2CC[C@H](C(=O)OCCOC(=O)c3ccc(-c4c5nc(c(-c6cccc(S(=O)(=O)[O-])c6F)c6ccc([nH]6)c(-c6cccc(S(=O)(=O)[O-])c6F)c6nc(c(-c7cccc(S(=O)(=O)[O-])c7F)c7ccc4[nH]7)C=C6)C=C5)cc3)[C@@H]2C)c1
REMARK SMILES IDX 18 1 17 2 16 3 14 4 15 5 13 6 10 7 11 8 85 9 12 10 86 11
REMARK SMILES IDX 8 12 9 13 7 14 1 15 2 16 3 17 87 18 4 19 5 20 6 21 19 22
REMARK SMILES IDX 20 23 21 24 22 25 23 26 84 27 24 28 83 29 25 30 26 31 27 32
REMARK SMILES IDX 77 33 28 34 82 35 76 36 78 37 29 38 81 39 75 40 74 41 30 43
REMARK SMILES IDX 62 44 42 45 61 46 43 47 46 48 60 49 79 50 44 51 45 52 59 54
REMARK SMILES IDX 80 55 47 56 31 57 32 58 40 59 33 60 35 61 41 62 34 63 36 64
REMARK SMILES IDX 37 65 38 66 39 67 63 68 64 69 72 70 65 71 67 72 73 73 66 74
REMARK SMILES IDX 68 75 69 76 70 77 71 78 48 79 49 80 57 81 50 82 52 83 58 84
REMARK SMILES IDX 51 85 53 86 54 87 55 88 56 89
REMARK H PARENT 78 42 46 53
REMARK Flexibility Score: inf
ROOT
ATOM      1  C   UNL     1       3.523  -7.826   3.309  1.00  0.00     0.275 C 
ENDROOT
BRANCH   1   2
ATOM      2  C   UNL     1       4.726  -7.178   2.629  1.00  0.00     0.274 C 
BRANCH   2   3
ATOM      3  O   UNL     1       4.420  -5.840   2.175  1.00  0.00    -0.462 OA
BRANCH   3   4
ATOM      4  C   UNL     1       4.099  -5.733   0.853  1.00  0.00     0.311 C 
ATOM      5  O   UNL     1       4.030  -6.681   0.083  1.00  0.00    -0.252 OA
BRANCH   4   6
ATOM      6  C   UNL     1       3.991  -4.278   0.424  1.00  0.00     0.123 C 
ATOM      7  N   UNL     1       1.838  -3.543  -0.295  1.00  0.00    -0.335 N 
ATOM      8  C   UNL     1       2.423  -4.288  -1.390  1.00  0.00     0.121 C 
ATOM      9  C   UNL     1       2.745  -3.476   0.862  1.00  0.00     0.096 C 
ATOM     10  C   UNL     1       3.914  -4.195  -1.113  1.00  0.00     0.039 C 
ATOM     11  C   UNL     1       2.078  -3.900   2.162  1.00  0.00     0.032 C 
BRANCH   7  12
ATOM     12  C   UNL     1       0.606  -2.941  -0.497  1.00  0.00     0.254 C 
ATOM     13  O   UNL     1      -0.288  -3.506  -1.123  1.00  0.00    -0.269 OA
BRANCH  12  14
ATOM     14  C   UNL     1       0.416  -1.511  -0.127  1.00  0.00     0.040 A 
ATOM     15  C   UNL     1       2.457   1.704  -0.062  1.00  0.00     0.044 C 
ATOM     16  C   UNL     1       1.297   0.758   0.009  1.00  0.00    -0.050 A 
ATOM     17  C   UNL     1      -0.006   1.243   0.168  1.00  0.00     0.006 A 
ATOM     18  C   UNL     1       1.492  -0.616  -0.171  1.00  0.00     0.017 A 
ATOM     19  C   UNL     1      -1.104   0.370   0.162  1.00  0.00    -0.050 A 
ATOM     20  C   UNL     1      -2.497   0.931   0.204  1.00  0.00     0.044 C 
ATOM     21  C   UNL     1      -0.884  -1.009   0.025  1.00  0.00     0.017 A 
ENDBRANCH  12  14
ENDBRANCH   7  12
ENDBRANCH   4   6
ENDBRANCH   3   4
ENDBRANCH   2   3
ENDBRANCH   1   2
BRANCH   1  22
ATOM     22  O   UNL     1       2.431  -7.883   2.382  1.00  0.00    -0.458 OA
BRANCH  22  23
ATOM     23  C   UNL     1       1.197  -7.701   2.904  1.00  0.00     0.338 C 
ATOM     24  O   UNL     1       0.923  -7.612   4.096  1.00  0.00    -0.246 OA
BRANCH  23  25
ATOM     25  C   UNL     1       0.199  -7.572   1.818  1.00  0.00     0.060 A 
ATOM     26  C   UNL     1       0.557  -7.035   0.580  1.00  0.00     0.016 A 
ATOM     27  C   UNL     1      -1.137  -7.893   2.063  1.00  0.00     0.016 A 
ATOM     28  C   UNL     1      -0.416  -6.745  -0.374  1.00  0.00     0.010 A 
ATOM     29  C   UNL     1      -2.100  -7.685   1.068  1.00  0.00     0.010 A 
ATOM     30  C   UNL     1      -1.756  -7.076  -0.152  1.00  0.00    -0.014 A 
BRANCH  30  31
ATOM     31  C   UNL     1      -2.795  -6.734  -1.165  1.00  0.00     0.031 A 
ATOM     32  C   UNL     1      -3.953  -5.851  -0.785  1.00  0.00     0.074 A 
ATOM     33  C   UNL     1      -2.711  -7.201  -2.427  1.00  0.00     0.049 A 
ATOM     34  N   UNL     1      -5.062  -5.612  -1.438  1.00  0.00    -0.248 NA
ATOM     35  C   UNL     1      -3.866  -5.167   0.516  1.00  0.00     0.031 C 
ATOM     36  C   UNL     1      -1.624  -8.024  -2.958  1.00  0.00     0.029 A 
ATOM     37  N   UNL     1      -3.559  -7.046  -3.497  1.00  0.00    -0.354 N 
ATOM     38  C   UNL     1      -5.838  -4.827  -0.594  1.00  0.00     0.074 A 
ATOM     39  C   UNL     1      -5.069  -4.621   0.615  1.00  0.00     0.031 C 
ATOM     40  C   UNL     1      -1.848  -8.266  -4.258  1.00  0.00     0.029 A 
ATOM     41  C   UNL     1      -3.135  -7.691  -4.635  1.00  0.00     0.049 A 
ATOM     42  H   UNL     1      -4.391  -6.522  -3.454  1.00  0.00     0.167 HD
ATOM     43  C   UNL     1      -7.072  -4.314  -0.811  1.00  0.00     0.034 A 
ATOM     44  C   UNL     1      -3.726  -7.836  -5.838  1.00  0.00     0.034 A 
ATOM     45  C   UNL     1      -7.787  -4.425  -2.055  1.00  0.00     0.049 A 
ATOM     46  C   UNL     1      -5.088  -7.241  -6.063  1.00  0.00     0.074 A 
ATOM     47  C   UNL     1      -9.031  -3.911  -2.382  1.00  0.00     0.029 A 
ATOM     48  N   UNL     1      -7.310  -5.065  -3.189  1.00  0.00    -0.354 N 
ATOM     49  N   UNL     1      -5.814  -6.509  -5.254  1.00  0.00    -0.248 NA
ATOM     50  C   UNL     1      -5.714  -7.494  -7.369  1.00  0.00     0.031 C 
ATOM     51  C   UNL     1      -9.304  -4.239  -3.715  1.00  0.00     0.029 A 
ATOM     52  C   UNL     1      -8.230  -4.954  -4.219  1.00  0.00     0.049 A 
ATOM     53  H   UNL     1      -6.444  -5.529  -3.252  1.00  0.00     0.167 HD
ATOM     54  C   UNL     1      -6.974  -6.202  -5.954  1.00  0.00     0.074 A 
ATOM     55  C   UNL     1      -6.842  -6.803  -7.265  1.00  0.00     0.031 C 
ATOM     56  C   UNL     1      -8.063  -5.510  -5.537  1.00  0.00     0.034 A 
BRANCH  43  57
ATOM     57  C   UNL     1      -7.722  -3.559   0.318  1.00  0.00     0.023 A 
ATOM     58  C   UNL     1      -7.287  -2.256   0.631  1.00  0.00     0.012 A 
ATOM     59  C   UNL     1      -8.793  -4.123   1.039  1.00  0.00     0.148 A 
ATOM     60  C   UNL     1      -7.887  -1.539   1.667  1.00  0.00     0.002 A 
ATOM     61  C   UNL     1      -9.413  -3.386   2.042  1.00  0.00     0.091 A 
ATOM     62  F   UNL     1      -9.176  -5.375   0.748  1.00  0.00    -0.205 F 
ATOM     63  C   UNL     1      -8.955  -2.099   2.364  1.00  0.00     0.022 A 
BRANCH  61  64
ATOM     64  S   UNL     1     -10.847  -4.009   2.929  1.00  0.00     0.127 S 
ATOM     65  O   UNL     1     -10.237  -4.545   4.144  1.00  0.00    -0.237 OA
ATOM     66  O   UNL     1     -11.644  -2.799   3.133  1.00  0.00    -0.237 OA
ATOM     67  O   UNL     1     -11.460  -4.986   2.039  1.00  0.00    -0.744 OA
ENDBRANCH  61  64
ENDBRANCH  43  57
BRANCH  44  68
ATOM     68  C   UNL     1      -3.009  -8.554  -6.930  1.00  0.00     0.023 A 
ATOM     69  C   UNL     1      -2.542  -7.822  -8.039  1.00  0.00     0.012 A 
ATOM     70  C   UNL     1      -2.729  -9.932  -6.850  1.00  0.00     0.148 A 
ATOM     71  C   UNL     1      -1.816  -8.451  -9.051  1.00  0.00     0.002 A 
ATOM     72  C   UNL     1      -1.951 -10.539  -7.829  1.00  0.00     0.091 A 
ATOM     73  F   UNL     1      -3.207 -10.619  -5.803  1.00  0.00    -0.205 F 
ATOM     74  C   UNL     1      -1.506  -9.804  -8.938  1.00  0.00     0.022 A 
BRANCH  72  75
ATOM     75  S   UNL     1      -1.377 -12.235  -7.681  1.00  0.00     0.127 S 
ATOM     76  O   UNL     1      -2.205 -12.920  -8.670  1.00  0.00    -0.237 OA
ATOM     77  O   UNL     1       0.037 -12.111  -8.041  1.00  0.00    -0.237 OA
ATOM     78  O   UNL     1      -1.607 -12.606  -6.292  1.00  0.00    -0.744 OA
ENDBRANCH  72  75
ENDBRANCH  44  68
BRANCH  56  79
ATOM     79  C   UNL     1      -9.200  -5.352  -6.512  1.00  0.00     0.023 A 
ATOM     80  C   UNL     1     -10.052  -6.446  -6.760  1.00  0.00     0.012 A 
ATOM     81  C   UNL     1      -9.465  -4.114  -7.127  1.00  0.00     0.148 A 
ATOM     82  C   UNL     1     -11.137  -6.317  -7.626  1.00  0.00     0.002 A 
ATOM     83  C   UNL     1     -10.571  -3.982  -7.960  1.00  0.00     0.091 A 
ATOM     84  F   UNL     1      -8.630  -3.090  -6.895  1.00  0.00    -0.205 F 
ATOM     85  C   UNL     1     -11.403  -5.084  -8.217  1.00  0.00     0.022 A 
BRANCH  83  86
ATOM     86  S   UNL     1     -11.031  -2.409  -8.698  1.00  0.00     0.127 S 
ATOM     87  O   UNL     1     -10.555  -2.572 -10.070  1.00  0.00    -0.237 OA
ATOM     88  O   UNL     1     -12.488  -2.408  -8.555  1.00  0.00    -0.237 OA
ATOM     89  O   UNL     1     -10.351  -1.389  -7.912  1.00  0.00    -0.744 OA
ENDBRANCH  83  86
ENDBRANCH  56  79
ENDBRANCH  30  31
ENDBRANCH  23  25
ENDBRANCH  22  23
ENDBRANCH   1  22
TORSDOF 16
