REMARK SMILES C[C@H](Oc1ccccc1Cl)C(=O)N1CCCC[C@H]1C(=O)OCCOC(=O)c1ccc(-c2c3nc(c(-c4cccc(S(=O)(=O)[O-])c4F)c4ccc([nH]4)c(-c4cccc(S(=O)(=O)[O-])c4F)c4nc(c(-c5cccc(S(=O)(=O)[O-])c5F)c5ccc2[nH]5)C=C4)C=C3)cc1
REMARK SMILES IDX 22 1 21 2 19 3 20 4 18 5 13 6 14 7 15 8 17 9 16 10 11 11
REMARK SMILES IDX 12 12 2 13 1 14 3 15 4 16 5 17 9 18 6 19 8 20 10 21 7 22
REMARK SMILES IDX 23 23 24 24 25 25 26 26 27 27 28 28 89 29 29 30 88 31 30 32
REMARK SMILES IDX 31 33 32 34 82 35 33 36 87 37 81 38 83 39 34 40 86 41 80 42
REMARK SMILES IDX 79 43 35 45 67 46 47 47 66 48 48 49 51 50 65 51 84 52 49 53
REMARK SMILES IDX 50 54 64 56 85 57 52 58 36 59 37 60 45 61 38 62 40 63 46 64
REMARK SMILES IDX 39 65 41 66 42 67 43 68 44 69 68 70 69 71 77 72 70 73 72 74
REMARK SMILES IDX 78 75 71 76 73 77 74 78 75 79 76 80 53 81 54 82 62 83 55 84
REMARK SMILES IDX 57 85 63 86 56 87 58 88 59 89 60 90 61 91
REMARK H PARENT 83 44 51 55
REMARK Flexibility Score: inf
ROOT
ATOM      1  C   UNL     1      -0.258   0.523  -5.080  1.00  0.00     0.274 C 
ENDROOT
BRANCH   1   2
ATOM      2  O   UNL     1      -0.794  -0.194  -3.947  1.00  0.00    -0.461 OA
BRANCH   2   3
ATOM      3  C   UNL     1      -0.885   0.523  -2.789  1.00  0.00     0.328 C 
ATOM      4  O   UNL     1      -0.570   1.702  -2.703  1.00  0.00    -0.250 OA
BRANCH   3   5
ATOM      5  C   UNL     1      -1.287  -0.350  -1.584  1.00  0.00     0.195 C 
ATOM      6  N   UNL     1      -1.631   0.440  -0.368  1.00  0.00    -0.326 N 
ATOM      7  C   UNL     1      -3.009   0.919  -0.264  1.00  0.00     0.120 C 
ATOM      8  C   UNL     1      -4.055  -0.138  -0.572  1.00  0.00     0.022 C 
ATOM      9  C   UNL     1      -2.373  -1.388  -1.914  1.00  0.00     0.037 C 
ATOM     10  C   UNL     1      -3.778  -0.803  -1.910  1.00  0.00     0.005 C 
BRANCH   6  11
ATOM     11  C   UNL     1      -0.731   0.907   0.597  1.00  0.00     0.264 C 
ATOM     12  O   UNL     1      -1.137   1.305   1.698  1.00  0.00    -0.271 OA
BRANCH  11  13
ATOM     13  C   UNL     1       0.775   1.110   0.270  1.00  0.00     0.259 C 
ATOM     14  C   UNL     1       0.908   2.479  -0.410  1.00  0.00     0.064 C 
BRANCH  13  15
ATOM     15  O   UNL     1       1.293  -0.005  -0.435  1.00  0.00    -0.479 OA
BRANCH  15  16
ATOM     16  C   UNL     1       2.583  -0.133  -0.848  1.00  0.00     0.139 A 
ATOM     17  C   UNL     1       3.546   0.874  -0.826  1.00  0.00     0.048 A 
ATOM     18  C   UNL     1       2.929  -1.378  -1.406  1.00  0.00     0.083 A 
ATOM     19  C   UNL     1       4.794   0.675  -1.427  1.00  0.00     0.004 A 
ATOM     20  C   UNL     1       4.183  -1.584  -1.985  1.00  0.00     0.024 A 
ATOM     21  Cl  UNL     1       1.830  -2.717  -1.399  1.00  0.00    -0.080 Cl
ATOM     22  C   UNL     1       5.110  -0.548  -2.015  1.00  0.00     0.002 A 
ENDBRANCH  15  16
ENDBRANCH  13  15
ENDBRANCH  11  13
ENDBRANCH   6  11
ENDBRANCH   3   5
ENDBRANCH   2   3
ENDBRANCH   1   2
BRANCH   1  23
ATOM     23  C   UNL     1      -1.367   1.111  -5.952  1.00  0.00     0.275 C 
BRANCH  23  24
ATOM     24  O   UNL     1      -2.121   2.071  -5.197  1.00  0.00    -0.458 OA
BRANCH  24  25
ATOM     25  C   UNL     1      -3.465   1.902  -5.178  1.00  0.00     0.338 C 
ATOM     26  O   UNL     1      -4.098   1.073  -5.809  1.00  0.00    -0.246 OA
BRANCH  25  27
ATOM     27  C   UNL     1      -4.094   2.848  -4.224  1.00  0.00     0.060 A 
ATOM     28  C   UNL     1      -3.417   3.295  -3.091  1.00  0.00     0.016 A 
ATOM     29  C   UNL     1      -5.428   3.214  -4.407  1.00  0.00     0.016 A 
ATOM     30  C   UNL     1      -4.092   4.006  -2.097  1.00  0.00     0.010 A 
ATOM     31  C   UNL     1      -6.066   4.030  -3.464  1.00  0.00     0.010 A 
ATOM     32  C   UNL     1      -5.419   4.413  -2.275  1.00  0.00    -0.014 A 
BRANCH  32  33
ATOM     33  C   UNL     1      -6.137   5.229  -1.248  1.00  0.00     0.031 A 
ATOM     34  C   UNL     1      -7.518   4.826  -0.793  1.00  0.00     0.074 A 
ATOM     35  C   UNL     1      -5.599   6.368  -0.761  1.00  0.00     0.049 A 
ATOM     36  N   UNL     1      -8.440   5.547  -0.210  1.00  0.00    -0.248 NA
ATOM     37  C   UNL     1      -7.926   3.434  -1.054  1.00  0.00     0.031 C 
ATOM     38  C   UNL     1      -4.264   6.883  -1.068  1.00  0.00     0.029 A 
ATOM     39  N   UNL     1      -6.131   7.322   0.078  1.00  0.00    -0.354 N 
ATOM     40  C   UNL     1      -9.569   4.739  -0.140  1.00  0.00     0.074 A 
ATOM     41  C   UNL     1      -9.204   3.455  -0.699  1.00  0.00     0.031 C 
ATOM     42  C   UNL     1      -4.075   8.042  -0.425  1.00  0.00     0.029 A 
ATOM     43  C   UNL     1      -5.314   8.419   0.241  1.00  0.00     0.049 A 
ATOM     44  H   UNL     1      -7.007   7.229   0.517  1.00  0.00     0.167 HD
ATOM     45  C   UNL     1     -10.797   5.046   0.339  1.00  0.00     0.034 A 
ATOM     46  C   UNL     1      -5.547   9.630   0.785  1.00  0.00     0.034 A 
ATOM     47  C   UNL     1     -11.120   6.281   1.004  1.00  0.00     0.049 A 
ATOM     48  C   UNL     1      -6.905   9.936   1.344  1.00  0.00     0.074 A 
ATOM     49  C   UNL     1     -12.320   6.657   1.582  1.00  0.00     0.029 A 
ATOM     50  N   UNL     1     -10.235   7.328   1.204  1.00  0.00    -0.354 N 
ATOM     51  N   UNL     1      -7.963   9.164   1.403  1.00  0.00    -0.248 NA
ATOM     52  C   UNL     1      -7.107  11.277   1.910  1.00  0.00     0.031 C 
ATOM     53  C   UNL     1     -12.161   7.933   2.132  1.00  0.00     0.029 A 
ATOM     54  C   UNL     1     -10.860   8.348   1.901  1.00  0.00     0.049 A 
ATOM     55  H   UNL     1      -9.300   7.345   0.897  1.00  0.00     0.167 HD
ATOM     56  C   UNL     1      -8.951   9.921   2.020  1.00  0.00     0.074 A 
ATOM     57  C   UNL     1      -8.358  11.202   2.344  1.00  0.00     0.031 C 
ATOM     58  C   UNL     1     -10.242   9.594   2.269  1.00  0.00     0.034 A 
BRANCH  45  59
ATOM     59  C   UNL     1     -11.900   4.032   0.190  1.00  0.00     0.023 A 
ATOM     60  C   UNL     1     -11.964   2.927   1.058  1.00  0.00     0.012 A 
ATOM     61  C   UNL     1     -12.935   4.242  -0.745  1.00  0.00     0.148 A 
ATOM     62  C   UNL     1     -13.037   2.037   0.991  1.00  0.00     0.002 A 
ATOM     63  C   UNL     1     -14.020   3.373  -0.780  1.00  0.00     0.091 A 
ATOM     64  F   UNL     1     -12.843   5.288  -1.578  1.00  0.00    -0.205 F 
ATOM     65  C   UNL     1     -14.069   2.267   0.084  1.00  0.00     0.022 A 
BRANCH  63  66
ATOM     66  S   UNL     1     -15.434   3.635  -1.858  1.00  0.00     0.127 S 
ATOM     67  O   UNL     1     -15.230   2.600  -2.870  1.00  0.00    -0.237 OA
ATOM     68  O   UNL     1     -16.561   3.392  -0.957  1.00  0.00    -0.237 OA
ATOM     69  O   UNL     1     -15.325   5.008  -2.333  1.00  0.00    -0.744 OA
ENDBRANCH  63  66
ENDBRANCH  45  59
BRANCH  46  70
ATOM     70  C   UNL     1      -4.460  10.651   0.788  1.00  0.00     0.023 A 
ATOM     71  C   UNL     1      -3.853  11.017   2.003  1.00  0.00     0.012 A 
ATOM     72  C   UNL     1      -3.967  11.196  -0.415  1.00  0.00     0.148 A 
ATOM     73  C   UNL     1      -2.781  11.911   2.021  1.00  0.00     0.002 A 
ATOM     74  C   UNL     1      -2.852  12.026  -0.397  1.00  0.00     0.091 A 
ATOM     75  F   UNL     1      -4.575  10.867  -1.564  1.00  0.00    -0.205 F 
ATOM     76  C   UNL     1      -2.267  12.398   0.821  1.00  0.00     0.022 A 
BRANCH  74  77
ATOM     77  S   UNL     1      -2.035  12.522  -1.919  1.00  0.00     0.127 S 
ATOM     78  O   UNL     1      -2.628  13.832  -2.169  1.00  0.00    -0.237 OA
ATOM     79  O   UNL     1      -0.625  12.548  -1.526  1.00  0.00    -0.237 OA
ATOM     80  O   UNL     1      -2.360  11.472  -2.877  1.00  0.00    -0.744 OA
ENDBRANCH  74  77
ENDBRANCH  46  70
BRANCH  58  81
ATOM     81  C   UNL     1     -11.102  10.623   2.946  1.00  0.00     0.023 A 
ATOM     82  C   UNL     1     -11.608  11.703   2.196  1.00  0.00     0.012 A 
ATOM     83  C   UNL     1     -11.473  10.480   4.297  1.00  0.00     0.148 A 
ATOM     84  C   UNL     1     -12.456  12.638   2.787  1.00  0.00     0.002 A 
ATOM     85  C   UNL     1     -12.348  11.395   4.869  1.00  0.00     0.091 A 
ATOM     86  F   UNL     1     -10.963   9.455   4.995  1.00  0.00    -0.205 F 
ATOM     87  C   UNL     1     -12.834  12.478   4.119  1.00  0.00     0.022 A 
BRANCH  85  88
ATOM     88  S   UNL     1     -12.950  11.223   6.553  1.00  0.00     0.127 S 
ATOM     89  O   UNL     1     -12.194  12.263   7.247  1.00  0.00    -0.237 OA
ATOM     90  O   UNL     1     -14.379  11.504   6.404  1.00  0.00    -0.237 OA
ATOM     91  O   UNL     1     -12.644   9.855   6.949  1.00  0.00    -0.744 OA
ENDBRANCH  85  88
ENDBRANCH  58  81
ENDBRANCH  32  33
ENDBRANCH  25  27
ENDBRANCH  24  25
ENDBRANCH  23  24
ENDBRANCH   1  23
TORSDOF 18
