REMARK SMILES COc1cc([C@@H]2CC(=O)Nc3c(C(=O)OCCOC(=O)c4ccc(-c5c6nc(c(-c7cccc(S(=O)(=O)[O-])c7F)c7ccc([nH]7)c(-c7cccc(S(=O)(=O)[O-])c7F)c7nc(c(-c8cccc(S(=O)(=O)[O-])c8F)c8ccc5[nH]8)C=C7)C=C6)cc4)cn(-c4ccc(F)cc4)c32)c(OC)c2c1OCO2
REMARK SMILES IDX 17 1 16 2 15 3 13 4 14 5 12 6 6 7 7 8 93 9 8 10 11 11 85 12
REMARK SMILES IDX 9 13 10 14 84 15 5 17 3 18 4 19 98 20 97 21 99 22 94 23
REMARK SMILES IDX 101 24 100 25 2 26 1 27 95 28 96 29 86 30 87 31 92 32 88 33
REMARK SMILES IDX 91 34 89 35 90 36 18 37 19 38 20 39 21 40 22 41 83 42 23 43
REMARK SMILES IDX 82 44 24 45 25 46 26 47 76 48 27 49 81 50 75 51 77 52 28 53
REMARK SMILES IDX 80 54 74 55 73 56 29 58 61 59 41 60 60 61 42 62 45 63 59 64
REMARK SMILES IDX 78 65 43 66 44 67 58 69 79 70 46 71 30 72 31 73 39 74 32 75
REMARK SMILES IDX 34 76 40 77 33 78 35 79 36 80 37 81 38 82 62 83 63 84 71 85
REMARK SMILES IDX 64 86 66 87 72 88 65 89 67 90 68 91 69 92 70 93 47 94 48 95
REMARK SMILES IDX 56 96 49 97 51 98 57 99 50 100 52 101 53 102 54 103 55 104
REMARK H PARENT 10 16 77 57 45 68
REMARK Flexibility Score: inf
ROOT
ATOM      1  C   UNL     1      -0.134 -11.976   3.800  1.00  0.00     0.275 C 
ENDROOT
BRANCH   1   2
ATOM      2  C   UNL     1       1.104 -11.104   3.647  1.00  0.00     0.275 C 
BRANCH   2   3
ATOM      3  O   UNL     1       0.747  -9.717   3.550  1.00  0.00    -0.458 OA
BRANCH   3   4
ATOM      4  C   UNL     1       0.403  -9.281   2.300  1.00  0.00     0.341 C 
ATOM      5  O   UNL     1       0.618  -9.905   1.262  1.00  0.00    -0.246 OA
BRANCH   4   6
ATOM      6  C   UNL     1      -0.260  -7.992   2.324  1.00  0.00     0.102 A 
ATOM      7  C   UNL     1      -0.663  -4.545   3.543  1.00  0.00     0.082 C 
ATOM      8  C   UNL     1      -0.564  -4.782   5.060  1.00  0.00     0.115 C 
ATOM      9  C   UNL     1      -0.777  -5.861   2.839  1.00  0.00     0.055 A 
ATOM     10  C   UNL     1       0.237  -6.011   5.476  1.00  0.00     0.225 C 
ATOM     11  C   UNL     1      -0.295  -7.037   3.360  1.00  0.00     0.078 A 
ATOM     12  N   UNL     1      -1.299  -6.133   1.591  1.00  0.00    -0.317 N 
ATOM     13  O   UNL     1       0.809  -6.067   6.566  1.00  0.00    -0.275 OA
ATOM     14  N   UNL     1       0.215  -7.097   4.637  1.00  0.00    -0.324 N 
ATOM     15  C   UNL     1      -0.992  -7.440   1.280  1.00  0.00     0.109 A 
ATOM     16  H   UNL     1       0.578  -7.952   4.962  1.00  0.00     0.170 HD
BRANCH   7  17
ATOM     17  C   UNL     1       0.495  -3.691   2.997  1.00  0.00     0.012 A 
ATOM     18  C   UNL     1       1.099  -1.618   1.821  1.00  0.00     0.165 A 
ATOM     19  C   UNL     1       0.179  -2.385   2.540  1.00  0.00     0.059 A 
ATOM     20  C   UNL     1       2.363  -2.143   1.629  1.00  0.00     0.211 A 
ATOM     21  C   UNL     1       2.714  -3.383   2.127  1.00  0.00     0.211 A 
ATOM     22  O   UNL     1       3.400  -1.546   0.975  1.00  0.00    -0.449 OA
ATOM     23  C   UNL     1       1.815  -4.178   2.822  1.00  0.00     0.168 A 
ATOM     24  O   UNL     1       4.008  -3.696   1.829  1.00  0.00    -0.449 OA
ATOM     25  C   UNL     1       4.444  -2.515   1.147  1.00  0.00     0.468 C 
BRANCH  18  26
ATOM     26  O   UNL     1       0.651  -0.404   1.387  1.00  0.00    -0.493 OA
ATOM     27  C   UNL     1       1.081  -0.047   0.077  1.00  0.00     0.278 C 
ENDBRANCH  18  26
BRANCH  23  28
ATOM     28  O   UNL     1       2.092  -5.395   3.358  1.00  0.00    -0.492 OA
ATOM     29  C   UNL     1       3.339  -6.023   3.118  1.00  0.00     0.278 C 
ENDBRANCH  23  28
ENDBRANCH   7  17
BRANCH  12  30
ATOM     30  C   UNL     1      -1.910  -5.231   0.697  1.00  0.00     0.046 A 
ATOM     31  C   UNL     1      -1.152  -4.193   0.152  1.00  0.00     0.029 A 
ATOM     32  C   UNL     1      -3.256  -5.394   0.354  1.00  0.00     0.029 A 
ATOM     33  C   UNL     1      -1.762  -3.252  -0.674  1.00  0.00     0.041 A 
ATOM     34  C   UNL     1      -3.860  -4.449  -0.482  1.00  0.00     0.041 A 
ATOM     35  C   UNL     1      -3.113  -3.381  -0.973  1.00  0.00     0.123 A 
ATOM     36  F   UNL     1      -3.699  -2.463  -1.754  1.00  0.00    -0.207 F 
ENDBRANCH  12  30
ENDBRANCH   4   6
ENDBRANCH   3   4
ENDBRANCH   2   3
ENDBRANCH   1   2
BRANCH   1  37
ATOM     37  O   UNL     1      -0.890 -12.020   2.592  1.00  0.00    -0.458 OA
BRANCH  37  38
ATOM     38  C   UNL     1      -1.939 -11.168   2.544  1.00  0.00     0.338 C 
ATOM     39  O   UNL     1      -2.117 -10.177   3.233  1.00  0.00    -0.246 OA
BRANCH  38  40
ATOM     40  C   UNL     1      -2.973 -11.735   1.680  1.00  0.00     0.060 A 
ATOM     41  C   UNL     1      -4.046 -10.915   1.323  1.00  0.00     0.016 A 
ATOM     42  C   UNL     1      -2.999 -13.124   1.492  1.00  0.00     0.016 A 
ATOM     43  C   UNL     1      -5.217 -11.518   0.918  1.00  0.00     0.010 A 
ATOM     44  C   UNL     1      -4.170 -13.722   1.103  1.00  0.00     0.010 A 
ATOM     45  C   UNL     1      -5.285 -12.919   0.887  1.00  0.00    -0.014 A 
BRANCH  45  46
ATOM     46  C   UNL     1      -6.509 -13.538   0.420  1.00  0.00     0.031 A 
ATOM     47  C   UNL     1      -6.730 -13.263  -1.020  1.00  0.00     0.074 A 
ATOM     48  C   UNL     1      -7.248 -14.366   1.186  1.00  0.00     0.049 A 
ATOM     49  N   UNL     1      -7.656 -12.532  -1.546  1.00  0.00    -0.248 NA
ATOM     50  C   UNL     1      -5.668 -13.656  -1.966  1.00  0.00     0.031 C 
ATOM     51  C   UNL     1      -6.912 -14.886   2.517  1.00  0.00     0.029 A 
ATOM     52  N   UNL     1      -8.395 -15.035   0.883  1.00  0.00    -0.354 N 
ATOM     53  C   UNL     1      -7.447 -12.631  -2.918  1.00  0.00     0.074 A 
ATOM     54  C   UNL     1      -6.104 -13.107  -3.100  1.00  0.00     0.031 C 
ATOM     55  C   UNL     1      -7.686 -15.964   2.784  1.00  0.00     0.029 A 
ATOM     56  C   UNL     1      -8.654 -16.125   1.714  1.00  0.00     0.049 A 
ATOM     57  H   UNL     1      -8.989 -14.772   0.143  1.00  0.00     0.167 HD
ATOM     58  C   UNL     1      -8.506 -12.659  -3.769  1.00  0.00     0.034 A 
ATOM     59  C   UNL     1      -9.548 -17.123   1.488  1.00  0.00     0.034 A 
ATOM     60  C   UNL     1      -9.691 -12.127  -3.148  1.00  0.00     0.049 A 
ATOM     61  C   UNL     1     -10.509 -16.623   0.483  1.00  0.00     0.074 A 
ATOM     62  C   UNL     1     -10.048 -10.923  -2.578  1.00  0.00     0.029 A 
ATOM     63  N   UNL     1     -10.582 -13.059  -2.681  1.00  0.00    -0.354 N 
ATOM     64  N   UNL     1     -11.351 -15.656   0.708  1.00  0.00    -0.248 NA
ATOM     65  C   UNL     1     -10.253 -16.924  -0.914  1.00  0.00     0.031 C 
ATOM     66  C   UNL     1     -10.886 -11.267  -1.475  1.00  0.00     0.029 A 
ATOM     67  C   UNL     1     -11.063 -12.652  -1.468  1.00  0.00     0.049 A 
ATOM     68  H   UNL     1     -10.834 -13.890  -3.146  1.00  0.00     0.167 HD
ATOM     69  C   UNL     1     -11.344 -14.925  -0.471  1.00  0.00     0.074 A 
ATOM     70  C   UNL     1     -10.770 -15.826  -1.469  1.00  0.00     0.031 C 
ATOM     71  C   UNL     1     -11.523 -13.570  -0.447  1.00  0.00     0.034 A 
BRANCH  58  72
ATOM     72  C   UNL     1      -8.575 -13.585  -4.965  1.00  0.00     0.023 A 
ATOM     73  C   UNL     1      -9.647 -13.409  -5.865  1.00  0.00     0.012 A 
ATOM     74  C   UNL     1      -7.817 -14.774  -5.102  1.00  0.00     0.148 A 
ATOM     75  C   UNL     1      -9.955 -14.372  -6.833  1.00  0.00     0.002 A 
ATOM     76  C   UNL     1      -8.064 -15.679  -6.125  1.00  0.00     0.091 A 
ATOM     77  F   UNL     1      -6.942 -15.126  -4.157  1.00  0.00    -0.205 F 
ATOM     78  C   UNL     1      -9.153 -15.499  -6.976  1.00  0.00     0.022 A 
BRANCH  76  79
ATOM     79  S   UNL     1      -7.015 -17.116  -6.384  1.00  0.00     0.127 S 
ATOM     80  O   UNL     1      -7.897 -18.201  -5.967  1.00  0.00    -0.237 OA
ATOM     81  O   UNL     1      -6.760 -17.038  -7.822  1.00  0.00    -0.237 OA
ATOM     82  O   UNL     1      -5.835 -16.893  -5.558  1.00  0.00    -0.744 OA
ENDBRANCH  76  79
ENDBRANCH  58  72
BRANCH  59  83
ATOM     83  C   UNL     1      -9.504 -18.567   1.834  1.00  0.00     0.023 A 
ATOM     84  C   UNL     1     -10.693 -19.328   1.787  1.00  0.00     0.012 A 
ATOM     85  C   UNL     1      -8.276 -19.259   1.887  1.00  0.00     0.148 A 
ATOM     86  C   UNL     1     -10.657 -20.728   1.747  1.00  0.00     0.002 A 
ATOM     87  C   UNL     1      -8.245 -20.651   1.850  1.00  0.00     0.091 A 
ATOM     88  F   UNL     1      -7.138 -18.553   1.876  1.00  0.00    -0.205 F 
ATOM     89  C   UNL     1      -9.433 -21.389   1.765  1.00  0.00     0.022 A 
BRANCH  87  90
ATOM     90  S   UNL     1      -6.704 -21.578   1.833  1.00  0.00     0.127 S 
ATOM     91  O   UNL     1      -6.926 -22.550   2.904  1.00  0.00    -0.237 OA
ATOM     92  O   UNL     1      -6.705 -22.142   0.485  1.00  0.00    -0.237 OA
ATOM     93  O   UNL     1      -5.652 -20.608   2.111  1.00  0.00    -0.744 OA
ENDBRANCH  87  90
ENDBRANCH  59  83
BRANCH  71  94
ATOM     94  C   UNL     1     -12.070 -12.963   0.824  1.00  0.00     0.023 A 
ATOM     95  C   UNL     1     -11.404 -13.023   2.067  1.00  0.00     0.012 A 
ATOM     96  C   UNL     1     -13.255 -12.216   0.728  1.00  0.00     0.148 A 
ATOM     97  C   UNL     1     -11.931 -12.382   3.194  1.00  0.00     0.002 A 
ATOM     98  C   UNL     1     -13.751 -11.543   1.837  1.00  0.00     0.091 A 
ATOM     99  F   UNL     1     -13.879 -12.168  -0.459  1.00  0.00    -0.205 F 
ATOM    100  C   UNL     1     -13.100 -11.632   3.076  1.00  0.00     0.022 A 
BRANCH  98 101
ATOM    101  S   UNL     1     -15.189 -10.479   1.711  1.00  0.00     0.127 S 
ATOM    102  O   UNL     1     -16.231 -11.301   2.321  1.00  0.00    -0.237 OA
ATOM    103  O   UNL     1     -14.789  -9.312   2.499  1.00  0.00    -0.237 OA
ATOM    104  O   UNL     1     -15.358 -10.203   0.289  1.00  0.00    -0.744 OA
ENDBRANCH  98 101
ENDBRANCH  71  94
ENDBRANCH  45  46
ENDBRANCH  38  40
ENDBRANCH  37  38
ENDBRANCH   1  37
TORSDOF 18
