REMARK SMILES [H]/N=C1\C=CC2=NC(C(=O)OCCOC(=O)c3ccc(-c4c5nc(c(-c6cccc(S(=O)(=O)[O-])c6F)c6ccc([nH]6)c(-c6cccc(S(=O)(=O)[O-])c6F)c6nc(c(-c7cccc(S(=O)(=O)[O-])c7F)c7ccc4[nH]7)C=C6)C=C5)cc3)=C[C@@H]2C1
REMARK SMILES IDX 14 1 13 2 12 3 11 4 9 5 10 6 8 7 2 8 3 9 1 10 4 11 82 12
REMARK SMILES IDX 5 13 81 14 6 15 80 16 7 17 15 18 16 19 17 20 18 21 79 22
REMARK SMILES IDX 19 23 78 24 20 25 21 26 22 27 72 28 23 29 77 30 71 31 73 32
REMARK SMILES IDX 24 33 76 34 70 35 69 36 25 38 57 39 37 40 56 41 38 42 41 43
REMARK SMILES IDX 55 44 74 45 39 46 40 47 54 49 75 50 42 51 26 52 27 53 35 54
REMARK SMILES IDX 28 55 30 56 36 57 29 58 31 59 32 60 33 61 34 62 58 63 59 64
REMARK SMILES IDX 67 65 60 66 62 67 68 68 61 69 63 70 64 71 65 72 66 73 43 74
REMARK SMILES IDX 44 75 52 76 45 77 47 78 53 79 46 80 48 81 49 82 50 83 51 84
REMARK H PARENT 73 37 41 48
REMARK Flexibility Score: inf
ROOT
ATOM      1  O   UNL     1      -4.635  -6.987  -3.700  1.00  0.00    -0.458 OA
ENDROOT
BRANCH   1   2
ATOM      2  C   UNL     1      -5.918  -6.463  -3.365  1.00  0.00     0.275 C 
BRANCH   2   3
ATOM      3  C   UNL     1      -6.021  -6.067  -1.893  1.00  0.00     0.275 C 
BRANCH   3   4
ATOM      4  O   UNL     1      -5.074  -5.048  -1.512  1.00  0.00    -0.457 OA
BRANCH   4   5
ATOM      5  C   UNL     1      -3.861  -5.537  -1.117  1.00  0.00     0.356 C 
ATOM      6  O   UNL     1      -3.614  -6.712  -0.909  1.00  0.00    -0.244 OA
BRANCH   5   7
ATOM      7  C   UNL     1      -2.826  -4.461  -0.991  1.00  0.00     0.145 C 
ATOM      8  N   UNL     1       0.676   0.041  -0.101  1.00  0.00    -0.305 NA
ATOM      9  C   UNL     1       0.212  -1.086  -0.533  1.00  0.00     0.032 C 
ATOM     10  H   UNL     1       1.639   0.141   0.075  1.00  0.00     0.187 HD
ATOM     11  C   UNL     1       1.097  -2.252  -0.799  1.00  0.00     0.025 C 
ATOM     12  C   UNL     1      -1.281  -1.227  -0.800  1.00  0.00     0.069 C 
ATOM     13  C   UNL     1       0.585  -3.475  -0.974  1.00  0.00     0.026 C 
ATOM     14  C   UNL     1      -1.725  -2.570  -0.267  1.00  0.00     0.069 C 
ATOM     15  C   UNL     1      -0.865  -3.673  -0.836  1.00  0.00     0.049 C 
ATOM     16  C   UNL     1      -3.041  -3.187  -0.626  1.00  0.00     0.019 C 
ATOM     17  N   UNL     1      -1.486  -4.765  -1.144  1.00  0.00    -0.245 NA
ENDBRANCH   5   7
ENDBRANCH   4   5
ENDBRANCH   3   4
ENDBRANCH   2   3
ENDBRANCH   1   2
BRANCH   1  18
ATOM     18  C   UNL     1      -3.741  -6.055  -4.091  1.00  0.00     0.338 C 
ATOM     19  O   UNL     1      -3.862  -4.834  -3.979  1.00  0.00    -0.246 OA
BRANCH  18  20
ATOM     20  C   UNL     1      -2.670  -6.671  -4.874  1.00  0.00     0.060 A 
ATOM     21  C   UNL     1      -1.658  -5.817  -5.322  1.00  0.00     0.016 A 
ATOM     22  C   UNL     1      -2.851  -7.953  -5.415  1.00  0.00     0.016 A 
ATOM     23  C   UNL     1      -0.965  -6.160  -6.460  1.00  0.00     0.010 A 
ATOM     24  C   UNL     1      -2.158  -8.295  -6.555  1.00  0.00     0.010 A 
ATOM     25  C   UNL     1      -1.295  -7.353  -7.111  1.00  0.00    -0.014 A 
BRANCH  25  26
ATOM     26  C   UNL     1      -0.734  -7.570  -8.425  1.00  0.00     0.031 A 
ATOM     27  C   UNL     1       0.699  -7.915  -8.442  1.00  0.00     0.074 A 
ATOM     28  C   UNL     1      -1.484  -7.524  -9.540  1.00  0.00     0.049 A 
ATOM     29  N   UNL     1       1.669  -7.196  -8.899  1.00  0.00    -0.248 NA
ATOM     30  C   UNL     1       1.115  -9.147  -7.763  1.00  0.00     0.031 C 
ATOM     31  C   UNL     1      -2.944  -7.465  -9.649  1.00  0.00     0.029 A 
ATOM     32  N   UNL     1      -1.077  -7.673 -10.829  1.00  0.00    -0.354 N 
ATOM     33  C   UNL     1       2.809  -7.974  -8.744  1.00  0.00     0.074 A 
ATOM     34  C   UNL     1       2.439  -9.083  -7.900  1.00  0.00     0.031 C 
ATOM     35  C   UNL     1      -3.301  -7.843 -10.897  1.00  0.00     0.029 A 
ATOM     36  C   UNL     1      -2.099  -8.039 -11.690  1.00  0.00     0.049 A 
ATOM     37  H   UNL     1      -0.147  -7.535 -11.121  1.00  0.00     0.167 HD
ATOM     38  C   UNL     1       3.923  -7.769  -9.494  1.00  0.00     0.034 A 
ATOM     39  C   UNL     1      -1.943  -8.569 -12.926  1.00  0.00     0.034 A 
ATOM     40  C   UNL     1       3.882  -6.524 -10.211  1.00  0.00     0.049 A 
ATOM     41  C   UNL     1      -0.585  -8.207 -13.402  1.00  0.00     0.074 A 
ATOM     42  C   UNL     1       3.796  -5.193  -9.857  1.00  0.00     0.029 A 
ATOM     43  N   UNL     1       3.565  -6.584 -11.547  1.00  0.00    -0.354 N 
ATOM     44  N   UNL     1      -0.227  -6.984 -13.684  1.00  0.00    -0.248 NA
ATOM     45  C   UNL     1       0.511  -9.134 -13.163  1.00  0.00     0.031 C 
ATOM     46  C   UNL     1       2.993  -4.593 -10.870  1.00  0.00     0.029 A 
ATOM     47  C   UNL     1       2.660  -5.586 -11.794  1.00  0.00     0.049 A 
ATOM     48  H   UNL     1       3.923  -7.224 -12.204  1.00  0.00     0.167 HD
ATOM     49  C   UNL     1       1.077  -6.884 -13.213  1.00  0.00     0.074 A 
ATOM     50  C   UNL     1       1.517  -8.264 -13.027  1.00  0.00     0.031 C 
ATOM     51  C   UNL     1       1.568  -5.699 -12.737  1.00  0.00     0.034 A 
BRANCH  38  52
ATOM     52  C   UNL     1       4.918  -8.838  -9.842  1.00  0.00     0.023 A 
ATOM     53  C   UNL     1       6.179  -8.429 -10.324  1.00  0.00     0.012 A 
ATOM     54  C   UNL     1       4.585 -10.204  -9.964  1.00  0.00     0.148 A 
ATOM     55  C   UNL     1       7.057  -9.336 -10.924  1.00  0.00     0.002 A 
ATOM     56  C   UNL     1       5.493 -11.115 -10.485  1.00  0.00     0.091 A 
ATOM     57  F   UNL     1       3.336 -10.611  -9.706  1.00  0.00    -0.205 F 
ATOM     58  C   UNL     1       6.720 -10.684 -10.992  1.00  0.00     0.022 A 
BRANCH  56  59
ATOM     59  S   UNL     1       5.120 -12.870 -10.536  1.00  0.00     0.127 S 
ATOM     60  O   UNL     1       4.712 -13.044 -11.926  1.00  0.00    -0.237 OA
ATOM     61  O   UNL     1       6.410 -13.467 -10.188  1.00  0.00    -0.237 OA
ATOM     62  O   UNL     1       4.085 -13.066  -9.527  1.00  0.00    -0.744 OA
ENDBRANCH  56  59
ENDBRANCH  38  52
BRANCH  39  63
ATOM     63  C   UNL     1      -2.796  -9.571 -13.600  1.00  0.00     0.023 A 
ATOM     64  C   UNL     1      -2.748  -9.709 -14.999  1.00  0.00     0.012 A 
ATOM     65  C   UNL     1      -3.482 -10.559 -12.855  1.00  0.00     0.148 A 
ATOM     66  C   UNL     1      -3.352 -10.801 -15.634  1.00  0.00     0.002 A 
ATOM     67  C   UNL     1      -4.095 -11.632 -13.491  1.00  0.00     0.091 A 
ATOM     68  F   UNL     1      -3.454 -10.499 -11.517  1.00  0.00    -0.205 F 
ATOM     69  C   UNL     1      -4.023 -11.763 -14.882  1.00  0.00     0.022 A 
BRANCH  67  70
ATOM     70  S   UNL     1      -4.970 -12.908 -12.573  1.00  0.00     0.127 S 
ATOM     71  O   UNL     1      -6.195 -13.062 -13.357  1.00  0.00    -0.237 OA
ATOM     72  O   UNL     1      -4.042 -14.032 -12.658  1.00  0.00    -0.237 OA
ATOM     73  O   UNL     1      -5.183 -12.361 -11.239  1.00  0.00    -0.744 OA
ENDBRANCH  67  70
ENDBRANCH  39  63
BRANCH  51  74
ATOM     74  C   UNL     1       0.732  -4.456 -12.938  1.00  0.00     0.023 A 
ATOM     75  C   UNL     1      -0.554  -4.335 -12.367  1.00  0.00     0.012 A 
ATOM     76  C   UNL     1       1.308  -3.328 -13.544  1.00  0.00     0.148 A 
ATOM     77  C   UNL     1      -1.262  -3.134 -12.429  1.00  0.00     0.002 A 
ATOM     78  C   UNL     1       0.619  -2.119 -13.564  1.00  0.00     0.091 A 
ATOM     79  F   UNL     1       2.538  -3.445 -14.068  1.00  0.00    -0.205 F 
ATOM     80  C   UNL     1      -0.671  -2.022 -13.018  1.00  0.00     0.022 A 
BRANCH  78  81
ATOM     81  S   UNL     1       1.375  -0.613 -14.183  1.00  0.00     0.127 S 
ATOM     82  O   UNL     1       0.745  -0.470 -15.493  1.00  0.00    -0.237 OA
ATOM     83  O   UNL     1       0.957   0.382 -13.193  1.00  0.00    -0.237 OA
ATOM     84  O   UNL     1       2.811  -0.865 -14.197  1.00  0.00    -0.744 OA
ENDBRANCH  78  81
ENDBRANCH  51  74
ENDBRANCH  25  26
ENDBRANCH  18  20
ENDBRANCH   1  18
TORSDOF 14
