REMARK SMILES CC(C)(C)OC(=O)N1CC[N@H+](Cc2ccc(Cl)nc2)[C@H](C(=O)OCCOC(=O)c2ccc(-c3c4nc(c(-c5cccc(S(=O)(=O)[O-])c5F)c5ccc([nH]5)c(-c5cccc(S(=O)(=O)[O-])c5F)c5nc(c(-c6cccc(S(=O)(=O)[O-])c6F)c6ccc3[nH]6)C=C5)C=C4)cc2)C1
REMARK SMILES IDX 24 1 23 2 21 3 22 4 20 5 8 6 9 7 92 8 10 9 11 10 6 12 7 13
REMARK SMILES IDX 5 14 2 15 1 16 3 17 4 18 12 19 13 20 14 21 19 22 15 23 18 24
REMARK SMILES IDX 16 25 17 26 25 27 26 28 27 29 28 30 29 31 30 32 91 33 31 34
REMARK SMILES IDX 90 35 32 36 33 37 34 38 84 39 35 40 89 41 83 42 85 43 36 44
REMARK SMILES IDX 88 45 82 46 81 47 37 49 69 50 49 51 68 52 50 53 53 54 67 55
REMARK SMILES IDX 86 56 51 57 52 58 66 60 87 61 54 62 38 63 39 64 47 65 40 66
REMARK SMILES IDX 42 67 48 68 41 69 43 70 44 71 45 72 46 73 70 74 71 75 79 76
REMARK SMILES IDX 72 77 74 78 80 79 73 80 75 81 76 82 77 83 78 84 55 85 56 86
REMARK SMILES IDX 64 87 57 88 59 89 65 90 58 91 60 92 61 93 62 94 63 95
REMARK H PARENT 11 11 85 48 53 59
REMARK Flexibility Score: inf
ROOT
ATOM      1  C   UNL     1       5.534   4.847  -5.040  1.00  0.00     0.274 C 
ENDROOT
BRANCH   1   2
ATOM      2  O   UNL     1       4.176   4.441  -4.760  1.00  0.00    -0.458 OA
BRANCH   2   3
ATOM      3  C   UNL     1       3.600   3.623  -5.692  1.00  0.00     0.366 C 
ATOM      4  O   UNL     1       4.207   3.179  -6.659  1.00  0.00    -0.245 OA
BRANCH   3   5
ATOM      5  C   UNL     1       2.121   3.338  -5.369  1.00  0.00     0.315 C 
ATOM      6  N   UNL     1       0.539   1.626  -4.378  1.00  0.00    -0.296 N 
ATOM      7  C   UNL     1      -0.410   1.920  -5.435  1.00  0.00     0.184 C 
ATOM      8  C   UNL     1       1.937   1.992  -4.627  1.00  0.00     0.200 C 
ATOM      9  C   UNL     1      -0.176   3.266  -6.139  1.00  0.00     0.285 C 
ATOM     10  N   UNL     1       1.210   3.551  -6.539  1.00  0.00    -0.316 N 
ATOM     11  H   UNL     1       1.338   4.540  -6.749  1.00  0.00     0.349 HD
BRANCH   6  12
ATOM     12  C   UNL     1       0.212   0.537  -3.579  1.00  0.00     0.410 C 
ATOM     13  O   UNL     1      -0.709  -0.225  -3.870  1.00  0.00    -0.224 OA
BRANCH  12  14
ATOM     14  O   UNL     1       0.926   0.472  -2.428  1.00  0.00    -0.444 OA
BRANCH  14  15
ATOM     15  C   UNL     1       0.541  -0.491  -1.400  1.00  0.00     0.106 C 
ATOM     16  C   UNL     1       1.206   0.005  -0.106  1.00  0.00     0.056 C 
ATOM     17  C   UNL     1       1.091  -1.878  -1.746  1.00  0.00     0.056 C 
ATOM     18  C   UNL     1      -0.977  -0.542  -1.139  1.00  0.00     0.056 C 
ENDBRANCH  14  15
ENDBRANCH  12  14
ENDBRANCH   6  12
BRANCH  10  19
ATOM     19  C   UNL     1       1.577   3.076  -7.887  1.00  0.00     0.301 C 
BRANCH  19  20
ATOM     20  C   UNL     1       1.504   1.603  -8.198  1.00  0.00     0.025 A 
ATOM     21  C   UNL     1       0.288   0.971  -8.489  1.00  0.00     0.014 A 
ATOM     22  C   UNL     1       2.643   0.808  -8.255  1.00  0.00     0.122 A 
ATOM     23  C   UNL     1       0.235  -0.409  -8.659  1.00  0.00     0.041 A 
ATOM     24  N   UNL     1       2.626  -0.531  -8.446  1.00  0.00    -0.244 NA
ATOM     25  C   UNL     1       1.422  -1.110  -8.610  1.00  0.00     0.129 A 
ATOM     26  Cl  UNL     1       1.420  -2.817  -8.720  1.00  0.00    -0.062 Cl
ENDBRANCH  19  20
ENDBRANCH  10  19
ENDBRANCH   3   5
ENDBRANCH   2   3
ENDBRANCH   1   2
BRANCH   1  27
ATOM     27  C   UNL     1       6.559   4.046  -4.236  1.00  0.00     0.275 C 
BRANCH  27  28
ATOM     28  O   UNL     1       6.572   2.662  -4.628  1.00  0.00    -0.458 OA
BRANCH  28  29
ATOM     29  C   UNL     1       5.923   1.824  -3.788  1.00  0.00     0.338 C 
ATOM     30  O   UNL     1       5.353   2.119  -2.751  1.00  0.00    -0.246 OA
BRANCH  29  31
ATOM     31  C   UNL     1       5.850   0.473  -4.365  1.00  0.00     0.060 A 
ATOM     32  C   UNL     1       4.841   0.236  -5.288  1.00  0.00     0.016 A 
ATOM     33  C   UNL     1       6.603  -0.589  -3.872  1.00  0.00     0.016 A 
ATOM     34  C   UNL     1       4.488  -1.059  -5.631  1.00  0.00     0.010 A 
ATOM     35  C   UNL     1       6.325  -1.892  -4.317  1.00  0.00     0.010 A 
ATOM     36  C   UNL     1       5.240  -2.142  -5.176  1.00  0.00    -0.014 A 
BRANCH  36  37
ATOM     37  C   UNL     1       4.825  -3.511  -5.583  1.00  0.00     0.031 A 
ATOM     38  C   UNL     1       4.339  -4.486  -4.551  1.00  0.00     0.074 A 
ATOM     39  C   UNL     1       4.795  -3.849  -6.889  1.00  0.00     0.049 A 
ATOM     40  N   UNL     1       4.003  -5.741  -4.693  1.00  0.00    -0.248 NA
ATOM     41  C   UNL     1       4.216  -3.985  -3.172  1.00  0.00     0.031 C 
ATOM     42  C   UNL     1       5.142  -2.959  -7.998  1.00  0.00     0.029 A 
ATOM     43  N   UNL     1       4.415  -5.014  -7.510  1.00  0.00    -0.354 N 
ATOM     44  C   UNL     1       3.723  -6.206  -3.416  1.00  0.00     0.074 A 
ATOM     45  C   UNL     1       3.884  -5.086  -2.514  1.00  0.00     0.031 C 
ATOM     46  C   UNL     1       4.884  -3.579  -9.159  1.00  0.00     0.029 A 
ATOM     47  C   UNL     1       4.440  -4.940  -8.885  1.00  0.00     0.049 A 
ATOM     48  H   UNL     1       4.149  -5.825  -7.019  1.00  0.00     0.167 HD
ATOM     49  C   UNL     1       3.385  -7.460  -3.030  1.00  0.00     0.034 A 
ATOM     50  C   UNL     1       4.145  -5.866  -9.819  1.00  0.00     0.034 A 
ATOM     51  C   UNL     1       3.181  -8.554  -3.942  1.00  0.00     0.049 A 
ATOM     52  C   UNL     1       3.767  -7.249  -9.362  1.00  0.00     0.074 A 
ATOM     53  C   UNL     1       2.883  -9.873  -3.650  1.00  0.00     0.029 A 
ATOM     54  N   UNL     1       3.242  -8.455  -5.324  1.00  0.00    -0.354 N 
ATOM     55  N   UNL     1       3.541  -7.689  -8.148  1.00  0.00    -0.248 NA
ATOM     56  C   UNL     1       3.623  -8.273 -10.407  1.00  0.00     0.031 C 
ATOM     57  C   UNL     1       2.793 -10.578  -4.855  1.00  0.00     0.029 A 
ATOM     58  C   UNL     1       2.998  -9.691  -5.900  1.00  0.00     0.049 A 
ATOM     59  H   UNL     1       3.431  -7.628  -5.823  1.00  0.00     0.167 HD
ATOM     60  C   UNL     1       3.224  -9.036  -8.282  1.00  0.00     0.074 A 
ATOM     61  C   UNL     1       3.240  -9.328  -9.701  1.00  0.00     0.031 C 
ATOM     62  C   UNL     1       2.976  -9.956  -7.317  1.00  0.00     0.034 A 
BRANCH  49  63
ATOM     63  C   UNL     1       3.277  -7.721  -1.552  1.00  0.00     0.023 A 
ATOM     64  C   UNL     1       2.182  -7.230  -0.815  1.00  0.00     0.012 A 
ATOM     65  C   UNL     1       4.275  -8.468  -0.894  1.00  0.00     0.148 A 
ATOM     66  C   UNL     1       2.103  -7.444   0.562  1.00  0.00     0.002 A 
ATOM     67  C   UNL     1       4.166  -8.717   0.468  1.00  0.00     0.091 A 
ATOM     68  F   UNL     1       5.323  -8.904  -1.607  1.00  0.00    -0.205 F 
ATOM     69  C   UNL     1       3.089  -8.194   1.201  1.00  0.00     0.022 A 
BRANCH  67  70
ATOM     70  S   UNL     1       5.348  -9.733   1.361  1.00  0.00     0.127 S 
ATOM     71  O   UNL     1       6.062  -8.730   2.151  1.00  0.00    -0.237 OA
ATOM     72  O   UNL     1       4.474 -10.612   2.138  1.00  0.00    -0.237 OA
ATOM     73  O   UNL     1       6.142 -10.412   0.346  1.00  0.00    -0.744 OA
ENDBRANCH  67  70
ENDBRANCH  49  63
BRANCH  50  74
ATOM     74  C   UNL     1       4.179  -5.524 -11.274  1.00  0.00     0.023 A 
ATOM     75  C   UNL     1       2.991  -5.604 -12.028  1.00  0.00     0.012 A 
ATOM     76  C   UNL     1       5.365  -5.116 -11.917  1.00  0.00     0.148 A 
ATOM     77  C   UNL     1       2.989  -5.315 -13.394  1.00  0.00     0.002 A 
ATOM     78  C   UNL     1       5.341  -4.759 -13.260  1.00  0.00     0.091 A 
ATOM     79  F   UNL     1       6.499  -5.083 -11.203  1.00  0.00    -0.205 F 
ATOM     80  C   UNL     1       4.160  -4.878 -14.007  1.00  0.00     0.022 A 
BRANCH  78  81
ATOM     81  S   UNL     1       6.768  -4.043 -14.086  1.00  0.00     0.127 S 
ATOM     82  O   UNL     1       7.211  -5.149 -14.931  1.00  0.00    -0.237 OA
ATOM     83  O   UNL     1       6.172  -2.918 -14.808  1.00  0.00    -0.237 OA
ATOM     84  O   UNL     1       7.682  -3.652 -13.021  1.00  0.00    -0.744 OA
ENDBRANCH  78  81
ENDBRANCH  50  74
BRANCH  62  85
ATOM     85  C   UNL     1       2.696 -11.369  -7.758  1.00  0.00     0.023 A 
ATOM     86  C   UNL     1       3.744 -12.160  -8.272  1.00  0.00     0.012 A 
ATOM     87  C   UNL     1       1.418 -11.937  -7.594  1.00  0.00     0.148 A 
ATOM     88  C   UNL     1       3.515 -13.484  -8.647  1.00  0.00     0.002 A 
ATOM     89  C   UNL     1       1.210 -13.272  -7.922  1.00  0.00     0.091 A 
ATOM     90  F   UNL     1       0.430 -11.164  -7.119  1.00  0.00    -0.205 F 
ATOM     91  C   UNL     1       2.253 -14.042  -8.460  1.00  0.00     0.022 A 
BRANCH  89  92
ATOM     92  S   UNL     1      -0.354 -14.106  -7.626  1.00  0.00     0.127 S 
ATOM     93  O   UNL     1      -0.857 -14.288  -8.987  1.00  0.00    -0.237 OA
ATOM     94  O   UNL     1       0.074 -15.339  -6.965  1.00  0.00    -0.237 OA
ATOM     95  O   UNL     1      -1.137 -13.210  -6.787  1.00  0.00    -0.744 OA
ENDBRANCH  89  92
ENDBRANCH  62  85
ENDBRANCH  36  37
ENDBRANCH  29  31
ENDBRANCH  28  29
ENDBRANCH  27  28
ENDBRANCH   1  27
TORSDOF 19
