REMARK SMILES COc1cc2c(cc1OC)[C@H](C(=O)OCCOC(=O)c1ccc(-c3c4nc(c(-c5cccc(S(=O)(=O)[O-])c5F)c5ccc([nH]5)c(-c5cccc(S(=O)(=O)[O-])c5F)c5nc(c(-c6cccc(S(=O)(=O)[O-])c6F)c6ccc3[nH]6)C=C5)C=C4)cc1)[C@H](c1cccc(Cl)c1)N(C)C2=O
REMARK SMILES IDX 16 1 15 2 14 3 12 4 13 5 11 6 3 7 4 8 8 9 5 10 7 11 6 12
REMARK SMILES IDX 93 13 91 14 94 15 83 16 92 17 2 18 1 19 9 20 10 21 84 22
REMARK SMILES IDX 85 23 90 24 86 25 88 26 87 27 89 28 17 29 18 30 19 31 20 32
REMARK SMILES IDX 21 33 82 34 22 35 81 36 23 37 24 38 25 39 75 40 26 41 80 42
REMARK SMILES IDX 74 43 76 44 27 45 79 46 73 47 72 48 28 50 60 51 40 52 59 53
REMARK SMILES IDX 41 54 44 55 58 56 77 57 42 58 43 59 57 61 78 62 45 63 29 64
REMARK SMILES IDX 30 65 38 66 31 67 33 68 39 69 32 70 34 71 35 72 36 73 37 74
REMARK SMILES IDX 61 75 62 76 70 77 63 78 65 79 71 80 64 81 66 82 67 83 68 84
REMARK SMILES IDX 69 85 46 86 47 87 55 88 48 89 50 90 56 91 49 92 51 93 52 94
REMARK SMILES IDX 53 95 54 96
REMARK H PARENT 76 49 44 60
REMARK Flexibility Score: inf
ROOT
ATOM      1  C   UNL     1      -2.187   7.793   0.392  1.00  0.00     0.275 C 
ENDROOT
BRANCH   1   2
ATOM      2  C   UNL     1      -0.897   8.273  -0.270  1.00  0.00     0.274 C 
BRANCH   2   3
ATOM      3  O   UNL     1       0.105   7.237  -0.192  1.00  0.00    -0.462 OA
BRANCH   3   4
ATOM      4  C   UNL     1       0.975   7.343   0.839  1.00  0.00     0.316 C 
ATOM      5  O   UNL     1       1.080   8.349   1.538  1.00  0.00    -0.251 OA
BRANCH   4   6
ATOM      6  C   UNL     1       1.874   6.154   1.066  1.00  0.00     0.157 C 
ATOM      7  C   UNL     1       1.242   2.087  -0.341  1.00  0.00     0.161 A 
ATOM      8  C   UNL     1       2.439   2.485   0.260  1.00  0.00     0.064 A 
ATOM      9  C   UNL     1       0.222   3.026  -0.529  1.00  0.00     0.161 A 
ATOM     10  C   UNL     1       2.614   3.809   0.683  1.00  0.00     0.048 A 
ATOM     11  C   UNL     1       0.398   4.347  -0.082  1.00  0.00     0.056 A 
ATOM     12  C   UNL     1       1.593   4.767   0.514  1.00  0.00    -0.015 A 
ATOM     13  C   UNL     1       3.927   4.189   1.295  1.00  0.00     0.254 C 
ATOM     14  N   UNL     1       4.222   5.549   1.361  1.00  0.00    -0.333 N 
ATOM     15  O   UNL     1       4.695   3.313   1.679  1.00  0.00    -0.269 OA
ATOM     16  C   UNL     1       3.335   6.558   0.756  1.00  0.00     0.134 C 
ATOM     17  C   UNL     1       5.475   5.984   1.954  1.00  0.00     0.147 C 
BRANCH   7  18
ATOM     18  O   UNL     1       1.109   0.816  -0.836  1.00  0.00    -0.493 OA
ATOM     19  C   UNL     1       1.393  -0.193   0.134  1.00  0.00     0.278 C 
ENDBRANCH   7  18
BRANCH   9  20
ATOM     20  O   UNL     1      -0.978   2.827  -1.161  1.00  0.00    -0.493 OA
ATOM     21  C   UNL     1      -1.546   1.529  -1.061  1.00  0.00     0.278 C 
ENDBRANCH   9  20
BRANCH  16  22
ATOM     22  C   UNL     1       3.588   6.795  -0.738  1.00  0.00    -0.023 A 
ATOM     23  C   UNL     1       3.076   7.957  -1.348  1.00  0.00     0.006 A 
ATOM     24  C   UNL     1       4.249   5.865  -1.558  1.00  0.00     0.026 A 
ATOM     25  C   UNL     1       3.134   8.136  -2.732  1.00  0.00     0.002 A 
ATOM     26  C   UNL     1       4.321   6.056  -2.939  1.00  0.00     0.041 A 
ATOM     27  C   UNL     1       3.747   7.176  -3.531  1.00  0.00     0.020 A 
ATOM     28  Cl  UNL     1       5.110   4.883  -3.922  1.00  0.00    -0.084 Cl
ENDBRANCH  16  22
ENDBRANCH   4   6
ENDBRANCH   3   4
ENDBRANCH   2   3
ENDBRANCH   1   2
BRANCH   1  29
ATOM     29  O   UNL     1      -1.905   7.381   1.741  1.00  0.00    -0.458 OA
BRANCH  29  30
ATOM     30  C   UNL     1      -2.318   6.138   2.078  1.00  0.00     0.338 C 
ATOM     31  O   UNL     1      -2.963   5.367   1.379  1.00  0.00    -0.246 OA
BRANCH  30  32
ATOM     32  C   UNL     1      -1.879   5.804   3.446  1.00  0.00     0.060 A 
ATOM     33  C   UNL     1      -0.601   6.136   3.905  1.00  0.00     0.016 A 
ATOM     34  C   UNL     1      -2.748   5.090   4.270  1.00  0.00     0.016 A 
ATOM     35  C   UNL     1      -0.169   5.708   5.160  1.00  0.00     0.010 A 
ATOM     36  C   UNL     1      -2.351   4.747   5.563  1.00  0.00     0.010 A 
ATOM     37  C   UNL     1      -1.054   5.040   6.017  1.00  0.00    -0.014 A 
BRANCH  37  38
ATOM     38  C   UNL     1      -0.675   4.705   7.414  1.00  0.00     0.031 A 
ATOM     39  C   UNL     1      -0.717   3.279   7.890  1.00  0.00     0.074 A 
ATOM     40  C   UNL     1      -0.406   5.702   8.280  1.00  0.00     0.049 A 
ATOM     41  N   UNL     1      -0.666   2.815   9.111  1.00  0.00    -0.248 NA
ATOM     42  C   UNL     1      -0.857   2.239   6.857  1.00  0.00     0.031 C 
ATOM     43  C   UNL     1      -0.353   7.126   7.940  1.00  0.00     0.029 A 
ATOM     44  N   UNL     1      -0.174   5.677   9.633  1.00  0.00    -0.354 N 
ATOM     45  C   UNL     1      -0.835   1.440   9.003  1.00  0.00     0.074 A 
ATOM     46  C   UNL     1      -0.976   1.141   7.593  1.00  0.00     0.031 C 
ATOM     47  C   UNL     1      -0.123   7.838   9.052  1.00  0.00     0.029 A 
ATOM     48  C   UNL     1      -0.083   6.931  10.192  1.00  0.00     0.049 A 
ATOM     49  H   UNL     1      -0.083   4.845  10.152  1.00  0.00     0.167 HD
ATOM     50  C   UNL     1      -0.863   0.513   9.991  1.00  0.00     0.034 A 
ATOM     51  C   UNL     1      -0.026   7.318  11.481  1.00  0.00     0.034 A 
ATOM     52  C   UNL     1      -0.662   0.817  11.383  1.00  0.00     0.049 A 
ATOM     53  C   UNL     1      -0.041   6.270  12.554  1.00  0.00     0.074 A 
ATOM     54  C   UNL     1      -0.600  -0.058  12.454  1.00  0.00     0.029 A 
ATOM     55  N   UNL     1      -0.489   2.092  11.899  1.00  0.00    -0.354 N 
ATOM     56  N   UNL     1      -0.113   4.967  12.430  1.00  0.00    -0.248 NA
ATOM     57  C   UNL     1       0.050   6.739  13.943  1.00  0.00     0.031 C 
ATOM     58  C   UNL     1      -0.399   0.692  13.619  1.00  0.00     0.029 A 
ATOM     59  C   UNL     1      -0.326   2.031  13.272  1.00  0.00     0.049 A 
ATOM     60  H   UNL     1      -0.483   2.920  11.366  1.00  0.00     0.167 HD
ATOM     61  C   UNL     1      -0.061   4.458  13.721  1.00  0.00     0.074 A 
ATOM     62  C   UNL     1       0.079   5.593  14.611  1.00  0.00     0.031 C 
ATOM     63  C   UNL     1      -0.144   3.170  14.135  1.00  0.00     0.034 A 
BRANCH  50  64
ATOM     64  C   UNL     1      -1.081  -0.925   9.603  1.00  0.00     0.023 A 
ATOM     65  C   UNL     1      -0.028  -1.656   9.019  1.00  0.00     0.012 A 
ATOM     66  C   UNL     1      -2.301  -1.574   9.882  1.00  0.00     0.148 A 
ATOM     67  C   UNL     1      -0.192  -3.004   8.697  1.00  0.00     0.002 A 
ATOM     68  C   UNL     1      -2.445  -2.927   9.591  1.00  0.00     0.091 A 
ATOM     69  F   UNL     1      -3.301  -0.857  10.415  1.00  0.00    -0.205 F 
ATOM     70  C   UNL     1      -1.394  -3.641   8.993  1.00  0.00     0.022 A 
BRANCH  68  71
ATOM     71  S   UNL     1      -3.933  -3.849   9.998  1.00  0.00     0.127 S 
ATOM     72  O   UNL     1      -4.558  -3.994   8.684  1.00  0.00    -0.237 OA
ATOM     73  O   UNL     1      -3.389  -5.089  10.554  1.00  0.00    -0.237 OA
ATOM     74  O   UNL     1      -4.662  -3.027  10.954  1.00  0.00    -0.744 OA
ENDBRANCH  68  71
ENDBRANCH  50  64
BRANCH  51  75
ATOM     75  C   UNL     1       0.073   8.769  11.806  1.00  0.00     0.023 A 
ATOM     76  C   UNL     1       1.288   9.282  12.297  1.00  0.00     0.012 A 
ATOM     77  C   UNL     1      -0.995   9.653  11.555  1.00  0.00     0.148 A 
ATOM     78  C   UNL     1       1.435  10.648  12.541  1.00  0.00     0.002 A 
ATOM     79  C   UNL     1      -0.822  11.020  11.743  1.00  0.00     0.091 A 
ATOM     80  F   UNL     1      -2.153   9.145  11.109  1.00  0.00    -0.205 F 
ATOM     81  C   UNL     1       0.388  11.518  12.249  1.00  0.00     0.022 A 
BRANCH  79  82
ATOM     82  S   UNL     1      -2.066  12.214  11.236  1.00  0.00     0.127 S 
ATOM     83  O   UNL     1      -2.695  12.552  12.509  1.00  0.00    -0.237 OA
ATOM     84  O   UNL     1      -1.252  13.279  10.648  1.00  0.00    -0.237 OA
ATOM     85  O   UNL     1      -2.904  11.509  10.274  1.00  0.00    -0.744 OA
ENDBRANCH  79  82
ENDBRANCH  51  75
BRANCH  63  86
ATOM     86  C   UNL     1      -0.077   2.920  15.617  1.00  0.00     0.023 A 
ATOM     87  C   UNL     1      -1.202   3.201  16.416  1.00  0.00     0.012 A 
ATOM     88  C   UNL     1       1.071   2.355  16.205  1.00  0.00     0.148 A 
ATOM     89  C   UNL     1      -1.175   2.949  17.787  1.00  0.00     0.002 A 
ATOM     90  C   UNL     1       1.075   2.070  17.565  1.00  0.00     0.091 A 
ATOM     91  F   UNL     1       2.138   2.118  15.429  1.00  0.00    -0.205 F 
ATOM     92  C   UNL     1      -0.043   2.374  18.359  1.00  0.00     0.022 A 
BRANCH  90  93
ATOM     93  S   UNL     1       2.462   1.255  18.365  1.00  0.00     0.127 S 
ATOM     94  O   UNL     1       3.117   2.374  19.040  1.00  0.00    -0.237 OA
ATOM     95  O   UNL     1       1.797   0.308  19.260  1.00  0.00    -0.237 OA
ATOM     96  O   UNL     1       3.227   0.631  17.293  1.00  0.00    -0.744 OA
ENDBRANCH  90  93
ENDBRANCH  63  86
ENDBRANCH  37  38
ENDBRANCH  30  32
ENDBRANCH  29  30
ENDBRANCH   1  29
TORSDOF 17
