REMARK SMILES O=C(CCc1cccnc1)Nc1ccsc1C(=O)OCCOC(=O)c1ccc(-c2c3nc(c(-c4cccc(S(=O)(=O)[O-])c4F)c4ccc([nH]4)c(-c4cccc(S(=O)(=O)[O-])c4F)c4nc(c(-c5cccc(S(=O)(=O)[O-])c5F)c5ccc2[nH]5)C=C4)C=C3)cc1
REMARK SMILES IDX 20 1 19 2 17 3 18 4 16 5 12 6 13 7 14 8 15 9 11 10 1 11 2 12
REMARK SMILES IDX 3 14 4 15 5 16 6 17 10 18 7 19 9 20 8 21 21 22 22 23 23 24
REMARK SMILES IDX 24 25 25 26 26 27 87 28 27 29 86 30 28 31 29 32 30 33 80 34
REMARK SMILES IDX 31 35 85 36 79 37 81 38 32 39 84 40 78 41 77 42 33 44 65 45
REMARK SMILES IDX 45 46 64 47 46 48 49 49 63 50 82 51 47 52 48 53 62 55 83 56
REMARK SMILES IDX 50 57 34 58 35 59 43 60 36 61 38 62 44 63 37 64 39 65 40 66
REMARK SMILES IDX 41 67 42 68 66 69 67 70 75 71 68 72 70 73 76 74 69 75 71 76
REMARK SMILES IDX 72 77 73 78 74 79 51 80 52 81 60 82 53 83 55 84 61 85 54 86
REMARK SMILES IDX 56 87 57 88 58 89 59 90
REMARK H PARENT 11 13 81 43 49 54
REMARK Flexibility Score: inf
ROOT
ATOM      1  C   UNL     1       5.216  -0.258  -4.136  1.00  0.00     0.275 C 
ENDROOT
BRANCH   1   2
ATOM      2  O   UNL     1       4.126   0.309  -3.373  1.00  0.00    -0.458 OA
BRANCH   2   3
ATOM      3  C   UNL     1       4.002   1.675  -3.412  1.00  0.00     0.350 C 
ATOM      4  O   UNL     1       4.788   2.413  -3.990  1.00  0.00    -0.245 OA
BRANCH   3   5
ATOM      5  C   UNL     1       2.799   2.105  -2.707  1.00  0.00     0.136 A 
ATOM      6  C   UNL     1       2.053   1.501  -1.702  1.00  0.00     0.066 A 
ATOM      7  C   UNL     1       0.879   2.260  -1.395  1.00  0.00     0.039 A 
ATOM      8  C   UNL     1       0.800   3.435  -2.105  1.00  0.00     0.068 A 
ATOM      9  S   UNL     1       2.182   3.677  -3.065  1.00  0.00    -0.135 S 
BRANCH   6  10
ATOM     10  N   UNL     1       2.487   0.345  -1.057  1.00  0.00    -0.325 N 
ATOM     11  O   UNL     1       0.860   0.125   0.581  1.00  0.00    -0.275 OA
ATOM     12  C   UNL     1       1.974  -0.135   0.128  1.00  0.00     0.224 C 
ATOM     13  H   UNL     1       3.213  -0.167  -1.479  1.00  0.00     0.169 HD
BRANCH  12  14
ATOM     14  C   UNL     1       2.963  -0.894   1.009  1.00  0.00     0.105 C 
BRANCH  14  15
ATOM     15  C   UNL     1       4.092  -1.677   0.344  1.00  0.00     0.047 C 
BRANCH  15  16
ATOM     16  C   UNL     1       5.294  -0.925  -0.180  1.00  0.00    -0.029 A 
ATOM     17  C   UNL     1       5.476   0.459  -0.106  1.00  0.00     0.007 A 
ATOM     18  C   UNL     1       6.293  -1.651  -0.830  1.00  0.00     0.114 A 
ATOM     19  C   UNL     1       6.568   1.055  -0.735  1.00  0.00     0.020 A 
ATOM     20  N   UNL     1       7.375  -1.103  -1.428  1.00  0.00    -0.264 NA
ATOM     21  C   UNL     1       7.480   0.241  -1.383  1.00  0.00     0.111 A 
ENDBRANCH  15  16
ENDBRANCH  14  15
ENDBRANCH  12  14
ENDBRANCH   6  10
ENDBRANCH   3   5
ENDBRANCH   2   3
ENDBRANCH   1   2
BRANCH   1  22
ATOM     22  C   UNL     1       4.724  -1.105  -5.310  1.00  0.00     0.275 C 
BRANCH  22  23
ATOM     23  O   UNL     1       4.117  -0.286  -6.317  1.00  0.00    -0.458 OA
BRANCH  23  24
ATOM     24  C   UNL     1       2.781  -0.127  -6.186  1.00  0.00     0.338 C 
ATOM     25  O   UNL     1       2.048  -0.644  -5.361  1.00  0.00    -0.246 OA
BRANCH  24  26
ATOM     26  C   UNL     1       2.364   0.947  -7.091  1.00  0.00     0.060 A 
ATOM     27  C   UNL     1       2.116   2.193  -6.521  1.00  0.00     0.016 A 
ATOM     28  C   UNL     1       2.194   0.738  -8.456  1.00  0.00     0.016 A 
ATOM     29  C   UNL     1       1.678   3.250  -7.303  1.00  0.00     0.010 A 
ATOM     30  C   UNL     1       1.779   1.808  -9.251  1.00  0.00     0.010 A 
ATOM     31  C   UNL     1       1.514   3.067  -8.678  1.00  0.00    -0.014 A 
BRANCH  31  32
ATOM     32  C   UNL     1       1.056   4.195  -9.518  1.00  0.00     0.031 A 
ATOM     33  C   UNL     1      -0.290   4.131 -10.173  1.00  0.00     0.074 A 
ATOM     34  C   UNL     1       1.870   5.251  -9.706  1.00  0.00     0.049 A 
ATOM     35  N   UNL     1      -0.807   4.924 -11.072  1.00  0.00    -0.248 NA
ATOM     36  C   UNL     1      -1.168   3.020  -9.770  1.00  0.00     0.031 C 
ATOM     37  C   UNL     1       3.186   5.423  -9.086  1.00  0.00     0.029 A 
ATOM     38  N   UNL     1       1.724   6.364 -10.494  1.00  0.00    -0.354 N 
ATOM     39  C   UNL     1      -2.044   4.378 -11.389  1.00  0.00     0.074 A 
ATOM     40  C   UNL     1      -2.206   3.191 -10.577  1.00  0.00     0.031 C 
ATOM     41  C   UNL     1       3.737   6.561  -9.536  1.00  0.00     0.029 A 
ATOM     42  C   UNL     1       2.845   7.160 -10.521  1.00  0.00     0.049 A 
ATOM     43  H   UNL     1       0.899   6.572 -10.990  1.00  0.00     0.167 HD
ATOM     44  C   UNL     1      -2.958   4.833 -12.277  1.00  0.00     0.034 A 
ATOM     45  C   UNL     1       3.143   8.219 -11.297  1.00  0.00     0.034 A 
ATOM     46  C   UNL     1      -2.789   6.037 -13.046  1.00  0.00     0.049 A 
ATOM     47  C   UNL     1       2.126   8.680 -12.304  1.00  0.00     0.074 A 
ATOM     48  C   UNL     1      -3.674   6.621 -13.934  1.00  0.00     0.029 A 
ATOM     49  N   UNL     1      -1.654   6.834 -13.027  1.00  0.00    -0.354 N 
ATOM     50  N   UNL     1       0.925   8.207 -12.537  1.00  0.00    -0.248 NA
ATOM     51  C   UNL     1       2.498   9.823 -13.148  1.00  0.00     0.031 C 
ATOM     52  C   UNL     1      -3.059   7.754 -14.477  1.00  0.00     0.029 A 
ATOM     53  C   UNL     1      -1.803   7.892 -13.906  1.00  0.00     0.049 A 
ATOM     54  H   UNL     1      -0.859   6.671 -12.469  1.00  0.00     0.167 HD
ATOM     55  C   UNL     1       0.390   9.002 -13.542  1.00  0.00     0.074 A 
ATOM     56  C   UNL     1       1.388  10.007 -13.852  1.00  0.00     0.031 C 
ATOM     57  C   UNL     1      -0.808   8.901 -14.168  1.00  0.00     0.034 A 
BRANCH  44  58
ATOM     58  C   UNL     1      -4.218   4.031 -12.464  1.00  0.00     0.023 A 
ATOM     59  C   UNL     1      -5.207   4.028 -11.460  1.00  0.00     0.012 A 
ATOM     60  C   UNL     1      -4.442   3.318 -13.658  1.00  0.00     0.148 A 
ATOM     61  C   UNL     1      -6.387   3.304 -11.630  1.00  0.00     0.002 A 
ATOM     62  C   UNL     1      -5.639   2.633 -13.838  1.00  0.00     0.091 A 
ATOM     63  F   UNL     1      -3.479   3.313 -14.591  1.00  0.00    -0.205 F 
ATOM     64  C   UNL     1      -6.607   2.616 -12.821  1.00  0.00     0.022 A 
BRANCH  62  65
ATOM     65  S   UNL     1      -6.048   1.777 -15.363  1.00  0.00     0.127 S 
ATOM     66  O   UNL     1      -6.001   0.379 -14.938  1.00  0.00    -0.237 OA
ATOM     67  O   UNL     1      -7.391   2.283 -15.648  1.00  0.00    -0.237 OA
ATOM     68  O   UNL     1      -5.032   2.169 -16.330  1.00  0.00    -0.744 OA
ENDBRANCH  62  65
ENDBRANCH  44  58
BRANCH  45  69
ATOM     69  C   UNL     1       4.462   8.898 -11.155  1.00  0.00     0.023 A 
ATOM     70  C   UNL     1       4.518  10.205 -10.635  1.00  0.00     0.012 A 
ATOM     71  C   UNL     1       5.664   8.242 -11.491  1.00  0.00     0.148 A 
ATOM     72  C   UNL     1       5.743  10.853 -10.470  1.00  0.00     0.002 A 
ATOM     73  C   UNL     1       6.884   8.870 -11.269  1.00  0.00     0.091 A 
ATOM     74  F   UNL     1       5.590   7.005 -12.004  1.00  0.00    -0.205 F 
ATOM     75  C   UNL     1       6.925  10.182 -10.774  1.00  0.00     0.022 A 
BRANCH  73  76
ATOM     76  S   UNL     1       8.456   8.031 -11.503  1.00  0.00     0.127 S 
ATOM     77  O   UNL     1       8.981   8.706 -12.688  1.00  0.00    -0.237 OA
ATOM     78  O   UNL     1       9.154   8.344 -10.256  1.00  0.00    -0.237 OA
ATOM     79  O   UNL     1       8.129   6.622 -11.670  1.00  0.00    -0.744 OA
ENDBRANCH  73  76
ENDBRANCH  45  69
BRANCH  57  80
ATOM     80  C   UNL     1      -1.113   9.906 -15.246  1.00  0.00     0.023 A 
ATOM     81  C   UNL     1      -0.474   9.800 -16.496  1.00  0.00     0.012 A 
ATOM     82  C   UNL     1      -2.093  10.898 -15.048  1.00  0.00     0.148 A 
ATOM     83  C   UNL     1      -0.789  10.682 -17.528  1.00  0.00     0.002 A 
ATOM     84  C   UNL     1      -2.438  11.741 -16.096  1.00  0.00     0.091 A 
ATOM     85  F   UNL     1      -2.677  10.988 -13.844  1.00  0.00    -0.205 F 
ATOM     86  C   UNL     1      -1.778  11.643 -17.333  1.00  0.00     0.022 A 
BRANCH  84  87
ATOM     87  S   UNL     1      -3.764  12.946 -15.972  1.00  0.00     0.127 S 
ATOM     88  O   UNL     1      -3.028  14.207 -16.048  1.00  0.00    -0.237 OA
ATOM     89  O   UNL     1      -4.570  12.638 -17.153  1.00  0.00    -0.237 OA
ATOM     90  O   UNL     1      -4.425  12.691 -14.700  1.00  0.00    -0.744 OA
ENDBRANCH  84  87
ENDBRANCH  57  80
ENDBRANCH  31  32
ENDBRANCH  24  26
ENDBRANCH  23  24
ENDBRANCH  22  23
ENDBRANCH   1  22
TORSDOF 18
