REMARK SMILES CC1(C)[C@H](C(=O)Nc2cccc3[nH]ccc23)[C@H]1C(=O)OCCOC(=O)c1ccc(-c2c3nc(c(-c4cccc(S(=O)(=O)[O-])c4F)c4ccc([nH]4)c(-c4cccc(S(=O)(=O)[O-])c4F)c4nc(c(-c5cccc(S(=O)(=O)[O-])c5F)c5ccc2[nH]5)C=C4)C=C3)cc1
REMARK SMILES IDX 22 1 21 2 20 3 18 4 19 5 17 6 1 7 2 8 3 9 4 10 5 11 6 12
REMARK SMILES IDX 7 13 8 15 9 16 16 17 10 18 12 19 15 20 11 21 13 22 14 23
REMARK SMILES IDX 23 25 24 26 25 27 26 28 27 29 88 30 28 31 87 32 29 33 30 34
REMARK SMILES IDX 31 35 81 36 32 37 86 38 80 39 82 40 33 41 85 42 79 43 78 44
REMARK SMILES IDX 34 46 66 47 46 48 65 49 47 50 50 51 64 52 83 53 48 54 49 55
REMARK SMILES IDX 63 57 84 58 51 59 35 60 36 61 44 62 37 63 39 64 45 65 38 66
REMARK SMILES IDX 40 67 41 68 42 69 43 70 67 71 68 72 76 73 69 74 71 75 77 76
REMARK SMILES IDX 70 77 72 78 73 79 74 80 75 81 52 82 53 83 61 84 54 85 56 86
REMARK SMILES IDX 62 87 55 88 57 89 58 90 59 91 60 92
REMARK H PARENT 7 14 13 24 82 45 50 56
REMARK Flexibility Score: inf
ROOT
ATOM      1  C   UNL     1      -1.526  -3.088   3.827  1.00  0.00     0.275 C 
ENDROOT
BRANCH   1   2
ATOM      2  C   UNL     1      -2.067  -3.144   2.398  1.00  0.00     0.274 C 
BRANCH   2   3
ATOM      3  O   UNL     1      -1.287  -2.265   1.570  1.00  0.00    -0.462 OA
BRANCH   3   4
ATOM      4  C   UNL     1      -1.947  -1.271   0.929  1.00  0.00     0.310 C 
ATOM      5  O   UNL     1      -3.158  -1.119   0.878  1.00  0.00    -0.252 OA
BRANCH   4   6
ATOM      6  C   UNL     1      -1.026  -0.269   0.352  1.00  0.00     0.118 C 
ATOM      7  C   UNL     1       0.704  -2.040  -0.578  1.00  0.00     0.013 C 
ATOM      8  C   UNL     1       0.289  -0.609  -0.334  1.00  0.00    -0.009 C 
ATOM      9  C   UNL     1       1.458   0.255   0.067  1.00  0.00     0.013 C 
ATOM     10  C   UNL     1      -0.920  -0.114  -1.137  1.00  0.00     0.100 C 
BRANCH  10  11
ATOM     11  C   UNL     1      -1.032   1.192  -1.859  1.00  0.00     0.228 C 
ATOM     12  O   UNL     1      -0.787   1.211  -3.061  1.00  0.00    -0.274 OA
ATOM     13  N   UNL     1      -1.704   2.217  -1.232  1.00  0.00    -0.325 N 
ATOM     14  H   UNL     1      -2.675   2.276  -1.381  1.00  0.00     0.169 HD
BRANCH  13  15
ATOM     15  C   UNL     1      -1.120   3.192  -0.394  1.00  0.00     0.050 A 
ATOM     16  C   UNL     1       0.266   3.275  -0.222  1.00  0.00     0.027 A 
ATOM     17  C   UNL     1      -1.931   4.136   0.283  1.00  0.00     0.023 A 
ATOM     18  C   UNL     1       0.837   4.139   0.709  1.00  0.00     0.004 A 
ATOM     19  C   UNL     1      -1.328   5.006   1.200  1.00  0.00     0.047 A 
ATOM     20  C   UNL     1      -3.325   4.443   0.293  1.00  0.00     0.030 A 
ATOM     21  C   UNL     1       0.045   5.000   1.464  1.00  0.00     0.027 A 
ATOM     22  N   UNL     1      -2.323   5.782   1.756  1.00  0.00    -0.361 N 
ATOM     23  C   UNL     1      -3.529   5.470   1.187  1.00  0.00     0.083 A 
ATOM     24  H   UNL     1      -2.187   6.459   2.458  1.00  0.00     0.166 HD
ENDBRANCH  13  15
ENDBRANCH  10  11
ENDBRANCH   4   6
ENDBRANCH   3   4
ENDBRANCH   2   3
ENDBRANCH   1   2
BRANCH   1  25
ATOM     25  O   UNL     1      -1.769  -1.787   4.395  1.00  0.00    -0.458 OA
BRANCH  25  26
ATOM     26  C   UNL     1      -0.738  -0.917   4.294  1.00  0.00     0.338 C 
ATOM     27  O   UNL     1       0.377  -1.131   3.848  1.00  0.00    -0.246 OA
BRANCH  26  28
ATOM     28  C   UNL     1      -1.180   0.417   4.716  1.00  0.00     0.060 A 
ATOM     29  C   UNL     1      -1.663   1.284   3.743  1.00  0.00     0.016 A 
ATOM     30  C   UNL     1      -0.985   0.861   6.022  1.00  0.00     0.016 A 
ATOM     31  C   UNL     1      -1.848   2.628   4.043  1.00  0.00     0.010 A 
ATOM     32  C   UNL     1      -1.252   2.201   6.339  1.00  0.00     0.010 A 
ATOM     33  C   UNL     1      -1.636   3.114   5.340  1.00  0.00    -0.014 A 
BRANCH  33  34
ATOM     34  C   UNL     1      -1.766   4.576   5.610  1.00  0.00     0.031 A 
ATOM     35  C   UNL     1      -0.592   5.366   6.136  1.00  0.00     0.074 A 
ATOM     36  C   UNL     1      -2.922   5.218   5.345  1.00  0.00     0.049 A 
ATOM     37  N   UNL     1      -0.539   6.627   6.486  1.00  0.00    -0.248 NA
ATOM     38  C   UNL     1       0.683   4.650   6.298  1.00  0.00     0.031 C 
ATOM     39  C   UNL     1      -4.139   4.588   4.830  1.00  0.00     0.029 A 
ATOM     40  N   UNL     1      -3.264   6.545   5.466  1.00  0.00    -0.354 N 
ATOM     41  C   UNL     1       0.743   6.832   6.986  1.00  0.00     0.074 A 
ATOM     42  C   UNL     1       1.442   5.570   6.876  1.00  0.00     0.031 C 
ATOM     43  C   UNL     1      -5.081   5.526   4.652  1.00  0.00     0.029 A 
ATOM     44  C   UNL     1      -4.566   6.813   5.105  1.00  0.00     0.049 A 
ATOM     45  H   UNL     1      -2.639   7.237   5.781  1.00  0.00     0.167 HD
ATOM     46  C   UNL     1       1.295   7.965   7.484  1.00  0.00     0.034 A 
ATOM     47  C   UNL     1      -5.279   7.956   5.155  1.00  0.00     0.034 A 
ATOM     48  C   UNL     1       0.632   9.241   7.530  1.00  0.00     0.049 A 
ATOM     49  C   UNL     1      -4.631   9.207   5.676  1.00  0.00     0.074 A 
ATOM     50  C   UNL     1       1.132  10.453   7.975  1.00  0.00     0.029 A 
ATOM     51  N   UNL     1      -0.667   9.477   7.110  1.00  0.00    -0.354 N 
ATOM     52  N   UNL     1      -3.397   9.389   6.079  1.00  0.00    -0.248 NA
ATOM     53  C   UNL     1      -5.468  10.415   5.736  1.00  0.00     0.031 C 
ATOM     54  C   UNL     1       0.132  11.421   7.832  1.00  0.00     0.029 A 
ATOM     55  C   UNL     1      -0.985  10.814   7.280  1.00  0.00     0.049 A 
ATOM     56  H   UNL     1      -1.275   8.794   6.745  1.00  0.00     0.167 HD
ATOM     57  C   UNL     1      -3.305  10.733   6.424  1.00  0.00     0.074 A 
ATOM     58  C   UNL     1      -4.597  11.326   6.147  1.00  0.00     0.031 C 
ATOM     59  C   UNL     1      -2.253  11.408   6.948  1.00  0.00     0.034 A 
BRANCH  46  60
ATOM     60  C   UNL     1       2.708   7.890   8.004  1.00  0.00     0.023 A 
ATOM     61  C   UNL     1       3.785   7.811   7.099  1.00  0.00     0.012 A 
ATOM     62  C   UNL     1       2.970   7.969   9.386  1.00  0.00     0.148 A 
ATOM     63  C   UNL     1       5.100   7.784   7.564  1.00  0.00     0.002 A 
ATOM     64  C   UNL     1       4.284   7.984   9.839  1.00  0.00     0.091 A 
ATOM     65  F   UNL     1       1.931   8.020  10.233  1.00  0.00    -0.205 F 
ATOM     66  C   UNL     1       5.350   7.882   8.930  1.00  0.00     0.022 A 
BRANCH  64  67
ATOM     67  S   UNL     1       4.704   8.189  11.574  1.00  0.00     0.127 S 
ATOM     68  O   UNL     1       5.123   6.836  11.937  1.00  0.00    -0.237 OA
ATOM     69  O   UNL     1       5.790   9.169  11.517  1.00  0.00    -0.237 OA
ATOM     70  O   UNL     1       3.492   8.667  12.224  1.00  0.00    -0.744 OA
ENDBRANCH  64  67
ENDBRANCH  46  60
BRANCH  47  71
ATOM     71  C   UNL     1      -6.688   7.973   4.668  1.00  0.00     0.023 A 
ATOM     72  C   UNL     1      -7.008   8.687   3.497  1.00  0.00     0.012 A 
ATOM     73  C   UNL     1      -7.703   7.257   5.333  1.00  0.00     0.148 A 
ATOM     74  C   UNL     1      -8.315   8.703   3.008  1.00  0.00     0.002 A 
ATOM     75  C   UNL     1      -8.988   7.225   4.805  1.00  0.00     0.091 A 
ATOM     76  F   UNL     1      -7.387   6.608   6.463  1.00  0.00    -0.205 F 
ATOM     77  C   UNL     1      -9.301   7.960   3.653  1.00  0.00     0.022 A 
BRANCH  75  78
ATOM     78  S   UNL     1     -10.270   6.169   5.490  1.00  0.00     0.127 S 
ATOM     79  O   UNL     1     -11.101   7.132   6.206  1.00  0.00    -0.237 OA
ATOM     80  O   UNL     1     -10.877   5.605   4.284  1.00  0.00    -0.237 OA
ATOM     81  O   UNL     1      -9.566   5.194   6.314  1.00  0.00    -0.744 OA
ENDBRANCH  75  78
ENDBRANCH  47  71
BRANCH  59  82
ATOM     82  C   UNL     1      -2.436  12.877   7.228  1.00  0.00     0.023 A 
ATOM     83  C   UNL     1      -3.221  13.287   8.323  1.00  0.00     0.012 A 
ATOM     84  C   UNL     1      -1.778  13.847   6.447  1.00  0.00     0.148 A 
ATOM     85  C   UNL     1      -3.375  14.642   8.617  1.00  0.00     0.002 A 
ATOM     86  C   UNL     1      -1.899  15.193   6.773  1.00  0.00     0.091 A 
ATOM     87  F   UNL     1      -1.053  13.438   5.395  1.00  0.00    -0.205 F 
ATOM     88  C   UNL     1      -2.706  15.593   7.851  1.00  0.00     0.022 A 
BRANCH  86  89
ATOM     89  S   UNL     1      -1.000  16.475   5.893  1.00  0.00     0.127 S 
ATOM     90  O   UNL     1      -2.049  17.055   5.056  1.00  0.00    -0.237 OA
ATOM     91  O   UNL     1      -0.540  17.339   6.981  1.00  0.00    -0.237 OA
ATOM     92  O   UNL     1       0.069  15.790   5.178  1.00  0.00    -0.744 OA
ENDBRANCH  86  89
ENDBRANCH  59  82
ENDBRANCH  33  34
ENDBRANCH  26  28
ENDBRANCH  25  26
ENDBRANCH   1  25
TORSDOF 16
