REMARK SMILES C[C@H]1CC[C@](C#N)([C@H](O)C(=O)OCCOC(=O)c2ccc(-c3c4nc(c(-c5cccc(S(=O)(=O)[O-])c5F)c5ccc([nH]5)c(-c5cccc(S(=O)(=O)[O-])c5F)c5nc(c(-c6cccc(S(=O)(=O)[O-])c6F)c6ccc3[nH]6)C=C5)C=C4)cc2)C1
REMARK SMILES IDX 14 1 13 2 12 3 10 4 11 5 8 6 5 7 1 8 2 9 3 10 81 11 4 12
REMARK SMILES IDX 6 13 7 14 9 15 15 17 16 18 17 19 18 20 19 21 80 22 20 23
REMARK SMILES IDX 79 24 21 25 22 26 23 27 73 28 24 29 78 30 72 31 74 32 25 33
REMARK SMILES IDX 77 34 71 35 70 36 26 38 58 39 38 40 57 41 39 42 42 43 56 44
REMARK SMILES IDX 75 45 40 46 41 47 55 49 76 50 43 51 27 52 28 53 36 54 29 55
REMARK SMILES IDX 31 56 37 57 30 58 32 59 33 60 34 61 35 62 59 63 60 64 68 65
REMARK SMILES IDX 61 66 63 67 69 68 62 69 64 70 65 71 66 72 67 73 44 74 45 75
REMARK SMILES IDX 53 76 46 77 48 78 54 79 47 80 49 81 50 82 51 83 52 84
REMARK H PARENT 9 16 74 37 42 48
REMARK Flexibility Score: inf
ROOT
ATOM      1  C   UNL     1       2.148  -5.123   2.118  1.00  0.00     0.275 C 
ENDROOT
BRANCH   1   2
ATOM      2  C   UNL     1       1.402  -4.943   3.441  1.00  0.00     0.274 C 
BRANCH   2   3
ATOM      3  O   UNL     1       1.030  -3.562   3.682  1.00  0.00    -0.460 OA
BRANCH   3   4
ATOM      4  C   UNL     1       1.879  -2.863   4.472  1.00  0.00     0.336 C 
ATOM      5  O   UNL     1       2.889  -3.339   4.989  1.00  0.00    -0.249 OA
BRANCH   4   6
ATOM      6  C   UNL     1       1.465  -1.413   4.784  1.00  0.00     0.244 C 
BRANCH   6   7
ATOM      7  C   UNL     1       0.607  -0.606   3.768  1.00  0.00     0.094 C 
ATOM      8  C   UNL     1      -1.258   0.210   1.247  1.00  0.00     0.008 C 
ATOM      9  C   UNL     1       0.247   0.299   1.511  1.00  0.00    -0.013 C 
ATOM     10  C   UNL     1       0.593   1.492   2.398  1.00  0.00     0.005 C 
ATOM     11  C   UNL     1       0.834  -0.895   2.281  1.00  0.00     0.029 C 
ATOM     12  C   UNL     1       0.882   0.927   3.801  1.00  0.00     0.026 C 
BRANCH   7  13
ATOM     13  C   UNL     1      -0.805  -0.880   4.137  1.00  0.00     0.072 C 
ATOM     14  N   UNL     1      -1.890  -1.115   4.465  1.00  0.00    -0.198 NA
ENDBRANCH   7  13
ENDBRANCH   6   7
BRANCH   6  15
ATOM     15  O   UNL     1       2.662  -0.697   5.144  1.00  0.00    -0.380 OA
ATOM     16  H   UNL     1       3.255  -0.652   4.378  1.00  0.00     0.211 HD
ENDBRANCH   6  15
ENDBRANCH   4   6
ENDBRANCH   3   4
ENDBRANCH   2   3
ENDBRANCH   1   2
BRANCH   1  17
ATOM     17  O   UNL     1       3.417  -4.444   2.166  1.00  0.00    -0.458 OA
BRANCH  17  18
ATOM     18  C   UNL     1       3.447  -3.291   1.464  1.00  0.00     0.338 C 
ATOM     19  O   UNL     1       2.553  -2.844   0.763  1.00  0.00    -0.246 OA
BRANCH  18  20
ATOM     20  C   UNL     1       4.701  -2.552   1.643  1.00  0.00     0.060 A 
ATOM     21  C   UNL     1       4.876  -1.729   2.756  1.00  0.00     0.016 A 
ATOM     22  C   UNL     1       5.575  -2.471   0.562  1.00  0.00     0.016 A 
ATOM     23  C   UNL     1       5.886  -0.770   2.761  1.00  0.00     0.010 A 
ATOM     24  C   UNL     1       6.631  -1.561   0.599  1.00  0.00     0.010 A 
ATOM     25  C   UNL     1       6.783  -0.686   1.688  1.00  0.00    -0.014 A 
BRANCH  25  26
ATOM     26  C   UNL     1       7.921   0.266   1.723  1.00  0.00     0.031 A 
ATOM     27  C   UNL     1       8.066   1.342   0.682  1.00  0.00     0.074 A 
ATOM     28  C   UNL     1       8.874   0.097   2.660  1.00  0.00     0.049 A 
ATOM     29  N   UNL     1       9.072   2.150   0.469  1.00  0.00    -0.248 NA
ATOM     30  C   UNL     1       6.941   1.526  -0.249  1.00  0.00     0.031 C 
ATOM     31  C   UNL     1       8.846  -0.919   3.716  1.00  0.00     0.029 A 
ATOM     32  N   UNL     1      10.066   0.746   2.857  1.00  0.00    -0.354 N 
ATOM     33  C   UNL     1       8.730   2.903  -0.648  1.00  0.00     0.074 A 
ATOM     34  C   UNL     1       7.418   2.454  -1.069  1.00  0.00     0.031 C 
ATOM     35  C   UNL     1       9.969  -0.834   4.441  1.00  0.00     0.029 A 
ATOM     36  C   UNL     1      10.827   0.190   3.859  1.00  0.00     0.049 A 
ATOM     37  H   UNL     1      10.348   1.530   2.333  1.00  0.00     0.167 HD
ATOM     38  C   UNL     1       9.445   3.877  -1.263  1.00  0.00     0.034 A 
ATOM     39  C   UNL     1      12.095   0.435   4.237  1.00  0.00     0.034 A 
ATOM     40  C   UNL     1      10.744   4.319  -0.826  1.00  0.00     0.049 A 
ATOM     41  C   UNL     1      12.874   1.498   3.518  1.00  0.00     0.074 A 
ATOM     42  C   UNL     1      11.527   5.334  -1.348  1.00  0.00     0.029 A 
ATOM     43  N   UNL     1      11.464   3.761   0.221  1.00  0.00    -0.354 N 
ATOM     44  N   UNL     1      12.501   2.261   2.521  1.00  0.00    -0.248 NA
ATOM     45  C   UNL     1      14.240   1.751   3.994  1.00  0.00     0.031 C 
ATOM     46  C   UNL     1      12.741   5.354  -0.653  1.00  0.00     0.029 A 
ATOM     47  C   UNL     1      12.689   4.396   0.346  1.00  0.00     0.049 A 
ATOM     48  H   UNL     1      11.150   3.022   0.790  1.00  0.00     0.167 HD
ATOM     49  C   UNL     1      13.568   3.116   2.278  1.00  0.00     0.074 A 
ATOM     50  C   UNL     1      14.596   2.784   3.244  1.00  0.00     0.031 C 
ATOM     51  C   UNL     1      13.688   4.085   1.337  1.00  0.00     0.034 A 
BRANCH  38  52
ATOM     52  C   UNL     1       8.845   4.533  -2.482  1.00  0.00     0.023 A 
ATOM     53  C   UNL     1       7.726   5.380  -2.353  1.00  0.00     0.012 A 
ATOM     54  C   UNL     1       9.434   4.359  -3.752  1.00  0.00     0.148 A 
ATOM     55  C   UNL     1       7.178   6.010  -3.471  1.00  0.00     0.002 A 
ATOM     56  C   UNL     1       8.913   5.029  -4.853  1.00  0.00     0.091 A 
ATOM     57  F   UNL     1      10.490   3.541  -3.860  1.00  0.00    -0.205 F 
ATOM     58  C   UNL     1       7.776   5.842  -4.717  1.00  0.00     0.022 A 
BRANCH  56  59
ATOM     59  S   UNL     1       9.660   4.945  -6.484  1.00  0.00     0.127 S 
ATOM     60  O   UNL     1       8.635   4.226  -7.241  1.00  0.00    -0.237 OA
ATOM     61  O   UNL     1       9.794   6.360  -6.832  1.00  0.00    -0.237 OA
ATOM     62  O   UNL     1      10.920   4.236  -6.317  1.00  0.00    -0.744 OA
ENDBRANCH  56  59
ENDBRANCH  38  52
BRANCH  39  63
ATOM     63  C   UNL     1      12.699  -0.338   5.357  1.00  0.00     0.023 A 
ATOM     64  C   UNL     1      12.999   0.315   6.568  1.00  0.00     0.012 A 
ATOM     65  C   UNL     1      12.957  -1.718   5.236  1.00  0.00     0.148 A 
ATOM     66  C   UNL     1      13.585  -0.384   7.623  1.00  0.00     0.002 A 
ATOM     67  C   UNL     1      13.483  -2.420   6.312  1.00  0.00     0.091 A 
ATOM     68  F   UNL     1      12.663  -2.319   4.074  1.00  0.00    -0.205 F 
ATOM     69  C   UNL     1      13.818  -1.751   7.499  1.00  0.00     0.022 A 
BRANCH  67  70
ATOM     70  S   UNL     1      13.699  -4.202   6.290  1.00  0.00     0.127 S 
ATOM     71  O   UNL     1      15.153  -4.327   6.346  1.00  0.00    -0.237 OA
ATOM     72  O   UNL     1      12.997  -4.603   7.510  1.00  0.00    -0.237 OA
ATOM     73  O   UNL     1      13.076  -4.663   5.057  1.00  0.00    -0.744 OA
ENDBRANCH  67  70
ENDBRANCH  39  63
BRANCH  51  74
ATOM     74  C   UNL     1      14.950   4.908   1.344  1.00  0.00     0.023 A 
ATOM     75  C   UNL     1      16.179   4.337   0.957  1.00  0.00     0.012 A 
ATOM     76  C   UNL     1      14.899   6.274   1.685  1.00  0.00     0.148 A 
ATOM     77  C   UNL     1      17.344   5.104   0.949  1.00  0.00     0.002 A 
ATOM     78  C   UNL     1      16.052   7.046   1.616  1.00  0.00     0.091 A 
ATOM     79  F   UNL     1      13.724   6.794   2.068  1.00  0.00    -0.205 F 
ATOM     80  C   UNL     1      17.278   6.459   1.265  1.00  0.00     0.022 A 
BRANCH  78  81
ATOM     81  S   UNL     1      16.044   8.818   1.908  1.00  0.00     0.127 S 
ATOM     82  O   UNL     1      16.806   8.917   3.152  1.00  0.00    -0.237 OA
ATOM     83  O   UNL     1      16.739   9.326   0.725  1.00  0.00    -0.237 OA
ATOM     84  O   UNL     1      14.644   9.207   2.004  1.00  0.00    -0.744 OA
ENDBRANCH  78  81
ENDBRANCH  51  74
ENDBRANCH  25  26
ENDBRANCH  18  20
ENDBRANCH  17  18
ENDBRANCH   1  17
TORSDOF 17
