REMARK SMILES CCOc1cccc(-c2ccc([C@@H](C)C(=O)OCCOC(=O)c3ccc(-c4c5nc(c(-c6cccc(S(=O)(=O)[O-])c6F)c6ccc([nH]6)c(-c6cccc(S(=O)(=O)[O-])c6F)c6nc(c(-c7cccc(S(=O)(=O)[O-])c7F)c7ccc4[nH]7)C=C6)C=C5)cc3)cc2F)c1
REMARK SMILES IDX 18 1 17 2 15 3 16 4 13 5 14 6 12 7 9 8 10 9 87 10 11 11
REMARK SMILES IDX 86 12 88 13 8 14 4 15 5 16 89 17 6 18 7 19 3 20 2 21 1 22
REMARK SMILES IDX 19 23 20 24 21 25 22 26 23 27 24 28 85 29 25 30 84 31 26 32
REMARK SMILES IDX 27 33 28 34 78 35 29 36 83 37 77 38 79 39 30 40 82 41 76 42
REMARK SMILES IDX 75 43 31 45 63 46 43 47 62 48 44 49 47 50 61 51 80 52 45 53
REMARK SMILES IDX 46 54 60 56 81 57 48 58 32 59 33 60 41 61 34 62 36 63 42 64
REMARK SMILES IDX 35 65 37 66 38 67 39 68 40 69 64 70 65 71 73 72 66 73 68 74
REMARK SMILES IDX 74 75 67 76 69 77 70 78 71 79 72 80 49 81 50 82 58 83 51 84
REMARK SMILES IDX 53 85 59 86 52 87 54 88 55 89 56 90 57 91
REMARK H PARENT 79 44 47 55
REMARK Flexibility Score: inf
ROOT
ATOM      1  C   UNL     1       8.744   4.225   0.487  1.00  0.00     0.274 C 
ENDROOT
BRANCH   1   2
ATOM      2  O   UNL     1       8.577   2.967   1.171  1.00  0.00    -0.462 OA
BRANCH   2   3
ATOM      3  C   UNL     1       8.797   2.971   2.512  1.00  0.00     0.313 C 
ATOM      4  O   UNL     1       9.198   3.946   3.140  1.00  0.00    -0.252 OA
BRANCH   3   5
ATOM      5  C   UNL     1       8.569   1.622   3.183  1.00  0.00     0.126 C 
ATOM      6  C   UNL     1       9.910   0.934   3.431  1.00  0.00     0.025 C 
BRANCH   5   7
ATOM      7  C   UNL     1       7.562   0.693   2.520  1.00  0.00    -0.031 A 
ATOM      8  C   UNL     1       5.652  -1.080   1.355  1.00  0.00     0.018 A 
ATOM      9  C   UNL     1       6.872  -0.797   0.717  1.00  0.00     0.012 A 
ATOM     10  C   UNL     1       5.415  -0.447   2.582  1.00  0.00     0.131 A 
ATOM     11  C   UNL     1       7.813   0.070   1.290  1.00  0.00     0.005 A 
ATOM     12  C   UNL     1       6.346   0.417   3.159  1.00  0.00     0.044 A 
ATOM     13  F   UNL     1       4.280  -0.681   3.260  1.00  0.00    -0.206 F 
BRANCH   8  14
ATOM     14  C   UNL     1       4.673  -2.006   0.756  1.00  0.00    -0.012 A 
ATOM     15  C   UNL     1       2.381  -2.555   0.132  1.00  0.00     0.119 A 
ATOM     16  C   UNL     1       2.786  -3.802  -0.334  1.00  0.00     0.046 A 
ATOM     17  C   UNL     1       3.309  -1.676   0.690  1.00  0.00     0.055 A 
ATOM     18  C   UNL     1       4.132  -4.153  -0.279  1.00  0.00     0.004 A 
ATOM     19  C   UNL     1       5.067  -3.261   0.256  1.00  0.00     0.009 A 
BRANCH  15  20
ATOM     20  O   UNL     1       1.044  -2.272   0.139  1.00  0.00    -0.494 OA
BRANCH  20  21
ATOM     21  C   UNL     1       0.683  -1.257  -0.805  1.00  0.00     0.226 C 
ATOM     22  C   UNL     1       0.581   0.109  -0.148  1.00  0.00     0.049 C 
ENDBRANCH  20  21
ENDBRANCH  15  20
ENDBRANCH   8  14
ENDBRANCH   5   7
ENDBRANCH   3   5
ENDBRANCH   2   3
ENDBRANCH   1   2
BRANCH   1  23
ATOM     23  C   UNL     1       7.393   4.858   0.146  1.00  0.00     0.275 C 
BRANCH  23  24
ATOM     24  O   UNL     1       6.696   5.279   1.332  1.00  0.00    -0.458 OA
BRANCH  24  25
ATOM     25  C   UNL     1       5.800   4.385   1.813  1.00  0.00     0.338 C 
ATOM     26  O   UNL     1       5.499   3.308   1.328  1.00  0.00    -0.246 OA
BRANCH  25  27
ATOM     27  C   UNL     1       5.303   4.838   3.120  1.00  0.00     0.060 A 
ATOM     28  C   UNL     1       5.628   4.073   4.241  1.00  0.00     0.016 A 
ATOM     29  C   UNL     1       4.456   5.941   3.236  1.00  0.00     0.016 A 
ATOM     30  C   UNL     1       5.085   4.383   5.483  1.00  0.00     0.010 A 
ATOM     31  C   UNL     1       3.921   6.262   4.488  1.00  0.00     0.010 A 
ATOM     32  C   UNL     1       4.215   5.473   5.614  1.00  0.00    -0.014 A 
BRANCH  32  33
ATOM     33  C   UNL     1       3.586   5.748   6.929  1.00  0.00     0.031 A 
ATOM     34  C   UNL     1       2.132   5.439   7.147  1.00  0.00     0.074 A 
ATOM     35  C   UNL     1       4.327   6.262   7.928  1.00  0.00     0.049 A 
ATOM     36  N   UNL     1       1.401   5.625   8.216  1.00  0.00    -0.248 NA
ATOM     37  C   UNL     1       1.402   4.846   6.015  1.00  0.00     0.031 C 
ATOM     38  C   UNL     1       5.746   6.605   7.834  1.00  0.00     0.029 A 
ATOM     39  N   UNL     1       3.985   6.598   9.214  1.00  0.00    -0.354 N 
ATOM     40  C   UNL     1       0.120   5.209   7.877  1.00  0.00     0.074 A 
ATOM     41  C   UNL     1       0.171   4.763   6.501  1.00  0.00     0.031 C 
ATOM     42  C   UNL     1       6.152   7.114   9.009  1.00  0.00     0.029 A 
ATOM     43  C   UNL     1       5.018   7.158   9.928  1.00  0.00     0.049 A 
ATOM     44  H   UNL     1       3.087   6.453   9.589  1.00  0.00     0.167 HD
ATOM     45  C   UNL     1      -0.993   5.184   8.647  1.00  0.00     0.034 A 
ATOM     46  C   UNL     1       5.044   7.661  11.178  1.00  0.00     0.034 A 
ATOM     47  C   UNL     1      -1.031   5.584  10.028  1.00  0.00     0.049 A 
ATOM     48  C   UNL     1       3.795   7.607  12.015  1.00  0.00     0.074 A 
ATOM     49  C   UNL     1      -2.101   5.547  10.906  1.00  0.00     0.029 A 
ATOM     50  N   UNL     1       0.047   6.094  10.735  1.00  0.00    -0.354 N 
ATOM     51  N   UNL     1       2.621   7.106  11.715  1.00  0.00    -0.248 NA
ATOM     52  C   UNL     1       3.881   8.160  13.375  1.00  0.00     0.031 C 
ATOM     53  C   UNL     1      -1.671   6.044  12.142  1.00  0.00     0.029 A 
ATOM     54  C   UNL     1      -0.331   6.381  12.036  1.00  0.00     0.049 A 
ATOM     55  H   UNL     1       0.949   6.231  10.366  1.00  0.00     0.167 HD
ATOM     56  C   UNL     1       1.837   7.261  12.853  1.00  0.00     0.074 A 
ATOM     57  C   UNL     1       2.679   7.878  13.858  1.00  0.00     0.031 C 
ATOM     58  C   UNL     1       0.533   6.943  13.042  1.00  0.00     0.034 A 
BRANCH  45  59
ATOM     59  C   UNL     1      -2.262   4.667   8.024  1.00  0.00     0.023 A 
ATOM     60  C   UNL     1      -2.427   3.281   7.837  1.00  0.00     0.012 A 
ATOM     61  C   UNL     1      -3.309   5.543   7.678  1.00  0.00     0.148 A 
ATOM     62  C   UNL     1      -3.607   2.774   7.294  1.00  0.00     0.002 A 
ATOM     63  C   UNL     1      -4.497   5.028   7.170  1.00  0.00     0.091 A 
ATOM     64  F   UNL     1      -3.122   6.861   7.839  1.00  0.00    -0.205 F 
ATOM     65  C   UNL     1      -4.645   3.645   6.970  1.00  0.00     0.022 A 
BRANCH  63  66
ATOM     66  S   UNL     1      -5.911   6.067   6.786  1.00  0.00     0.127 S 
ATOM     67  O   UNL     1      -5.860   6.109   5.326  1.00  0.00    -0.237 OA
ATOM     68  O   UNL     1      -7.026   5.293   7.334  1.00  0.00    -0.237 OA
ATOM     69  O   UNL     1      -5.668   7.335   7.461  1.00  0.00    -0.744 OA
ENDBRANCH  63  66
ENDBRANCH  45  59
BRANCH  46  70
ATOM     70  C   UNL     1       6.313   8.216  11.725  1.00  0.00     0.023 A 
ATOM     71  C   UNL     1       6.990   7.520  12.744  1.00  0.00     0.012 A 
ATOM     72  C   UNL     1       6.871   9.406  11.218  1.00  0.00     0.148 A 
ATOM     73  C   UNL     1       8.190   8.010  13.264  1.00  0.00     0.002 A 
ATOM     74  C   UNL     1       8.094   9.859  11.701  1.00  0.00     0.091 A 
ATOM     75  F   UNL     1       6.200  10.069  10.265  1.00  0.00    -0.205 F 
ATOM     76  C   UNL     1       8.748   9.171  12.734  1.00  0.00     0.022 A 
BRANCH  74  77
ATOM     77  S   UNL     1       8.939  11.268  10.976  1.00  0.00     0.127 S 
ATOM     78  O   UNL     1       8.654  12.322  11.945  1.00  0.00    -0.237 OA
ATOM     79  O   UNL     1      10.331  10.815  10.951  1.00  0.00    -0.237 OA
ATOM     80  O   UNL     1       8.346  11.435   9.655  1.00  0.00    -0.744 OA
ENDBRANCH  74  77
ENDBRANCH  46  70
BRANCH  58  81
ATOM     81  C   UNL     1      -0.068   7.241  14.390  1.00  0.00     0.023 A 
ATOM     82  C   UNL     1      -0.379   8.572  14.729  1.00  0.00     0.012 A 
ATOM     83  C   UNL     1      -0.389   6.204  15.287  1.00  0.00     0.148 A 
ATOM     84  C   UNL     1      -0.976   8.871  15.954  1.00  0.00     0.002 A 
ATOM     85  C   UNL     1      -1.021   6.505  16.489  1.00  0.00     0.091 A 
ATOM     86  F   UNL     1      -0.065   4.946  14.958  1.00  0.00    -0.205 F 
ATOM     87  C   UNL     1      -1.307   7.838  16.827  1.00  0.00     0.022 A 
BRANCH  85  88
ATOM     88  S   UNL     1      -1.559   5.224  17.629  1.00  0.00     0.127 S 
ATOM     89  O   UNL     1      -0.493   5.246  18.628  1.00  0.00    -0.237 OA
ATOM     90  O   UNL     1      -2.846   5.739  18.100  1.00  0.00    -0.237 OA
ATOM     91  O   UNL     1      -1.657   4.007  16.834  1.00  0.00    -0.744 OA
ENDBRANCH  85  88
ENDBRANCH  58  81
ENDBRANCH  32  33
ENDBRANCH  25  27
ENDBRANCH  24  25
ENDBRANCH  23  24
ENDBRANCH   1  23
TORSDOF 18
