REMARK SMILES N#C/C(=C/c1cccc(OCC(=O)OCCOC(=O)c2ccc(-c3c4nc(c(-c5cccc(S(=O)(=O)[O-])c5F)c5ccc([nH]5)c(-c5cccc(S(=O)(=O)[O-])c5F)c5nc(c(-c6cccc(S(=O)(=O)[O-])c6F)c6ccc3[nH]6)C=C5)C=C4)cc2)c1)c1nc2ccccc2[nH]1
REMARK SMILES IDX 15 1 14 2 12 3 13 4 11 5 10 6 9 7 5 8 6 9 83 10 7 11 8 12
REMARK SMILES IDX 4 13 3 14 2 15 1 16 84 17 85 18 92 19 86 20 91 21 87 23
REMARK SMILES IDX 90 24 88 25 89 26 16 27 17 28 18 29 19 30 20 31 21 32 82 33
REMARK SMILES IDX 22 34 81 35 23 36 24 37 25 38 75 39 26 40 80 41 74 42 76 43
REMARK SMILES IDX 27 44 79 45 73 46 72 47 28 49 60 50 40 51 59 52 41 53 44 54
REMARK SMILES IDX 58 55 77 56 42 57 43 58 57 60 78 61 45 62 29 63 30 64 38 65
REMARK SMILES IDX 31 66 33 67 39 68 32 69 34 70 35 71 36 72 37 73 61 74 62 75
REMARK SMILES IDX 70 76 63 77 65 78 71 79 64 80 66 81 67 82 68 83 69 84 46 85
REMARK SMILES IDX 47 86 55 87 48 88 50 89 56 90 49 91 51 92 52 93 53 94 54 95
REMARK H PARENT 92 22 76 48 44 59
REMARK Flexibility Score: inf
ROOT
ATOM      1  C   UNL     1       7.382   0.796   4.395  1.00  0.00     0.274 C 
ENDROOT
BRANCH   1   2
ATOM      2  O   UNL     1       7.989  -0.929   3.548  1.00  0.00    -0.460 OA
BRANCH   2   3
ATOM      3  C   UNL     1       8.404  -2.180   3.041  1.00  0.00     0.344 C 
ATOM      4  O   UNL     1       8.454  -3.200   3.736  1.00  0.00    -0.248 OA
BRANCH   3   5
ATOM      5  C   UNL     1       8.906  -2.249   1.398  1.00  0.00     0.351 C 
BRANCH   5   6
ATOM      6  O   UNL     1       9.168  -1.323   0.322  1.00  0.00    -0.482 OA
BRANCH   6   7
ATOM      7  C   UNL     1       8.307  -0.806  -0.632  1.00  0.00     0.120 A 
ATOM      8  C   UNL     1       6.036  -0.178  -1.464  1.00  0.00    -0.021 A 
ATOM      9  C   UNL     1       6.605   0.895  -2.148  1.00  0.00     0.008 A 
ATOM     10  C   UNL     1       6.962  -1.117  -0.909  1.00  0.00     0.054 A 
ATOM     11  C   UNL     1       8.000   1.064  -2.157  1.00  0.00     0.004 A 
ATOM     12  C   UNL     1       8.831   0.256  -1.362  1.00  0.00     0.046 A 
BRANCH   8  13
ATOM     13  C   UNL     1       4.516  -0.167  -1.196  1.00  0.00     0.031 C 
ATOM     14  C   UNL     1       3.785   0.087  -0.050  1.00  0.00     0.095 C 
BRANCH  14  15
ATOM     15  C   UNL     1       2.265   0.087  -0.050  1.00  0.00     0.103 C 
ATOM     16  N   UNL     1       1.004   0.087  -0.050  1.00  0.00    -0.192 NA
ENDBRANCH  14  15
BRANCH  14  17
ATOM     17  C   UNL     1       4.461   0.437   1.189  1.00  0.00     0.149 A 
ATOM     18  N   UNL     1       6.083   0.797   0.968  1.00  0.00    -0.228 NA
ATOM     19  N   UNL     1       4.255  -0.431   2.895  1.00  0.00    -0.337 N 
ATOM     20  C   UNL     1       7.175   0.207   2.309  1.00  0.00     0.089 A 
ATOM     21  C   UNL     1       6.014  -0.692   3.593  1.00  0.00     0.066 A 
ATOM     22  H   UNL     1       3.408  -0.690   3.324  1.00  0.00     0.168 HD
ATOM     23  C   UNL     1       8.880   0.578   2.741  1.00  0.00     0.030 A 
ATOM     24  C   UNL     1       6.751  -1.237   5.107  1.00  0.00     0.028 A 
ATOM     25  C   UNL     1       9.519   0.009   4.313  1.00  0.00     0.002 A 
ATOM     26  C   UNL     1       8.475  -0.866   5.455  1.00  0.00     0.002 A 
ENDBRANCH  14  17
ENDBRANCH   8  13
ENDBRANCH   6   7
ENDBRANCH   5   6
ENDBRANCH   3   5
ENDBRANCH   2   3
ENDBRANCH   1   2
BRANCH   1  27
ATOM     27  C   UNL     1       6.253   1.661   3.662  1.00  0.00     0.275 C 
BRANCH  27  28
ATOM     28  O   UNL     1       5.474   0.729   2.633  1.00  0.00    -0.458 OA
BRANCH  28  29
ATOM     29  C   UNL     1       5.650  -1.045   1.726  1.00  0.00     0.338 C 
ATOM     30  O   UNL     1       6.672  -1.731   1.573  1.00  0.00    -0.246 OA
BRANCH  29  31
ATOM     31  C   UNL     1       4.461  -2.249   1.301  1.00  0.00     0.060 A 
ATOM     32  C   UNL     1       4.962  -3.322   0.527  1.00  0.00     0.016 A 
ATOM     33  C   UNL     1       3.063  -2.242   1.434  1.00  0.00     0.016 A 
ATOM     34  C   UNL     1       4.187  -3.982  -0.429  1.00  0.00     0.010 A 
ATOM     35  C   UNL     1       2.272  -2.891   0.480  1.00  0.00     0.010 A 
ATOM     36  C   UNL     1       2.841  -3.674  -0.531  1.00  0.00    -0.014 A 
BRANCH  36  37
ATOM     37  C   UNL     1       1.932  -4.380  -1.450  1.00  0.00     0.031 A 
ATOM     38  C   UNL     1       1.521  -3.834  -2.789  1.00  0.00     0.074 A 
ATOM     39  C   UNL     1       1.304  -5.421  -0.879  1.00  0.00     0.049 A 
ATOM     40  N   UNL     1       0.582  -4.258  -3.594  1.00  0.00    -0.248 NA
ATOM     41  C   UNL     1       2.243  -2.660  -3.300  1.00  0.00     0.031 C 
ATOM     42  C   UNL     1       1.604  -5.936   0.465  1.00  0.00     0.029 A 
ATOM     43  N   UNL     1       0.212  -6.128  -1.279  1.00  0.00    -0.354 N 
ATOM     44  C   UNL     1       0.579  -3.396  -4.690  1.00  0.00     0.074 A 
ATOM     45  C   UNL     1       1.611  -2.412  -4.444  1.00  0.00     0.031 C 
ATOM     46  C   UNL     1       0.632  -6.775   0.833  1.00  0.00     0.029 A 
ATOM     47  C   UNL     1      -0.318  -6.885  -0.263  1.00  0.00     0.049 A 
ATOM     48  H   UNL     1      -0.156  -6.101  -2.192  1.00  0.00     0.167 HD
ATOM     49  C   UNL     1      -0.208  -3.451  -5.795  1.00  0.00     0.034 A 
ATOM     50  C   UNL     1      -1.464  -7.579  -0.216  1.00  0.00     0.034 A 
ATOM     51  C   UNL     1      -1.217  -4.465  -5.984  1.00  0.00     0.049 A 
ATOM     52  C   UNL     1      -2.281  -7.655  -1.463  1.00  0.00     0.074 A 
ATOM     53  C   UNL     1      -1.976  -4.731  -7.111  1.00  0.00     0.029 A 
ATOM     54  N   UNL     1      -1.630  -5.357  -5.005  1.00  0.00    -0.354 N 
ATOM     55  N   UNL     1      -2.129  -6.998  -2.587  1.00  0.00    -0.248 NA
ATOM     56  C   UNL     1      -3.373  -8.632  -1.469  1.00  0.00     0.031 C 
ATOM     57  C   UNL     1      -2.884  -5.747  -6.793  1.00  0.00     0.029 A 
ATOM     58  C   UNL     1      -2.649  -6.156  -5.490  1.00  0.00     0.049 A 
ATOM     59  H   UNL     1      -1.252  -5.413  -4.098  1.00  0.00     0.167 HD
ATOM     60  C   UNL     1      -3.065  -7.529  -3.461  1.00  0.00     0.074 A 
ATOM     61  C   UNL     1      -3.774  -8.562  -2.730  1.00  0.00     0.031 C 
ATOM     62  C   UNL     1      -3.312  -7.199  -4.751  1.00  0.00     0.034 A 
BRANCH  49  63
ATOM     63  C   UNL     1      -0.007  -2.454  -6.918  1.00  0.00     0.023 A 
ATOM     64  C   UNL     1       1.150  -2.531  -7.720  1.00  0.00     0.012 A 
ATOM     65  C   UNL     1      -1.037  -1.561  -7.293  1.00  0.00     0.148 A 
ATOM     66  C   UNL     1       1.288  -1.731  -8.858  1.00  0.00     0.002 A 
ATOM     67  C   UNL     1      -0.910  -0.796  -8.450  1.00  0.00     0.091 A 
ATOM     68  F   UNL     1      -2.134  -1.496  -6.526  1.00  0.00    -0.205 F 
ATOM     69  C   UNL     1       0.255  -0.875  -9.229  1.00  0.00     0.022 A 
BRANCH  67  70
ATOM     70  S   UNL     1      -2.216   0.276  -9.069  1.00  0.00     0.127 S 
ATOM     71  O   UNL     1      -1.596   1.595  -8.951  1.00  0.00    -0.237 OA
ATOM     72  O   UNL     1      -2.377  -0.198 -10.444  1.00  0.00    -0.237 OA
ATOM     73  O   UNL     1      -3.367   0.054  -8.206  1.00  0.00    -0.744 OA
ENDBRANCH  67  70
ENDBRANCH  49  63
BRANCH  50  74
ATOM     74  C   UNL     1      -1.787  -8.355   1.004  1.00  0.00     0.023 A 
ATOM     75  C   UNL     1      -1.598  -9.748   0.984  1.00  0.00     0.012 A 
ATOM     76  C   UNL     1      -2.188  -7.722   2.196  1.00  0.00     0.148 A 
ATOM     77  C   UNL     1      -1.861 -10.512   2.118  1.00  0.00     0.002 A 
ATOM     78  C   UNL     1      -2.401  -8.485   3.337  1.00  0.00     0.091 A 
ATOM     79  F   UNL     1      -2.323  -6.388   2.196  1.00  0.00    -0.205 F 
ATOM     80  C   UNL     1      -2.258  -9.881   3.293  1.00  0.00     0.022 A 
BRANCH  78  81
ATOM     81  S   UNL     1      -2.782  -7.748   4.929  1.00  0.00     0.127 S 
ATOM     82  O   UNL     1      -4.194  -8.090   5.084  1.00  0.00    -0.237 OA
ATOM     83  O   UNL     1      -1.873  -8.467   5.823  1.00  0.00    -0.237 OA
ATOM     84  O   UNL     1      -2.483  -6.330   4.789  1.00  0.00    -0.744 OA
ENDBRANCH  78  81
ENDBRANCH  50  74
BRANCH  62  85
ATOM     85  C   UNL     1      -4.359  -8.002  -5.470  1.00  0.00     0.023 A 
ATOM     86  C   UNL     1      -5.719  -7.856  -5.134  1.00  0.00     0.012 A 
ATOM     87  C   UNL     1      -3.988  -8.867  -6.516  1.00  0.00     0.148 A 
ATOM     88  C   UNL     1      -6.692  -8.593  -5.805  1.00  0.00     0.002 A 
ATOM     89  C   UNL     1      -4.968  -9.550  -7.220  1.00  0.00     0.091 A 
ATOM     90  F   UNL     1      -2.685  -9.005  -6.801  1.00  0.00    -0.205 F 
ATOM     91  C   UNL     1      -6.319  -9.428  -6.855  1.00  0.00     0.022 A 
BRANCH  89  92
ATOM     92  S   UNL     1      -4.593 -10.566  -8.652  1.00  0.00     0.127 S 
ATOM     93  O   UNL     1      -4.912 -11.905  -8.159  1.00  0.00    -0.237 OA
ATOM     94  O   UNL     1      -5.527 -10.044  -9.650  1.00  0.00    -0.237 OA
ATOM     95  O   UNL     1      -3.187 -10.335  -8.957  1.00  0.00    -0.744 OA
ENDBRANCH  89  92
ENDBRANCH  62  85
ENDBRANCH  36  37
ENDBRANCH  29  31
ENDBRANCH  28  29
ENDBRANCH  27  28
ENDBRANCH   1  27
TORSDOF 19
