REMARK SMILES CCCC[C@H](C(=O)OCCOC(=O)c1ccc(-c2c3nc(c(-c4cccc(S(=O)(=O)[O-])c4F)c4ccc([nH]4)c(-c4cccc(S(=O)(=O)[O-])c4F)c4nc(c(-c5cccc(S(=O)(=O)[O-])c5F)c5ccc2[nH]5)C=C4)C=C3)cc1)N1C(=O)/C(=C/c2cccc(Br)c2)SC1=S
REMARK SMILES IDX 9 1 8 2 6 3 7 4 5 5 4 6 3 7 2 8 1 9 77 10 78 11 90 12 79 13
REMARK SMILES IDX 80 14 89 15 91 16 81 17 82 18 83 19 88 20 84 21 86 22 85 23
REMARK SMILES IDX 87 24 10 25 11 26 12 27 13 28 14 29 15 30 76 31 16 32 75 33
REMARK SMILES IDX 17 34 18 35 19 36 69 37 20 38 74 39 68 40 70 41 21 42 73 43
REMARK SMILES IDX 67 44 66 45 22 47 54 48 34 49 53 50 35 51 38 52 52 53 71 54
REMARK SMILES IDX 36 55 37 56 51 58 72 59 39 60 23 61 24 62 32 63 25 64 27 65
REMARK SMILES IDX 33 66 26 67 28 68 29 69 30 70 31 71 55 72 56 73 64 74 57 75
REMARK SMILES IDX 59 76 65 77 58 78 60 79 61 80 62 81 63 82 40 83 41 84 49 85
REMARK SMILES IDX 42 86 44 87 50 88 43 89 45 90 46 91 47 92 48 93
REMARK H PARENT 70 46 38 57
REMARK Flexibility Score: inf
ROOT
ATOM      1  C   UNL     1       2.398   2.226   1.758  1.00  0.00     0.274 C 
ENDROOT
BRANCH   1   2
ATOM      2  O   UNL     1       1.028   2.650   1.961  1.00  0.00    -0.461 OA
BRANCH   2   3
ATOM      3  C   UNL     1       0.075   1.687   1.884  1.00  0.00     0.329 C 
ATOM      4  O   UNL     1       0.289   0.553   1.470  1.00  0.00    -0.250 OA
BRANCH   3   5
ATOM      5  C   UNL     1      -1.274   2.092   2.522  1.00  0.00     0.202 C 
BRANCH   5   6
ATOM      6  C   UNL     1      -1.474   1.378   3.877  1.00  0.00     0.038 C 
BRANCH   6   7
ATOM      7  C   UNL     1      -2.378   1.953   4.974  1.00  0.00     0.002 C 
BRANCH   7   8
ATOM      8  C   UNL     1      -3.847   2.228   4.666  1.00  0.00    -0.003 C 
ATOM      9  C   UNL     1      -4.613   1.035   4.129  1.00  0.00     0.004 C 
ENDBRANCH   7   8
ENDBRANCH   6   7
ENDBRANCH   5   6
BRANCH   5  10
ATOM     10  N   UNL     1      -1.626   3.519   2.509  1.00  0.00    -0.278 N 
ATOM     11  C   UNL     1      -2.781   3.845   1.807  1.00  0.00     0.266 C 
ATOM     12  C   UNL     1      -1.035   4.555   3.210  1.00  0.00     0.149 C 
ATOM     13  O   UNL     1      -3.452   3.099   1.105  1.00  0.00    -0.268 OA
ATOM     14  C   UNL     1      -3.175   5.239   2.087  1.00  0.00     0.081 C 
ATOM     15  S   UNL     1      -1.902   6.058   2.884  1.00  0.00    -0.054 SA
ATOM     16  S   UNL     1       0.261   4.559   4.259  1.00  0.00    -0.052 S 
ATOM     17  C   UNL     1      -4.408   5.684   1.815  1.00  0.00     0.029 C 
BRANCH  17  18
ATOM     18  C   UNL     1      -4.833   7.052   2.092  1.00  0.00    -0.023 A 
ATOM     19  C   UNL     1      -5.416   7.393   3.317  1.00  0.00     0.008 A 
ATOM     20  C   UNL     1      -4.562   8.042   1.143  1.00  0.00     0.023 A 
ATOM     21  C   UNL     1      -5.708   8.728   3.598  1.00  0.00     0.002 A 
ATOM     22  C   UNL     1      -4.853   9.370   1.433  1.00  0.00     0.018 A 
ATOM     23  C   UNL     1      -5.421   9.720   2.658  1.00  0.00     0.016 A 
ATOM     24  Br  UNL     1      -4.441  10.709   0.165  1.00  0.00    -0.051 Br
ENDBRANCH  17  18
ENDBRANCH   5  10
ENDBRANCH   3   5
ENDBRANCH   2   3
ENDBRANCH   1   2
BRANCH   1  25
ATOM     25  C   UNL     1       3.037   1.779   3.078  1.00  0.00     0.275 C 
BRANCH  25  26
ATOM     26  O   UNL     1       2.462   0.525   3.486  1.00  0.00    -0.458 OA
BRANCH  26  27
ATOM     27  C   UNL     1       2.142   0.407   4.793  1.00  0.00     0.338 C 
ATOM     28  O   UNL     1       2.307   1.243   5.671  1.00  0.00    -0.246 OA
BRANCH  27  29
ATOM     29  C   UNL     1       1.525  -0.909   5.043  1.00  0.00     0.060 A 
ATOM     30  C   UNL     1       0.481  -1.371   4.240  1.00  0.00     0.016 A 
ATOM     31  C   UNL     1       1.925  -1.648   6.155  1.00  0.00     0.016 A 
ATOM     32  C   UNL     1      -0.223  -2.517   4.592  1.00  0.00     0.010 A 
ATOM     33  C   UNL     1       1.293  -2.861   6.441  1.00  0.00     0.010 A 
ATOM     34  C   UNL     1       0.195  -3.295   5.679  1.00  0.00    -0.014 A 
BRANCH  34  35
ATOM     35  C   UNL     1      -0.497  -4.569   6.002  1.00  0.00     0.031 A 
ATOM     36  C   UNL     1      -1.118  -4.774   7.356  1.00  0.00     0.074 A 
ATOM     37  C   UNL     1      -0.528  -5.559   5.086  1.00  0.00     0.049 A 
ATOM     38  N   UNL     1      -1.602  -5.868   7.883  1.00  0.00    -0.248 NA
ATOM     39  C   UNL     1      -1.191  -3.600   8.242  1.00  0.00     0.031 C 
ATOM     40  C   UNL     1       0.039  -5.480   3.737  1.00  0.00     0.029 A 
ATOM     41  N   UNL     1      -1.039  -6.830   5.154  1.00  0.00    -0.354 N 
ATOM     42  C   UNL     1      -1.966  -5.536   9.183  1.00  0.00     0.074 A 
ATOM     43  C   UNL     1      -1.663  -4.132   9.361  1.00  0.00     0.031 C 
ATOM     44  C   UNL     1      -0.166  -6.642   3.102  1.00  0.00     0.029 A 
ATOM     45  C   UNL     1      -0.807  -7.575   4.020  1.00  0.00     0.049 A 
ATOM     46  H   UNL     1      -1.525  -7.176   5.938  1.00  0.00     0.167 HD
ATOM     47  C   UNL     1      -2.508  -6.330  10.137  1.00  0.00     0.034 A 
ATOM     48  C   UNL     1      -1.042  -8.875   3.759  1.00  0.00     0.034 A 
ATOM     49  C   UNL     1      -2.870  -7.706   9.927  1.00  0.00     0.049 A 
ATOM     50  C   UNL     1      -1.674  -9.723   4.824  1.00  0.00     0.074 A 
ATOM     51  C   UNL     1      -3.468  -8.584  10.813  1.00  0.00     0.029 A 
ATOM     52  N   UNL     1      -2.680  -8.402   8.742  1.00  0.00    -0.354 N 
ATOM     53  N   UNL     1      -2.063  -9.377   6.027  1.00  0.00    -0.248 NA
ATOM     54  C   UNL     1      -1.911 -11.135   4.495  1.00  0.00     0.031 C 
ATOM     55  C   UNL     1      -3.636  -9.813  10.165  1.00  0.00     0.029 A 
ATOM     56  C   UNL     1      -3.151  -9.697   8.872  1.00  0.00     0.049 A 
ATOM     57  H   UNL     1      -2.271  -8.029   7.928  1.00  0.00     0.167 HD
ATOM     58  C   UNL     1      -2.606 -10.522   6.595  1.00  0.00     0.074 A 
ATOM     59  C   UNL     1      -2.522 -11.565   5.592  1.00  0.00     0.031 C 
ATOM     60  C   UNL     1      -3.105 -10.703   7.842  1.00  0.00     0.034 A 
BRANCH  47  61
ATOM     61  C   UNL     1      -2.772  -5.723  11.490  1.00  0.00     0.023 A 
ATOM     62  C   UNL     1      -3.869  -4.857  11.665  1.00  0.00     0.012 A 
ATOM     63  C   UNL     1      -1.968  -6.054  12.599  1.00  0.00     0.148 A 
ATOM     64  C   UNL     1      -4.149  -4.310  12.917  1.00  0.00     0.002 A 
ATOM     65  C   UNL     1      -2.275  -5.534  13.852  1.00  0.00     0.091 A 
ATOM     66  F   UNL     1      -0.912  -6.858  12.408  1.00  0.00    -0.205 F 
ATOM     67  C   UNL     1      -3.359  -4.656  14.011  1.00  0.00     0.022 A 
BRANCH  65  68
ATOM     68  S   UNL     1      -1.355  -5.979  15.330  1.00  0.00     0.127 S 
ATOM     69  O   UNL     1      -0.538  -4.785  15.541  1.00  0.00    -0.237 OA
ATOM     70  O   UNL     1      -2.421  -6.170  16.315  1.00  0.00    -0.237 OA
ATOM     71  O   UNL     1      -0.624  -7.192  14.992  1.00  0.00    -0.744 OA
ENDBRANCH  65  68
ENDBRANCH  47  61
BRANCH  48  72
ATOM     72  C   UNL     1      -0.696  -9.430   2.420  1.00  0.00     0.023 A 
ATOM     73  C   UNL     1      -1.730  -9.781   1.531  1.00  0.00     0.012 A 
ATOM     74  C   UNL     1       0.642  -9.541   1.994  1.00  0.00     0.148 A 
ATOM     75  C   UNL     1      -1.436 -10.244   0.247  1.00  0.00     0.002 A 
ATOM     76  C   UNL     1       0.925  -9.943   0.693  1.00  0.00     0.091 A 
ATOM     77  F   UNL     1       1.615  -9.226   2.861  1.00  0.00    -0.205 F 
ATOM     78  C   UNL     1      -0.112 -10.309  -0.177  1.00  0.00     0.022 A 
BRANCH  76  79
ATOM     79  S   UNL     1       2.595  -9.898   0.029  1.00  0.00     0.127 S 
ATOM     80  O   UNL     1       2.983 -11.304   0.096  1.00  0.00    -0.237 OA
ATOM     81  O   UNL     1       2.376  -9.383  -1.324  1.00  0.00    -0.237 OA
ATOM     82  O   UNL     1       3.329  -8.988   0.898  1.00  0.00    -0.744 OA
ENDBRANCH  76  79
ENDBRANCH  48  72
BRANCH  60  83
ATOM     83  C   UNL     1      -3.619 -12.073   8.187  1.00  0.00     0.023 A 
ATOM     84  C   UNL     1      -2.702 -13.105   8.465  1.00  0.00     0.012 A 
ATOM     85  C   UNL     1      -5.000 -12.319   8.304  1.00  0.00     0.148 A 
ATOM     86  C   UNL     1      -3.154 -14.371   8.833  1.00  0.00     0.002 A 
ATOM     87  C   UNL     1      -5.442 -13.572   8.711  1.00  0.00     0.091 A 
ATOM     88  F   UNL     1      -5.855 -11.328   8.011  1.00  0.00    -0.205 F 
ATOM     89  C   UNL     1      -4.522 -14.601   8.967  1.00  0.00     0.022 A 
BRANCH  87  90
ATOM     90  S   UNL     1      -7.181 -13.925   8.990  1.00  0.00     0.127 S 
ATOM     91  O   UNL     1      -7.533 -14.665   7.780  1.00  0.00    -0.237 OA
ATOM     92  O   UNL     1      -7.147 -14.731  10.210  1.00  0.00    -0.237 OA
ATOM     93  O   UNL     1      -7.827 -12.628   9.146  1.00  0.00    -0.744 OA
ENDBRANCH  87  90
ENDBRANCH  60  83
ENDBRANCH  34  35
ENDBRANCH  27  29
ENDBRANCH  26  27
ENDBRANCH  25  26
ENDBRANCH   1  25
TORSDOF 19
