REMARK SMILES C[C@]12CC[C@H]3[C@@H](CCC4=CC(=O)C=C[C@@]43C)[C@@H]1CC[C@H]2O[C@@H]1O[C@H](C(=O)OCCOC(=O)c2ccc(-c3c4nc(c(-c5cccc(S(=O)(=O)[O-])c5F)c5ccc([nH]5)c(-c5cccc(S(=O)(=O)[O-])c5F)c5nc(c(-c6cccc(S(=O)(=O)[O-])c6F)c6ccc3[nH]6)C=C5)C=C4)cc2)[C@@H](O)[C@H](O)[C@H]1O
REMARK SMILES IDX 29 1 28 2 27 3 25 4 26 5 24 6 22 7 23 8 100 9 98 10 96 11
REMARK SMILES IDX 21 12 20 13 1 14 2 15 3 16 17 17 4 18 6 19 18 20 19 21 5 22
REMARK SMILES IDX 7 23 15 24 8 25 9 26 14 27 16 28 10 29 13 30 11 31 12 32
REMARK SMILES IDX 101 33 99 35 97 37 30 39 31 40 32 41 33 42 34 43 95 44 35 45
REMARK SMILES IDX 94 46 36 47 37 48 38 49 88 50 39 51 93 52 87 53 89 54 40 55
REMARK SMILES IDX 92 56 86 57 85 58 41 60 73 61 53 62 72 63 54 64 57 65 71 66
REMARK SMILES IDX 90 67 55 68 56 69 70 71 91 72 58 73 42 74 43 75 51 76 44 77
REMARK SMILES IDX 46 78 52 79 45 80 47 81 48 82 49 83 50 84 74 85 75 86 83 87
REMARK SMILES IDX 76 88 78 89 84 90 77 91 79 92 80 93 81 94 82 95 59 96 60 97
REMARK SMILES IDX 68 98 61 99 63 100 69 101 62 102 64 103 65 104 66 105 67 106
REMARK H PARENT 101 34 99 36 97 38 89 59 57 70
REMARK Flexibility Score: inf
ROOT
ATOM      1  C   UNL     1       5.949  -5.328  -2.268  1.00  0.00     0.275 C 
ENDROOT
BRANCH   1   2
ATOM      2  C   UNL     1       4.892  -5.066  -1.195  1.00  0.00     0.274 C 
BRANCH   2   3
ATOM      3  O   UNL     1       4.190  -3.840  -1.489  1.00  0.00    -0.460 OA
BRANCH   3   4
ATOM      4  C   UNL     1       4.019  -2.973  -0.467  1.00  0.00     0.338 C 
ATOM      5  O   UNL     1       4.346  -3.181   0.698  1.00  0.00    -0.249 OA
BRANCH   4   6
ATOM      6  C   UNL     1       3.337  -1.666  -0.882  1.00  0.00     0.262 C 
ATOM      7  C   UNL     1       2.750  -0.107  -2.623  1.00  0.00     0.282 C 
ATOM      8  O   UNL     1       3.290  -1.385  -2.278  1.00  0.00    -0.332 OA
ATOM      9  C   UNL     1       1.471   0.296  -1.841  1.00  0.00     0.202 C 
ATOM     10  C   UNL     1       1.441  -0.188  -0.388  1.00  0.00     0.180 C 
ATOM     11  C   UNL     1       1.915  -1.646  -0.313  1.00  0.00     0.186 C 
BRANCH   7  12
ATOM     12  O   UNL     1       2.677   0.104  -4.045  1.00  0.00    -0.346 OA
BRANCH  12  13
ATOM     13  C   UNL     1       1.786  -0.489  -4.996  1.00  0.00     0.127 C 
ATOM     14  C   UNL     1       1.367  -2.231  -6.808  1.00  0.00     0.014 C 
ATOM     15  C   UNL     1       2.049  -1.961  -5.429  1.00  0.00    -0.003 C 
ATOM     16  C   UNL     1       3.506  -2.405  -5.527  1.00  0.00     0.010 C 
ATOM     17  C   UNL     1       1.344  -2.698  -4.287  1.00  0.00     0.001 C 
ATOM     18  C   UNL     1       3.620  -3.934  -5.695  1.00  0.00     0.006 C 
ATOM     19  C   UNL     1       1.393  -4.224  -4.372  1.00  0.00    -0.003 C 
ATOM     20  C   UNL     1      -0.000  -1.968  -4.152  1.00  0.00     0.007 C 
ATOM     21  C   UNL     1       0.282  -0.527  -4.657  1.00  0.00     0.033 C 
ATOM     22  C   UNL     1       2.863  -4.725  -4.599  1.00  0.00     0.006 C 
ATOM     23  C   UNL     1       0.873  -4.835  -3.054  1.00  0.00     0.009 C 
ATOM     24  C   UNL     1       2.911  -6.296  -4.735  1.00  0.00     0.010 C 
ATOM     25  C   UNL     1       0.943  -6.359  -3.041  1.00  0.00     0.032 C 
ATOM     26  C   UNL     1       2.296  -6.888  -3.456  1.00  0.00    -0.056 C 
ATOM     27  C   UNL     1       4.325  -6.822  -4.958  1.00  0.00    -0.012 C 
ATOM     28  C   UNL     1       2.110  -6.805  -5.951  1.00  0.00     0.021 C 
ATOM     29  C   UNL     1       2.915  -7.811  -2.697  1.00  0.00     0.052 C 
ATOM     30  C   UNL     1       4.926  -7.760  -4.214  1.00  0.00     0.048 C 
ATOM     31  C   UNL     1       4.260  -8.327  -3.028  1.00  0.00     0.178 C 
ATOM     32  O   UNL     1       4.816  -9.155  -2.319  1.00  0.00    -0.290 OA
ENDBRANCH  12  13
ENDBRANCH   7  12
BRANCH   9  33
ATOM     33  O   UNL     1       1.242   1.712  -1.918  1.00  0.00    -0.385 OA
ATOM     34  H   UNL     1       1.968   2.182  -1.477  1.00  0.00     0.211 HD
ENDBRANCH   9  33
BRANCH  10  35
ATOM     35  O   UNL     1       0.104  -0.051   0.124  1.00  0.00    -0.387 OA
ATOM     36  H   UNL     1      -0.504  -0.584  -0.411  1.00  0.00     0.211 HD
ENDBRANCH  10  35
BRANCH  11  37
ATOM     37  O   UNL     1       1.763  -2.115   1.025  1.00  0.00    -0.387 OA
ATOM     38  H   UNL     1       2.264  -1.541   1.627  1.00  0.00     0.211 HD
ENDBRANCH  11  37
ENDBRANCH   4   6
ENDBRANCH   3   4
ENDBRANCH   2   3
ENDBRANCH   1   2
BRANCH   1  39
ATOM     39  O   UNL     1       7.060  -4.460  -2.066  1.00  0.00    -0.458 OA
BRANCH  39  40
ATOM     40  C   UNL     1       6.928  -3.234  -2.617  1.00  0.00     0.338 C 
ATOM     41  O   UNL     1       6.160  -2.870  -3.487  1.00  0.00    -0.246 OA
BRANCH  40  42
ATOM     42  C   UNL     1       7.685  -2.352  -1.735  1.00  0.00     0.060 A 
ATOM     43  C   UNL     1       7.009  -1.271  -1.163  1.00  0.00     0.016 A 
ATOM     44  C   UNL     1       8.998  -2.674  -1.390  1.00  0.00     0.016 A 
ATOM     45  C   UNL     1       7.649  -0.501  -0.211  1.00  0.00     0.010 A 
ATOM     46  C   UNL     1       9.646  -1.895  -0.449  1.00  0.00     0.010 A 
ATOM     47  C   UNL     1       8.976  -0.798   0.116  1.00  0.00    -0.014 A 
BRANCH  47  48
ATOM     48  C   UNL     1       9.751   0.182   0.881  1.00  0.00     0.031 A 
ATOM     49  C   UNL     1      10.654   1.085   0.099  1.00  0.00     0.074 A 
ATOM     50  C   UNL     1       9.633   0.229   2.216  1.00  0.00     0.049 A 
ATOM     51  N   UNL     1      11.511   1.965   0.527  1.00  0.00    -0.248 NA
ATOM     52  C   UNL     1      10.597   0.964  -1.372  1.00  0.00     0.031 C 
ATOM     53  C   UNL     1       8.757  -0.628   3.019  1.00  0.00     0.029 A 
ATOM     54  N   UNL     1      10.272   1.013   3.134  1.00  0.00    -0.354 N 
ATOM     55  C   UNL     1      12.131   2.462  -0.611  1.00  0.00     0.074 A 
ATOM     56  C   UNL     1      11.560   1.789  -1.752  1.00  0.00     0.031 C 
ATOM     57  C   UNL     1       8.935  -0.338   4.319  1.00  0.00     0.029 A 
ATOM     58  C   UNL     1       9.961   0.693   4.433  1.00  0.00     0.049 A 
ATOM     59  H   UNL     1      10.895   1.735   2.888  1.00  0.00     0.167 HD
ATOM     60  C   UNL     1      13.094   3.406  -0.684  1.00  0.00     0.034 A 
ATOM     61  C   UNL     1      10.486   1.172   5.576  1.00  0.00     0.034 A 
ATOM     62  C   UNL     1      13.616   4.064   0.479  1.00  0.00     0.049 A 
ATOM     63  C   UNL     1      11.539   2.241   5.461  1.00  0.00     0.074 A 
ATOM     64  C   UNL     1      14.565   5.062   0.554  1.00  0.00     0.029 A 
ATOM     65  N   UNL     1      13.224   3.775   1.780  1.00  0.00    -0.354 N 
ATOM     66  N   UNL     1      12.069   2.763   4.378  1.00  0.00    -0.248 NA
ATOM     67  C   UNL     1      12.041   2.816   6.713  1.00  0.00     0.031 C 
ATOM     68  C   UNL     1      14.769   5.357   1.905  1.00  0.00     0.029 A 
ATOM     69  C   UNL     1      13.911   4.577   2.668  1.00  0.00     0.049 A 
ATOM     70  H   UNL     1      12.555   3.098   2.031  1.00  0.00     0.167 HD
ATOM     71  C   UNL     1      12.932   3.758   4.815  1.00  0.00     0.074 A 
ATOM     72  C   UNL     1      12.840   3.773   6.263  1.00  0.00     0.031 C 
ATOM     73  C   UNL     1      13.736   4.582   4.098  1.00  0.00     0.034 A 
BRANCH  60  74
ATOM     74  C   UNL     1      13.632   3.763  -2.042  1.00  0.00     0.023 A 
ATOM     75  C   UNL     1      12.829   4.470  -2.961  1.00  0.00     0.012 A 
ATOM     76  C   UNL     1      14.951   3.422  -2.398  1.00  0.00     0.148 A 
ATOM     77  C   UNL     1      13.321   4.807  -4.222  1.00  0.00     0.002 A 
ATOM     78  C   UNL     1      15.451   3.805  -3.635  1.00  0.00     0.091 A 
ATOM     79  F   UNL     1      15.686   2.721  -1.523  1.00  0.00    -0.205 F 
ATOM     80  C   UNL     1      14.635   4.486  -4.553  1.00  0.00     0.022 A 
BRANCH  78  81
ATOM     81  S   UNL     1      17.152   3.507  -4.129  1.00  0.00     0.127 S 
ATOM     82  O   UNL     1      16.976   2.607  -5.269  1.00  0.00    -0.237 OA
ATOM     83  O   UNL     1      17.606   4.853  -4.479  1.00  0.00    -0.237 OA
ATOM     84  O   UNL     1      17.813   2.918  -2.973  1.00  0.00    -0.744 OA
ENDBRANCH  78  81
ENDBRANCH  60  74
BRANCH  61  85
ATOM     85  C   UNL     1      10.010   0.671   6.896  1.00  0.00     0.023 A 
ATOM     86  C   UNL     1       9.294   1.528   7.754  1.00  0.00     0.012 A 
ATOM     87  C   UNL     1      10.244  -0.659   7.297  1.00  0.00     0.148 A 
ATOM     88  C   UNL     1       8.857   1.083   9.003  1.00  0.00     0.002 A 
ATOM     89  C   UNL     1       9.757  -1.113   8.518  1.00  0.00     0.091 A 
ATOM     90  F   UNL     1      10.936  -1.459   6.474  1.00  0.00    -0.205 F 
ATOM     91  C   UNL     1       9.079  -0.239   9.381  1.00  0.00     0.022 A 
BRANCH  89  92
ATOM     92  S   UNL     1       9.888  -2.832   9.024  1.00  0.00     0.127 S 
ATOM     93  O   UNL     1      10.912  -2.760  10.062  1.00  0.00    -0.237 OA
ATOM     94  O   UNL     1       8.535  -3.109   9.510  1.00  0.00    -0.237 OA
ATOM     95  O   UNL     1      10.252  -3.566   7.820  1.00  0.00    -0.744 OA
ENDBRANCH  89  92
ENDBRANCH  61  85
BRANCH  73  96
ATOM     96  C   UNL     1      14.516   5.611   4.866  1.00  0.00     0.023 A 
ATOM     97  C   UNL     1      15.619   5.226   5.651  1.00  0.00     0.012 A 
ATOM     98  C   UNL     1      14.189   6.975   4.738  1.00  0.00     0.148 A 
ATOM     99  C   UNL     1      16.362   6.186   6.334  1.00  0.00     0.002 A 
ATOM    100  C   UNL     1      14.970   7.928   5.372  1.00  0.00     0.091 A 
ATOM    101  F   UNL     1      13.122   7.311   3.997  1.00  0.00    -0.205 F 
ATOM    102  C   UNL     1      16.047   7.535   6.184  1.00  0.00     0.022 A 
BRANCH 100 103
ATOM    103  S   UNL     1      14.705   9.687   5.138  1.00  0.00     0.127 S 
ATOM    104  O   UNL     1      14.124  10.073   6.423  1.00  0.00    -0.237 OA
ATOM    105  O   UNL     1      16.064  10.177   4.910  1.00  0.00    -0.237 OA
ATOM    106  O   UNL     1      13.819   9.810   3.988  1.00  0.00    -0.744 OA
ENDBRANCH 100 103
ENDBRANCH  73  96
ENDBRANCH  47  48
ENDBRANCH  40  42
ENDBRANCH  39  40
ENDBRANCH   1  39
TORSDOF 19
