REMARK SMILES CC1=Nc2c(c(C)nn2-c2ccc(F)cc2)[C@H](c2ccc(C(=O)OCCOC(=O)c3ccc(-c4c5nc(c(-c6cccc(S(=O)(=O)[O-])c6F)c6ccc([nH]6)c(-c6cccc(S(=O)(=O)[O-])c6F)c6nc(c(-c7cccc(S(=O)(=O)[O-])c7F)c7ccc4[nH]7)C=C6)C=C5)cc3)cc2)S1
REMARK SMILES IDX 26 1 25 2 24 3 22 4 23 5 21 6 18 7 19 8 94 9 20 10 93 11
REMARK SMILES IDX 17 12 1 13 2 14 3 15 95 16 4 17 5 18 9 19 6 20 8 21 7 22
REMARK SMILES IDX 10 23 11 24 16 25 12 26 15 27 13 28 14 29 27 30 28 31 29 32
REMARK SMILES IDX 30 33 31 34 92 35 32 36 91 37 33 38 34 39 35 40 85 41 36 42
REMARK SMILES IDX 90 43 84 44 86 45 37 46 89 47 83 48 82 49 38 51 70 52 50 53
REMARK SMILES IDX 69 54 51 55 54 56 68 57 87 58 52 59 53 60 67 62 88 63 55 64
REMARK SMILES IDX 39 65 40 66 48 67 41 68 43 69 49 70 42 71 44 72 45 73 46 74
REMARK SMILES IDX 47 75 71 76 72 77 80 78 73 79 75 80 81 81 74 82 76 83 77 84
REMARK SMILES IDX 78 85 79 86 56 87 57 88 65 89 58 90 60 91 66 92 59 93 61 94
REMARK SMILES IDX 62 95 63 96 64 97
REMARK H PARENT 86 50 54 61
REMARK Flexibility Score: inf
ROOT
ATOM      1  C   UNL     1       8.451  -5.104   3.609  1.00  0.00     0.275 C 
ENDROOT
BRANCH   1   2
ATOM      2  C   UNL     1       8.207  -5.219   2.110  1.00  0.00     0.275 C 
BRANCH   2   3
ATOM      3  O   UNL     1       6.891  -4.754   1.761  1.00  0.00    -0.458 OA
BRANCH   3   4
ATOM      4  C   UNL     1       5.923  -5.716   1.772  1.00  0.00     0.338 C 
ATOM      5  O   UNL     1       6.104  -6.908   1.841  1.00  0.00    -0.246 OA
BRANCH   4   6
ATOM      6  C   UNL     1       4.561  -5.106   1.748  1.00  0.00     0.060 A 
ATOM      7  C   UNL     1       1.904  -4.132   1.574  1.00  0.00    -0.030 A 
ATOM      8  C   UNL     1       2.173  -5.452   1.980  1.00  0.00     0.006 A 
ATOM      9  C   UNL     1       3.007  -3.288   1.343  1.00  0.00     0.006 A 
ATOM     10  C   UNL     1       3.482  -5.930   2.078  1.00  0.00     0.016 A 
ATOM     11  C   UNL     1       4.322  -3.772   1.414  1.00  0.00     0.016 A 
BRANCH   7  12
ATOM     12  C   UNL     1       0.455  -3.721   1.338  1.00  0.00     0.119 C 
ATOM     13  C   UNL     1       0.793   0.132  -0.034  1.00  0.00     0.075 C 
ATOM     14  C   UNL     1       0.277  -1.018   0.788  1.00  0.00     0.074 C 
ATOM     15  N   UNL     1      -0.058  -0.789   2.019  1.00  0.00    -0.227 NA
ATOM     16  S   UNL     1       0.219  -2.562  -0.056  1.00  0.00    -0.098 SA
ATOM     17  C   UNL     1      -0.378  -1.851   2.799  1.00  0.00     0.161 A 
ATOM     18  C   UNL     1      -0.114  -3.189   2.597  1.00  0.00     0.038 A 
ATOM     19  N   UNL     1      -0.971  -1.752   4.049  1.00  0.00    -0.215 N 
ATOM     20  C   UNL     1      -0.571  -3.831   3.777  1.00  0.00     0.067 A 
ATOM     21  N   UNL     1      -1.002  -2.948   4.686  1.00  0.00    -0.171 NA
ATOM     22  C   UNL     1      -0.617  -5.279   4.103  1.00  0.00     0.069 C 
BRANCH  19  23
ATOM     23  C   UNL     1      -1.560  -0.608   4.643  1.00  0.00     0.067 A 
ATOM     24  C   UNL     1      -2.275   0.307   3.856  1.00  0.00     0.031 A 
ATOM     25  C   UNL     1      -1.434  -0.408   6.024  1.00  0.00     0.031 A 
ATOM     26  C   UNL     1      -2.854   1.427   4.453  1.00  0.00     0.041 A 
ATOM     27  C   UNL     1      -1.971   0.742   6.604  1.00  0.00     0.041 A 
ATOM     28  C   UNL     1      -2.679   1.644   5.816  1.00  0.00     0.123 A 
ATOM     29  F   UNL     1      -3.206   2.742   6.375  1.00  0.00    -0.207 F 
ENDBRANCH  19  23
ENDBRANCH   7  12
ENDBRANCH   4   6
ENDBRANCH   3   4
ENDBRANCH   2   3
ENDBRANCH   1   2
BRANCH   1  30
ATOM     30  O   UNL     1       7.628  -6.003   4.349  1.00  0.00    -0.458 OA
BRANCH  30  31
ATOM     31  C   UNL     1       6.482  -5.459   4.813  1.00  0.00     0.338 C 
ATOM     32  O   UNL     1       5.908  -4.467   4.388  1.00  0.00    -0.246 OA
BRANCH  31  33
ATOM     33  C   UNL     1       6.126  -6.088   6.084  1.00  0.00     0.060 A 
ATOM     34  C   UNL     1       4.870  -5.789   6.626  1.00  0.00     0.016 A 
ATOM     35  C   UNL     1       7.133  -6.708   6.835  1.00  0.00     0.016 A 
ATOM     36  C   UNL     1       4.667  -5.992   7.976  1.00  0.00     0.010 A 
ATOM     37  C   UNL     1       6.936  -6.891   8.180  1.00  0.00     0.010 A 
ATOM     38  C   UNL     1       5.728  -6.476   8.745  1.00  0.00    -0.014 A 
BRANCH  38  39
ATOM     39  C   UNL     1       5.538  -6.655  10.170  1.00  0.00     0.031 A 
ATOM     40  C   UNL     1       4.707  -7.833  10.526  1.00  0.00     0.074 A 
ATOM     41  C   UNL     1       6.255  -5.931  11.051  1.00  0.00     0.049 A 
ATOM     42  N   UNL     1       3.683  -7.874  11.314  1.00  0.00    -0.248 NA
ATOM     43  C   UNL     1       4.976  -9.102   9.827  1.00  0.00     0.031 C 
ATOM     44  C   UNL     1       7.308  -4.955  10.746  1.00  0.00     0.029 A 
ATOM     45  N   UNL     1       6.334  -6.061  12.404  1.00  0.00    -0.354 N 
ATOM     46  C   UNL     1       3.309  -9.214  11.366  1.00  0.00     0.074 A 
ATOM     47  C   UNL     1       4.021  -9.889  10.316  1.00  0.00     0.031 C 
ATOM     48  C   UNL     1       8.091  -4.801  11.836  1.00  0.00     0.029 A 
ATOM     49  C   UNL     1       7.531  -5.579  12.927  1.00  0.00     0.049 A 
ATOM     50  H   UNL     1       5.620  -6.455  12.955  1.00  0.00     0.167 HD
ATOM     51  C   UNL     1       2.610  -9.724  12.413  1.00  0.00     0.034 A 
ATOM     52  C   UNL     1       8.075  -5.899  14.127  1.00  0.00     0.034 A 
ATOM     53  C   UNL     1       1.985  -8.694  13.193  1.00  0.00     0.049 A 
ATOM     54  C   UNL     1       6.997  -6.476  14.963  1.00  0.00     0.074 A 
ATOM     55  C   UNL     1       1.056  -7.710  12.926  1.00  0.00     0.029 A 
ATOM     56  N   UNL     1       2.591  -8.345  14.375  1.00  0.00    -0.354 N 
ATOM     57  N   UNL     1       5.984  -5.790  15.412  1.00  0.00    -0.248 NA
ATOM     58  C   UNL     1       6.822  -7.921  14.961  1.00  0.00     0.031 C 
ATOM     59  C   UNL     1       1.470  -6.595  13.707  1.00  0.00     0.029 A 
ATOM     60  C   UNL     1       2.596  -6.977  14.441  1.00  0.00     0.049 A 
ATOM     61  H   UNL     1       2.954  -8.963  15.050  1.00  0.00     0.167 HD
ATOM     62  C   UNL     1       4.907  -6.661  15.312  1.00  0.00     0.074 A 
ATOM     63  C   UNL     1       5.502  -7.986  15.155  1.00  0.00     0.031 C 
ATOM     64  C   UNL     1       3.647  -6.197  15.058  1.00  0.00     0.034 A 
BRANCH  51  65
ATOM     65  C   UNL     1       2.751 -11.133  12.920  1.00  0.00     0.023 A 
ATOM     66  C   UNL     1       1.788 -11.598  13.840  1.00  0.00     0.012 A 
ATOM     67  C   UNL     1       3.910 -11.922  12.742  1.00  0.00     0.148 A 
ATOM     68  C   UNL     1       1.984 -12.775  14.568  1.00  0.00     0.002 A 
ATOM     69  C   UNL     1       4.060 -13.135  13.403  1.00  0.00     0.091 A 
ATOM     70  F   UNL     1       4.942 -11.446  12.037  1.00  0.00    -0.205 F 
ATOM     71  C   UNL     1       3.114 -13.552  14.340  1.00  0.00     0.022 A 
BRANCH  69  72
ATOM     72  S   UNL     1       5.471 -14.201  13.088  1.00  0.00     0.127 S 
ATOM     73  O   UNL     1       6.299 -13.949  14.264  1.00  0.00    -0.237 OA
ATOM     74  O   UNL     1       4.846 -15.523  13.041  1.00  0.00    -0.237 OA
ATOM     75  O   UNL     1       6.012 -13.755  11.810  1.00  0.00    -0.744 OA
ENDBRANCH  69  72
ENDBRANCH  51  65
BRANCH  52  76
ATOM     76  C   UNL     1       9.503  -5.979  14.519  1.00  0.00     0.023 A 
ATOM     77  C   UNL     1       9.849  -5.951  15.885  1.00  0.00     0.012 A 
ATOM     78  C   UNL     1      10.506  -6.335  13.588  1.00  0.00     0.148 A 
ATOM     79  C   UNL     1      11.139  -6.291  16.311  1.00  0.00     0.002 A 
ATOM     80  C   UNL     1      11.791  -6.657  14.015  1.00  0.00     0.091 A 
ATOM     81  F   UNL     1      10.180  -6.453  12.295  1.00  0.00    -0.205 F 
ATOM     82  C   UNL     1      12.109  -6.648  15.378  1.00  0.00     0.022 A 
BRANCH  80  83
ATOM     83  S   UNL     1      13.084  -7.146  12.863  1.00  0.00     0.127 S 
ATOM     84  O   UNL     1      14.224  -6.356  13.330  1.00  0.00    -0.237 OA
ATOM     85  O   UNL     1      13.187  -8.580  13.117  1.00  0.00    -0.237 OA
ATOM     86  O   UNL     1      12.600  -6.770  11.540  1.00  0.00    -0.744 OA
ENDBRANCH  80  83
ENDBRANCH  52  76
BRANCH  64  87
ATOM     87  C   UNL     1       3.403  -4.708  15.120  1.00  0.00     0.023 A 
ATOM     88  C   UNL     1       4.055  -3.810  14.248  1.00  0.00     0.012 A 
ATOM     89  C   UNL     1       2.333  -4.237  15.899  1.00  0.00     0.148 A 
ATOM     90  C   UNL     1       3.659  -2.474  14.164  1.00  0.00     0.002 A 
ATOM     91  C   UNL     1       1.904  -2.921  15.770  1.00  0.00     0.091 A 
ATOM     92  F   UNL     1       1.719  -5.100  16.723  1.00  0.00    -0.205 F 
ATOM     93  C   UNL     1       2.571  -2.033  14.911  1.00  0.00     0.022 A 
BRANCH  91  94
ATOM     94  S   UNL     1       0.411  -2.340  16.579  1.00  0.00     0.127 S 
ATOM     95  O   UNL     1       0.949  -1.548  17.682  1.00  0.00    -0.237 OA
ATOM     96  O   UNL     1      -0.237  -1.559  15.524  1.00  0.00    -0.237 OA
ATOM     97  O   UNL     1      -0.326  -3.538  16.965  1.00  0.00    -0.744 OA
ENDBRANCH  91  94
ENDBRANCH  64  87
ENDBRANCH  38  39
ENDBRANCH  31  33
ENDBRANCH  30  31
ENDBRANCH   1  30
TORSDOF 16
