REMARK SMILES O=C(CSc1nnc2sc3ccccc3n12)N[C@H](Cc1c[nH]c2ccccc12)C(=O)OCCOC(=O)c1ccc(-c2c3nc(c(-c4cccc(S(=O)(=O)[O-])c4F)c4ccc([nH]4)c(-c4cccc(S(=O)(=O)[O-])c4F)c4nc(c(-c5cccc(S(=O)(=O)[O-])c5F)c5ccc2[nH]5)C=C4)C=C3)cc1
REMARK SMILES IDX 32 1 31 2 29 3 30 4 18 5 17 6 1 7 2 8 3 10 4 11 5 12 6 13
REMARK SMILES IDX 16 14 7 15 8 16 15 17 9 18 10 19 14 20 11 21 13 22 12 23
REMARK SMILES IDX 19 24 20 25 21 26 28 27 22 28 23 29 27 30 24 32 26 33 25 34
REMARK SMILES IDX 33 35 34 36 35 37 36 38 37 39 38 40 99 41 39 42 98 43 40 44
REMARK SMILES IDX 41 45 42 46 92 47 43 48 97 49 91 50 93 51 44 52 96 53 90 54
REMARK SMILES IDX 89 55 45 57 77 58 57 59 76 60 58 61 61 62 75 63 94 64 59 65
REMARK SMILES IDX 60 66 74 68 95 69 62 70 46 71 47 72 55 73 48 74 50 75 56 76
REMARK SMILES IDX 49 77 51 78 52 79 53 80 54 81 78 82 79 83 87 84 80 85 82 86
REMARK SMILES IDX 88 87 81 88 83 89 84 90 85 91 86 92 63 93 64 94 72 95 65 96
REMARK SMILES IDX 67 97 73 98 66 99 68 100 69 101 70 102 71 103
REMARK H PARENT 17 9 22 31 93 56 61 67
REMARK Flexibility Score: inf
ROOT
ATOM      1  C   UNL     1       4.127   3.851  -3.220  1.00  0.00     0.274 C 
ENDROOT
BRANCH   1   2
ATOM      2  O   UNL     1       3.975   2.976  -2.083  1.00  0.00    -0.461 OA
BRANCH   2   3
ATOM      3  C   UNL     1       3.286   3.457  -1.019  1.00  0.00     0.329 C 
ATOM      4  O   UNL     1       2.817   4.593  -0.967  1.00  0.00    -0.250 OA
BRANCH   3   5
ATOM      5  C   UNL     1       3.106   2.444   0.136  1.00  0.00     0.196 C 
BRANCH   5   6
ATOM      6  N   UNL     1       3.293   3.256   1.329  1.00  0.00    -0.342 N 
ATOM      7  O   UNL     1       4.277   1.845   2.855  1.00  0.00    -0.274 OA
ATOM      8  C   UNL     1       3.821   2.939   2.550  1.00  0.00     0.231 C 
ATOM      9  H   UNL     1       2.988   4.188   1.244  1.00  0.00     0.164 HD
BRANCH   8  10
ATOM     10  C   UNL     1       3.791   4.114   3.512  1.00  0.00     0.178 C 
BRANCH  10  11
ATOM     11  S   UNL     1       4.430   5.614   2.650  1.00  0.00    -0.076 SA
BRANCH  11  12
ATOM     12  C   UNL     1       6.033   5.073   2.335  1.00  0.00     0.197 A 
ATOM     13  N   UNL     1       6.497   4.595   1.193  1.00  0.00    -0.122 NA
ATOM     14  N   UNL     1       7.027   5.084   3.260  1.00  0.00    -0.260 N 
ATOM     15  N   UNL     1       7.845   4.278   1.375  1.00  0.00    -0.118 NA
ATOM     16  C   UNL     1       8.117   4.583   2.617  1.00  0.00     0.217 A 
ATOM     17  C   UNL     1       7.219   5.476   4.579  1.00  0.00     0.068 A 
ATOM     18  S   UNL     1       9.536   4.551   3.606  1.00  0.00    -0.094 S 
ATOM     19  C   UNL     1       8.558   5.264   4.939  1.00  0.00     0.055 A 
ATOM     20  C   UNL     1       6.289   6.008   5.456  1.00  0.00     0.028 A 
ATOM     21  C   UNL     1       8.994   5.608   6.206  1.00  0.00     0.021 A 
ATOM     22  C   UNL     1       6.727   6.340   6.736  1.00  0.00     0.002 A 
ATOM     23  C   UNL     1       8.067   6.149   7.106  1.00  0.00     0.002 A 
ENDBRANCH  11  12
ENDBRANCH  10  11
ENDBRANCH   8  10
ENDBRANCH   5   6
BRANCH   5  24
ATOM     24  C   UNL     1       3.859   1.123   0.018  1.00  0.00     0.074 C 
BRANCH  24  25
ATOM     25  C   UNL     1       3.027  -0.125   0.254  1.00  0.00    -0.020 A 
ATOM     26  C   UNL     1       3.142  -1.264  -0.526  1.00  0.00     0.087 A 
ATOM     27  C   UNL     1       2.035  -0.429   1.261  1.00  0.00     0.003 A 
ATOM     28  N   UNL     1       2.354  -2.243   0.004  1.00  0.00    -0.361 N 
ATOM     29  C   UNL     1       1.682  -1.773   1.103  1.00  0.00     0.046 A 
ATOM     30  C   UNL     1       1.407   0.280   2.311  1.00  0.00     0.010 A 
ATOM     31  H   UNL     1       2.279  -3.158  -0.352  1.00  0.00     0.166 HD
ATOM     32  C   UNL     1       0.801  -2.446   1.962  1.00  0.00     0.026 A 
ATOM     33  C   UNL     1       0.503  -0.369   3.164  1.00  0.00     0.001 A 
ATOM     34  C   UNL     1       0.220  -1.719   3.002  1.00  0.00     0.002 A 
ENDBRANCH  24  25
ENDBRANCH   5  24
ENDBRANCH   3   5
ENDBRANCH   2   3
ENDBRANCH   1   2
BRANCH   1  35
ATOM     35  C   UNL     1       3.519   3.172  -4.451  1.00  0.00     0.275 C 
BRANCH  35  36
ATOM     36  O   UNL     1       2.088   3.237  -4.356  1.00  0.00    -0.458 OA
BRANCH  36  37
ATOM     37  C   UNL     1       1.475   2.128  -3.854  1.00  0.00     0.338 C 
ATOM     38  O   UNL     1       1.855   0.987  -3.946  1.00  0.00    -0.246 OA
BRANCH  37  39
ATOM     39  C   UNL     1       0.471   2.625  -2.878  1.00  0.00     0.060 A 
ATOM     40  C   UNL     1      -0.099   3.897  -3.000  1.00  0.00     0.016 A 
ATOM     41  C   UNL     1       0.336   1.901  -1.694  1.00  0.00     0.016 A 
ATOM     42  C   UNL     1      -0.628   4.522  -1.875  1.00  0.00     0.010 A 
ATOM     43  C   UNL     1      -0.184   2.537  -0.571  1.00  0.00     0.010 A 
ATOM     44  C   UNL     1      -0.583   3.875  -0.636  1.00  0.00    -0.014 A 
BRANCH  44  45
ATOM     45  C   UNL     1      -1.243   4.483   0.519  1.00  0.00     0.031 A 
ATOM     46  C   UNL     1      -2.674   4.130   0.536  1.00  0.00     0.074 A 
ATOM     47  C   UNL     1      -0.720   5.241   1.507  1.00  0.00     0.049 A 
ATOM     48  N   UNL     1      -3.629   4.886   0.104  1.00  0.00    -0.248 NA
ATOM     49  C   UNL     1      -3.075   2.755   0.856  1.00  0.00     0.031 C 
ATOM     50  C   UNL     1       0.679   5.572   1.754  1.00  0.00     0.029 A 
ATOM     51  N   UNL     1      -1.354   5.827   2.574  1.00  0.00    -0.354 N 
ATOM     52  C   UNL     1      -4.781   4.162   0.350  1.00  0.00     0.074 A 
ATOM     53  C   UNL     1      -4.378   2.798   0.576  1.00  0.00     0.031 C 
ATOM     54  C   UNL     1       0.815   6.072   3.008  1.00  0.00     0.029 A 
ATOM     55  C   UNL     1      -0.499   6.253   3.589  1.00  0.00     0.049 A 
ATOM     56  H   UNL     1      -2.331   5.938   2.618  1.00  0.00     0.167 HD
ATOM     57  C   UNL     1      -5.933   4.795   0.690  1.00  0.00     0.034 A 
ATOM     58  C   UNL     1      -0.850   6.757   4.799  1.00  0.00     0.034 A 
ATOM     59  C   UNL     1      -5.847   6.217   0.504  1.00  0.00     0.049 A 
ATOM     60  C   UNL     1      -2.147   7.429   4.599  1.00  0.00     0.074 A 
ATOM     61  C   UNL     1      -5.858   7.102  -0.550  1.00  0.00     0.029 A 
ATOM     62  N   UNL     1      -5.312   6.869   1.583  1.00  0.00    -0.354 N 
ATOM     63  N   UNL     1      -2.286   8.501   3.872  1.00  0.00    -0.248 NA
ATOM     64  C   UNL     1      -3.380   6.768   5.001  1.00  0.00     0.031 C 
ATOM     65  C   UNL     1      -5.175   8.272  -0.100  1.00  0.00     0.029 A 
ATOM     66  C   UNL     1      -4.782   8.077   1.221  1.00  0.00     0.049 A 
ATOM     67  H   UNL     1      -5.309   6.513   2.501  1.00  0.00     0.167 HD
ATOM     68  C   UNL     1      -3.553   8.366   3.347  1.00  0.00     0.074 A 
ATOM     69  C   UNL     1      -4.240   7.424   4.219  1.00  0.00     0.031 C 
ATOM     70  C   UNL     1      -3.817   8.742   2.067  1.00  0.00     0.034 A 
BRANCH  57  71
ATOM     71  C   UNL     1      -6.938   4.198   1.631  1.00  0.00     0.023 A 
ATOM     72  C   UNL     1      -8.246   4.713   1.620  1.00  0.00     0.012 A 
ATOM     73  C   UNL     1      -6.585   3.332   2.692  1.00  0.00     0.148 A 
ATOM     74  C   UNL     1      -9.173   4.348   2.602  1.00  0.00     0.002 A 
ATOM     75  C   UNL     1      -7.532   2.900   3.608  1.00  0.00     0.091 A 
ATOM     76  F   UNL     1      -5.297   3.035   2.903  1.00  0.00    -0.205 F 
ATOM     77  C   UNL     1      -8.826   3.420   3.579  1.00  0.00     0.022 A 
BRANCH  75  78
ATOM     78  S   UNL     1      -7.134   1.666   4.849  1.00  0.00     0.127 S 
ATOM     79  O   UNL     1      -7.062   2.479   6.059  1.00  0.00    -0.237 OA
ATOM     80  O   UNL     1      -8.291   0.774   4.766  1.00  0.00    -0.237 OA
ATOM     81  O   UNL     1      -5.884   1.063   4.403  1.00  0.00    -0.744 OA
ENDBRANCH  75  78
ENDBRANCH  57  71
BRANCH  58  82
ATOM     82  C   UNL     1      -0.267   6.650   6.163  1.00  0.00     0.023 A 
ATOM     83  C   UNL     1      -0.761   7.496   7.186  1.00  0.00     0.012 A 
ATOM     84  C   UNL     1       0.469   5.514   6.550  1.00  0.00     0.148 A 
ATOM     85  C   UNL     1      -0.628   7.163   8.539  1.00  0.00     0.002 A 
ATOM     86  C   UNL     1       0.606   5.191   7.902  1.00  0.00     0.091 A 
ATOM     87  F   UNL     1       0.948   4.703   5.598  1.00  0.00    -0.205 F 
ATOM     88  C   UNL     1       0.035   5.997   8.897  1.00  0.00     0.022 A 
BRANCH  86  89
ATOM     89  S   UNL     1       1.465   3.707   8.439  1.00  0.00     0.127 S 
ATOM     90  O   UNL     1       2.222   4.191   9.595  1.00  0.00    -0.237 OA
ATOM     91  O   UNL     1       0.357   2.814   8.760  1.00  0.00    -0.237 OA
ATOM     92  O   UNL     1       2.297   3.323   7.304  1.00  0.00    -0.744 OA
ENDBRANCH  86  89
ENDBRANCH  58  82
BRANCH  70  93
ATOM     93  C   UNL     1      -2.924   9.775   1.450  1.00  0.00     0.023 A 
ATOM     94  C   UNL     1      -1.599   9.509   1.054  1.00  0.00     0.012 A 
ATOM     95  C   UNL     1      -3.484  11.034   1.182  1.00  0.00     0.148 A 
ATOM     96  C   UNL     1      -0.846  10.490   0.401  1.00  0.00     0.002 A 
ATOM     97  C   UNL     1      -2.747  11.993   0.504  1.00  0.00     0.091 A 
ATOM     98  F   UNL     1      -4.745  11.260   1.581  1.00  0.00    -0.205 F 
ATOM     99  C   UNL     1      -1.424  11.727   0.115  1.00  0.00     0.022 A 
BRANCH  97 100
ATOM    100  S   UNL     1      -3.459  13.569   0.031  1.00  0.00     0.127 S 
ATOM    101  O   UNL     1      -2.708  14.507   0.862  1.00  0.00    -0.237 OA
ATOM    102  O   UNL     1      -3.149  13.630  -1.398  1.00  0.00    -0.237 OA
ATOM    103  O   UNL     1      -4.883  13.477   0.330  1.00  0.00    -0.744 OA
ENDBRANCH  97 100
ENDBRANCH  70  93
ENDBRANCH  44  45
ENDBRANCH  37  39
ENDBRANCH  36  37
ENDBRANCH  35  36
ENDBRANCH   1  35
TORSDOF 20
