REMARK SMILES O=C(OCCOC(=O)[C@H]1C[NH2+]C[C@H]1c1ccc(C2CC2)cc1)c1ccc(-c2c3nc(c(-c4cccc(S(=O)(=O)[O-])c4F)c4ccc([nH]4)c(-c4cccc(S(=O)(=O)[O-])c4F)c4nc(c(-c5cccc(S(=O)(=O)[O-])c5F)c5ccc2[nH]5)C=C4)C=C3)cc1
REMARK SMILES IDX 4 1 3 2 2 3 1 4 23 5 24 6 85 7 25 8 84 9 26 10 27 11 28 12
REMARK SMILES IDX 78 13 29 14 83 15 77 16 79 17 30 18 82 19 76 20 75 21 31 23
REMARK SMILES IDX 63 24 43 25 62 26 44 27 47 28 61 29 80 30 45 31 46 32 60 34
REMARK SMILES IDX 81 35 48 36 32 37 33 38 41 39 34 40 36 41 42 42 35 43 37 44
REMARK SMILES IDX 38 45 39 46 40 47 64 48 65 49 73 50 66 51 68 52 74 53 67 54
REMARK SMILES IDX 69 55 70 56 71 57 72 58 49 59 50 60 58 61 51 62 53 63 59 64
REMARK SMILES IDX 52 65 54 66 55 67 56 68 57 69 5 70 6 71 7 72 8 73 9 74 10 75
REMARK SMILES IDX 13 76 11 77 12 78 14 81 15 82 22 83 16 84 21 85 17 86 18 87
REMARK SMILES IDX 19 88 20 89
REMARK H PARENT 79 22 47 33 11 79 11 80
REMARK Flexibility Score: inf
ROOT
ATOM      1  C   UNL     1       4.945  -0.370   4.506  1.00  0.00     0.275 C 
ENDROOT
BRANCH   1   2
ATOM      2  O   UNL     1       4.750  -1.031   3.249  1.00  0.00    -0.458 OA
BRANCH   2   3
ATOM      3  C   UNL     1       3.603  -1.448   2.664  1.00  0.00     0.338 C 
ATOM      4  O   UNL     1       3.682  -2.115   1.633  1.00  0.00    -0.246 OA
BRANCH   3   5
ATOM      5  C   UNL     1       2.244  -1.008   3.118  1.00  0.00     0.060 A 
ATOM      6  C   UNL     1       1.879  -0.617   4.410  1.00  0.00     0.016 A 
ATOM      7  C   UNL     1       1.272  -0.920   2.111  1.00  0.00     0.016 A 
ATOM      8  C   UNL     1       0.643  -0.009   4.667  1.00  0.00     0.010 A 
ATOM      9  C   UNL     1       0.062  -0.263   2.348  1.00  0.00     0.010 A 
ATOM     10  C   UNL     1      -0.261   0.209   3.632  1.00  0.00    -0.014 A 
BRANCH  10  11
ATOM     11  C   UNL     1      -1.616   0.756   3.886  1.00  0.00     0.031 A 
ATOM     12  C   UNL     1      -2.761  -0.196   3.724  1.00  0.00     0.074 A 
ATOM     13  C   UNL     1      -1.847   2.045   4.220  1.00  0.00     0.049 A 
ATOM     14  N   UNL     1      -4.031   0.014   3.922  1.00  0.00    -0.248 NA
ATOM     15  C   UNL     1      -2.431  -1.581   3.332  1.00  0.00     0.031 C 
ATOM     16  C   UNL     1      -0.835   3.050   4.527  1.00  0.00     0.029 A 
ATOM     17  N   UNL     1      -3.022   2.753   4.308  1.00  0.00    -0.354 N 
ATOM     18  C   UNL     1      -4.636  -1.217   3.730  1.00  0.00     0.074 A 
ATOM     19  C   UNL     1      -3.626  -2.138   3.273  1.00  0.00     0.031 C 
ATOM     20  C   UNL     1      -1.403   4.267   4.595  1.00  0.00     0.029 A 
ATOM     21  C   UNL     1      -2.840   4.115   4.439  1.00  0.00     0.049 A 
ATOM     22  H   UNL     1      -3.910   2.328   4.280  1.00  0.00     0.167 HD
ATOM     23  C   UNL     1      -5.907  -1.572   4.007  1.00  0.00     0.034 A 
ATOM     24  C   UNL     1      -3.735   5.121   4.471  1.00  0.00     0.034 A 
ATOM     25  C   UNL     1      -6.902  -0.641   4.440  1.00  0.00     0.049 A 
ATOM     26  C   UNL     1      -5.184   4.737   4.604  1.00  0.00     0.074 A 
ATOM     27  C   UNL     1      -8.221  -0.875   4.766  1.00  0.00     0.029 A 
ATOM     28  N   UNL     1      -6.684   0.724   4.569  1.00  0.00    -0.354 N 
ATOM     29  N   UNL     1      -5.716   3.539   4.599  1.00  0.00    -0.248 NA
ATOM     30  C   UNL     1      -6.137   5.820   4.879  1.00  0.00     0.031 C 
ATOM     31  C   UNL     1      -8.817   0.360   5.042  1.00  0.00     0.029 A 
ATOM     32  C   UNL     1      -7.855   1.355   4.936  1.00  0.00     0.049 A 
ATOM     33  H   UNL     1      -5.822   1.176   4.420  1.00  0.00     0.167 HD
ATOM     34  C   UNL     1      -7.042   3.709   4.969  1.00  0.00     0.074 A 
ATOM     35  C   UNL     1      -7.236   5.133   5.164  1.00  0.00     0.031 C 
ATOM     36  C   UNL     1      -8.003   2.772   5.157  1.00  0.00     0.034 A 
BRANCH  23  37
ATOM     37  C   UNL     1      -6.230  -3.029   3.854  1.00  0.00     0.023 A 
ATOM     38  C   UNL     1      -5.668  -3.967   4.749  1.00  0.00     0.012 A 
ATOM     39  C   UNL     1      -7.007  -3.477   2.775  1.00  0.00     0.148 A 
ATOM     40  C   UNL     1      -5.824  -5.334   4.534  1.00  0.00     0.002 A 
ATOM     41  C   UNL     1      -7.198  -4.839   2.594  1.00  0.00     0.091 A 
ATOM     42  F   UNL     1      -7.498  -2.568   1.921  1.00  0.00    -0.205 F 
ATOM     43  C   UNL     1      -6.593  -5.769   3.458  1.00  0.00     0.022 A 
BRANCH  41  44
ATOM     44  S   UNL     1      -8.208  -5.503   1.270  1.00  0.00     0.127 S 
ATOM     45  O   UNL     1      -7.213  -6.204   0.461  1.00  0.00    -0.237 OA
ATOM     46  O   UNL     1      -9.129  -6.372   1.999  1.00  0.00    -0.237 OA
ATOM     47  O   UNL     1      -8.833  -4.353   0.624  1.00  0.00    -0.744 OA
ENDBRANCH  41  44
ENDBRANCH  23  37
BRANCH  24  48
ATOM     48  C   UNL     1      -3.299   6.547   4.571  1.00  0.00     0.023 A 
ATOM     49  C   UNL     1      -3.395   7.214   5.809  1.00  0.00     0.012 A 
ATOM     50  C   UNL     1      -2.805   7.254   3.454  1.00  0.00     0.148 A 
ATOM     51  C   UNL     1      -3.055   8.563   5.926  1.00  0.00     0.002 A 
ATOM     52  C   UNL     1      -2.439   8.593   3.584  1.00  0.00     0.091 A 
ATOM     53  F   UNL     1      -2.718   6.609   2.282  1.00  0.00    -0.205 F 
ATOM     54  C   UNL     1      -2.577   9.252   4.816  1.00  0.00     0.022 A 
BRANCH  52  55
ATOM     55  S   UNL     1      -1.745   9.561   2.235  1.00  0.00     0.127 S 
ATOM     56  O   UNL     1      -2.804  10.537   1.991  1.00  0.00    -0.237 OA
ATOM     57  O   UNL     1      -0.535  10.108   2.850  1.00  0.00    -0.237 OA
ATOM     58  O   UNL     1      -1.500   8.615   1.154  1.00  0.00    -0.744 OA
ENDBRANCH  52  55
ENDBRANCH  24  48
BRANCH  36  59
ATOM     59  C   UNL     1      -9.344   3.244   5.642  1.00  0.00     0.023 A 
ATOM     60  C   UNL     1     -10.192   3.965   4.781  1.00  0.00     0.012 A 
ATOM     61  C   UNL     1      -9.796   2.880   6.925  1.00  0.00     0.148 A 
ATOM     62  C   UNL     1     -11.464   4.344   5.202  1.00  0.00     0.002 A 
ATOM     63  C   UNL     1     -11.087   3.204   7.314  1.00  0.00     0.091 A 
ATOM     64  F   UNL     1      -8.960   2.212   7.734  1.00  0.00    -0.205 F 
ATOM     65  C   UNL     1     -11.917   3.949   6.460  1.00  0.00     0.022 A 
BRANCH  63  66
ATOM     66  S   UNL     1     -11.795   2.630   8.860  1.00  0.00     0.127 S 
ATOM     67  O   UNL     1     -11.860   3.868   9.635  1.00  0.00    -0.237 OA
ATOM     68  O   UNL     1     -13.092   2.109   8.430  1.00  0.00    -0.237 OA
ATOM     69  O   UNL     1     -10.878   1.620   9.373  1.00  0.00    -0.744 OA
ENDBRANCH  63  66
ENDBRANCH  36  59
ENDBRANCH  10  11
ENDBRANCH   3   5
ENDBRANCH   2   3
ENDBRANCH   1   2
BRANCH   1  70
ATOM     70  C   UNL     1       4.735   1.150   4.509  1.00  0.00     0.274 C 
BRANCH  70  71
ATOM     71  O   UNL     1       3.816   1.662   3.525  1.00  0.00    -0.462 OA
BRANCH  71  72
ATOM     72  C   UNL     1       4.381   2.059   2.345  1.00  0.00     0.315 C 
ATOM     73  O   UNL     1       5.567   1.885   2.081  1.00  0.00    -0.252 OA
BRANCH  72  74
ATOM     74  C   UNL     1       3.421   2.775   1.378  1.00  0.00     0.167 C 
ATOM     75  C   UNL     1       2.039   2.205   1.333  1.00  0.00     0.276 C 
ATOM     76  C   UNL     1       3.097   4.242   1.693  1.00  0.00     0.094 C 
ATOM     77  N   UNL     1       1.389   2.784   2.498  1.00  0.00    -0.345 N 
ATOM     78  C   UNL     1       1.885   4.165   2.623  1.00  0.00     0.269 C 
ATOM     79  H   UNL     1       1.625   2.249   3.334  1.00  0.00     0.346 HD
ATOM     80  H   UNL     1       0.374   2.769   2.395  1.00  0.00     0.346 HD
BRANCH  76  81
ATOM     81  C   UNL     1       4.330   4.999   2.072  1.00  0.00    -0.038 A 
ATOM     82  C   UNL     1       4.532   5.639   3.290  1.00  0.00     0.004 A 
ATOM     83  C   UNL     1       5.375   4.965   1.142  1.00  0.00     0.004 A 
ATOM     84  C   UNL     1       5.800   6.134   3.607  1.00  0.00     0.004 A 
ATOM     85  C   UNL     1       6.632   5.432   1.474  1.00  0.00     0.004 A 
ATOM     86  C   UNL     1       6.888   6.004   2.724  1.00  0.00    -0.045 A 
BRANCH  86  87
ATOM     87  C   UNL     1       8.263   6.483   3.118  1.00  0.00     0.019 C 
ATOM     88  C   UNL     1       9.507   6.089   2.354  1.00  0.00     0.009 C 
ATOM     89  C   UNL     1       8.955   7.479   2.220  1.00  0.00     0.009 C 
ENDBRANCH  86  87
ENDBRANCH  76  81
ENDBRANCH  72  74
ENDBRANCH  71  72
ENDBRANCH  70  71
ENDBRANCH   1  70
TORSDOF 16
