REMARK SMILES C[N@H+]1CCO[C@](C)(C(=O)OCCOC(=O)c2ccc(-c3c4nc(c(-c5cccc(S(=O)(=O)[O-])c5F)c5ccc([nH]5)c(-c5cccc(S(=O)(=O)[O-])c5F)c5nc(c(-c6cccc(S(=O)(=O)[O-])c6F)c6ccc3[nH]6)C=C5)C=C4)cc2)C1
REMARK SMILES IDX 13 1 12 2 11 3 10 4 8 5 9 6 6 7 1 8 2 9 3 10 79 11 4 13 5 14
REMARK SMILES IDX 7 15 14 16 15 17 16 18 17 19 78 20 18 21 77 22 19 23 20 24
REMARK SMILES IDX 21 25 71 26 22 27 76 28 70 29 72 30 23 31 75 32 69 33 68 34
REMARK SMILES IDX 24 36 56 37 36 38 55 39 37 40 40 41 54 42 73 43 38 44 39 45
REMARK SMILES IDX 53 47 74 48 41 49 25 50 26 51 34 52 27 53 29 54 35 55 28 56
REMARK SMILES IDX 30 57 31 58 32 59 33 60 57 61 58 62 66 63 59 64 61 65 67 66
REMARK SMILES IDX 60 67 62 68 63 69 64 70 65 71 42 72 43 73 51 74 44 75 46 76
REMARK SMILES IDX 52 77 45 78 47 79 48 80 49 81 50 82
REMARK H PARENT 2 12 72 35 40 46
REMARK Flexibility Score: inf
ROOT
ATOM      1  O   UNL     1      -1.710   6.113   2.282  1.00  0.00    -0.458 OA
ENDROOT
BRANCH   1   2
ATOM      2  C   UNL     1      -1.164   6.919   1.223  1.00  0.00     0.275 C 
BRANCH   2   3
ATOM      3  C   UNL     1       0.346   6.707   1.118  1.00  0.00     0.274 C 
BRANCH   3   4
ATOM      4  O   UNL     1       0.660   5.335   0.801  1.00  0.00    -0.460 OA
BRANCH   4   5
ATOM      5  C   UNL     1       0.989   4.545   1.867  1.00  0.00     0.344 C 
ATOM      6  O   UNL     1       1.120   4.971   3.010  1.00  0.00    -0.249 OA
BRANCH   5   7
ATOM      7  C   UNL     1       1.238   3.069   1.459  1.00  0.00     0.211 C 
ATOM      8  C   UNL     1       1.278   0.581  -0.688  1.00  0.00     0.332 C 
ATOM      9  N   UNL     1       0.158   1.265  -0.060  1.00  0.00    -0.333 N 
ATOM     10  C   UNL     1      -0.268   0.610   1.188  1.00  0.00     0.290 C 
ATOM     11  C   UNL     1       0.387   2.699   0.211  1.00  0.00     0.310 C 
ATOM     12  H   UNL     1      -0.583   1.201  -0.758  1.00  0.00     0.348 HD
ATOM     13  C   UNL     1       0.681   0.884   2.363  1.00  0.00     0.223 C 
ATOM     14  O   UNL     1       0.859   2.280   2.609  1.00  0.00    -0.353 OA
ATOM     15  C   UNL     1       2.747   2.941   1.235  1.00  0.00     0.061 C 
ENDBRANCH   5   7
ENDBRANCH   4   5
ENDBRANCH   3   4
ENDBRANCH   2   3
ENDBRANCH   1   2
BRANCH   1  16
ATOM     16  C   UNL     1      -2.675   5.245   1.917  1.00  0.00     0.338 C 
ATOM     17  O   UNL     1      -3.161   5.103   0.797  1.00  0.00    -0.246 OA
BRANCH  16  18
ATOM     18  C   UNL     1      -3.072   4.413   3.058  1.00  0.00     0.060 A 
ATOM     19  C   UNL     1      -2.248   3.354   3.436  1.00  0.00     0.016 A 
ATOM     20  C   UNL     1      -4.330   4.569   3.640  1.00  0.00     0.016 A 
ATOM     21  C   UNL     1      -2.708   2.395   4.335  1.00  0.00     0.010 A 
ATOM     22  C   UNL     1      -4.770   3.635   4.584  1.00  0.00     0.010 A 
ATOM     23  C   UNL     1      -3.987   2.509   4.897  1.00  0.00    -0.014 A 
BRANCH  23  24
ATOM     24  C   UNL     1      -4.543   1.394   5.710  1.00  0.00     0.031 A 
ATOM     25  C   UNL     1      -5.712   0.600   5.183  1.00  0.00     0.074 A 
ATOM     26  C   UNL     1      -3.997   1.067   6.897  1.00  0.00     0.049 A 
ATOM     27  N   UNL     1      -6.388  -0.361   5.760  1.00  0.00    -0.248 NA
ATOM     28  C   UNL     1      -6.190   0.936   3.831  1.00  0.00     0.031 C 
ATOM     29  C   UNL     1      -2.857   1.742   7.518  1.00  0.00     0.029 A 
ATOM     30  N   UNL     1      -4.331   0.082   7.794  1.00  0.00    -0.354 N 
ATOM     31  C   UNL     1      -7.404  -0.698   4.874  1.00  0.00     0.074 A 
ATOM     32  C   UNL     1      -7.256   0.157   3.716  1.00  0.00     0.031 C 
ATOM     33  C   UNL     1      -2.580   1.146   8.690  1.00  0.00     0.029 A 
ATOM     34  C   UNL     1      -3.542   0.071   8.921  1.00  0.00     0.049 A 
ATOM     35  H   UNL     1      -5.065  -0.556   7.645  1.00  0.00     0.167 HD
ATOM     36  C   UNL     1      -8.364  -1.645   4.999  1.00  0.00     0.034 A 
ATOM     37  C   UNL     1      -3.592  -0.710  10.019  1.00  0.00     0.034 A 
ATOM     38  C   UNL     1      -8.468  -2.551   6.110  1.00  0.00     0.049 A 
ATOM     39  C   UNL     1      -4.633  -1.794  10.105  1.00  0.00     0.074 A 
ATOM     40  C   UNL     1      -9.397  -3.556   6.317  1.00  0.00     0.029 A 
ATOM     41  N   UNL     1      -7.599  -2.581   7.188  1.00  0.00    -0.354 N 
ATOM     42  N   UNL     1      -5.546  -2.134   9.229  1.00  0.00    -0.248 NA
ATOM     43  C   UNL     1      -4.633  -2.622  11.322  1.00  0.00     0.031 C 
ATOM     44  C   UNL     1      -9.080  -4.204   7.517  1.00  0.00     0.029 A 
ATOM     45  C   UNL     1      -7.956  -3.599   8.056  1.00  0.00     0.049 A 
ATOM     46  H   UNL     1      -6.839  -1.968   7.319  1.00  0.00     0.167 HD
ATOM     47  C   UNL     1      -6.210  -3.227   9.773  1.00  0.00     0.074 A 
ATOM     48  C   UNL     1      -5.577  -3.511  11.044  1.00  0.00     0.031 C 
ATOM     49  C   UNL     1      -7.267  -3.917   9.279  1.00  0.00     0.034 A 
BRANCH  36  50
ATOM     50  C   UNL     1      -9.359  -1.780   3.878  1.00  0.00     0.023 A 
ATOM     51  C   UNL     1      -8.978  -2.434   2.690  1.00  0.00     0.012 A 
ATOM     52  C   UNL     1     -10.677  -1.306   4.016  1.00  0.00     0.148 A 
ATOM     53  C   UNL     1      -9.888  -2.593   1.645  1.00  0.00     0.002 A 
ATOM     54  C   UNL     1     -11.589  -1.499   2.984  1.00  0.00     0.091 A 
ATOM     55  F   UNL     1     -11.013  -0.659   5.142  1.00  0.00    -0.205 F 
ATOM     56  C   UNL     1     -11.194  -2.135   1.796  1.00  0.00     0.022 A 
BRANCH  54  57
ATOM     57  S   UNL     1     -13.310  -1.000   3.123  1.00  0.00     0.127 S 
ATOM     58  O   UNL     1     -13.316   0.257   2.377  1.00  0.00    -0.237 OA
ATOM     59  O   UNL     1     -14.012  -2.103   2.465  1.00  0.00    -0.237 OA
ATOM     60  O   UNL     1     -13.572  -0.890   4.552  1.00  0.00    -0.744 OA
ENDBRANCH  54  57
ENDBRANCH  36  50
BRANCH  37  61
ATOM     61  C   UNL     1      -2.579  -0.535  11.098  1.00  0.00     0.023 A 
ATOM     62  C   UNL     1      -1.592  -1.523  11.283  1.00  0.00     0.012 A 
ATOM     63  C   UNL     1      -2.563   0.611  11.915  1.00  0.00     0.148 A 
ATOM     64  C   UNL     1      -0.621  -1.382  12.274  1.00  0.00     0.002 A 
ATOM     65  C   UNL     1      -1.560   0.771  12.865  1.00  0.00     0.091 A 
ATOM     66  F   UNL     1      -3.526   1.528  11.748  1.00  0.00    -0.205 F 
ATOM     67  C   UNL     1      -0.596  -0.230  13.056  1.00  0.00     0.022 A 
BRANCH  65  68
ATOM     68  S   UNL     1      -1.391   2.290  13.810  1.00  0.00     0.127 S 
ATOM     69  O   UNL     1      -2.053   1.940  15.063  1.00  0.00    -0.237 OA
ATOM     70  O   UNL     1       0.062   2.441  13.903  1.00  0.00    -0.237 OA
ATOM     71  O   UNL     1      -2.042   3.312  13.001  1.00  0.00    -0.744 OA
ENDBRANCH  65  68
ENDBRANCH  37  61
BRANCH  49  72
ATOM     72  C   UNL     1      -7.794  -5.067  10.093  1.00  0.00     0.023 A 
ATOM     73  C   UNL     1      -8.587  -4.805  11.227  1.00  0.00     0.012 A 
ATOM     74  C   UNL     1      -7.571  -6.399   9.697  1.00  0.00     0.148 A 
ATOM     75  C   UNL     1      -9.131  -5.853  11.969  1.00  0.00     0.002 A 
ATOM     76  C   UNL     1      -8.146  -7.439  10.421  1.00  0.00     0.091 A 
ATOM     77  F   UNL     1      -6.793  -6.633   8.630  1.00  0.00    -0.205 F 
ATOM     78  C   UNL     1      -8.920  -7.168  11.561  1.00  0.00     0.022 A 
BRANCH  76  79
ATOM     79  S   UNL     1      -7.978  -9.149   9.898  1.00  0.00     0.127 S 
ATOM     80  O   UNL     1      -6.805  -9.583  10.653  1.00  0.00    -0.237 OA
ATOM     81  O   UNL     1      -9.240  -9.748  10.339  1.00  0.00    -0.237 OA
ATOM     82  O   UNL     1      -7.821  -9.093   8.450  1.00  0.00    -0.744 OA
ENDBRANCH  76  79
ENDBRANCH  49  72
ENDBRANCH  23  24
ENDBRANCH  16  18
ENDBRANCH   1  16
TORSDOF 14
