REMARK SMILES O=C(OCCOC(=O)[C@H]1CCCN(S(=O)(=O)c2cccc(Br)c2)C1)c1ccc(-c2c3nc(c(-c4cccc(S(=O)(=O)[O-])c4F)c4ccc([nH]4)c(-c4cccc(S(=O)(=O)[O-])c4F)c4nc(c(-c5cccc(S(=O)(=O)[O-])c5F)c5ccc2[nH]5)C=C4)C=C3)cc1
REMARK SMILES IDX 4 1 3 2 2 3 1 4 25 5 26 6 87 7 27 8 86 9 28 10 29 11 30 12
REMARK SMILES IDX 80 13 31 14 85 15 79 16 81 17 32 18 84 19 78 20 77 21 33 23
REMARK SMILES IDX 65 24 45 25 64 26 46 27 49 28 63 29 82 30 47 31 48 32 62 34
REMARK SMILES IDX 83 35 50 36 34 37 35 38 43 39 36 40 38 41 44 42 37 43 39 44
REMARK SMILES IDX 40 45 41 46 42 47 66 48 67 49 75 50 68 51 70 52 76 53 69 54
REMARK SMILES IDX 71 55 72 56 73 57 74 58 51 59 52 60 60 61 53 62 55 63 61 64
REMARK SMILES IDX 54 65 56 66 57 67 58 68 59 69 5 70 6 71 7 72 8 73 9 74 10 75
REMARK SMILES IDX 24 76 11 77 13 78 12 79 14 80 15 81 16 82 17 83 18 84 23 85
REMARK SMILES IDX 19 86 21 87 20 88 22 89
REMARK H PARENT 81 22 49 33
REMARK Flexibility Score: inf
ROOT
ATOM      1  C   UNL     1      -1.659   3.017   2.525  1.00  0.00     0.275 C 
ENDROOT
BRANCH   1   2
ATOM      2  O   UNL     1      -0.893   3.455   1.395  1.00  0.00    -0.458 OA
BRANCH   2   3
ATOM      3  C   UNL     1       0.270   4.146   1.351  1.00  0.00     0.338 C 
ATOM      4  O   UNL     1       0.661   4.540   0.253  1.00  0.00    -0.246 OA
BRANCH   3   5
ATOM      5  C   UNL     1       1.184   4.341   2.529  1.00  0.00     0.060 A 
ATOM      6  C   UNL     1       0.862   4.186   3.882  1.00  0.00     0.016 A 
ATOM      7  C   UNL     1       2.528   4.617   2.212  1.00  0.00     0.016 A 
ATOM      8  C   UNL     1       1.851   4.169   4.872  1.00  0.00     0.010 A 
ATOM      9  C   UNL     1       3.525   4.562   3.190  1.00  0.00     0.010 A 
ATOM     10  C   UNL     1       3.192   4.314   4.529  1.00  0.00    -0.014 A 
BRANCH  10  11
ATOM     11  C   UNL     1       4.237   4.367   5.575  1.00  0.00     0.031 A 
ATOM     12  C   UNL     1       4.849   5.709   5.847  1.00  0.00     0.074 A 
ATOM     13  C   UNL     1       4.632   3.267   6.251  1.00  0.00     0.049 A 
ATOM     14  N   UNL     1       5.765   6.033   6.714  1.00  0.00    -0.248 NA
ATOM     15  C   UNL     1       4.342   6.843   5.050  1.00  0.00     0.031 C 
ATOM     16  C   UNL     1       4.047   1.930   6.135  1.00  0.00     0.029 A 
ATOM     17  N   UNL     1       5.644   3.091   7.162  1.00  0.00    -0.354 N 
ATOM     18  C   UNL     1       5.932   7.403   6.575  1.00  0.00     0.074 A 
ATOM     19  C   UNL     1       5.090   7.839   5.488  1.00  0.00     0.031 C 
ATOM     20  C   UNL     1       4.751   1.062   6.887  1.00  0.00     0.029 A 
ATOM     21  C   UNL     1       5.825   1.781   7.555  1.00  0.00     0.049 A 
ATOM     22  H   UNL     1       6.192   3.834   7.504  1.00  0.00     0.167 HD
ATOM     23  C   UNL     1       6.679   8.238   7.329  1.00  0.00     0.034 A 
ATOM     24  C   UNL     1       6.748   1.240   8.376  1.00  0.00     0.034 A 
ATOM     25  C   UNL     1       7.514   7.788   8.401  1.00  0.00     0.049 A 
ATOM     26  C   UNL     1       7.679   2.182   9.099  1.00  0.00     0.074 A 
ATOM     27  C   UNL     1       8.297   8.537   9.256  1.00  0.00     0.029 A 
ATOM     28  N   UNL     1       7.695   6.456   8.741  1.00  0.00    -0.354 N 
ATOM     29  N   UNL     1       7.733   3.492   9.041  1.00  0.00    -0.248 NA
ATOM     30  C   UNL     1       8.614   1.580  10.059  1.00  0.00     0.031 C 
ATOM     31  C   UNL     1       8.992   7.650  10.084  1.00  0.00     0.029 A 
ATOM     32  C   UNL     1       8.601   6.354   9.776  1.00  0.00     0.049 A 
ATOM     33  H   UNL     1       7.244   5.695   8.308  1.00  0.00     0.167 HD
ATOM     34  C   UNL     1       8.646   3.876  10.015  1.00  0.00     0.074 A 
ATOM     35  C   UNL     1       9.136   2.657  10.629  1.00  0.00     0.031 C 
ATOM     36  C   UNL     1       9.031   5.122  10.387  1.00  0.00     0.034 A 
BRANCH  23  37
ATOM     37  C   UNL     1       6.596   9.700   7.000  1.00  0.00     0.023 A 
ATOM     38  C   UNL     1       5.407  10.415   7.263  1.00  0.00     0.012 A 
ATOM     39  C   UNL     1       7.677  10.355   6.386  1.00  0.00     0.148 A 
ATOM     40  C   UNL     1       5.278  11.745   6.870  1.00  0.00     0.002 A 
ATOM     41  C   UNL     1       7.558  11.694   6.040  1.00  0.00     0.091 A 
ATOM     42  F   UNL     1       8.783   9.647   6.119  1.00  0.00    -0.205 F 
ATOM     43  C   UNL     1       6.355  12.386   6.264  1.00  0.00     0.022 A 
BRANCH  41  44
ATOM     44  S   UNL     1       8.905  12.625   5.307  1.00  0.00     0.127 S 
ATOM     45  O   UNL     1       8.364  12.931   3.983  1.00  0.00    -0.237 OA
ATOM     46  O   UNL     1       9.003  13.773   6.208  1.00  0.00    -0.237 OA
ATOM     47  O   UNL     1      10.060  11.739   5.314  1.00  0.00    -0.744 OA
ENDBRANCH  41  44
ENDBRANCH  23  37
BRANCH  24  48
ATOM     48  C   UNL     1       6.783  -0.220   8.693  1.00  0.00     0.023 A 
ATOM     49  C   UNL     1       6.229  -0.661   9.910  1.00  0.00     0.012 A 
ATOM     50  C   UNL     1       7.442  -1.154   7.868  1.00  0.00     0.148 A 
ATOM     51  C   UNL     1       6.350  -1.994  10.312  1.00  0.00     0.002 A 
ATOM     52  C   UNL     1       7.552  -2.487   8.273  1.00  0.00     0.091 A 
ATOM     53  F   UNL     1       7.961  -0.724   6.709  1.00  0.00    -0.205 F 
ATOM     54  C   UNL     1       7.012  -2.905   9.496  1.00  0.00     0.022 A 
BRANCH  52  55
ATOM     55  S   UNL     1       8.448  -3.712   7.308  1.00  0.00     0.127 S 
ATOM     56  O   UNL     1       8.977  -4.616   8.329  1.00  0.00    -0.237 OA
ATOM     57  O   UNL     1       7.382  -4.283   6.490  1.00  0.00    -0.237 OA
ATOM     58  O   UNL     1       9.472  -2.945   6.610  1.00  0.00    -0.744 OA
ENDBRANCH  52  55
ENDBRANCH  24  48
BRANCH  36  59
ATOM     59  C   UNL     1       9.980   5.240  11.547  1.00  0.00     0.023 A 
ATOM     60  C   UNL     1      11.333   4.882  11.396  1.00  0.00     0.012 A 
ATOM     61  C   UNL     1       9.541   5.817  12.755  1.00  0.00     0.148 A 
ATOM     62  C   UNL     1      12.231   5.073  12.444  1.00  0.00     0.002 A 
ATOM     63  C   UNL     1      10.454   6.062  13.770  1.00  0.00     0.091 A 
ATOM     64  F   UNL     1       8.243   6.130  12.880  1.00  0.00    -0.205 F 
ATOM     65  C   UNL     1      11.796   5.678  13.622  1.00  0.00     0.022 A 
BRANCH  63  66
ATOM     66  S   UNL     1      10.008   6.950  15.265  1.00  0.00     0.127 S 
ATOM     67  O   UNL     1      10.065   5.889  16.269  1.00  0.00    -0.237 OA
ATOM     68  O   UNL     1      11.078   7.944  15.363  1.00  0.00    -0.237 OA
ATOM     69  O   UNL     1       8.685   7.509  15.023  1.00  0.00    -0.744 OA
ENDBRANCH  63  66
ENDBRANCH  36  59
ENDBRANCH  10  11
ENDBRANCH   3   5
ENDBRANCH   2   3
ENDBRANCH   1   2
BRANCH   1  70
ATOM     70  C   UNL     1      -1.247   1.652   3.087  1.00  0.00     0.274 C 
BRANCH  70  71
ATOM     71  O   UNL     1       0.162   1.370   2.997  1.00  0.00    -0.462 OA
BRANCH  71  72
ATOM     72  C   UNL     1       0.544   0.569   1.960  1.00  0.00     0.310 C 
ATOM     73  O   UNL     1      -0.227   0.118   1.121  1.00  0.00    -0.252 OA
BRANCH  72  74
ATOM     74  C   UNL     1       2.025   0.232   1.981  1.00  0.00     0.114 C 
ATOM     75  C   UNL     1       2.894   1.427   2.319  1.00  0.00     0.018 C 
ATOM     76  C   UNL     1       2.297  -0.896   2.961  1.00  0.00     0.117 C 
ATOM     77  C   UNL     1       4.367   1.083   2.381  1.00  0.00     0.018 C 
ATOM     78  N   UNL     1       3.748  -1.284   2.905  1.00  0.00    -0.197 NA
ATOM     79  C   UNL     1       4.645  -0.136   3.238  1.00  0.00     0.102 C 
BRANCH  78  80
ATOM     80  S   UNL     1       4.039  -2.688   3.897  1.00  0.00     0.243 S 
ATOM     81  O   UNL     1       3.863  -2.267   5.270  1.00  0.00    -0.207 OA
ATOM     82  O   UNL     1       3.214  -3.745   3.337  1.00  0.00    -0.207 OA
BRANCH  80  83
ATOM     83  C   UNL     1       5.739  -3.073   3.593  1.00  0.00     0.083 A 
ATOM     84  C   UNL     1       6.735  -2.285   4.173  1.00  0.00     0.022 A 
ATOM     85  C   UNL     1       6.080  -4.169   2.798  1.00  0.00     0.037 A 
ATOM     86  C   UNL     1       8.073  -2.522   3.874  1.00  0.00     0.003 A 
ATOM     87  C   UNL     1       7.428  -4.439   2.564  1.00  0.00     0.019 A 
ATOM     88  C   UNL     1       8.424  -3.609   3.078  1.00  0.00     0.016 A 
ATOM     89  Br  UNL     1       7.915  -5.956   1.544  1.00  0.00    -0.051 Br
ENDBRANCH  80  83
ENDBRANCH  78  80
ENDBRANCH  72  74
ENDBRANCH  71  72
ENDBRANCH  70  71
ENDBRANCH   1  70
TORSDOF 16
