REMARK SMILES O=C(Cc1ccccc1Nc1c(Cl)cccc1Cl)OCCOC(=O)c1ccc(-c2c3nc(c(-c4cccc(S(=O)(=O)[O-])c4F)c4ccc([nH]4)c(-c4cccc(S(=O)(=O)[O-])c4F)c4nc(c(-c5cccc(S(=O)(=O)[O-])c5F)c5ccc2[nH]5)C=C4)C=C3)cc1
REMARK SMILES IDX 20 1 19 2 2 3 1 4 3 5 4 6 5 7 9 8 6 9 8 10 7 11 10 12 11 14
REMARK SMILES IDX 12 15 17 16 13 17 14 18 16 19 18 20 15 21 21 22 22 23 23 24
REMARK SMILES IDX 24 25 25 26 26 27 87 28 27 29 86 30 28 31 29 32 30 33 80 34
REMARK SMILES IDX 31 35 85 36 79 37 81 38 32 39 84 40 78 41 77 42 33 44 65 45
REMARK SMILES IDX 45 46 64 47 46 48 49 49 63 50 82 51 47 52 48 53 62 55 83 56
REMARK SMILES IDX 50 57 34 58 35 59 43 60 36 61 38 62 44 63 37 64 39 65 40 66
REMARK SMILES IDX 41 67 42 68 66 69 67 70 75 71 68 72 70 73 76 74 69 75 71 76
REMARK SMILES IDX 72 77 73 78 74 79 51 80 52 81 60 82 53 83 55 84 61 85 54 86
REMARK SMILES IDX 56 87 57 88 58 89 59 90
REMARK H PARENT 10 13 81 43 49 54
REMARK Flexibility Score: inf
ROOT
ATOM      1  C   UNL     1       4.474  -0.921  -0.511  1.00  0.00     0.274 C 
ENDROOT
BRANCH   1   2
ATOM      2  O   UNL     1       3.147  -1.220  -0.024  1.00  0.00    -0.462 OA
BRANCH   2   3
ATOM      3  C   UNL     1       2.403  -0.410   0.767  1.00  0.00     0.310 C 
ATOM      4  O   UNL     1       1.319  -0.802   1.197  1.00  0.00    -0.252 OA
BRANCH   3   5
ATOM      5  C   UNL     1       2.932   0.956   1.119  1.00  0.00     0.160 C 
BRANCH   5   6
ATOM      6  C   UNL     1       3.878   1.064   2.295  1.00  0.00    -0.013 A 
ATOM      7  C   UNL     1       4.138  -0.038   3.128  1.00  0.00     0.006 A 
ATOM      8  C   UNL     1       4.493   2.307   2.580  1.00  0.00     0.042 A 
ATOM      9  C   UNL     1       5.012   0.073   4.209  1.00  0.00     0.000 A 
ATOM     10  C   UNL     1       5.382   2.389   3.663  1.00  0.00     0.026 A 
ATOM     11  C   UNL     1       5.633   1.286   4.477  1.00  0.00     0.002 A 
BRANCH   8  12
ATOM     12  N   UNL     1       4.285   3.423   1.740  1.00  0.00    -0.353 N 
ATOM     13  H   UNL     1       3.806   3.252   0.896  1.00  0.00     0.167 HD
BRANCH  12  14
ATOM     14  C   UNL     1       4.688   4.761   1.976  1.00  0.00     0.076 A 
ATOM     15  C   UNL     1       3.908   5.612   2.782  1.00  0.00     0.066 A 
ATOM     16  C   UNL     1       5.816   5.304   1.331  1.00  0.00     0.066 A 
ATOM     17  Cl  UNL     1       2.535   5.005   3.649  1.00  0.00    -0.082 Cl
ATOM     18  C   UNL     1       4.229   6.961   2.911  1.00  0.00     0.023 A 
ATOM     19  C   UNL     1       6.144   6.655   1.474  1.00  0.00     0.023 A 
ATOM     20  Cl  UNL     1       6.847   4.318   0.349  1.00  0.00    -0.082 Cl
ATOM     21  C   UNL     1       5.338   7.484   2.248  1.00  0.00     0.003 A 
ENDBRANCH  12  14
ENDBRANCH   8  12
ENDBRANCH   5   6
ENDBRANCH   3   5
ENDBRANCH   2   3
ENDBRANCH   1   2
BRANCH   1  22
ATOM     22  C   UNL     1       4.445  -0.478  -1.975  1.00  0.00     0.275 C 
BRANCH  22  23
ATOM     23  O   UNL     1       3.962   0.873  -2.086  1.00  0.00    -0.458 OA
BRANCH  23  24
ATOM     24  C   UNL     1       2.641   1.014  -2.356  1.00  0.00     0.338 C 
ATOM     25  O   UNL     1       1.853   0.115  -2.601  1.00  0.00    -0.246 OA
BRANCH  24  26
ATOM     26  C   UNL     1       2.235   2.422  -2.130  1.00  0.00     0.060 A 
ATOM     27  C   UNL     1       0.959   2.663  -1.602  1.00  0.00     0.016 A 
ATOM     28  C   UNL     1       3.086   3.495  -2.412  1.00  0.00     0.016 A 
ATOM     29  C   UNL     1       0.516   3.974  -1.397  1.00  0.00     0.010 A 
ATOM     30  C   UNL     1       2.642   4.805  -2.203  1.00  0.00     0.010 A 
ATOM     31  C   UNL     1       1.343   5.056  -1.725  1.00  0.00    -0.014 A 
BRANCH  31  32
ATOM     32  C   UNL     1       0.828   6.449  -1.688  1.00  0.00     0.031 A 
ATOM     33  C   UNL     1       0.450   7.127  -2.976  1.00  0.00     0.074 A 
ATOM     34  C   UNL     1       0.719   7.128  -0.531  1.00  0.00     0.049 A 
ATOM     35  N   UNL     1       0.015   8.344  -3.167  1.00  0.00    -0.248 NA
ATOM     36  C   UNL     1       0.553   6.323  -4.204  1.00  0.00     0.031 C 
ATOM     37  C   UNL     1       0.986   6.585   0.796  1.00  0.00     0.029 A 
ATOM     38  N   UNL     1       0.389   8.441  -0.293  1.00  0.00    -0.354 N 
ATOM     39  C   UNL     1      -0.229   8.450  -4.529  1.00  0.00     0.074 A 
ATOM     40  C   UNL     1       0.157   7.189  -5.126  1.00  0.00     0.031 C 
ATOM     41  C   UNL     1       0.890   7.574   1.701  1.00  0.00     0.029 A 
ATOM     42  C   UNL     1       0.570   8.820   1.016  1.00  0.00     0.049 A 
ATOM     43  H   UNL     1       0.055   9.050  -0.991  1.00  0.00     0.167 HD
ATOM     44  C   UNL     1      -0.767   9.485  -5.215  1.00  0.00     0.034 A 
ATOM     45  C   UNL     1       0.510  10.034   1.597  1.00  0.00     0.034 A 
ATOM     46  C   UNL     1      -1.150  10.740  -4.626  1.00  0.00     0.049 A 
ATOM     47  C   UNL     1       0.054  11.214   0.789  1.00  0.00     0.074 A 
ATOM     48  C   UNL     1      -1.762  11.823  -5.232  1.00  0.00     0.029 A 
ATOM     49  N   UNL     1      -0.934  11.092  -3.304  1.00  0.00    -0.354 N 
ATOM     50  N   UNL     1      -0.297  11.258  -0.471  1.00  0.00    -0.248 NA
ATOM     51  C   UNL     1      -0.084  12.493   1.501  1.00  0.00     0.031 C 
ATOM     52  C   UNL     1      -1.884  12.844  -4.283  1.00  0.00     0.029 A 
ATOM     53  C   UNL     1      -1.377  12.385  -3.079  1.00  0.00     0.049 A 
ATOM     54  H   UNL     1      -0.525  10.509  -2.623  1.00  0.00     0.167 HD
ATOM     55  C   UNL     1      -0.771  12.546  -0.686  1.00  0.00     0.074 A 
ATOM     56  C   UNL     1      -0.639  13.257   0.569  1.00  0.00     0.031 C 
ATOM     57  C   UNL     1      -1.288  13.079  -1.820  1.00  0.00     0.034 A 
BRANCH  44  58
ATOM     58  C   UNL     1      -1.018   9.282  -6.684  1.00  0.00     0.023 A 
ATOM     59  C   UNL     1      -2.082   8.452  -7.095  1.00  0.00     0.012 A 
ATOM     60  C   UNL     1      -0.243   9.947  -7.651  1.00  0.00     0.148 A 
ATOM     61  C   UNL     1      -2.352   8.264  -8.449  1.00  0.00     0.002 A 
ATOM     62  C   UNL     1      -0.542   9.785  -8.998  1.00  0.00     0.091 A 
ATOM     63  F   UNL     1       0.777  10.712  -7.237  1.00  0.00    -0.205 F 
ATOM     64  C   UNL     1      -1.589   8.937  -9.399  1.00  0.00     0.022 A 
BRANCH  62  65
ATOM     65  S   UNL     1       0.339  10.659 -10.296  1.00  0.00     0.127 S 
ATOM     66  O   UNL     1       1.092   9.573 -10.922  1.00  0.00    -0.237 OA
ATOM     67  O   UNL     1      -0.757  11.189 -11.108  1.00  0.00    -0.237 OA
ATOM     68  O   UNL     1       1.143  11.670  -9.625  1.00  0.00    -0.744 OA
ENDBRANCH  62  65
ENDBRANCH  44  58
BRANCH  45  69
ATOM     69  C   UNL     1       0.854  10.198   3.035  1.00  0.00     0.023 A 
ATOM     70  C   UNL     1      -0.171  10.345   3.987  1.00  0.00     0.012 A 
ATOM     71  C   UNL     1       2.197  10.225   3.456  1.00  0.00     0.148 A 
ATOM     72  C   UNL     1       0.137  10.534   5.335  1.00  0.00     0.002 A 
ATOM     73  C   UNL     1       2.497  10.379   4.805  1.00  0.00     0.091 A 
ATOM     74  F   UNL     1       3.154  10.093   2.527  1.00  0.00    -0.205 F 
ATOM     75  C   UNL     1       1.468  10.545   5.745  1.00  0.00     0.022 A 
BRANCH  73  76
ATOM     76  S   UNL     1       4.176  10.328   5.443  1.00  0.00     0.127 S 
ATOM     77  O   UNL     1       4.302  11.640   6.072  1.00  0.00    -0.237 OA
ATOM     78  O   UNL     1       4.103   9.198   6.368  1.00  0.00    -0.237 OA
ATOM     79  O   UNL     1       5.032  10.111   4.285  1.00  0.00    -0.744 OA
ENDBRANCH  73  76
ENDBRANCH  45  69
BRANCH  57  80
ATOM     80  C   UNL     1      -1.818  14.486  -1.752  1.00  0.00     0.023 A 
ATOM     81  C   UNL     1      -0.929  15.575  -1.667  1.00  0.00     0.012 A 
ATOM     82  C   UNL     1      -3.204  14.727  -1.836  1.00  0.00     0.148 A 
ATOM     83  C   UNL     1      -1.415  16.882  -1.637  1.00  0.00     0.002 A 
ATOM     84  C   UNL     1      -3.677  16.032  -1.856  1.00  0.00     0.091 A 
ATOM     85  F   UNL     1      -4.034  13.675  -1.891  1.00  0.00    -0.205 F 
ATOM     86  C   UNL     1      -2.785  17.111  -1.744  1.00  0.00     0.022 A 
BRANCH  84  87
ATOM     87  S   UNL     1      -5.415  16.423  -2.088  1.00  0.00     0.127 S 
ATOM     88  O   UNL     1      -5.795  16.894  -0.757  1.00  0.00    -0.237 OA
ATOM     89  O   UNL     1      -5.363  17.467  -3.112  1.00  0.00    -0.237 OA
ATOM     90  O   UNL     1      -6.051  15.186  -2.519  1.00  0.00    -0.744 OA
ENDBRANCH  84  87
ENDBRANCH  57  80
ENDBRANCH  31  32
ENDBRANCH  24  26
ENDBRANCH  23  24
ENDBRANCH  22  23
ENDBRANCH   1  22
TORSDOF 17
