REMARK SMILES Cc1ccccc1NC(=S)NN1C(=O)CS[C@H]1c1ccccc1C(=O)OCCOC(=O)c1ccc(-c2c3nc(c(-c4cccc(S(=O)(=O)[O-])c4F)c4ccc([nH]4)c(-c4cccc(S(=O)(=O)[O-])c4F)c4nc(c(-c5cccc(S(=O)(=O)[O-])c5F)c5ccc2[nH]5)C=C4)C=C3)cc1
REMARK SMILES IDX 27 1 26 2 24 3 25 4 23 5 18 6 19 7 20 8 22 9 21 10 17 11
REMARK SMILES IDX 12 12 13 13 14 14 15 15 16 16 11 17 9 19 10 20 8 21 7 23
REMARK SMILES IDX 1 24 2 25 3 26 4 27 6 28 5 29 28 30 29 31 30 32 31 33 32 34
REMARK SMILES IDX 33 35 94 36 34 37 93 38 35 39 36 40 37 41 87 42 38 43 92 44
REMARK SMILES IDX 86 45 88 46 39 47 91 48 85 49 84 50 40 52 72 53 52 54 71 55
REMARK SMILES IDX 53 56 56 57 70 58 89 59 54 60 55 61 69 63 90 64 57 65 41 66
REMARK SMILES IDX 42 67 50 68 43 69 45 70 51 71 44 72 46 73 47 74 48 75 49 76
REMARK SMILES IDX 73 77 74 78 82 79 75 80 77 81 83 82 76 83 78 84 79 85 80 86
REMARK SMILES IDX 81 87 58 88 59 89 67 90 60 91 62 92 68 93 61 94 63 95 64 96
REMARK SMILES IDX 65 97 66 98
REMARK H PARENT 11 18 8 22 88 51 56 62
REMARK Flexibility Score: inf
ROOT
ATOM      1  C   UNL     1       0.157   1.958  -0.249  1.00  0.00     0.275 C 
ENDROOT
BRANCH   1   2
ATOM      2  O   UNL     1      -0.287   3.486   0.777  1.00  0.00    -0.458 OA
BRANCH   2   3
ATOM      3  C   UNL     1      -1.250   4.982   0.694  1.00  0.00     0.338 C 
ATOM      4  O   UNL     1      -0.278   5.774   0.653  1.00  0.00    -0.246 OA
BRANCH   3   5
ATOM      5  C   UNL     1      -3.400   5.101   0.318  1.00  0.00     0.066 A 
ATOM      6  C   UNL     1      -4.252   3.918  -0.561  1.00  0.00     0.001 A 
ATOM      7  C   UNL     1      -5.668   3.860  -0.682  1.00  0.00     0.008 A 
ATOM      8  C   UNL     1      -6.441   4.928  -0.278  1.00  0.00     0.000 A 
ATOM      9  C   UNL     1      -4.433   6.161   0.484  1.00  0.00     0.016 A 
ATOM     10  C   UNL     1      -5.828   6.079   0.187  1.00  0.00     0.001 A 
BRANCH   6  11
ATOM     11  C   UNL     1      -3.429   2.679  -1.591  1.00  0.00     0.197 C 
ATOM     12  N   UNL     1      -1.827   2.175  -1.363  1.00  0.00    -0.236 N 
ATOM     13  C   UNL     1      -2.060   0.878  -0.343  1.00  0.00     0.252 C 
ATOM     14  O   UNL     1      -1.618   0.681   0.797  1.00  0.00    -0.272 OA
ATOM     15  C   UNL     1      -3.229   0.040  -0.684  1.00  0.00     0.174 C 
ATOM     16  S   UNL     1      -4.468   1.070  -1.413  1.00  0.00    -0.120 SA
BRANCH  12  17
ATOM     17  N   UNL     1      -0.286   3.441  -1.294  1.00  0.00    -0.270 N 
ATOM     18  H   UNL     1      -0.570   4.356  -1.069  1.00  0.00     0.191 HD
BRANCH  17  19
ATOM     19  C   UNL     1       1.433   3.331  -1.531  1.00  0.00     0.189 C 
ATOM     20  S   UNL     1       2.367   4.720  -1.302  1.00  0.00    -0.039 S 
BRANCH  19  21
ATOM     21  N   UNL     1       2.219   1.880  -1.475  1.00  0.00    -0.331 N 
ATOM     22  H   UNL     1       3.194   2.015  -1.515  1.00  0.00     0.169 HD
BRANCH  21  23
ATOM     23  C   UNL     1       1.876   0.329  -1.376  1.00  0.00     0.043 A 
ATOM     24  C   UNL     1       3.728  -0.403   0.253  1.00  0.00     0.046 C 
ATOM     25  C   UNL     1       2.355  -0.496  -0.335  1.00  0.00    -0.028 A 
ATOM     26  C   UNL     1       1.592  -1.635   0.098  1.00  0.00     0.005 A 
ATOM     27  C   UNL     1       0.391  -1.994  -0.496  1.00  0.00     0.000 A 
ATOM     28  C   UNL     1       0.911  -0.342  -2.159  1.00  0.00     0.026 A 
ATOM     29  C   UNL     1       0.077  -1.371  -1.676  1.00  0.00     0.002 A 
ENDBRANCH  21  23
ENDBRANCH  19  21
ENDBRANCH  17  19
ENDBRANCH  12  17
ENDBRANCH   6  11
ENDBRANCH   3   5
ENDBRANCH   2   3
ENDBRANCH   1   2
BRANCH   1  30
ATOM     30  C   UNL     1      -0.085   1.891  -2.329  1.00  0.00     0.275 C 
BRANCH  30  31
ATOM     31  O   UNL     1      -0.869   3.335  -3.190  1.00  0.00    -0.458 OA
BRANCH  31  32
ATOM     32  C   UNL     1      -1.417   4.654  -2.725  1.00  0.00     0.338 C 
ATOM     33  O   UNL     1      -1.360   5.632  -3.471  1.00  0.00    -0.246 OA
BRANCH  32  34
ATOM     34  C   UNL     1      -2.010   4.900  -1.182  1.00  0.00     0.060 A 
ATOM     35  C   UNL     1      -2.051   6.548  -0.472  1.00  0.00     0.016 A 
ATOM     36  C   UNL     1      -2.284   3.546   0.128  1.00  0.00     0.016 A 
ATOM     37  C   UNL     1      -2.227   6.691   1.347  1.00  0.00     0.010 A 
ATOM     38  C   UNL     1      -2.556   3.767   1.786  1.00  0.00     0.010 A 
ATOM     39  C   UNL     1      -2.444   5.303   2.440  1.00  0.00    -0.014 A 
BRANCH  39  40
ATOM     40  C   UNL     1      -1.637   4.886   3.659  1.00  0.00     0.031 A 
ATOM     41  C   UNL     1      -2.224   3.679   4.440  1.00  0.00     0.074 A 
ATOM     42  C   UNL     1      -0.286   5.156   3.635  1.00  0.00     0.049 A 
ATOM     43  N   UNL     1      -1.646   3.192   5.471  1.00  0.00    -0.248 NA
ATOM     44  C   UNL     1      -3.413   2.823   4.102  1.00  0.00     0.031 C 
ATOM     45  C   UNL     1       0.879   4.452   4.208  1.00  0.00     0.029 A 
ATOM     46  N   UNL     1       0.332   6.272   3.051  1.00  0.00    -0.354 N 
ATOM     47  C   UNL     1      -2.139   1.922   5.732  1.00  0.00     0.074 A 
ATOM     48  C   UNL     1      -3.273   1.750   4.888  1.00  0.00     0.031 C 
ATOM     49  C   UNL     1       1.955   5.274   4.222  1.00  0.00     0.029 A 
ATOM     50  C   UNL     1       1.545   6.562   3.699  1.00  0.00     0.049 A 
ATOM     51  H   UNL     1      -0.034   6.781   2.292  1.00  0.00     0.167 HD
ATOM     52  C   UNL     1      -1.411   1.139   6.567  1.00  0.00     0.034 A 
ATOM     53  C   UNL     1       1.648   7.761   4.349  1.00  0.00     0.034 A 
ATOM     54  C   UNL     1      -0.357   1.982   7.167  1.00  0.00     0.049 A 
ATOM     55  C   UNL     1       1.232   7.554   5.813  1.00  0.00     0.074 A 
ATOM     56  C   UNL     1       0.999   2.116   6.941  1.00  0.00     0.029 A 
ATOM     57  N   UNL     1      -0.758   3.167   7.790  1.00  0.00    -0.354 N 
ATOM     58  N   UNL     1       1.014   6.385   6.361  1.00  0.00    -0.248 NA
ATOM     59  C   UNL     1       1.056   8.633   6.780  1.00  0.00     0.031 C 
ATOM     60  C   UNL     1       1.369   3.448   7.324  1.00  0.00     0.029 A 
ATOM     61  C   UNL     1       0.256   4.113   7.819  1.00  0.00     0.049 A 
ATOM     62  H   UNL     1      -1.657   3.313   8.165  1.00  0.00     0.167 HD
ATOM     63  C   UNL     1       0.491   6.526   7.616  1.00  0.00     0.074 A 
ATOM     64  C   UNL     1       0.620   7.956   7.858  1.00  0.00     0.031 C 
ATOM     65  C   UNL     1      -0.026   5.468   8.330  1.00  0.00     0.034 A 
BRANCH  52  66
ATOM     66  C   UNL     1      -1.517  -0.365   6.785  1.00  0.00     0.023 A 
ATOM     67  C   UNL     1      -0.679  -0.880   7.800  1.00  0.00     0.012 A 
ATOM     68  C   UNL     1      -2.279  -1.331   6.065  1.00  0.00     0.148 A 
ATOM     69  C   UNL     1      -0.583  -2.244   8.089  1.00  0.00     0.002 A 
ATOM     70  C   UNL     1      -2.218  -2.699   6.388  1.00  0.00     0.091 A 
ATOM     71  F   UNL     1      -3.027  -0.957   5.022  1.00  0.00    -0.205 F 
ATOM     72  C   UNL     1      -1.361  -3.154   7.394  1.00  0.00     0.022 A 
BRANCH  70  73
ATOM     73  S   UNL     1      -3.204  -3.979   5.572  1.00  0.00     0.127 S 
ATOM     74  O   UNL     1      -2.175  -4.847   4.998  1.00  0.00    -0.237 OA
ATOM     75  O   UNL     1      -3.936  -4.574   6.692  1.00  0.00    -0.237 OA
ATOM     76  O   UNL     1      -4.041  -3.298   4.592  1.00  0.00    -0.744 OA
ENDBRANCH  70  73
ENDBRANCH  52  66
BRANCH  53  77
ATOM     77  C   UNL     1       1.185   8.877   3.432  1.00  0.00     0.023 A 
ATOM     78  C   UNL     1       1.746   8.909   2.122  1.00  0.00     0.012 A 
ATOM     79  C   UNL     1      -0.074   9.450   3.621  1.00  0.00     0.148 A 
ATOM     80  C   UNL     1       0.948   9.221   1.014  1.00  0.00     0.002 A 
ATOM     81  C   UNL     1      -0.877   9.726   2.521  1.00  0.00     0.091 A 
ATOM     82  F   UNL     1      -0.539   9.638   4.860  1.00  0.00    -0.205 F 
ATOM     83  C   UNL     1      -0.390   9.568   1.212  1.00  0.00     0.022 A 
BRANCH  81  84
ATOM     84  S   UNL     1      -2.643   9.927   2.857  1.00  0.00     0.127 S 
ATOM     85  O   UNL     1      -3.249   9.833   1.526  1.00  0.00    -0.237 OA
ATOM     86  O   UNL     1      -2.950   8.794   3.724  1.00  0.00    -0.237 OA
ATOM     87  O   UNL     1      -2.714  11.246   3.470  1.00  0.00    -0.744 OA
ENDBRANCH  81  84
ENDBRANCH  53  77
BRANCH  65  88
ATOM     88  C   UNL     1      -0.824   5.622   9.628  1.00  0.00     0.023 A 
ATOM     89  C   UNL     1      -1.338   6.860  10.058  1.00  0.00     0.012 A 
ATOM     90  C   UNL     1      -1.147   4.508  10.451  1.00  0.00     0.148 A 
ATOM     91  C   UNL     1      -1.960   7.019  11.301  1.00  0.00     0.002 A 
ATOM     92  C   UNL     1      -1.918   4.644  11.599  1.00  0.00     0.091 A 
ATOM     93  F   UNL     1      -0.668   3.290  10.174  1.00  0.00    -0.205 F 
ATOM     94  C   UNL     1      -2.262   5.907  12.069  1.00  0.00     0.022 A 
BRANCH  92  95
ATOM     95  S   UNL     1      -2.579   3.214  12.465  1.00  0.00     0.127 S 
ATOM     96  O   UNL     1      -1.706   3.145  13.634  1.00  0.00    -0.237 OA
ATOM     97  O   UNL     1      -3.951   3.638  12.750  1.00  0.00    -0.237 OA
ATOM     98  O   UNL     1      -2.482   2.101  11.530  1.00  0.00    -0.744 OA
ENDBRANCH  92  95
ENDBRANCH  65  88
ENDBRANCH  39  40
ENDBRANCH  32  34
ENDBRANCH  31  32
ENDBRANCH  30  31
ENDBRANCH   1  30
TORSDOF 19
