REMARK SMILES O=C(OCCOC(=O)c1ccccc1C(=O)Nc1ccc(Cl)cn1)c1ccc(-c2c3nc(c(-c4cccc(S(=O)(=O)[O-])c4F)c4ccc([nH]4)c(-c4cccc(S(=O)(=O)[O-])c4F)c4nc(c(-c5cccc(S(=O)(=O)[O-])c5F)c5ccc2[nH]5)C=C4)C=C3)cc1
REMARK SMILES IDX 4 1 3 2 2 3 1 4 25 5 26 6 87 7 27 8 86 9 28 10 29 11 30 12
REMARK SMILES IDX 80 13 31 14 85 15 79 16 81 17 32 18 84 19 78 20 77 21 33 23
REMARK SMILES IDX 65 24 45 25 64 26 46 27 49 28 63 29 82 30 47 31 48 32 62 34
REMARK SMILES IDX 83 35 50 36 34 37 35 38 43 39 36 40 38 41 44 42 37 43 39 44
REMARK SMILES IDX 40 45 41 46 42 47 66 48 67 49 75 50 68 51 70 52 76 53 69 54
REMARK SMILES IDX 71 55 72 56 73 57 74 58 51 59 52 60 60 61 53 62 55 63 61 64
REMARK SMILES IDX 54 65 56 66 57 67 58 68 59 69 5 70 6 71 7 72 8 73 9 74 10 75
REMARK SMILES IDX 14 76 11 77 13 78 12 79 15 80 16 81 17 82 18 84 19 85 24 86
REMARK SMILES IDX 20 87 23 88 21 89 22 90
REMARK H PARENT 81 22 49 33 17 83
REMARK Flexibility Score: inf
ROOT
ATOM      1  C   UNL     1       3.692   2.265  -1.205  1.00  0.00     0.275 C 
ENDROOT
BRANCH   1   2
ATOM      2  O   UNL     1       2.873   0.782  -1.856  1.00  0.00    -0.458 OA
BRANCH   2   3
ATOM      3  C   UNL     1       2.485  -0.664  -1.662  1.00  0.00     0.338 C 
ATOM      4  O   UNL     1       1.437  -0.972  -2.253  1.00  0.00    -0.246 OA
BRANCH   3   5
ATOM      5  C   UNL     1       3.103  -1.982  -0.764  1.00  0.00     0.060 A 
ATOM      6  C   UNL     1       4.399  -2.160  -0.250  1.00  0.00     0.016 A 
ATOM      7  C   UNL     1       2.362  -3.159  -0.483  1.00  0.00     0.016 A 
ATOM      8  C   UNL     1       4.873  -3.122   0.656  1.00  0.00     0.010 A 
ATOM      9  C   UNL     1       2.883  -4.277   0.348  1.00  0.00     0.010 A 
ATOM     10  C   UNL     1       4.139  -4.226   0.994  1.00  0.00    -0.014 A 
BRANCH  10  11
ATOM     11  C   UNL     1       4.956  -5.223   1.803  1.00  0.00     0.031 A 
ATOM     12  C   UNL     1       5.805  -6.231   1.064  1.00  0.00     0.074 A 
ATOM     13  C   UNL     1       5.380  -4.968   3.073  1.00  0.00     0.049 A 
ATOM     14  N   UNL     1       6.751  -7.014   1.519  1.00  0.00    -0.248 NA
ATOM     15  C   UNL     1       5.641  -6.270  -0.396  1.00  0.00     0.031 C 
ATOM     16  C   UNL     1       5.035  -3.771   3.819  1.00  0.00     0.029 A 
ATOM     17  N   UNL     1       6.243  -5.614   3.942  1.00  0.00    -0.354 N 
ATOM     18  C   UNL     1       7.292  -7.644   0.409  1.00  0.00     0.074 A 
ATOM     19  C   UNL     1       6.582  -7.134  -0.747  1.00  0.00     0.031 C 
ATOM     20  C   UNL     1       5.578  -3.793   5.045  1.00  0.00     0.029 A 
ATOM     21  C   UNL     1       6.339  -5.020   5.191  1.00  0.00     0.049 A 
ATOM     22  H   UNL     1       6.745  -6.424   3.695  1.00  0.00     0.167 HD
ATOM     23  C   UNL     1       8.284  -8.563   0.346  1.00  0.00     0.034 A 
ATOM     24  C   UNL     1       6.954  -5.394   6.335  1.00  0.00     0.034 A 
ATOM     25  C   UNL     1       8.998  -9.091   1.476  1.00  0.00     0.049 A 
ATOM     26  C   UNL     1       7.856  -6.595   6.295  1.00  0.00     0.074 A 
ATOM     27  C   UNL     1       9.892 -10.149   1.508  1.00  0.00     0.029 A 
ATOM     28  N   UNL     1       8.905  -8.612   2.772  1.00  0.00    -0.354 N 
ATOM     29  N   UNL     1       8.273  -7.259   5.247  1.00  0.00    -0.248 NA
ATOM     30  C   UNL     1       8.414  -7.072   7.570  1.00  0.00     0.031 C 
ATOM     31  C   UNL     1      10.306 -10.336   2.832  1.00  0.00     0.029 A 
ATOM     32  C   UNL     1       9.704  -9.367   3.617  1.00  0.00     0.049 A 
ATOM     33  H   UNL     1       8.353  -7.847   3.053  1.00  0.00     0.167 HD
ATOM     34  C   UNL     1       9.168  -8.203   5.727  1.00  0.00     0.074 A 
ATOM     35  C   UNL     1       9.258  -8.009   7.159  1.00  0.00     0.031 C 
ATOM     36  C   UNL     1       9.839  -9.153   5.035  1.00  0.00     0.034 A 
BRANCH  23  37
ATOM     37  C   UNL     1       8.565  -9.140  -1.012  1.00  0.00     0.023 A 
ATOM     38  C   UNL     1       9.331  -8.428  -1.954  1.00  0.00     0.012 A 
ATOM     39  C   UNL     1       8.022 -10.393  -1.353  1.00  0.00     0.148 A 
ATOM     40  C   UNL     1       9.518  -8.943  -3.238  1.00  0.00     0.002 A 
ATOM     41  C   UNL     1       8.244 -10.915  -2.618  1.00  0.00     0.091 A 
ATOM     42  F   UNL     1       7.279 -11.034  -0.440  1.00  0.00    -0.205 F 
ATOM     43  C   UNL     1       8.979 -10.186  -3.567  1.00  0.00     0.022 A 
BRANCH  41  44
ATOM     44  S   UNL     1       7.626 -12.524  -3.117  1.00  0.00     0.127 S 
ATOM     45  O   UNL     1       6.693 -12.163  -4.184  1.00  0.00    -0.237 OA
ATOM     46  O   UNL     1       8.847 -13.189  -3.571  1.00  0.00    -0.237 OA
ATOM     47  O   UNL     1       7.012 -13.109  -1.933  1.00  0.00    -0.744 OA
ENDBRANCH  41  44
ENDBRANCH  23  37
BRANCH  24  48
ATOM     48  C   UNL     1       6.717  -4.681   7.638  1.00  0.00     0.023 A 
ATOM     49  C   UNL     1       7.786  -4.109   8.358  1.00  0.00     0.012 A 
ATOM     50  C   UNL     1       5.434  -4.683   8.229  1.00  0.00     0.148 A 
ATOM     51  C   UNL     1       7.595  -3.611   9.653  1.00  0.00     0.002 A 
ATOM     52  C   UNL     1       5.242  -4.146   9.499  1.00  0.00     0.091 A 
ATOM     53  F   UNL     1       4.425  -5.256   7.556  1.00  0.00    -0.205 F 
ATOM     54  C   UNL     1       6.325  -3.628  10.223  1.00  0.00     0.022 A 
BRANCH  52  55
ATOM     55  S   UNL     1       3.620  -4.073  10.271  1.00  0.00     0.127 S 
ATOM     56  O   UNL     1       3.702  -5.157  11.246  1.00  0.00    -0.237 OA
ATOM     57  O   UNL     1       3.611  -2.728  10.847  1.00  0.00    -0.237 OA
ATOM     58  O   UNL     1       2.665  -4.263   9.186  1.00  0.00    -0.744 OA
ENDBRANCH  52  55
ENDBRANCH  24  48
BRANCH  36  59
ATOM     59  C   UNL     1      10.763 -10.058   5.806  1.00  0.00     0.023 A 
ATOM     60  C   UNL     1      10.230 -11.021   6.685  1.00  0.00     0.012 A 
ATOM     61  C   UNL     1      12.156  -9.998   5.607  1.00  0.00     0.148 A 
ATOM     62  C   UNL     1      11.070 -11.890   7.379  1.00  0.00     0.002 A 
ATOM     63  C   UNL     1      12.983 -10.903   6.261  1.00  0.00     0.091 A 
ATOM     64  F   UNL     1      12.646  -9.058   4.787  1.00  0.00    -0.205 F 
ATOM     65  C   UNL     1      12.444 -11.840   7.157  1.00  0.00     0.022 A 
BRANCH  63  66
ATOM     66  S   UNL     1      14.752 -10.980   5.956  1.00  0.00     0.127 S 
ATOM     67  O   UNL     1      15.293 -10.415   7.191  1.00  0.00    -0.237 OA
ATOM     68  O   UNL     1      14.975 -12.418   5.793  1.00  0.00    -0.237 OA
ATOM     69  O   UNL     1      14.986 -10.194   4.752  1.00  0.00    -0.744 OA
ENDBRANCH  63  66
ENDBRANCH  36  59
ENDBRANCH  10  11
ENDBRANCH   3   5
ENDBRANCH   2   3
ENDBRANCH   1   2
BRANCH   1  70
ATOM     70  C   UNL     1       4.398   2.275   0.604  1.00  0.00     0.275 C 
BRANCH  70  71
ATOM     71  O   UNL     1       3.913   0.613   1.734  1.00  0.00    -0.458 OA
BRANCH  71  72
ATOM     72  C   UNL     1       2.772  -0.272   2.106  1.00  0.00     0.339 C 
ATOM     73  O   UNL     1       1.618  -0.233   1.633  1.00  0.00    -0.246 OA
BRANCH  72  74
ATOM     74  C   UNL     1       2.767  -1.154   3.220  1.00  0.00     0.072 A 
ATOM     75  C   UNL     1       1.926  -2.292   2.966  1.00  0.00     0.016 A 
ATOM     76  C   UNL     1       3.187  -0.816   4.485  1.00  0.00     0.054 A 
ATOM     77  C   UNL     1       1.547  -3.170   3.953  1.00  0.00     0.001 A 
ATOM     78  C   UNL     1       2.820  -1.766   5.479  1.00  0.00     0.015 A 
ATOM     79  C   UNL     1       2.022  -2.915   5.220  1.00  0.00     0.001 A 
BRANCH  76  80
ATOM     80  C   UNL     1       3.957   0.404   4.919  1.00  0.00     0.257 C 
ATOM     81  O   UNL     1       4.592   0.278   5.976  1.00  0.00    -0.269 OA
ATOM     82  N   UNL     1       4.005   1.696   4.358  1.00  0.00    -0.307 N 
ATOM     83  H   UNL     1       3.918   2.448   4.988  1.00  0.00     0.171 HD
BRANCH  82  84
ATOM     84  C   UNL     1       4.163   2.041   2.984  1.00  0.00     0.132 A 
ATOM     85  C   UNL     1       2.698   2.112   1.989  1.00  0.00     0.049 A 
ATOM     86  N   UNL     1       5.630   1.369   2.470  1.00  0.00    -0.238 NA
ATOM     87  C   UNL     1       2.749   1.211   0.399  1.00  0.00     0.026 A 
ATOM     88  C   UNL     1       5.745   0.510   1.046  1.00  0.00     0.134 A 
ATOM     89  C   UNL     1       4.405   0.377  -0.069  1.00  0.00     0.059 A 
ATOM     90  Cl  UNL     1       5.357   0.233  -1.796  1.00  0.00    -0.083 Cl
ENDBRANCH  82  84
ENDBRANCH  76  80
ENDBRANCH  72  74
ENDBRANCH  71  72
ENDBRANCH  70  71
ENDBRANCH   1  70
TORSDOF 16
