REMARK SMILES Cc1cc(OCC(=O)Nc2sccc2C(=O)OCCOC(=O)c2ccc(-c3c4nc(c(-c5cccc(S(=O)(=O)[O-])c5F)c5ccc([nH]5)c(-c5cccc(S(=O)(=O)[O-])c5F)c5nc(c(-c6cccc(S(=O)(=O)[O-])c6F)c6ccc3[nH]6)C=C5)C=C4)cc2)ccc1Cl
REMARK SMILES IDX 18 1 17 2 15 3 16 4 14 5 10 6 11 7 12 8 13 9 9 10 7 11 8 12
REMARK SMILES IDX 6 14 5 15 4 16 1 17 2 18 3 19 88 20 87 21 89 22 86 23 19 24
REMARK SMILES IDX 20 25 21 26 22 27 23 28 24 29 85 30 25 31 84 32 26 33 27 34
REMARK SMILES IDX 28 35 78 36 29 37 83 38 77 39 79 40 30 41 82 42 76 43 75 44
REMARK SMILES IDX 31 46 63 47 43 48 62 49 44 50 47 51 61 52 80 53 45 54 46 55
REMARK SMILES IDX 60 57 81 58 48 59 32 60 33 61 41 62 34 63 36 64 42 65 35 66
REMARK SMILES IDX 37 67 38 68 39 69 40 70 64 71 65 72 73 73 66 74 68 75 74 76
REMARK SMILES IDX 67 77 69 78 70 79 71 80 72 81 49 82 50 83 58 84 51 85 53 86
REMARK SMILES IDX 59 87 52 88 54 89 55 90 56 91 57 92
REMARK H PARENT 9 13 79 45 47 56
REMARK Flexibility Score: inf
ROOT
ATOM      1  C   UNL     1      -1.443  -0.519   1.384  1.00  0.00     0.275 C 
ENDROOT
BRANCH   1   2
ATOM      2  O   UNL     1      -2.720  -0.184   1.961  1.00  0.00    -0.458 OA
BRANCH   2   3
ATOM      3  C   UNL     1      -3.833  -0.772   1.428  1.00  0.00     0.341 C 
ATOM      4  O   UNL     1      -3.825  -1.671   0.598  1.00  0.00    -0.246 OA
BRANCH   3   5
ATOM      5  C   UNL     1      -5.062  -0.262   2.028  1.00  0.00     0.094 A 
ATOM      6  C   UNL     1      -5.292   1.047   2.397  1.00  0.00     0.110 A 
ATOM      7  S   UNL     1      -6.606   1.214   3.469  1.00  0.00    -0.126 S 
ATOM      8  C   UNL     1      -7.084  -0.405   3.215  1.00  0.00     0.068 A 
ATOM      9  C   UNL     1      -6.195  -1.071   2.399  1.00  0.00     0.029 A 
BRANCH   6  10
ATOM     10  N   UNL     1      -4.652   2.234   2.160  1.00  0.00    -0.314 N 
ATOM     11  C   UNL     1      -4.061   2.667   1.008  1.00  0.00     0.262 C 
ATOM     12  O   UNL     1      -3.353   3.680   1.081  1.00  0.00    -0.271 OA
ATOM     13  H   UNL     1      -4.614   2.858   2.921  1.00  0.00     0.170 HD
BRANCH  11  14
ATOM     14  C   UNL     1      -4.446   2.075  -0.375  1.00  0.00     0.329 C 
BRANCH  14  15
ATOM     15  O   UNL     1      -3.831   0.968  -0.991  1.00  0.00    -0.484 OA
BRANCH  15  16
ATOM     16  C   UNL     1      -2.522   1.008  -1.368  1.00  0.00     0.120 A 
ATOM     17  C   UNL     1       0.750   2.767  -0.611  1.00  0.00     0.046 C 
ATOM     18  C   UNL     1      -0.213   1.776  -1.204  1.00  0.00    -0.029 A 
ATOM     19  C   UNL     1      -1.595   1.988  -1.022  1.00  0.00     0.051 A 
ATOM     20  C   UNL     1       0.217   0.586  -1.809  1.00  0.00     0.044 A 
ATOM     21  C   UNL     1      -0.715  -0.348  -2.262  1.00  0.00     0.024 A 
ATOM     22  Cl  UNL     1       1.893   0.195  -1.948  1.00  0.00    -0.084 Cl
ATOM     23  C   UNL     1      -2.078  -0.135  -2.040  1.00  0.00     0.048 A 
ENDBRANCH  15  16
ENDBRANCH  14  15
ENDBRANCH  11  14
ENDBRANCH   6  10
ENDBRANCH   3   5
ENDBRANCH   2   3
ENDBRANCH   1   2
BRANCH   1  24
ATOM     24  C   UNL     1      -0.603  -1.499   2.197  1.00  0.00     0.275 C 
BRANCH  24  25
ATOM     25  O   UNL     1      -1.047  -2.840   1.946  1.00  0.00    -0.458 OA
BRANCH  25  26
ATOM     26  C   UNL     1      -2.063  -3.224   2.747  1.00  0.00     0.338 C 
ATOM     27  O   UNL     1      -2.463  -2.634   3.740  1.00  0.00    -0.246 OA
BRANCH  26  28
ATOM     28  C   UNL     1      -2.780  -4.367   2.157  1.00  0.00     0.060 A 
ATOM     29  C   UNL     1      -4.170  -4.347   2.304  1.00  0.00     0.016 A 
ATOM     30  C   UNL     1      -2.143  -5.448   1.543  1.00  0.00     0.016 A 
ATOM     31  C   UNL     1      -4.932  -5.429   1.904  1.00  0.00     0.010 A 
ATOM     32  C   UNL     1      -2.907  -6.555   1.162  1.00  0.00     0.010 A 
ATOM     33  C   UNL     1      -4.294  -6.563   1.397  1.00  0.00    -0.014 A 
BRANCH  33  34
ATOM     34  C   UNL     1      -5.066  -7.822   1.398  1.00  0.00     0.031 A 
ATOM     35  C   UNL     1      -4.892  -8.746   2.572  1.00  0.00     0.074 A 
ATOM     36  C   UNL     1      -5.987  -8.065   0.452  1.00  0.00     0.049 A 
ATOM     37  N   UNL     1      -5.464  -9.893   2.815  1.00  0.00    -0.248 NA
ATOM     38  C   UNL     1      -3.952  -8.309   3.621  1.00  0.00     0.031 C 
ATOM     39  C   UNL     1      -6.282  -7.189  -0.681  1.00  0.00     0.029 A 
ATOM     40  N   UNL     1      -6.852  -9.116   0.303  1.00  0.00    -0.354 N 
ATOM     41  C   UNL     1      -4.919 -10.336   4.015  1.00  0.00     0.074 A 
ATOM     42  C   UNL     1      -3.977  -9.335   4.457  1.00  0.00     0.031 C 
ATOM     43  C   UNL     1      -7.260  -7.745  -1.417  1.00  0.00     0.029 A 
ATOM     44  C   UNL     1      -7.634  -9.027  -0.823  1.00  0.00     0.049 A 
ATOM     45  H   UNL     1      -6.909  -9.863   0.942  1.00  0.00     0.167 HD
ATOM     46  C   UNL     1      -5.193 -11.471   4.696  1.00  0.00     0.034 A 
ATOM     47  C   UNL     1      -8.534  -9.897  -1.320  1.00  0.00     0.034 A 
ATOM     48  C   UNL     1      -6.168 -12.434   4.270  1.00  0.00     0.049 A 
ATOM     49  C   UNL     1      -8.807 -11.165  -0.555  1.00  0.00     0.074 A 
ATOM     50  C   UNL     1      -6.533 -13.620   4.879  1.00  0.00     0.029 A 
ATOM     51  N   UNL     1      -6.942 -12.312   3.125  1.00  0.00    -0.354 N 
ATOM     52  N   UNL     1      -8.315 -11.556   0.597  1.00  0.00    -0.248 NA
ATOM     53  C   UNL     1      -9.770 -12.105  -1.145  1.00  0.00     0.031 C 
ATOM     54  C   UNL     1      -7.524 -14.220   4.094  1.00  0.00     0.029 A 
ATOM     55  C   UNL     1      -7.783 -13.401   3.004  1.00  0.00     0.049 A 
ATOM     56  H   UNL     1      -6.898 -11.559   2.491  1.00  0.00     0.167 HD
ATOM     57  C   UNL     1      -8.916 -12.777   0.878  1.00  0.00     0.074 A 
ATOM     58  C   UNL     1      -9.833 -13.046  -0.212  1.00  0.00     0.031 C 
ATOM     59  C   UNL     1      -8.717 -13.613   1.927  1.00  0.00     0.034 A 
BRANCH  46  60
ATOM     60  C   UNL     1      -4.428 -11.715   5.967  1.00  0.00     0.023 A 
ATOM     61  C   UNL     1      -4.758 -10.994   7.132  1.00  0.00     0.012 A 
ATOM     62  C   UNL     1      -3.384 -12.658   6.009  1.00  0.00     0.148 A 
ATOM     63  C   UNL     1      -4.040 -11.187   8.312  1.00  0.00     0.002 A 
ATOM     64  C   UNL     1      -2.696 -12.871   7.199  1.00  0.00     0.091 A 
ATOM     65  F   UNL     1      -3.060 -13.306   4.881  1.00  0.00    -0.205 F 
ATOM     66  C   UNL     1      -3.017 -12.131   8.348  1.00  0.00     0.022 A 
BRANCH  64  67
ATOM     67  S   UNL     1      -1.403 -14.108   7.351  1.00  0.00     0.127 S 
ATOM     68  O   UNL     1      -0.198 -13.281   7.330  1.00  0.00    -0.237 OA
ATOM     69  O   UNL     1      -1.703 -14.715   8.648  1.00  0.00    -0.237 OA
ATOM     70  O   UNL     1      -1.574 -15.002   6.213  1.00  0.00    -0.744 OA
ENDBRANCH  64  67
ENDBRANCH  46  60
BRANCH  47  71
ATOM     71  C   UNL     1      -9.252  -9.577  -2.587  1.00  0.00     0.023 A 
ATOM     72  C   UNL     1     -10.630  -9.294  -2.557  1.00  0.00     0.012 A 
ATOM     73  C   UNL     1      -8.563  -9.498  -3.814  1.00  0.00     0.148 A 
ATOM     74  C   UNL     1     -11.311  -8.949  -3.726  1.00  0.00     0.002 A 
ATOM     75  C   UNL     1      -9.234  -9.098  -4.963  1.00  0.00     0.091 A 
ATOM     76  F   UNL     1      -7.257  -9.801  -3.831  1.00  0.00    -0.205 F 
ATOM     77  C   UNL     1     -10.611  -8.836  -4.925  1.00  0.00     0.022 A 
BRANCH  75  78
ATOM     78  S   UNL     1      -8.374  -8.791  -6.511  1.00  0.00     0.127 S 
ATOM     79  O   UNL     1      -8.725  -9.976  -7.289  1.00  0.00    -0.237 OA
ATOM     80  O   UNL     1      -8.997  -7.548  -6.968  1.00  0.00    -0.237 OA
ATOM     81  O   UNL     1      -6.969  -8.655  -6.153  1.00  0.00    -0.744 OA
ENDBRANCH  75  78
ENDBRANCH  47  71
BRANCH  59  82
ATOM     82  C   UNL     1      -9.505 -14.893   1.950  1.00  0.00     0.023 A 
ATOM     83  C   UNL     1      -9.120 -15.955   1.108  1.00  0.00     0.012 A 
ATOM     84  C   UNL     1     -10.559 -15.077   2.865  1.00  0.00     0.148 A 
ATOM     85  C   UNL     1      -9.791 -17.175   1.161  1.00  0.00     0.002 A 
ATOM     86  C   UNL     1     -11.195 -16.309   2.940  1.00  0.00     0.091 A 
ATOM     87  F   UNL     1     -10.921 -14.045   3.643  1.00  0.00    -0.205 F 
ATOM     88  C   UNL     1     -10.818 -17.357   2.084  1.00  0.00     0.022 A 
BRANCH  86  89
ATOM     89  S   UNL     1     -12.465 -16.652   4.163  1.00  0.00     0.127 S 
ATOM     90  O   UNL     1     -13.685 -16.542   3.366  1.00  0.00    -0.237 OA
ATOM     91  O   UNL     1     -12.135 -18.014   4.588  1.00  0.00    -0.237 OA
ATOM     92  O   UNL     1     -12.296 -15.644   5.201  1.00  0.00    -0.744 OA
ENDBRANCH  86  89
ENDBRANCH  59  82
ENDBRANCH  33  34
ENDBRANCH  26  28
ENDBRANCH  25  26
ENDBRANCH  24  25
ENDBRANCH   1  24
TORSDOF 18
