REMARK SMILES C#CC[C@@H](C(=O)OCCOC(=O)c1ccc(-c2c3nc(c(-c4cccc(S(=O)(=O)[O-])c4F)c4ccc([nH]4)c(-c4cccc(S(=O)(=O)[O-])c4F)c4nc(c(-c5cccc(S(=O)(=O)[O-])c5F)c5ccc2[nH]5)C=C4)C=C3)cc1)[C@H]1CCS(=O)(=O)C1
REMARK SMILES IDX 9 1 8 2 7 3 5 4 6 5 4 6 3 7 2 8 1 9 76 10 77 11 82 12 78 13
REMARK SMILES IDX 79 14 80 15 81 16 10 17 11 18 12 19 13 20 14 21 75 22 15 23
REMARK SMILES IDX 74 24 16 25 17 26 18 27 68 28 19 29 73 30 67 31 69 32 20 33
REMARK SMILES IDX 72 34 66 35 65 36 21 38 53 39 33 40 52 41 34 42 37 43 51 44
REMARK SMILES IDX 70 45 35 46 36 47 50 49 71 50 38 51 22 52 23 53 31 54 24 55
REMARK SMILES IDX 26 56 32 57 25 58 27 59 28 60 29 61 30 62 54 63 55 64 63 65
REMARK SMILES IDX 56 66 58 67 64 68 57 69 59 70 60 71 61 72 62 73 39 74 40 75
REMARK SMILES IDX 48 76 41 77 43 78 49 79 42 80 44 81 45 82 46 83 47 84
REMARK H PARENT 69 37 37 48
REMARK Flexibility Score: inf
ROOT
ATOM      1  C   UNL     1      -6.808   0.905   2.620  1.00  0.00     0.275 C 
ENDROOT
BRANCH   1   2
ATOM      2  C   UNL     1      -6.880  -0.376   1.791  1.00  0.00     0.274 C 
BRANCH   2   3
ATOM      3  O   UNL     1      -5.589  -0.646   1.208  1.00  0.00    -0.462 OA
BRANCH   3   4
ATOM      4  C   UNL     1      -5.443  -0.765  -0.136  1.00  0.00     0.310 C 
ATOM      5  O   UNL     1      -6.344  -0.590  -0.944  1.00  0.00    -0.252 OA
BRANCH   4   6
ATOM      6  C   UNL     1      -4.034  -1.264  -0.519  1.00  0.00     0.115 C 
BRANCH   6   7
ATOM      7  C   UNL     1      -2.988  -0.915   0.559  1.00  0.00     0.105 C 
BRANCH   7   8
ATOM      8  C   UNL     1      -3.242  -1.831   1.745  1.00  0.00    -0.106 C 
ATOM      9  C   UNL     1      -3.459  -2.618   2.762  1.00  0.00     0.004 C 
ENDBRANCH   7   8
ENDBRANCH   6   7
BRANCH   6  10
ATOM     10  C   UNL     1      -3.503  -0.817  -1.896  1.00  0.00     0.020 C 
ATOM     11  C   UNL     1      -4.209  -1.455  -3.104  1.00  0.00     0.022 C 
ATOM     12  C   UNL     1      -3.552   0.684  -2.158  1.00  0.00     0.141 C 
ATOM     13  C   UNL     1      -3.534  -0.844  -4.331  1.00  0.00     0.137 C 
ATOM     14  S   UNL     1      -3.260   0.867  -3.911  1.00  0.00     0.150 S 
ATOM     15  O   UNL     1      -1.856   1.172  -4.104  1.00  0.00    -0.229 OA
ATOM     16  O   UNL     1      -4.326   1.649  -4.487  1.00  0.00    -0.229 OA
ENDBRANCH   6  10
ENDBRANCH   4   6
ENDBRANCH   3   4
ENDBRANCH   2   3
ENDBRANCH   1   2
BRANCH   1  17
ATOM     17  O   UNL     1      -6.794   2.034   1.731  1.00  0.00    -0.458 OA
BRANCH  17  18
ATOM     18  C   UNL     1      -5.599   2.647   1.573  1.00  0.00     0.338 C 
ATOM     19  O   UNL     1      -4.569   2.441   2.193  1.00  0.00    -0.246 OA
BRANCH  18  20
ATOM     20  C   UNL     1      -5.653   3.514   0.386  1.00  0.00     0.060 A 
ATOM     21  C   UNL     1      -5.919   2.904  -0.828  1.00  0.00     0.016 A 
ATOM     22  C   UNL     1      -5.219   4.838   0.418  1.00  0.00     0.016 A 
ATOM     23  C   UNL     1      -5.565   3.554  -2.005  1.00  0.00     0.010 A 
ATOM     24  C   UNL     1      -5.019   5.536  -0.788  1.00  0.00     0.010 A 
ATOM     25  C   UNL     1      -5.115   4.882  -2.030  1.00  0.00    -0.014 A 
BRANCH  25  26
ATOM     26  C   UNL     1      -4.694   5.515  -3.332  1.00  0.00     0.031 A 
ATOM     27  C   UNL     1      -3.400   6.298  -3.440  1.00  0.00     0.074 A 
ATOM     28  C   UNL     1      -5.409   5.334  -4.468  1.00  0.00     0.049 A 
ATOM     29  N   UNL     1      -2.988   7.090  -4.401  1.00  0.00    -0.248 NA
ATOM     30  C   UNL     1      -2.449   6.191  -2.322  1.00  0.00     0.031 C 
ATOM     31  C   UNL     1      -6.637   4.548  -4.587  1.00  0.00     0.029 A 
ATOM     32  N   UNL     1      -5.187   5.770  -5.756  1.00  0.00    -0.354 N 
ATOM     33  C   UNL     1      -1.795   7.653  -3.957  1.00  0.00     0.074 A 
ATOM     34  C   UNL     1      -1.528   7.087  -2.653  1.00  0.00     0.031 C 
ATOM     35  C   UNL     1      -6.982   4.445  -5.875  1.00  0.00     0.029 A 
ATOM     36  C   UNL     1      -6.137   5.335  -6.654  1.00  0.00     0.049 A 
ATOM     37  H   UNL     1      -4.423   6.337  -6.011  1.00  0.00     0.167 HD
ATOM     38  C   UNL     1      -1.003   8.566  -4.574  1.00  0.00     0.034 A 
ATOM     39  C   UNL     1      -6.385   5.673  -7.935  1.00  0.00     0.034 A 
ATOM     40  C   UNL     1      -1.219   9.053  -5.913  1.00  0.00     0.049 A 
ATOM     41  C   UNL     1      -5.529   6.719  -8.583  1.00  0.00     0.074 A 
ATOM     42  C   UNL     1      -0.487   9.996  -6.615  1.00  0.00     0.029 A 
ATOM     43  N   UNL     1      -2.227   8.622  -6.762  1.00  0.00    -0.354 N 
ATOM     44  N   UNL     1      -4.463   7.318  -8.116  1.00  0.00    -0.248 NA
ATOM     45  C   UNL     1      -5.927   7.157  -9.928  1.00  0.00     0.031 C 
ATOM     46  C   UNL     1      -1.075  10.161  -7.874  1.00  0.00     0.029 A 
ATOM     47  C   UNL     1      -2.144   9.287  -7.974  1.00  0.00     0.049 A 
ATOM     48  H   UNL     1      -2.903   7.942  -6.536  1.00  0.00     0.167 HD
ATOM     49  C   UNL     1      -4.054   8.196  -9.110  1.00  0.00     0.074 A 
ATOM     50  C   UNL     1      -4.968   8.025 -10.221  1.00  0.00     0.031 C 
ATOM     51  C   UNL     1      -3.029   9.082  -9.092  1.00  0.00     0.034 A 
BRANCH  38  52
ATOM     52  C   UNL     1       0.152   9.143  -3.791  1.00  0.00     0.023 A 
ATOM     53  C   UNL     1       1.307   8.380  -3.533  1.00  0.00     0.012 A 
ATOM     54  C   UNL     1       0.100  10.482  -3.349  1.00  0.00     0.148 A 
ATOM     55  C   UNL     1       2.372   8.926  -2.813  1.00  0.00     0.002 A 
ATOM     56  C   UNL     1       1.182  11.034  -2.675  1.00  0.00     0.091 A 
ATOM     57  F   UNL     1      -1.012  11.191  -3.592  1.00  0.00    -0.205 F 
ATOM     58  C   UNL     1       2.314  10.254  -2.393  1.00  0.00     0.022 A 
BRANCH  56  59
ATOM     59  S   UNL     1       1.231  12.757  -2.165  1.00  0.00     0.127 S 
ATOM     60  O   UNL     1       1.141  12.637  -0.711  1.00  0.00    -0.237 OA
ATOM     61  O   UNL     1       2.539  13.188  -2.660  1.00  0.00    -0.237 OA
ATOM     62  O   UNL     1       0.095  13.402  -2.809  1.00  0.00    -0.744 OA
ENDBRANCH  56  59
ENDBRANCH  38  52
BRANCH  39  63
ATOM     63  C   UNL     1      -7.559   5.085  -8.650  1.00  0.00     0.023 A 
ATOM     64  C   UNL     1      -7.362   4.283  -9.790  1.00  0.00     0.012 A 
ATOM     65  C   UNL     1      -8.873   5.296  -8.182  1.00  0.00     0.148 A 
ATOM     66  C   UNL     1      -8.451   3.716 -10.455  1.00  0.00     0.002 A 
ATOM     67  C   UNL     1      -9.942   4.659  -8.796  1.00  0.00     0.091 A 
ATOM     68  F   UNL     1      -9.052   6.098  -7.123  1.00  0.00    -0.205 F 
ATOM     69  C   UNL     1      -9.738   3.886  -9.947  1.00  0.00     0.022 A 
BRANCH  67  70
ATOM     70  S   UNL     1     -11.598   4.688  -8.100  1.00  0.00     0.127 S 
ATOM     71  O   UNL     1     -12.306   5.545  -9.046  1.00  0.00    -0.237 OA
ATOM     72  O   UNL     1     -11.973   3.274  -8.148  1.00  0.00    -0.237 OA
ATOM     73  O   UNL     1     -11.450   5.220  -6.751  1.00  0.00    -0.744 OA
ENDBRANCH  67  70
ENDBRANCH  39  63
BRANCH  51  74
ATOM     74  C   UNL     1      -2.809   9.908 -10.330  1.00  0.00     0.023 A 
ATOM     75  C   UNL     1      -3.709  10.941 -10.660  1.00  0.00     0.012 A 
ATOM     76  C   UNL     1      -1.678   9.691 -11.141  1.00  0.00     0.148 A 
ATOM     77  C   UNL     1      -3.506  11.721 -11.798  1.00  0.00     0.002 A 
ATOM     78  C   UNL     1      -1.453  10.505 -12.242  1.00  0.00     0.091 A 
ATOM     79  F   UNL     1      -0.846   8.689 -10.821  1.00  0.00    -0.205 F 
ATOM     80  C   UNL     1      -2.373  11.511 -12.581  1.00  0.00     0.022 A 
BRANCH  78  81
ATOM     81  S   UNL     1       0.024  10.373 -13.255  1.00  0.00     0.127 S 
ATOM     82  O   UNL     1      -0.519   9.848 -14.507  1.00  0.00    -0.237 OA
ATOM     83  O   UNL     1       0.478  11.762 -13.321  1.00  0.00    -0.237 OA
ATOM     84  O   UNL     1       0.923   9.475 -12.542  1.00  0.00    -0.744 OA
ENDBRANCH  78  81
ENDBRANCH  51  74
ENDBRANCH  25  26
ENDBRANCH  18  20
ENDBRANCH  17  18
ENDBRANCH   1  17
TORSDOF 17
