REMARK SMILES Cc1ccc(Nc2c(Cl)cc(Cl)cc2Cl)c(CC(=O)OCCOC(=O)c2ccc(-c3c4nc(c(-c5cccc(S(=O)(=O)[O-])c5F)c5ccc([nH]5)c(-c5cccc(S(=O)(=O)[O-])c5F)c5nc(c(-c6cccc(S(=O)(=O)[O-])c6F)c6ccc3[nH]6)C=C5)C=C4)cc2)c1
REMARK SMILES IDX 21 1 20 2 18 3 19 4 17 5 16 6 1 7 2 8 3 9 89 10 4 11 5 12
REMARK SMILES IDX 6 13 7 15 8 16 14 17 9 18 10 19 13 20 15 21 11 22 12 23
REMARK SMILES IDX 22 24 23 25 24 26 25 27 26 28 27 29 88 30 28 31 87 32 29 33
REMARK SMILES IDX 30 34 31 35 81 36 32 37 86 38 80 39 82 40 33 41 85 42 79 43
REMARK SMILES IDX 78 44 34 46 66 47 46 48 65 49 47 50 50 51 64 52 83 53 48 54
REMARK SMILES IDX 49 55 63 57 84 58 51 59 35 60 36 61 44 62 37 63 39 64 45 65
REMARK SMILES IDX 38 66 40 67 41 68 42 69 43 70 67 71 68 72 76 73 69 74 71 75
REMARK SMILES IDX 77 76 70 77 72 78 73 79 74 80 75 81 52 82 53 83 61 84 54 85
REMARK SMILES IDX 56 86 62 87 55 88 57 89 58 90 59 91 60 92
REMARK H PARENT 6 14 82 45 50 56
REMARK Flexibility Score: inf
ROOT
ATOM      1  C   UNL     1      -3.070   1.208  -4.730  1.00  0.00     0.274 C 
ENDROOT
BRANCH   1   2
ATOM      2  O   UNL     1      -2.105   1.541  -3.746  1.00  0.00    -0.462 OA
BRANCH   2   3
ATOM      3  C   UNL     1      -1.556   0.519  -3.046  1.00  0.00     0.310 C 
ATOM      4  O   UNL     1      -1.582  -0.636  -3.411  1.00  0.00    -0.252 OA
BRANCH   3   5
ATOM      5  C   UNL     1      -0.889   1.123  -1.829  1.00  0.00     0.160 C 
BRANCH   5   6
ATOM      6  C   UNL     1      -0.456   0.143  -0.776  1.00  0.00    -0.013 A 
ATOM      7  C   UNL     1       3.051  -0.518   0.432  1.00  0.00     0.044 C 
ATOM      8  C   UNL     1       1.579  -0.691   0.234  1.00  0.00    -0.051 A 
ATOM      9  C   UNL     1       0.935  -1.910   0.426  1.00  0.00     0.005 A 
ATOM     10  C   UNL     1       0.861   0.346  -0.335  1.00  0.00     0.009 A 
ATOM     11  C   UNL     1      -0.437  -2.039   0.167  1.00  0.00     0.026 A 
ATOM     12  C   UNL     1      -1.191  -0.980  -0.343  1.00  0.00     0.042 A 
BRANCH  12  13
ATOM     13  N   UNL     1      -2.584  -1.103  -0.545  1.00  0.00    -0.353 N 
ATOM     14  H   UNL     1      -2.997  -0.344  -1.016  1.00  0.00     0.167 HD
BRANCH  13  15
ATOM     15  C   UNL     1      -3.493  -2.142  -0.183  1.00  0.00     0.076 A 
ATOM     16  C   UNL     1      -3.726  -2.535   1.153  1.00  0.00     0.067 A 
ATOM     17  C   UNL     1      -4.361  -2.695  -1.156  1.00  0.00     0.067 A 
ATOM     18  Cl  UNL     1      -2.853  -1.869   2.492  1.00  0.00    -0.082 Cl
ATOM     19  C   UNL     1      -4.698  -3.498   1.473  1.00  0.00     0.043 A 
ATOM     20  C   UNL     1      -5.389  -3.584  -0.824  1.00  0.00     0.043 A 
ATOM     21  Cl  UNL     1      -4.138  -2.454  -2.849  1.00  0.00    -0.082 Cl
ATOM     22  C   UNL     1      -5.529  -4.007   0.485  1.00  0.00     0.044 A 
ATOM     23  Cl  UNL     1      -6.714  -5.194   0.870  1.00  0.00    -0.084 Cl
ENDBRANCH  13  15
ENDBRANCH  12  13
ENDBRANCH   5   6
ENDBRANCH   3   5
ENDBRANCH   2   3
ENDBRANCH   1   2
BRANCH   1  24
ATOM     24  C   UNL     1      -4.414   0.659  -4.196  1.00  0.00     0.275 C 
BRANCH  24  25
ATOM     25  O   UNL     1      -4.700   0.462  -2.753  1.00  0.00    -0.458 OA
BRANCH  25  26
ATOM     26  C   UNL     1      -4.739   1.171  -1.587  1.00  0.00     0.338 C 
ATOM     27  O   UNL     1      -5.090   0.638  -0.543  1.00  0.00    -0.246 OA
BRANCH  26  28
ATOM     28  C   UNL     1      -4.165   2.516  -1.572  1.00  0.00     0.060 A 
ATOM     29  C   UNL     1      -3.492   3.111  -0.490  1.00  0.00     0.016 A 
ATOM     30  C   UNL     1      -4.160   3.130  -2.787  1.00  0.00     0.016 A 
ATOM     31  C   UNL     1      -2.786   4.303  -0.714  1.00  0.00     0.010 A 
ATOM     32  C   UNL     1      -3.100   3.926  -3.068  1.00  0.00     0.010 A 
ATOM     33  C   UNL     1      -2.620   4.705  -2.033  1.00  0.00    -0.014 A 
BRANCH  33  34
ATOM     34  C   UNL     1      -2.300   6.023  -2.558  1.00  0.00     0.031 A 
ATOM     35  C   UNL     1      -0.947   6.554  -2.503  1.00  0.00     0.074 A 
ATOM     36  C   UNL     1      -3.305   6.544  -3.316  1.00  0.00     0.049 A 
ATOM     37  N   UNL     1      -0.694   7.800  -2.327  1.00  0.00    -0.248 NA
ATOM     38  C   UNL     1       0.245   5.722  -2.659  1.00  0.00     0.031 C 
ATOM     39  C   UNL     1      -3.346   7.578  -4.329  1.00  0.00     0.029 A 
ATOM     40  N   UNL     1      -4.641   6.097  -3.290  1.00  0.00    -0.354 N 
ATOM     41  C   UNL     1       0.618   7.975  -2.705  1.00  0.00     0.074 A 
ATOM     42  C   UNL     1       1.206   6.654  -2.722  1.00  0.00     0.031 C 
ATOM     43  C   UNL     1      -4.644   7.887  -4.568  1.00  0.00     0.029 A 
ATOM     44  C   UNL     1      -5.469   7.151  -3.609  1.00  0.00     0.049 A 
ATOM     45  H   UNL     1      -4.935   5.181  -3.079  1.00  0.00     0.167 HD
ATOM     46  C   UNL     1       0.990   9.162  -3.259  1.00  0.00     0.034 A 
ATOM     47  C   UNL     1      -6.239   7.617  -2.583  1.00  0.00     0.034 A 
ATOM     48  C   UNL     1      -0.206   9.983  -3.518  1.00  0.00     0.049 A 
ATOM     49  C   UNL     1      -5.776   8.989  -2.178  1.00  0.00     0.074 A 
ATOM     50  C   UNL     1      -0.964  10.156  -4.666  1.00  0.00     0.029 A 
ATOM     51  N   UNL     1      -0.985  10.448  -2.465  1.00  0.00    -0.354 N 
ATOM     52  N   UNL     1      -4.646   9.510  -2.559  1.00  0.00    -0.248 NA
ATOM     53  C   UNL     1      -6.541   9.873  -1.313  1.00  0.00     0.031 C 
ATOM     54  C   UNL     1      -2.231  10.675  -4.287  1.00  0.00     0.029 A 
ATOM     55  C   UNL     1      -2.247  10.823  -2.910  1.00  0.00     0.049 A 
ATOM     56  H   UNL     1      -0.684  10.504  -1.529  1.00  0.00     0.167 HD
ATOM     57  C   UNL     1      -4.444  10.691  -1.917  1.00  0.00     0.074 A 
ATOM     58  C   UNL     1      -5.702  10.920  -1.220  1.00  0.00     0.031 C 
ATOM     59  C   UNL     1      -3.238  11.332  -1.964  1.00  0.00     0.034 A 
BRANCH  46  60
ATOM     60  C   UNL     1       2.325   9.421  -3.929  1.00  0.00     0.023 A 
ATOM     61  C   UNL     1       2.353  10.371  -4.975  1.00  0.00     0.012 A 
ATOM     62  C   UNL     1       3.564   8.827  -3.587  1.00  0.00     0.148 A 
ATOM     63  C   UNL     1       3.510  10.671  -5.694  1.00  0.00     0.002 A 
ATOM     64  C   UNL     1       4.720   9.101  -4.331  1.00  0.00     0.091 A 
ATOM     65  F   UNL     1       3.638   8.034  -2.509  1.00  0.00    -0.205 F 
ATOM     66  C   UNL     1       4.692  10.022  -5.385  1.00  0.00     0.022 A 
BRANCH  64  67
ATOM     67  S   UNL     1       6.295   8.273  -4.048  1.00  0.00     0.127 S 
ATOM     68  O   UNL     1       6.674   7.859  -5.402  1.00  0.00    -0.237 OA
ATOM     69  O   UNL     1       7.119   9.343  -3.491  1.00  0.00    -0.237 OA
ATOM     70  O   UNL     1       6.007   7.162  -3.150  1.00  0.00    -0.744 OA
ENDBRANCH  64  67
ENDBRANCH  46  60
BRANCH  47  71
ATOM     71  C   UNL     1      -6.676   6.537  -1.606  1.00  0.00     0.023 A 
ATOM     72  C   UNL     1      -7.427   5.440  -2.111  1.00  0.00     0.012 A 
ATOM     73  C   UNL     1      -6.142   6.414  -0.307  1.00  0.00     0.148 A 
ATOM     74  C   UNL     1      -7.553   4.241  -1.395  1.00  0.00     0.002 A 
ATOM     75  C   UNL     1      -6.307   5.227   0.418  1.00  0.00     0.091 A 
ATOM     76  F   UNL     1      -5.426   7.425   0.203  1.00  0.00    -0.205 F 
ATOM     77  C   UNL     1      -6.979   4.128  -0.135  1.00  0.00     0.022 A 
BRANCH  75  78
ATOM     78  S   UNL     1      -5.684   5.106   2.104  1.00  0.00     0.127 S 
ATOM     79  O   UNL     1      -6.136   3.781   2.534  1.00  0.00    -0.237 OA
ATOM     80  O   UNL     1      -4.240   5.221   1.949  1.00  0.00    -0.237 OA
ATOM     81  O   UNL     1      -6.364   6.212   2.769  1.00  0.00    -0.744 OA
ENDBRANCH  75  78
ENDBRANCH  47  71
BRANCH  59  82
ATOM     82  C   UNL     1      -2.877  12.514  -1.103  1.00  0.00     0.023 A 
ATOM     83  C   UNL     1      -3.521  12.778   0.118  1.00  0.00     0.012 A 
ATOM     84  C   UNL     1      -1.766  13.327  -1.435  1.00  0.00     0.148 A 
ATOM     85  C   UNL     1      -3.149  13.853   0.926  1.00  0.00     0.002 A 
ATOM     86  C   UNL     1      -1.310  14.299  -0.558  1.00  0.00     0.091 A 
ATOM     87  F   UNL     1      -1.151  13.178  -2.618  1.00  0.00    -0.205 F 
ATOM     88  C   UNL     1      -2.026  14.600   0.601  1.00  0.00     0.022 A 
BRANCH  86  89
ATOM     89  S   UNL     1       0.292  15.073  -0.799  1.00  0.00     0.127 S 
ATOM     90  O   UNL     1      -0.072  16.311  -1.483  1.00  0.00    -0.237 OA
ATOM     91  O   UNL     1       0.762  15.249   0.576  1.00  0.00    -0.237 OA
ATOM     92  O   UNL     1       1.067  14.113  -1.575  1.00  0.00    -0.744 OA
ENDBRANCH  86  89
ENDBRANCH  59  82
ENDBRANCH  33  34
ENDBRANCH  26  28
ENDBRANCH  25  26
ENDBRANCH  24  25
ENDBRANCH   1  24
TORSDOF 17
