REMARK SMILES COc1cc(C)cc2c1O[C@H](C(F)(F)F)C(C(=O)OCCOC(=O)c1ccc(-c3c4nc(c(-c5cccc(S(=O)(=O)[O-])c5F)c5ccc([nH]5)c(-c5cccc(S(=O)(=O)[O-])c5F)c5nc(c(-c6cccc(S(=O)(=O)[O-])c6F)c6ccc3[nH]6)C=C5)C=C4)cc1)=C2
REMARK SMILES IDX 21 1 20 2 19 3 17 4 18 5 16 6 3 7 4 8 9 9 5 10 8 11 10 12
REMARK SMILES IDX 6 13 7 14 88 15 11 16 2 17 1 18 12 19 13 20 14 21 15 22
REMARK SMILES IDX 22 23 23 24 24 25 25 26 26 27 87 28 27 29 86 30 28 31 29 32
REMARK SMILES IDX 30 33 80 34 31 35 85 36 79 37 81 38 32 39 84 40 78 41 77 42
REMARK SMILES IDX 33 44 65 45 45 46 64 47 46 48 49 49 63 50 82 51 47 52 48 53
REMARK SMILES IDX 62 55 83 56 50 57 34 58 35 59 43 60 36 61 38 62 44 63 37 64
REMARK SMILES IDX 39 65 40 66 41 67 42 68 66 69 67 70 75 71 68 72 70 73 76 74
REMARK SMILES IDX 69 75 71 76 72 77 73 78 74 79 51 80 52 81 60 82 53 83 55 84
REMARK SMILES IDX 61 85 54 86 56 87 57 88 58 89 59 90
REMARK H PARENT 81 43 49 54
REMARK Flexibility Score: inf
ROOT
ATOM      1  C   UNL     1      -5.291   3.865  -6.915  1.00  0.00     0.275 C 
ENDROOT
BRANCH   1   2
ATOM      2  C   UNL     1      -5.040   2.367  -6.736  1.00  0.00     0.275 C 
BRANCH   2   3
ATOM      3  O   UNL     1      -4.062   2.112  -5.703  1.00  0.00    -0.459 OA
BRANCH   3   4
ATOM      4  C   UNL     1      -2.829   1.766  -6.144  1.00  0.00     0.338 C 
ATOM      5  O   UNL     1      -2.482   1.654  -7.309  1.00  0.00    -0.246 OA
BRANCH   4   6
ATOM      6  C   UNL     1      -1.911   1.553  -5.009  1.00  0.00     0.087 C 
ATOM      7  C   UNL     1       0.917   0.655  -2.055  1.00  0.00     0.161 A 
ATOM      8  C   UNL     1       2.205   1.205  -2.159  1.00  0.00     0.054 A 
ATOM      9  C   UNL     1      -0.060   0.975  -3.007  1.00  0.00     0.169 A 
ATOM     10  C   UNL     1       2.515   2.112  -3.179  1.00  0.00    -0.047 A 
ATOM     11  C   UNL     1       0.258   1.857  -4.036  1.00  0.00     0.021 A 
ATOM     12  O   UNL     1      -1.306   0.420  -2.866  1.00  0.00    -0.471 OA
ATOM     13  C   UNL     1       3.885   2.711  -3.317  1.00  0.00     0.044 C 
ATOM     14  C   UNL     1       1.530   2.439  -4.112  1.00  0.00     0.015 A 
ATOM     15  C   UNL     1      -0.714   2.143  -5.068  1.00  0.00     0.027 C 
ATOM     16  C   UNL     1      -2.293   0.594  -3.920  1.00  0.00     0.316 C 
BRANCH   7  17
ATOM     17  O   UNL     1       0.569  -0.262  -1.094  1.00  0.00    -0.493 OA
ATOM     18  C   UNL     1       1.136  -0.017   0.187  1.00  0.00     0.278 C 
ENDBRANCH   7  17
BRANCH  16  19
ATOM     19  C   UNL     1      -2.650  -0.789  -4.489  1.00  0.00     0.430 C 
ATOM     20  F   UNL     1      -2.995  -1.656  -3.506  1.00  0.00    -0.167 F 
ATOM     21  F   UNL     1      -3.718  -0.722  -5.323  1.00  0.00    -0.167 F 
ATOM     22  F   UNL     1      -1.632  -1.343  -5.183  1.00  0.00    -0.167 F 
ENDBRANCH  16  19
ENDBRANCH   4   6
ENDBRANCH   3   4
ENDBRANCH   2   3
ENDBRANCH   1   2
BRANCH   1  23
ATOM     23  O   UNL     1      -4.132   4.505  -7.475  1.00  0.00    -0.458 OA
BRANCH  23  24
ATOM     24  C   UNL     1      -3.424   5.276  -6.618  1.00  0.00     0.338 C 
ATOM     25  O   UNL     1      -3.683   5.520  -5.453  1.00  0.00    -0.246 OA
BRANCH  24  26
ATOM     26  C   UNL     1      -2.196   5.737  -7.283  1.00  0.00     0.060 A 
ATOM     27  C   UNL     1      -2.006   7.072  -7.617  1.00  0.00     0.016 A 
ATOM     28  C   UNL     1      -1.160   4.826  -7.444  1.00  0.00     0.016 A 
ATOM     29  C   UNL     1      -0.765   7.473  -8.130  1.00  0.00     0.010 A 
ATOM     30  C   UNL     1       0.113   5.255  -7.802  1.00  0.00     0.010 A 
ATOM     31  C   UNL     1       0.325   6.579  -8.194  1.00  0.00    -0.014 A 
BRANCH  31  32
ATOM     32  C   UNL     1       1.671   7.013  -8.671  1.00  0.00     0.031 A 
ATOM     33  C   UNL     1       2.381   6.281  -9.791  1.00  0.00     0.074 A 
ATOM     34  C   UNL     1       2.294   8.044  -8.062  1.00  0.00     0.049 A 
ATOM     35  N   UNL     1       3.547   6.538 -10.330  1.00  0.00    -0.248 NA
ATOM     36  C   UNL     1       1.728   5.085 -10.353  1.00  0.00     0.031 C 
ATOM     37  C   UNL     1       1.795   8.761  -6.885  1.00  0.00     0.029 A 
ATOM     38  N   UNL     1       3.478   8.678  -8.352  1.00  0.00    -0.354 N 
ATOM     39  C   UNL     1       3.784   5.514 -11.241  1.00  0.00     0.074 A 
ATOM     40  C   UNL     1       2.667   4.604 -11.155  1.00  0.00     0.031 C 
ATOM     41  C   UNL     1       2.624   9.777  -6.601  1.00  0.00     0.029 A 
ATOM     42  C   UNL     1       3.730   9.770  -7.553  1.00  0.00     0.049 A 
ATOM     43  H   UNL     1       4.089   8.379  -9.064  1.00  0.00     0.167 HD
ATOM     44  C   UNL     1       4.809   5.366 -12.113  1.00  0.00     0.034 A 
ATOM     45  C   UNL     1       4.720  10.682  -7.596  1.00  0.00     0.034 A 
ATOM     46  C   UNL     1       5.857   6.330 -12.291  1.00  0.00     0.049 A 
ATOM     47  C   UNL     1       5.776  10.574  -8.658  1.00  0.00     0.074 A 
ATOM     48  C   UNL     1       6.863   6.338 -13.242  1.00  0.00     0.029 A 
ATOM     49  N   UNL     1       6.022   7.467 -11.519  1.00  0.00    -0.354 N 
ATOM     50  N   UNL     1       5.897   9.677  -9.605  1.00  0.00    -0.248 NA
ATOM     51  C   UNL     1       6.816  11.614  -8.677  1.00  0.00     0.031 C 
ATOM     52  C   UNL     1       7.635   7.486 -13.047  1.00  0.00     0.029 A 
ATOM     53  C   UNL     1       7.109   8.190 -11.976  1.00  0.00     0.049 A 
ATOM     54  H   UNL     1       5.451   7.723 -10.759  1.00  0.00     0.167 HD
ATOM     55  C   UNL     1       7.015  10.049 -10.341  1.00  0.00     0.074 A 
ATOM     56  C   UNL     1       7.525  11.265  -9.744  1.00  0.00     0.031 C 
ATOM     57  C   UNL     1       7.576   9.424 -11.403  1.00  0.00     0.034 A 
BRANCH  44  58
ATOM     58  C   UNL     1       4.796   4.171 -13.030  1.00  0.00     0.023 A 
ATOM     59  C   UNL     1       3.910   4.160 -14.127  1.00  0.00     0.012 A 
ATOM     60  C   UNL     1       5.715   3.116 -12.870  1.00  0.00     0.148 A 
ATOM     61  C   UNL     1       3.923   3.106 -15.039  1.00  0.00     0.002 A 
ATOM     62  C   UNL     1       5.746   2.086 -13.804  1.00  0.00     0.091 A 
ATOM     63  F   UNL     1       6.543   3.145 -11.816  1.00  0.00    -0.205 F 
ATOM     64  C   UNL     1       4.846   2.076 -14.883  1.00  0.00     0.022 A 
BRANCH  62  65
ATOM     65  S   UNL     1       6.936   0.742 -13.739  1.00  0.00     0.127 S 
ATOM     66  O   UNL     1       6.064  -0.415 -13.531  1.00  0.00    -0.237 OA
ATOM     67  O   UNL     1       7.549   0.812 -15.065  1.00  0.00    -0.237 OA
ATOM     68  O   UNL     1       7.831   1.046 -12.632  1.00  0.00    -0.744 OA
ENDBRANCH  62  65
ENDBRANCH  44  58
BRANCH  45  69
ATOM     69  C   UNL     1       4.677  11.846  -6.668  1.00  0.00     0.023 A 
ATOM     70  C   UNL     1       4.251  13.094  -7.163  1.00  0.00     0.012 A 
ATOM     71  C   UNL     1       4.969  11.709  -5.298  1.00  0.00     0.148 A 
ATOM     72  C   UNL     1       4.122  14.190  -6.310  1.00  0.00     0.002 A 
ATOM     73  C   UNL     1       4.801  12.795  -4.447  1.00  0.00     0.091 A 
ATOM     74  F   UNL     1       5.373  10.511  -4.854  1.00  0.00    -0.205 F 
ATOM     75  C   UNL     1       4.386  14.038  -4.952  1.00  0.00     0.022 A 
BRANCH  73  76
ATOM     76  S   UNL     1       5.013  12.676  -2.667  1.00  0.00     0.127 S 
ATOM     77  O   UNL     1       6.148  13.568  -2.441  1.00  0.00    -0.237 OA
ATOM     78  O   UNL     1       3.728  13.177  -2.179  1.00  0.00    -0.237 OA
ATOM     79  O   UNL     1       5.259  11.267  -2.390  1.00  0.00    -0.744 OA
ENDBRANCH  73  76
ENDBRANCH  45  69
BRANCH  57  80
ATOM     80  C   UNL     1       8.810  10.028 -12.009  1.00  0.00     0.023 A 
ATOM     81  C   UNL     1      10.055   9.809 -11.389  1.00  0.00     0.012 A 
ATOM     82  C   UNL     1       8.755  10.683 -13.255  1.00  0.00     0.148 A 
ATOM     83  C   UNL     1      11.232  10.240 -11.999  1.00  0.00     0.002 A 
ATOM     84  C   UNL     1       9.934  11.080 -13.872  1.00  0.00     0.091 A 
ATOM     85  F   UNL     1       7.555  10.884 -13.817  1.00  0.00    -0.205 F 
ATOM     86  C   UNL     1      11.172  10.863 -13.244  1.00  0.00     0.022 A 
BRANCH  84  87
ATOM     87  S   UNL     1       9.969  11.819 -15.509  1.00  0.00     0.127 S 
ATOM     88  O   UNL     1      10.407  13.182 -15.211  1.00  0.00    -0.237 OA
ATOM     89  O   UNL     1      10.961  10.995 -16.199  1.00  0.00    -0.237 OA
ATOM     90  O   UNL     1       8.614  11.704 -16.033  1.00  0.00    -0.744 OA
ENDBRANCH  84  87
ENDBRANCH  57  80
ENDBRANCH  31  32
ENDBRANCH  24  26
ENDBRANCH  23  24
ENDBRANCH   1  23
TORSDOF 16
