REMARK SMILES CC1(C)Oc2ccc(NC(=O)[C@H]3CC=CC[C@@H]3C(=O)OCCOC(=O)c3ccc(-c4c5nc(c(-c6cccc(S(=O)(=O)[O-])c6F)c6ccc([nH]6)c(-c6cccc(S(=O)(=O)[O-])c6F)c6nc(c(-c7cccc(S(=O)(=O)[O-])c7F)c7ccc4[nH]7)C=C6)C=C5)cc3)cc2NC1=O
REMARK SMILES IDX 22 1 21 2 20 3 18 4 19 5 17 6 12 7 13 8 14 9 16 10 15 11
REMARK SMILES IDX 10 12 9 13 11 15 8 16 1 17 2 18 3 19 4 20 92 21 5 22 91 23
REMARK SMILES IDX 93 24 6 25 90 26 7 28 89 29 23 30 24 31 25 32 26 33 27 34
REMARK SMILES IDX 88 35 28 36 87 37 29 38 30 39 31 40 81 41 32 42 86 43 80 44
REMARK SMILES IDX 82 45 33 46 85 47 79 48 78 49 34 51 66 52 46 53 65 54 47 55
REMARK SMILES IDX 50 56 64 57 83 58 48 59 49 60 63 62 84 63 51 64 35 65 36 66
REMARK SMILES IDX 44 67 37 68 39 69 45 70 38 71 40 72 41 73 42 74 43 75 67 76
REMARK SMILES IDX 68 77 76 78 69 79 71 80 77 81 70 82 72 83 73 84 74 85 75 86
REMARK SMILES IDX 52 87 53 88 61 89 54 90 56 91 62 92 55 93 57 94 58 95 59 96
REMARK SMILES IDX 60 97
REMARK H PARENT 9 14 91 27 82 50 50 61
REMARK Flexibility Score: inf
ROOT
ATOM      1  C   UNL     1      -1.236   0.040   9.788  1.00  0.00     0.275 C 
ENDROOT
BRANCH   1   2
ATOM      2  C   UNL     1      -1.716   1.254  10.576  1.00  0.00     0.274 C 
BRANCH   2   3
ATOM      3  O   UNL     1      -1.531   2.466   9.812  1.00  0.00    -0.462 OA
BRANCH   3   4
ATOM      4  C   UNL     1      -0.492   3.269  10.197  1.00  0.00     0.310 C 
ATOM      5  O   UNL     1       0.299   2.991  11.087  1.00  0.00    -0.252 OA
BRANCH   4   6
ATOM      6  C   UNL     1      -0.498   4.569   9.400  1.00  0.00     0.116 C 
ATOM      7  C   UNL     1      -0.047   4.338   7.938  1.00  0.00     0.097 C 
ATOM      8  C   UNL     1       1.470   4.451   7.682  1.00  0.00     0.041 C 
ATOM      9  C   UNL     1       2.278   5.107   8.752  1.00  0.00    -0.030 C 
ATOM     10  C   UNL     1       0.287   5.661  10.139  1.00  0.00     0.043 C 
ATOM     11  C   UNL     1       1.752   5.664   9.846  1.00  0.00    -0.030 C 
BRANCH   7  12
ATOM     12  C   UNL     1      -0.767   5.275   6.973  1.00  0.00     0.228 C 
ATOM     13  N   UNL     1      -0.637   5.127   5.617  1.00  0.00    -0.326 N 
ATOM     14  H   UNL     1      -0.879   5.938   5.113  1.00  0.00     0.169 HD
ATOM     15  O   UNL     1      -1.401   6.253   7.379  1.00  0.00    -0.274 OA
BRANCH  13  16
ATOM     16  C   UNL     1      -0.231   4.060   4.792  1.00  0.00     0.043 A 
ATOM     17  C   UNL     1       1.152   0.290  -0.125  1.00  0.00     0.067 C 
ATOM     18  C   UNL     1       0.409   1.351   0.692  1.00  0.00     0.182 C 
ATOM     19  C   UNL     1      -1.097   1.254   0.384  1.00  0.00     0.067 C 
ATOM     20  O   UNL     1       0.599   1.006   2.071  1.00  0.00    -0.476 OA
ATOM     21  C   UNL     1       0.888   2.759   0.270  1.00  0.00     0.268 C 
ATOM     22  C   UNL     1       0.368   2.041   2.935  1.00  0.00     0.144 A 
ATOM     23  N   UNL     1       0.821   3.711   1.257  1.00  0.00    -0.319 N 
ATOM     24  O   UNL     1       1.160   3.074  -0.886  1.00  0.00    -0.270 OA
ATOM     25  C   UNL     1       0.015   1.706   4.234  1.00  0.00     0.051 A 
ATOM     26  C   UNL     1       0.464   3.381   2.565  1.00  0.00     0.086 A 
ATOM     27  H   UNL     1       1.030   4.647   1.037  1.00  0.00     0.170 HD
ATOM     28  C   UNL     1      -0.312   2.712   5.149  1.00  0.00     0.030 A 
ATOM     29  C   UNL     1       0.177   4.388   3.489  1.00  0.00     0.056 A 
ENDBRANCH  13  16
ENDBRANCH   7  12
ENDBRANCH   4   6
ENDBRANCH   3   4
ENDBRANCH   2   3
ENDBRANCH   1   2
BRANCH   1  30
ATOM     30  O   UNL     1       0.181   0.147   9.595  1.00  0.00    -0.458 OA
BRANCH  30  31
ATOM     31  C   UNL     1       0.645  -0.174   8.366  1.00  0.00     0.338 C 
ATOM     32  O   UNL     1       0.005  -0.636   7.437  1.00  0.00    -0.246 OA
BRANCH  31  33
ATOM     33  C   UNL     1       2.084   0.154   8.293  1.00  0.00     0.060 A 
ATOM     34  C   UNL     1       2.954  -0.678   7.593  1.00  0.00     0.016 A 
ATOM     35  C   UNL     1       2.555   1.350   8.829  1.00  0.00     0.016 A 
ATOM     36  C   UNL     1       4.299  -0.309   7.452  1.00  0.00     0.010 A 
ATOM     37  C   UNL     1       3.861   1.769   8.571  1.00  0.00     0.010 A 
ATOM     38  C   UNL     1       4.768   0.940   7.907  1.00  0.00    -0.014 A 
BRANCH  38  39
ATOM     39  C   UNL     1       6.183   1.366   7.675  1.00  0.00     0.031 A 
ATOM     40  C   UNL     1       7.069   1.840   8.810  1.00  0.00     0.074 A 
ATOM     41  C   UNL     1       6.685   1.366   6.420  1.00  0.00     0.049 A 
ATOM     42  N   UNL     1       8.346   2.136   8.780  1.00  0.00    -0.248 NA
ATOM     43  C   UNL     1       6.452   2.061  10.129  1.00  0.00     0.031 C 
ATOM     44  C   UNL     1       5.921   1.105   5.196  1.00  0.00     0.029 A 
ATOM     45  N   UNL     1       7.966   1.571   5.964  1.00  0.00    -0.354 N 
ATOM     46  C   UNL     1       8.659   2.621  10.046  1.00  0.00     0.074 A 
ATOM     47  C   UNL     1       7.435   2.635  10.808  1.00  0.00     0.031 C 
ATOM     48  C   UNL     1       6.760   1.072   4.147  1.00  0.00     0.029 A 
ATOM     49  C   UNL     1       8.119   1.319   4.618  1.00  0.00     0.049 A 
ATOM     50  H   UNL     1       8.704   1.869   6.544  1.00  0.00     0.167 HD
ATOM     51  C   UNL     1       9.866   2.958  10.559  1.00  0.00     0.034 A 
ATOM     52  C   UNL     1       9.229   1.237   3.857  1.00  0.00     0.034 A 
ATOM     53  C   UNL     1      11.108   2.791   9.861  1.00  0.00     0.049 A 
ATOM     54  C   UNL     1      10.579   1.436   4.490  1.00  0.00     0.074 A 
ATOM     55  C   UNL     1      12.393   2.923  10.358  1.00  0.00     0.029 A 
ATOM     56  N   UNL     1      11.221   2.425   8.533  1.00  0.00    -0.354 N 
ATOM     57  N   UNL     1      10.868   1.687   5.742  1.00  0.00    -0.248 NA
ATOM     58  C   UNL     1      11.756   1.301   3.616  1.00  0.00     0.031 C 
ATOM     59  C   UNL     1      13.287   2.614   9.330  1.00  0.00     0.029 A 
ATOM     60  C   UNL     1      12.555   2.310   8.193  1.00  0.00     0.049 A 
ATOM     61  H   UNL     1      10.465   2.270   7.921  1.00  0.00     0.167 HD
ATOM     62  C   UNL     1      12.256   1.713   5.813  1.00  0.00     0.074 A 
ATOM     63  C   UNL     1      12.753   1.440   4.482  1.00  0.00     0.031 C 
ATOM     64  C   UNL     1      13.042   1.963   6.886  1.00  0.00     0.034 A 
BRANCH  51  65
ATOM     65  C   UNL     1       9.933   3.393  11.998  1.00  0.00     0.023 A 
ATOM     66  C   UNL     1       9.833   2.413  13.005  1.00  0.00     0.012 A 
ATOM     67  C   UNL     1      10.205   4.729  12.351  1.00  0.00     0.148 A 
ATOM     68  C   UNL     1       9.980   2.756  14.347  1.00  0.00     0.002 A 
ATOM     69  C   UNL     1      10.381   5.058  13.691  1.00  0.00     0.091 A 
ATOM     70  F   UNL     1      10.304   5.641  11.375  1.00  0.00    -0.205 F 
ATOM     71  C   UNL     1      10.261   4.075  14.688  1.00  0.00     0.022 A 
BRANCH  69  72
ATOM     72  S   UNL     1      10.801   6.714  14.248  1.00  0.00     0.127 S 
ATOM     73  O   UNL     1       9.688   7.015  15.149  1.00  0.00    -0.237 OA
ATOM     74  O   UNL     1      12.083   6.493  14.916  1.00  0.00    -0.237 OA
ATOM     75  O   UNL     1      10.860   7.542  13.052  1.00  0.00    -0.744 OA
ENDBRANCH  69  72
ENDBRANCH  51  65
BRANCH  52  76
ATOM     76  C   UNL     1       9.122   0.778   2.445  1.00  0.00     0.023 A 
ATOM     77  C   UNL     1       9.454  -0.559   2.148  1.00  0.00     0.012 A 
ATOM     78  C   UNL     1       8.671   1.622   1.415  1.00  0.00     0.148 A 
ATOM     79  C   UNL     1       9.357  -1.044   0.845  1.00  0.00     0.002 A 
ATOM     80  C   UNL     1       8.549   1.123   0.122  1.00  0.00     0.091 A 
ATOM     81  F   UNL     1       8.373   2.893   1.719  1.00  0.00    -0.205 F 
ATOM     82  C   UNL     1       8.898  -0.206  -0.167  1.00  0.00     0.022 A 
BRANCH  80  83
ATOM     83  S   UNL     1       7.884   2.105  -1.228  1.00  0.00     0.127 S 
ATOM     84  O   UNL     1       9.091   2.419  -1.989  1.00  0.00    -0.237 OA
ATOM     85  O   UNL     1       6.976   1.158  -1.876  1.00  0.00    -0.237 OA
ATOM     86  O   UNL     1       7.220   3.235  -0.594  1.00  0.00    -0.744 OA
ENDBRANCH  80  83
ENDBRANCH  52  76
BRANCH  64  87
ATOM     87  C   UNL     1      14.532   1.949   6.710  1.00  0.00     0.023 A 
ATOM     88  C   UNL     1      15.168   3.105   6.219  1.00  0.00     0.012 A 
ATOM     89  C   UNL     1      15.305   0.880   7.203  1.00  0.00     0.148 A 
ATOM     90  C   UNL     1      16.558   3.202   6.229  1.00  0.00     0.002 A 
ATOM     91  C   UNL     1      16.689   0.996   7.238  1.00  0.00     0.091 A 
ATOM     92  F   UNL     1      14.669  -0.206   7.665  1.00  0.00    -0.205 F 
ATOM     93  C   UNL     1      17.316   2.156   6.750  1.00  0.00     0.022 A 
BRANCH  91  94
ATOM     94  S   UNL     1      17.752  -0.257   7.963  1.00  0.00     0.127 S 
ATOM     95  O   UNL     1      18.560  -0.664   6.814  1.00  0.00    -0.237 OA
ATOM     96  O   UNL     1      18.476   0.506   8.979  1.00  0.00    -0.237 OA
ATOM     97  O   UNL     1      16.866  -1.288   8.487  1.00  0.00    -0.744 OA
ENDBRANCH  91  94
ENDBRANCH  64  87
ENDBRANCH  38  39
ENDBRANCH  31  33
ENDBRANCH  30  31
ENDBRANCH   1  30
TORSDOF 16
