REMARK SMILES CC[C@@](C)(NC(=O)Nc1c(C)cccc1Cl)C(=O)OCCOC(=O)c1ccc(-c2c3nc(c(-c4cccc(S(=O)(=O)[O-])c4F)c4ccc([nH]4)c(-c4cccc(S(=O)(=O)[O-])c4F)c4nc(c(-c5cccc(S(=O)(=O)[O-])c5F)c5ccc2[nH]5)C=C4)C=C3)cc1
REMARK SMILES IDX 21 1 20 2 19 3 17 4 18 5 3 6 4 7 2 8 1 9 5 10 6 11 7 13 8 14
REMARK SMILES IDX 9 16 10 17 15 18 11 19 12 20 14 21 16 22 13 23 22 24 23 25
REMARK SMILES IDX 24 26 25 27 26 28 87 29 27 30 86 31 28 32 29 33 30 34 80 35
REMARK SMILES IDX 31 36 85 37 79 38 81 39 32 40 84 41 78 42 77 43 33 45 65 46
REMARK SMILES IDX 45 47 64 48 46 49 49 50 63 51 82 52 47 53 48 54 62 56 83 57
REMARK SMILES IDX 50 58 34 59 35 60 43 61 36 62 38 63 44 64 37 65 39 66 40 67
REMARK SMILES IDX 41 68 42 69 66 70 67 71 75 72 68 73 70 74 76 75 69 76 71 77
REMARK SMILES IDX 72 78 73 79 74 80 51 81 52 82 60 83 53 84 55 85 61 86 54 87
REMARK SMILES IDX 56 88 57 89 58 90 59 91
REMARK H PARENT 5 12 8 15 81 44 49 55
REMARK Flexibility Score: inf
ROOT
ATOM      1  C   UNL     1       4.897   2.433  -3.220  1.00  0.00     0.275 C 
ENDROOT
BRANCH   1   2
ATOM      2  C   UNL     1       4.044   1.443  -4.515  1.00  0.00     0.274 C 
BRANCH   2   3
ATOM      3  O   UNL     1       2.440   1.048  -4.986  1.00  0.00    -0.460 OA
BRANCH   3   4
ATOM      4  C   UNL     1       1.371   0.061  -4.699  1.00  0.00     0.331 C 
ATOM      5  O   UNL     1       1.286  -0.956  -5.401  1.00  0.00    -0.249 OA
BRANCH   4   6
ATOM      6  C   UNL     1       0.046   0.399  -3.609  1.00  0.00     0.136 C 
ATOM      7  C   UNL     1      -1.184  -0.406  -4.077  1.00  0.00     0.047 C 
BRANCH   6   8
ATOM      8  C   UNL     1      -0.224   0.462  -2.021  1.00  0.00     0.037 C 
ATOM      9  C   UNL     1      -0.012  -0.669  -1.027  1.00  0.00     0.007 C 
ENDBRANCH   6   8
BRANCH   6  10
ATOM     10  N   UNL     1      -0.032   1.773  -3.967  1.00  0.00    -0.322 N 
ATOM     11  C   UNL     1       1.029   2.542  -3.643  1.00  0.00     0.320 C 
ATOM     12  H   UNL     1      -0.819   2.144  -4.427  1.00  0.00     0.166 HD
ATOM     13  O   UNL     1       1.029   3.731  -3.913  1.00  0.00    -0.248 OA
ATOM     14  N   UNL     1       2.127   1.951  -3.025  1.00  0.00    -0.306 N 
ATOM     15  H   UNL     1       2.893   2.567  -3.084  1.00  0.00     0.171 HD
BRANCH  14  16
ATOM     16  C   UNL     1       2.561   0.700  -2.293  1.00  0.00     0.064 A 
ATOM     17  C   UNL     1       3.090  -0.642  -2.591  1.00  0.00    -0.026 A 
ATOM     18  C   UNL     1       2.811   1.119  -1.020  1.00  0.00     0.064 A 
ATOM     19  C   UNL     1       3.377  -1.483  -3.831  1.00  0.00     0.046 C 
ATOM     20  C   UNL     1       3.672  -1.443  -1.556  1.00  0.00     0.005 A 
ATOM     21  C   UNL     1       3.836   0.446  -0.273  1.00  0.00     0.023 A 
ATOM     22  Cl  UNL     1       1.949   2.792  -0.680  1.00  0.00    -0.082 Cl
ATOM     23  C   UNL     1       4.175  -0.860  -0.448  1.00  0.00     0.002 A 
ENDBRANCH  14  16
ENDBRANCH   6  10
ENDBRANCH   4   6
ENDBRANCH   3   4
ENDBRANCH   2   3
ENDBRANCH   1   2
BRANCH   1  24
ATOM     24  O   UNL     1       4.571   2.657  -1.670  1.00  0.00    -0.458 OA
BRANCH  24  25
ATOM     25  C   UNL     1       5.191   3.402  -0.599  1.00  0.00     0.338 C 
ATOM     26  O   UNL     1       6.209   4.054  -0.815  1.00  0.00    -0.246 OA
BRANCH  25  27
ATOM     27  C   UNL     1       4.508   3.459   0.963  1.00  0.00     0.060 A 
ATOM     28  C   UNL     1       3.473   2.653   1.433  1.00  0.00     0.016 A 
ATOM     29  C   UNL     1       4.824   4.347   1.999  1.00  0.00     0.016 A 
ATOM     30  C   UNL     1       2.568   2.815   2.460  1.00  0.00     0.010 A 
ATOM     31  C   UNL     1       4.043   4.402   3.256  1.00  0.00     0.010 A 
ATOM     32  C   UNL     1       2.886   3.624   3.477  1.00  0.00    -0.014 A 
BRANCH  32  33
ATOM     33  C   UNL     1       1.891   3.545   4.575  1.00  0.00     0.031 A 
ATOM     34  C   UNL     1       1.050   4.745   4.842  1.00  0.00     0.074 A 
ATOM     35  C   UNL     1       1.529   2.368   5.154  1.00  0.00     0.049 A 
ATOM     36  N   UNL     1       0.373   5.046   5.910  1.00  0.00    -0.248 NA
ATOM     37  C   UNL     1       0.951   5.731   3.752  1.00  0.00     0.031 C 
ATOM     38  C   UNL     1       1.979   1.017   4.764  1.00  0.00     0.029 A 
ATOM     39  N   UNL     1       0.697   2.114   6.223  1.00  0.00    -0.354 N 
ATOM     40  C   UNL     1      -0.104   6.327   5.688  1.00  0.00     0.074 A 
ATOM     41  C   UNL     1       0.278   6.707   4.345  1.00  0.00     0.031 C 
ATOM     42  C   UNL     1       1.499   0.111   5.629  1.00  0.00     0.029 A 
ATOM     43  C   UNL     1       0.810   0.820   6.692  1.00  0.00     0.049 A 
ATOM     44  H   UNL     1       0.088   2.783   6.612  1.00  0.00     0.167 HD
ATOM     45  C   UNL     1      -0.752   7.115   6.572  1.00  0.00     0.034 A 
ATOM     46  C   UNL     1       0.513   0.295   7.897  1.00  0.00     0.034 A 
ATOM     47  C   UNL     1      -1.143   6.663   7.879  1.00  0.00     0.049 A 
ATOM     48  C   UNL     1      -0.083   1.214   8.927  1.00  0.00     0.074 A 
ATOM     49  C   UNL     1      -1.750   7.374   8.896  1.00  0.00     0.029 A 
ATOM     50  N   UNL     1      -0.970   5.365   8.343  1.00  0.00    -0.354 N 
ATOM     51  N   UNL     1      -0.424   2.475   8.803  1.00  0.00    -0.248 NA
ATOM     52  C   UNL     1      -0.340   0.647  10.256  1.00  0.00     0.031 C 
ATOM     53  C   UNL     1      -1.920   6.512   9.984  1.00  0.00     0.029 A 
ATOM     54  C   UNL     1      -1.457   5.253   9.631  1.00  0.00     0.049 A 
ATOM     55  H   UNL     1      -0.561   4.632   7.829  1.00  0.00     0.167 HD
ATOM     56  C   UNL     1      -0.973   2.843  10.024  1.00  0.00     0.074 A 
ATOM     57  C   UNL     1      -0.933   1.663  10.867  1.00  0.00     0.031 C 
ATOM     58  C   UNL     1      -1.456   4.046  10.420  1.00  0.00     0.034 A 
BRANCH  45  59
ATOM     59  C   UNL     1      -0.985   8.546   6.184  1.00  0.00     0.023 A 
ATOM     60  C   UNL     1      -1.953   8.882   5.219  1.00  0.00     0.012 A 
ATOM     61  C   UNL     1      -0.232   9.568   6.797  1.00  0.00     0.148 A 
ATOM     62  C   UNL     1      -2.149  10.213   4.851  1.00  0.00     0.002 A 
ATOM     63  C   UNL     1      -0.467  10.893   6.462  1.00  0.00     0.091 A 
ATOM     64  F   UNL     1       0.712   9.221   7.685  1.00  0.00    -0.205 F 
ATOM     65  C   UNL     1      -1.417  11.217   5.480  1.00  0.00     0.022 A 
BRANCH  63  66
ATOM     66  S   UNL     1       0.371  12.260   7.271  1.00  0.00     0.127 S 
ATOM     67  O   UNL     1       1.187  12.794   6.181  1.00  0.00    -0.237 OA
ATOM     68  O   UNL     1      -0.750  13.112   7.668  1.00  0.00    -0.237 OA
ATOM     69  O   UNL     1       1.117  11.679   8.378  1.00  0.00    -0.744 OA
ENDBRANCH  63  66
ENDBRANCH  45  59
BRANCH  46  70
ATOM     70  C   UNL     1       0.860  -1.121   8.230  1.00  0.00     0.023 A 
ATOM     71  C   UNL     1      -0.167  -2.040   8.516  1.00  0.00     0.012 A 
ATOM     72  C   UNL     1       2.201  -1.564   8.275  1.00  0.00     0.148 A 
ATOM     73  C   UNL     1       0.132  -3.357   8.872  1.00  0.00     0.002 A 
ATOM     74  C   UNL     1       2.488  -2.893   8.570  1.00  0.00     0.091 A 
ATOM     75  F   UNL     1       3.174  -0.675   8.027  1.00  0.00    -0.205 F 
ATOM     76  C   UNL     1       1.456  -3.787   8.888  1.00  0.00     0.022 A 
BRANCH  74  77
ATOM     77  S   UNL     1       4.153  -3.566   8.485  1.00  0.00     0.127 S 
ATOM     78  O   UNL     1       4.451  -3.812   9.893  1.00  0.00    -0.237 OA
ATOM     79  O   UNL     1       3.950  -4.771   7.679  1.00  0.00    -0.237 OA
ATOM     80  O   UNL     1       4.960  -2.542   7.835  1.00  0.00    -0.744 OA
ENDBRANCH  74  77
ENDBRANCH  46  70
BRANCH  58  81
ATOM     81  C   UNL     1      -2.049   4.126  11.800  1.00  0.00     0.023 A 
ATOM     82  C   UNL     1      -1.214   4.096  12.933  1.00  0.00     0.012 A 
ATOM     83  C   UNL     1      -3.437   4.297  11.961  1.00  0.00     0.148 A 
ATOM     84  C   UNL     1      -1.759   4.199  14.212  1.00  0.00     0.002 A 
ATOM     85  C   UNL     1      -3.966   4.455  13.234  1.00  0.00     0.091 A 
ATOM     86  F   UNL     1      -4.213   4.302  10.867  1.00  0.00    -0.205 F 
ATOM     87  C   UNL     1      -3.131   4.391  14.361  1.00  0.00     0.022 A 
BRANCH  85  88
ATOM     88  S   UNL     1      -5.703   4.808  13.514  1.00  0.00     0.127 S 
ATOM     89  O   UNL     1      -6.175   3.547  14.083  1.00  0.00    -0.237 OA
ATOM     90  O   UNL     1      -5.643   5.922  14.462  1.00  0.00    -0.237 OA
ATOM     91  O   UNL     1      -6.259   5.152  12.213  1.00  0.00    -0.744 OA
ENDBRANCH  85  88
ENDBRANCH  58  81
ENDBRANCH  32  33
ENDBRANCH  25  27
ENDBRANCH  24  25
ENDBRANCH   1  24
TORSDOF 17
