REMARK SMILES C[NH+]1CCC([N@@H+](CC(=O)OCCOC(=O)c2ccc(-c3c4nc(c(-c5cccc(S(=O)(=O)[O-])c5F)c5ccc([nH]5)c(-c5cccc(S(=O)(=O)[O-])c5F)c5nc(c(-c6cccc(S(=O)(=O)[O-])c6F)c6ccc3[nH]6)C=C5)C=C4)cc2)C(C)(C)C)CC1
REMARK SMILES IDX 12 1 11 2 10 3 8 4 9 5 7 6 6 7 5 9 1 10 2 11 3 12 84 13 4 15
REMARK SMILES IDX 83 16 79 17 80 18 81 19 82 20 13 21 14 22 15 23 16 24 17 25
REMARK SMILES IDX 78 26 18 27 77 28 19 29 20 30 21 31 71 32 22 33 76 34 70 35
REMARK SMILES IDX 72 36 23 37 75 38 69 39 68 40 24 42 56 43 36 44 55 45 37 46
REMARK SMILES IDX 40 47 54 48 73 49 38 50 39 51 53 53 74 54 41 55 25 56 26 57
REMARK SMILES IDX 34 58 27 59 29 60 35 61 28 62 30 63 31 64 32 65 33 66 57 67
REMARK SMILES IDX 58 68 66 69 59 70 61 71 67 72 60 73 62 74 63 75 64 76 65 77
REMARK SMILES IDX 42 78 43 79 51 80 44 81 46 82 52 83 45 84 47 85 48 86 49 87
REMARK SMILES IDX 50 88
REMARK H PARENT 6 8 2 14 72 41 40 52
REMARK Flexibility Score: inf
ROOT
ATOM      1  C   UNL     1       2.061   4.832   1.520  1.00  0.00     0.275 C 
ENDROOT
BRANCH   1   2
ATOM      2  C   UNL     1       2.086   4.153   0.160  1.00  0.00     0.274 C 
BRANCH   2   3
ATOM      3  O   UNL     1       2.415   2.752   0.310  1.00  0.00    -0.458 OA
BRANCH   3   4
ATOM      4  C   UNL     1       3.304   2.241  -0.577  1.00  0.00     0.361 C 
ATOM      5  O   UNL     1       3.974   2.933  -1.341  1.00  0.00    -0.245 OA
BRANCH   4   6
ATOM      6  C   UNL     1       3.400   0.714  -0.619  1.00  0.00     0.387 C 
BRANCH   6   7
ATOM      7  N   UNL     1       2.481  -0.086   0.220  1.00  0.00    -0.319 N 
ATOM      8  H   UNL     1       2.665  -1.086   0.304  1.00  0.00     0.349 HD
BRANCH   7   9
ATOM      9  C   UNL     1       1.122  -0.273  -0.340  1.00  0.00     0.196 C 
ATOM     10  C   UNL     1      -3.203  -0.601  -0.437  1.00  0.00     0.332 C 
ATOM     11  N   UNL     1      -1.794  -0.468  -0.091  1.00  0.00    -0.337 N 
ATOM     12  C   UNL     1      -1.217   0.737  -0.681  1.00  0.00     0.268 C 
ATOM     13  C   UNL     1      -1.022  -1.642  -0.506  1.00  0.00     0.268 C 
ATOM     14  H   UNL     1      -1.744  -0.395   0.925  1.00  0.00     0.347 HD
ATOM     15  C   UNL     1       0.212   0.960  -0.191  1.00  0.00     0.126 C 
ATOM     16  C   UNL     1       0.383  -1.554   0.083  1.00  0.00     0.126 C 
ENDBRANCH   7   9
BRANCH   7  17
ATOM     17  C   UNL     1       2.876  -0.460   1.602  1.00  0.00     0.090 C 
ATOM     18  C   UNL     1       1.913   0.111   2.662  1.00  0.00     0.078 C 
ATOM     19  C   UNL     1       2.977  -1.998   1.754  1.00  0.00     0.078 C 
ATOM     20  C   UNL     1       4.284   0.043   2.003  1.00  0.00     0.078 C 
ENDBRANCH   7  17
ENDBRANCH   6   7
ENDBRANCH   4   6
ENDBRANCH   3   4
ENDBRANCH   2   3
ENDBRANCH   1   2
BRANCH   1  21
ATOM     21  O   UNL     1       3.393   4.788   2.042  1.00  0.00    -0.458 OA
BRANCH  21  22
ATOM     22  C   UNL     1       3.579   3.910   3.046  1.00  0.00     0.338 C 
ATOM     23  O   UNL     1       2.728   3.321   3.699  1.00  0.00    -0.246 OA
BRANCH  22  24
ATOM     24  C   UNL     1       5.014   3.712   3.241  1.00  0.00     0.060 A 
ATOM     25  C   UNL     1       5.790   3.162   2.215  1.00  0.00     0.016 A 
ATOM     26  C   UNL     1       5.554   3.963   4.498  1.00  0.00     0.016 A 
ATOM     27  C   UNL     1       7.095   2.767   2.482  1.00  0.00     0.010 A 
ATOM     28  C   UNL     1       6.892   3.668   4.728  1.00  0.00     0.010 A 
ATOM     29  C   UNL     1       7.663   3.043   3.733  1.00  0.00    -0.014 A 
BRANCH  29  30
ATOM     30  C   UNL     1       9.093   2.772   3.998  1.00  0.00     0.031 A 
ATOM     31  C   UNL     1       9.498   1.843   5.102  1.00  0.00     0.074 A 
ATOM     32  C   UNL     1      10.008   3.480   3.311  1.00  0.00     0.049 A 
ATOM     33  N   UNL     1      10.679   1.658   5.629  1.00  0.00    -0.248 NA
ATOM     34  C   UNL     1       8.432   1.031   5.713  1.00  0.00     0.031 C 
ATOM     35  C   UNL     1       9.701   4.437   2.245  1.00  0.00     0.029 A 
ATOM     36  N   UNL     1      11.370   3.546   3.437  1.00  0.00    -0.354 N 
ATOM     37  C   UNL     1      10.493   0.759   6.672  1.00  0.00     0.074 A 
ATOM     38  C   UNL     1       9.085   0.425   6.696  1.00  0.00     0.031 C 
ATOM     39  C   UNL     1      10.835   5.013   1.830  1.00  0.00     0.029 A 
ATOM     40  C   UNL     1      11.937   4.514   2.642  1.00  0.00     0.049 A 
ATOM     41  H   UNL     1      11.890   2.962   4.035  1.00  0.00     0.167 HD
ATOM     42  C   UNL     1      11.420   0.259   7.524  1.00  0.00     0.034 A 
ATOM     43  C   UNL     1      13.195   4.990   2.605  1.00  0.00     0.034 A 
ATOM     44  C   UNL     1      12.822   0.579   7.451  1.00  0.00     0.049 A 
ATOM     45  C   UNL     1      14.211   4.388   3.525  1.00  0.00     0.074 A 
ATOM     46  C   UNL     1      13.862   0.083   8.216  1.00  0.00     0.029 A 
ATOM     47  N   UNL     1      13.379   1.483   6.557  1.00  0.00    -0.354 N 
ATOM     48  N   UNL     1      14.041   3.464   4.441  1.00  0.00    -0.248 NA
ATOM     49  C   UNL     1      15.591   4.867   3.395  1.00  0.00     0.031 C 
ATOM     50  C   UNL     1      15.047   0.694   7.789  1.00  0.00     0.029 A 
ATOM     51  C   UNL     1      14.748   1.564   6.752  1.00  0.00     0.049 A 
ATOM     52  H   UNL     1      12.875   1.993   5.883  1.00  0.00     0.167 HD
ATOM     53  C   UNL     1      15.293   3.242   4.994  1.00  0.00     0.074 A 
ATOM     54  C   UNL     1      16.218   4.108   4.286  1.00  0.00     0.031 C 
ATOM     55  C   UNL     1      15.645   2.414   6.009  1.00  0.00     0.034 A 
BRANCH  42  56
ATOM     56  C   UNL     1      10.950  -0.708   8.581  1.00  0.00     0.023 A 
ATOM     57  C   UNL     1      10.604  -2.024   8.215  1.00  0.00     0.012 A 
ATOM     58  C   UNL     1      10.884  -0.331   9.937  1.00  0.00     0.148 A 
ATOM     59  C   UNL     1      10.171  -2.940   9.175  1.00  0.00     0.002 A 
ATOM     60  C   UNL     1      10.483  -1.260  10.893  1.00  0.00     0.091 A 
ATOM     61  F   UNL     1      11.186   0.932  10.269  1.00  0.00    -0.205 F 
ATOM     62  C   UNL     1      10.119  -2.561  10.513  1.00  0.00     0.022 A 
BRANCH  60  63
ATOM     63  S   UNL     1      10.454  -0.868  12.648  1.00  0.00     0.127 S 
ATOM     64  O   UNL     1       9.047  -0.533  12.854  1.00  0.00    -0.237 OA
ATOM     65  O   UNL     1      10.874  -2.129  13.262  1.00  0.00    -0.237 OA
ATOM     66  O   UNL     1      11.402   0.225  12.818  1.00  0.00    -0.744 OA
ENDBRANCH  60  63
ENDBRANCH  42  56
BRANCH  43  67
ATOM     67  C   UNL     1      13.525   6.060   1.624  1.00  0.00     0.023 A 
ATOM     68  C   UNL     1      14.248   5.728   0.464  1.00  0.00     0.012 A 
ATOM     69  C   UNL     1      12.992   7.359   1.758  1.00  0.00     0.148 A 
ATOM     70  C   UNL     1      14.432   6.670  -0.548  1.00  0.00     0.002 A 
ATOM     71  C   UNL     1      13.127   8.272   0.719  1.00  0.00     0.091 A 
ATOM     72  F   UNL     1      12.316   7.656   2.877  1.00  0.00    -0.205 F 
ATOM     73  C   UNL     1      13.856   7.933  -0.430  1.00  0.00     0.022 A 
BRANCH  71  74
ATOM     74  S   UNL     1      12.268   9.852   0.716  1.00  0.00     0.127 S 
ATOM     75  O   UNL     1      13.357  10.785   0.991  1.00  0.00    -0.237 OA
ATOM     76  O   UNL     1      11.737   9.909  -0.647  1.00  0.00    -0.237 OA
ATOM     77  O   UNL     1      11.246   9.742   1.748  1.00  0.00    -0.744 OA
ENDBRANCH  71  74
ENDBRANCH  43  67
BRANCH  55  78
ATOM     78  C   UNL     1      17.093   2.417   6.414  1.00  0.00     0.023 A 
ATOM     79  C   UNL     1      17.592   3.490   7.178  1.00  0.00     0.012 A 
ATOM     80  C   UNL     1      17.939   1.342   6.088  1.00  0.00     0.148 A 
ATOM     81  C   UNL     1      18.923   3.505   7.590  1.00  0.00     0.002 A 
ATOM     82  C   UNL     1      19.255   1.345   6.535  1.00  0.00     0.091 A 
ATOM     83  F   UNL     1      17.449   0.344   5.337  1.00  0.00    -0.205 F 
ATOM     84  C   UNL     1      19.751   2.428   7.278  1.00  0.00     0.022 A 
BRANCH  82  85
ATOM     85  S   UNL     1      20.361  -0.039   6.242  1.00  0.00     0.127 S 
ATOM     86  O   UNL     1      21.164   0.451   5.124  1.00  0.00    -0.237 OA
ATOM     87  O   UNL     1      21.082  -0.141   7.512  1.00  0.00    -0.237 OA
ATOM     88  O   UNL     1      19.500  -1.178   5.950  1.00  0.00    -0.744 OA
ENDBRANCH  82  85
ENDBRANCH  55  78
ENDBRANCH  29  30
ENDBRANCH  22  24
ENDBRANCH  21  22
ENDBRANCH   1  21
TORSDOF 17
