REMARK SMILES O=C(Cc1cccc(NS(=O)(=O)c2cccc(Cl)c2)c1)OCCOC(=O)c1ccc(-c2c3nc(c(-c4cccc(S(=O)(=O)[O-])c4F)c4ccc([nH]4)c(-c4cccc(S(=O)(=O)[O-])c4F)c4nc(c(-c5cccc(S(=O)(=O)[O-])c5F)c5ccc2[nH]5)C=C4)C=C3)cc1
REMARK SMILES IDX 22 1 21 2 2 3 1 4 3 5 4 6 5 7 20 8 6 9 8 10 7 11 9 12 10 14
REMARK SMILES IDX 11 15 12 16 13 17 14 18 19 19 15 20 17 21 16 22 18 23 23 24
REMARK SMILES IDX 24 25 25 26 26 27 27 28 28 29 89 30 29 31 88 32 30 33 31 34
REMARK SMILES IDX 32 35 82 36 33 37 87 38 81 39 83 40 34 41 86 42 80 43 79 44
REMARK SMILES IDX 35 46 67 47 47 48 66 49 48 50 51 51 65 52 84 53 49 54 50 55
REMARK SMILES IDX 64 57 85 58 52 59 36 60 37 61 45 62 38 63 40 64 46 65 39 66
REMARK SMILES IDX 41 67 42 68 43 69 44 70 68 71 69 72 77 73 70 74 72 75 78 76
REMARK SMILES IDX 71 77 73 78 74 79 75 80 76 81 53 82 54 83 62 84 55 85 57 86
REMARK SMILES IDX 63 87 56 88 58 89 59 90 60 91 61 92
REMARK H PARENT 9 13 83 45 51 56
REMARK Flexibility Score: inf
ROOT
ATOM      1  C   UNL     1       4.147  -1.502  -0.457  1.00  0.00     0.274 C 
ENDROOT
BRANCH   1   2
ATOM      2  O   UNL     1       2.850  -1.151   0.059  1.00  0.00    -0.462 OA
BRANCH   2   3
ATOM      3  C   UNL     1       2.768  -0.104   0.929  1.00  0.00     0.310 C 
ATOM      4  O   UNL     1       2.221  -0.226   2.020  1.00  0.00    -0.252 OA
BRANCH   3   5
ATOM      5  C   UNL     1       3.226   1.227   0.378  1.00  0.00     0.158 C 
BRANCH   5   6
ATOM      6  C   UNL     1       4.258   1.979   1.181  1.00  0.00    -0.035 A 
ATOM      7  C   UNL     1       5.468   1.394   1.575  1.00  0.00     0.004 A 
ATOM      8  C   UNL     1       4.072   3.348   1.420  1.00  0.00     0.031 A 
ATOM      9  C   UNL     1       6.502   2.177   2.090  1.00  0.00     0.002 A 
ATOM     10  C   UNL     1       5.071   4.111   2.032  1.00  0.00     0.049 A 
ATOM     11  C   UNL     1       6.319   3.546   2.276  1.00  0.00     0.027 A 
BRANCH  10  12
ATOM     12  N   UNL     1       4.721   5.426   2.426  1.00  0.00    -0.280 N 
ATOM     13  H   UNL     1       4.095   5.927   1.855  1.00  0.00     0.180 HD
BRANCH  12  14
ATOM     14  S   UNL     1       5.304   6.184   3.807  1.00  0.00     0.261 S 
ATOM     15  O   UNL     1       6.614   6.721   3.499  1.00  0.00    -0.201 OA
ATOM     16  O   UNL     1       4.217   6.980   4.324  1.00  0.00    -0.201 OA
BRANCH  14  17
ATOM     17  C   UNL     1       5.591   4.921   5.042  1.00  0.00     0.089 A 
ATOM     18  C   UNL     1       4.795   3.776   5.138  1.00  0.00     0.022 A 
ATOM     19  C   UNL     1       6.742   5.056   5.830  1.00  0.00     0.042 A 
ATOM     20  C   UNL     1       5.201   2.729   5.968  1.00  0.00     0.003 A 
ATOM     21  C   UNL     1       7.119   4.021   6.675  1.00  0.00     0.042 A 
ATOM     22  C   UNL     1       6.365   2.849   6.732  1.00  0.00     0.020 A 
ATOM     23  Cl  UNL     1       8.541   4.171   7.632  1.00  0.00    -0.084 Cl
ENDBRANCH  14  17
ENDBRANCH  12  14
ENDBRANCH  10  12
ENDBRANCH   5   6
ENDBRANCH   3   5
ENDBRANCH   2   3
ENDBRANCH   1   2
BRANCH   1  24
ATOM     24  C   UNL     1       4.189  -1.562  -1.984  1.00  0.00     0.275 C 
BRANCH  24  25
ATOM     25  O   UNL     1       3.840  -0.291  -2.555  1.00  0.00    -0.458 OA
BRANCH  25  26
ATOM     26  C   UNL     1       2.530  -0.160  -2.893  1.00  0.00     0.338 C 
ATOM     27  O   UNL     1       1.688  -1.036  -2.876  1.00  0.00    -0.246 OA
BRANCH  26  28
ATOM     28  C   UNL     1       2.216   1.271  -3.116  1.00  0.00     0.060 A 
ATOM     29  C   UNL     1       0.981   1.741  -2.652  1.00  0.00     0.016 A 
ATOM     30  C   UNL     1       3.107   2.144  -3.748  1.00  0.00     0.016 A 
ATOM     31  C   UNL     1       0.624   3.077  -2.838  1.00  0.00     0.010 A 
ATOM     32  C   UNL     1       2.744   3.481  -3.941  1.00  0.00     0.010 A 
ATOM     33  C   UNL     1       1.493   3.950  -3.504  1.00  0.00    -0.014 A 
BRANCH  33  34
ATOM     34  C   UNL     1       1.060   5.331  -3.825  1.00  0.00     0.031 A 
ATOM     35  C   UNL     1       0.471   5.623  -5.178  1.00  0.00     0.074 A 
ATOM     36  C   UNL     1       1.216   6.325  -2.932  1.00  0.00     0.049 A 
ATOM     37  N   UNL     1       0.026   6.756  -5.656  1.00  0.00    -0.248 NA
ATOM     38  C   UNL     1       0.372   4.492  -6.115  1.00  0.00     0.031 C 
ATOM     39  C   UNL     1       1.800   6.181  -1.598  1.00  0.00     0.029 A 
ATOM     40  N   UNL     1       0.924   7.662  -3.030  1.00  0.00    -0.354 N 
ATOM     41  C   UNL     1      -0.392   6.482  -6.951  1.00  0.00     0.074 A 
ATOM     42  C   UNL     1      -0.138   5.077  -7.191  1.00  0.00     0.031 C 
ATOM     43  C   UNL     1       1.859   7.393  -1.017  1.00  0.00     0.029 A 
ATOM     44  C   UNL     1       1.325   8.395  -1.938  1.00  0.00     0.049 A 
ATOM     45  H   UNL     1       0.471   8.059  -3.808  1.00  0.00     0.167 HD
ATOM     46  C   UNL     1      -0.956   7.318  -7.854  1.00  0.00     0.034 A 
ATOM     47  C   UNL     1       1.283   9.724  -1.716  1.00  0.00     0.034 A 
ATOM     48  C   UNL     1      -1.224   8.711  -7.619  1.00  0.00     0.049 A 
ATOM     49  C   UNL     1       0.684  10.636  -2.756  1.00  0.00     0.074 A 
ATOM     50  C   UNL     1      -1.867   9.613  -8.449  1.00  0.00     0.029 A 
ATOM     51  N   UNL     1      -0.844   9.410  -6.487  1.00  0.00    -0.354 N 
ATOM     52  N   UNL     1       0.122  10.329  -3.899  1.00  0.00    -0.248 NA
ATOM     53  C   UNL     1       0.686  12.077  -2.457  1.00  0.00     0.031 C 
ATOM     54  C   UNL     1      -1.854  10.866  -7.827  1.00  0.00     0.029 A 
ATOM     55  C   UNL     1      -1.215  10.739  -6.605  1.00  0.00     0.049 A 
ATOM     56  H   UNL     1      -0.378   9.021  -5.712  1.00  0.00     0.167 HD
ATOM     57  C   UNL     1      -0.319  11.533  -4.441  1.00  0.00     0.074 A 
ATOM     58  C   UNL     1       0.016  12.570  -3.490  1.00  0.00     0.031 C 
ATOM     59  C   UNL     1      -0.930  11.759  -5.630  1.00  0.00     0.034 A 
BRANCH  46  60
ATOM     60  C   UNL     1      -1.372   6.741  -9.178  1.00  0.00     0.023 A 
ATOM     61  C   UNL     1      -2.555   5.980  -9.254  1.00  0.00     0.012 A 
ATOM     62  C   UNL     1      -0.648   7.021 -10.352  1.00  0.00     0.148 A 
ATOM     63  C   UNL     1      -3.006   5.494 -10.479  1.00  0.00     0.002 A 
ATOM     64  C   UNL     1      -1.121   6.560 -11.574  1.00  0.00     0.091 A 
ATOM     65  F   UNL     1       0.487   7.727 -10.249  1.00  0.00    -0.205 F 
ATOM     66  C   UNL     1      -2.296   5.793 -11.639  1.00  0.00     0.022 A 
BRANCH  64  67
ATOM     67  S   UNL     1      -0.314   6.942 -13.133  1.00  0.00     0.127 S 
ATOM     68  O   UNL     1       0.228   5.637 -13.510  1.00  0.00    -0.237 OA
ATOM     69  O   UNL     1      -1.433   7.399 -13.956  1.00  0.00    -0.237 OA
ATOM     70  O   UNL     1       0.678   7.965 -12.831  1.00  0.00    -0.744 OA
ENDBRANCH  64  67
ENDBRANCH  46  60
BRANCH  47  71
ATOM     71  C   UNL     1       1.811  10.290  -0.445  1.00  0.00     0.023 A 
ATOM     72  C   UNL     1       0.919  10.832   0.500  1.00  0.00     0.012 A 
ATOM     73  C   UNL     1       3.192  10.317  -0.181  1.00  0.00     0.148 A 
ATOM     74  C   UNL     1       1.398  11.418   1.673  1.00  0.00     0.002 A 
ATOM     75  C   UNL     1       3.659  10.864   1.008  1.00  0.00     0.091 A 
ATOM     76  F   UNL     1       4.028   9.823  -1.106  1.00  0.00    -0.205 F 
ATOM     77  C   UNL     1       2.767  11.425   1.932  1.00  0.00     0.022 A 
BRANCH  75  78
ATOM     78  S   UNL     1       5.403  10.812   1.431  1.00  0.00     0.127 S 
ATOM     79  O   UNL     1       5.868  12.107   0.943  1.00  0.00    -0.237 OA
ATOM     80  O   UNL     1       5.370  10.681   2.888  1.00  0.00    -0.237 OA
ATOM     81  O   UNL     1       5.910   9.638   0.732  1.00  0.00    -0.744 OA
ENDBRANCH  75  78
ENDBRANCH  47  71
BRANCH  59  82
ATOM     82  C   UNL     1      -1.296  13.179  -5.975  1.00  0.00     0.023 A 
ATOM     83  C   UNL     1      -0.284  14.086  -6.346  1.00  0.00     0.012 A 
ATOM     84  C   UNL     1      -2.643  13.593  -6.012  1.00  0.00     0.148 A 
ATOM     85  C   UNL     1      -0.603  15.390  -6.724  1.00  0.00     0.002 A 
ATOM     86  C   UNL     1      -2.957  14.881  -6.433  1.00  0.00     0.091 A 
ATOM     87  F   UNL     1      -3.591  12.722  -5.637  1.00  0.00    -0.205 F 
ATOM     88  C   UNL     1      -1.938  15.783  -6.779  1.00  0.00     0.022 A 
BRANCH  86  89
ATOM     89  S   UNL     1      -4.653  15.442  -6.624  1.00  0.00     0.127 S 
ATOM     90  O   UNL     1      -4.814  16.309  -5.458  1.00  0.00    -0.237 OA
ATOM     91  O   UNL     1      -4.608  16.147  -7.906  1.00  0.00    -0.237 OA
ATOM     92  O   UNL     1      -5.473  14.238  -6.629  1.00  0.00    -0.744 OA
ENDBRANCH  86  89
ENDBRANCH  59  82
ENDBRANCH  33  34
ENDBRANCH  26  28
ENDBRANCH  25  26
ENDBRANCH  24  25
ENDBRANCH   1  24
TORSDOF 18
