REMARK SMILES O=C(OCCOC(=O)[C@H]1CCCN1S(=O)(=O)c1cccc([N+](=O)[O-])c1)c1ccc(-c2c3nc(c(-c4cccc(S(=O)(=O)[O-])c4F)c4ccc([nH]4)c(-c4cccc(S(=O)(=O)[O-])c4F)c4nc(c(-c5cccc(S(=O)(=O)[O-])c5F)c5ccc2[nH]5)C=C4)C=C3)cc1
REMARK SMILES IDX 4 1 3 2 2 3 1 4 26 5 27 6 88 7 28 8 87 9 29 10 30 11 31 12
REMARK SMILES IDX 81 13 32 14 86 15 80 16 82 17 33 18 85 19 79 20 78 21 34 23
REMARK SMILES IDX 66 24 46 25 65 26 47 27 50 28 64 29 83 30 48 31 49 32 63 34
REMARK SMILES IDX 84 35 51 36 35 37 36 38 44 39 37 40 39 41 45 42 38 43 40 44
REMARK SMILES IDX 41 45 42 46 43 47 67 48 68 49 76 50 69 51 71 52 77 53 70 54
REMARK SMILES IDX 72 55 73 56 74 57 75 58 52 59 53 60 61 61 54 62 56 63 62 64
REMARK SMILES IDX 55 65 57 66 58 67 59 68 60 69 5 70 6 71 7 72 8 73 9 74 10 75
REMARK SMILES IDX 13 76 11 77 12 78 14 79 15 80 16 81 17 82 18 83 25 84 19 85
REMARK SMILES IDX 21 86 20 87 22 88 23 89 24 90
REMARK H PARENT 82 22 50 33
REMARK Flexibility Score: inf
ROOT
ATOM      1  C   UNL     1      -1.849   0.591   3.080  1.00  0.00     0.275 C 
ENDROOT
BRANCH   1   2
ATOM      2  O   UNL     1      -1.595  -0.120   1.861  1.00  0.00    -0.458 OA
BRANCH   2   3
ATOM      3  C   UNL     1      -0.674   0.123   0.902  1.00  0.00     0.338 C 
ATOM      4  O   UNL     1      -0.609  -0.649  -0.053  1.00  0.00    -0.246 OA
BRANCH   3   5
ATOM      5  C   UNL     1       0.357   1.209   0.997  1.00  0.00     0.060 A 
ATOM      6  C   UNL     1       0.277   2.401   1.732  1.00  0.00     0.016 A 
ATOM      7  C   UNL     1       1.541   0.962   0.294  1.00  0.00     0.016 A 
ATOM      8  C   UNL     1       1.377   3.266   1.854  1.00  0.00     0.010 A 
ATOM      9  C   UNL     1       2.625   1.826   0.411  1.00  0.00     0.010 A 
ATOM     10  C   UNL     1       2.564   2.976   1.194  1.00  0.00    -0.014 A 
BRANCH  10  11
ATOM     11  C   UNL     1       3.728   3.890   1.170  1.00  0.00     0.031 A 
ATOM     12  C   UNL     1       4.071   4.563  -0.135  1.00  0.00     0.074 A 
ATOM     13  C   UNL     1       4.550   3.972   2.233  1.00  0.00     0.049 A 
ATOM     14  N   UNL     1       5.119   5.270  -0.456  1.00  0.00    -0.248 NA
ATOM     15  C   UNL     1       3.139   4.330  -1.253  1.00  0.00     0.031 C 
ATOM     16  C   UNL     1       4.403   3.222   3.483  1.00  0.00     0.029 A 
ATOM     17  N   UNL     1       5.697   4.698   2.416  1.00  0.00    -0.354 N 
ATOM     18  C   UNL     1       5.020   5.482  -1.829  1.00  0.00     0.074 A 
ATOM     19  C   UNL     1       3.834   4.792  -2.279  1.00  0.00     0.031 C 
ATOM     20  C   UNL     1       5.416   3.541   4.309  1.00  0.00     0.029 A 
ATOM     21  C   UNL     1       6.277   4.519   3.652  1.00  0.00     0.049 A 
ATOM     22  H   UNL     1       6.072   5.293   1.728  1.00  0.00     0.167 HD
ATOM     23  C   UNL     1       5.820   6.226  -2.632  1.00  0.00     0.034 A 
ATOM     24  C   UNL     1       7.361   5.114   4.187  1.00  0.00     0.034 A 
ATOM     25  C   UNL     1       6.913   7.006  -2.115  1.00  0.00     0.049 A 
ATOM     26  C   UNL     1       8.062   6.163   3.359  1.00  0.00     0.074 A 
ATOM     27  C   UNL     1       7.714   7.922  -2.769  1.00  0.00     0.029 A 
ATOM     28  N   UNL     1       7.325   6.984  -0.790  1.00  0.00    -0.354 N 
ATOM     29  N   UNL     1       7.867   6.484   2.101  1.00  0.00    -0.248 NA
ATOM     30  C   UNL     1       9.077   6.982   4.035  1.00  0.00     0.031 C 
ATOM     31  C   UNL     1       8.586   8.483  -1.827  1.00  0.00     0.029 A 
ATOM     32  C   UNL     1       8.320   7.920  -0.588  1.00  0.00     0.049 A 
ATOM     33  H   UNL     1       6.961   6.389  -0.096  1.00  0.00     0.167 HD
ATOM     34  C   UNL     1       8.706   7.561   1.844  1.00  0.00     0.074 A 
ATOM     35  C   UNL     1       9.384   7.861   3.091  1.00  0.00     0.031 C 
ATOM     36  C   UNL     1       8.920   8.230   0.684  1.00  0.00     0.034 A 
BRANCH  23  37
ATOM     37  C   UNL     1       5.471   6.318  -4.101  1.00  0.00     0.023 A 
ATOM     38  C   UNL     1       4.247   6.906  -4.489  1.00  0.00     0.012 A 
ATOM     39  C   UNL     1       6.354   5.866  -5.103  1.00  0.00     0.148 A 
ATOM     40  C   UNL     1       3.871   6.971  -5.830  1.00  0.00     0.002 A 
ATOM     41  C   UNL     1       6.002   5.996  -6.445  1.00  0.00     0.091 A 
ATOM     42  F   UNL     1       7.517   5.312  -4.733  1.00  0.00    -0.205 F 
ATOM     43  C   UNL     1       4.752   6.523  -6.807  1.00  0.00     0.022 A 
BRANCH  41  44
ATOM     44  S   UNL     1       7.109   5.574  -7.797  1.00  0.00     0.127 S 
ATOM     45  O   UNL     1       6.419   4.440  -8.409  1.00  0.00    -0.237 OA
ATOM     46  O   UNL     1       7.090   6.799  -8.598  1.00  0.00    -0.237 OA
ATOM     47  O   UNL     1       8.396   5.267  -7.189  1.00  0.00    -0.744 OA
ENDBRANCH  41  44
ENDBRANCH  23  37
BRANCH  24  48
ATOM     48  C   UNL     1       7.743   4.862   5.607  1.00  0.00     0.023 A 
ATOM     49  C   UNL     1       7.504   5.867   6.569  1.00  0.00     0.012 A 
ATOM     50  C   UNL     1       8.309   3.643   6.025  1.00  0.00     0.148 A 
ATOM     51  C   UNL     1       7.869   5.685   7.904  1.00  0.00     0.002 A 
ATOM     52  C   UNL     1       8.623   3.448   7.368  1.00  0.00     0.091 A 
ATOM     53  F   UNL     1       8.528   2.695   5.103  1.00  0.00    -0.205 F 
ATOM     54  C   UNL     1       8.422   4.474   8.304  1.00  0.00     0.022 A 
BRANCH  52  55
ATOM     55  S   UNL     1       9.215   1.875   8.005  1.00  0.00     0.127 S 
ATOM     56  O   UNL     1      10.623   2.166   8.262  1.00  0.00    -0.237 OA
ATOM     57  O   UNL     1       8.393   1.704   9.204  1.00  0.00    -0.237 OA
ATOM     58  O   UNL     1       8.945   0.904   6.954  1.00  0.00    -0.744 OA
ENDBRANCH  52  55
ENDBRANCH  24  48
BRANCH  36  59
ATOM     59  C   UNL     1       9.887   9.381   0.721  1.00  0.00     0.023 A 
ATOM     60  C   UNL     1      11.269   9.131   0.830  1.00  0.00     0.012 A 
ATOM     61  C   UNL     1       9.428  10.704   0.576  1.00  0.00     0.148 A 
ATOM     62  C   UNL     1      12.178  10.186   0.835  1.00  0.00     0.002 A 
ATOM     63  C   UNL     1      10.344  11.746   0.531  1.00  0.00     0.091 A 
ATOM     64  F   UNL     1       8.106  10.919   0.493  1.00  0.00    -0.205 F 
ATOM     65  C   UNL     1      11.717  11.491   0.674  1.00  0.00     0.022 A 
BRANCH  63  66
ATOM     66  S   UNL     1       9.848  13.446   0.232  1.00  0.00     0.127 S 
ATOM     67  O   UNL     1      10.009  14.041   1.557  1.00  0.00    -0.237 OA
ATOM     68  O   UNL     1      10.832  13.887  -0.758  1.00  0.00    -0.237 OA
ATOM     69  O   UNL     1       8.480  13.384  -0.265  1.00  0.00    -0.744 OA
ENDBRANCH  63  66
ENDBRANCH  36  59
ENDBRANCH  10  11
ENDBRANCH   3   5
ENDBRANCH   2   3
ENDBRANCH   1   2
BRANCH   1  70
ATOM     70  C   UNL     1      -0.834   0.351   4.203  1.00  0.00     0.274 C 
BRANCH  70  71
ATOM     71  O   UNL     1       0.540   0.296   3.772  1.00  0.00    -0.461 OA
BRANCH  71  72
ATOM     72  C   UNL     1       1.045  -0.954   3.516  1.00  0.00     0.324 C 
ATOM     73  O   UNL     1       0.384  -1.979   3.630  1.00  0.00    -0.250 OA
BRANCH  72  74
ATOM     74  C   UNL     1       2.550  -0.891   3.155  1.00  0.00     0.183 C 
ATOM     75  C   UNL     1       3.322  -0.649   4.449  1.00  0.00     0.034 C 
ATOM     76  N   UNL     1       3.071  -2.225   2.659  1.00  0.00    -0.184 NA
ATOM     77  C   UNL     1       3.410  -2.032   5.073  1.00  0.00     0.019 C 
ATOM     78  C   UNL     1       3.253  -3.028   3.924  1.00  0.00     0.103 C 
BRANCH  76  79
ATOM     79  S   UNL     1       4.503  -2.235   1.696  1.00  0.00     0.244 S 
ATOM     80  O   UNL     1       5.357  -1.170   2.171  1.00  0.00    -0.207 OA
ATOM     81  O   UNL     1       4.976  -3.604   1.643  1.00  0.00    -0.207 OA
BRANCH  79  82
ATOM     82  C   UNL     1       4.067  -1.847   0.006  1.00  0.00     0.089 A 
ATOM     83  C   UNL     1       3.480  -2.839  -0.795  1.00  0.00     0.022 A 
ATOM     84  C   UNL     1       4.540  -0.672  -0.589  1.00  0.00     0.107 A 
ATOM     85  C   UNL     1       3.308  -2.635  -2.173  1.00  0.00     0.008 A 
ATOM     86  C   UNL     1       4.293  -0.459  -1.955  1.00  0.00     0.270 A 
ATOM     87  C   UNL     1       3.689  -1.429  -2.756  1.00  0.00     0.086 A 
BRANCH  86  88
ATOM     88  N   UNL     1       4.573   0.842  -2.544  1.00  0.00     0.062 N 
ATOM     89  O   UNL     1       5.713   1.291  -2.410  1.00  0.00    -0.258 OA
ATOM     90  O   UNL     1       3.615   1.415  -3.085  1.00  0.00    -0.258 OA
ENDBRANCH  86  88
ENDBRANCH  79  82
ENDBRANCH  76  79
ENDBRANCH  72  74
ENDBRANCH  71  72
ENDBRANCH  70  71
ENDBRANCH   1  70
TORSDOF 17
