REMARK SMILES CCN1C(=O)c2ccccc2[S@@](=O)c2ccc(C(=O)OCCOC(=O)c3ccc(-c4c5nc(c(-c6cccc(S(=O)(=O)[O-])c6F)c6ccc([nH]6)c(-c6cccc(S(=O)(=O)[O-])c6F)c6nc(c(-c7cccc(S(=O)(=O)[O-])c7F)c7ccc4[nH]7)C=C6)C=C5)cc3)cc21
REMARK SMILES IDX 22 1 21 2 20 3 18 4 19 5 17 6 3 7 4 8 90 9 5 10 6 11 14 12
REMARK SMILES IDX 89 13 7 14 11 15 12 16 15 17 8 18 10 19 13 20 16 21 9 22
REMARK SMILES IDX 2 23 1 24 23 25 24 26 25 27 26 28 27 29 88 30 28 31 87 32
REMARK SMILES IDX 29 33 30 34 31 35 81 36 32 37 86 38 80 39 82 40 33 41 85 42
REMARK SMILES IDX 79 43 78 44 34 46 66 47 46 48 65 49 47 50 50 51 64 52 83 53
REMARK SMILES IDX 48 54 49 55 63 57 84 58 51 59 35 60 36 61 44 62 37 63 39 64
REMARK SMILES IDX 45 65 38 66 40 67 41 68 42 69 43 70 67 71 68 72 76 73 69 74
REMARK SMILES IDX 71 75 77 76 70 77 72 78 73 79 74 80 75 81 52 82 53 83 61 84
REMARK SMILES IDX 54 85 56 86 62 87 55 88 57 89 58 90 59 91 60 92
REMARK H PARENT 82 45 50 56
REMARK Flexibility Score: inf
ROOT
ATOM      1  C   UNL     1      -1.164   7.510   2.215  1.00  0.00     0.275 C 
ENDROOT
BRANCH   1   2
ATOM      2  C   UNL     1      -1.925   6.360   1.551  1.00  0.00     0.275 C 
BRANCH   2   3
ATOM      3  O   UNL     1      -1.071   5.605   0.665  1.00  0.00    -0.458 OA
BRANCH   3   4
ATOM      4  C   UNL     1      -1.244   5.846  -0.660  1.00  0.00     0.338 C 
ATOM      5  O   UNL     1      -2.069   6.589  -1.157  1.00  0.00    -0.246 OA
BRANCH   4   6
ATOM      6  C   UNL     1      -0.242   5.110  -1.470  1.00  0.00     0.062 A 
ATOM      7  N   UNL     1       1.034   1.568  -1.739  1.00  0.00    -0.307 N 
ATOM      8  C   UNL     1       1.673   0.637  -2.566  1.00  0.00     0.259 C 
ATOM      9  C   UNL     1       0.860   2.975  -2.069  1.00  0.00     0.061 A 
ATOM     10  O   UNL     1       1.287  -0.518  -2.740  1.00  0.00    -0.269 OA
ATOM     11  C   UNL     1       3.068   0.944  -2.925  1.00  0.00     0.056 A 
ATOM     12  C   UNL     1       1.372   3.623  -3.223  1.00  0.00     0.068 A 
ATOM     13  C   UNL     1       0.045   3.766  -1.213  1.00  0.00     0.043 A 
ATOM     14  C   UNL     1       4.069   0.142  -2.360  1.00  0.00     0.015 A 
ATOM     15  C   UNL     1       3.399   1.998  -3.760  1.00  0.00     0.057 A 
ATOM     16  S   UNL     1       2.149   2.871  -4.668  1.00  0.00     0.088 S 
ATOM     17  C   UNL     1       1.145   4.997  -3.425  1.00  0.00     0.021 A 
ATOM     18  C   UNL     1       5.410   0.435  -2.592  1.00  0.00     0.001 A 
ATOM     19  C   UNL     1       4.749   2.303  -3.977  1.00  0.00     0.019 A 
ATOM     20  O   UNL     1       1.172   1.838  -5.139  1.00  0.00    -0.249 OA
ATOM     21  C   UNL     1       0.325   5.722  -2.577  1.00  0.00     0.017 A 
ATOM     22  C   UNL     1       5.751   1.528  -3.386  1.00  0.00     0.001 A 
BRANCH   7  23
ATOM     23  C   UNL     1       0.379   1.037  -0.530  1.00  0.00     0.122 C 
ATOM     24  C   UNL     1       0.936  -0.259   0.056  1.00  0.00     0.028 C 
ENDBRANCH   7  23
ENDBRANCH   4   6
ENDBRANCH   3   4
ENDBRANCH   2   3
ENDBRANCH   1   2
BRANCH   1  25
ATOM     25  O   UNL     1      -0.864   8.545   1.264  1.00  0.00    -0.458 OA
BRANCH  25  26
ATOM     26  C   UNL     1       0.378   8.500   0.733  1.00  0.00     0.338 C 
ATOM     27  O   UNL     1       1.274   7.715   1.000  1.00  0.00    -0.246 OA
BRANCH  26  28
ATOM     28  C   UNL     1       0.475   9.500  -0.335  1.00  0.00     0.060 A 
ATOM     29  C   UNL     1       1.075  10.735  -0.133  1.00  0.00     0.016 A 
ATOM     30  C   UNL     1       0.035   9.138  -1.602  1.00  0.00     0.016 A 
ATOM     31  C   UNL     1       1.187  11.614  -1.218  1.00  0.00     0.010 A 
ATOM     32  C   UNL     1       0.289   9.942  -2.703  1.00  0.00     0.010 A 
ATOM     33  C   UNL     1       0.813  11.221  -2.521  1.00  0.00    -0.014 A 
BRANCH  33  34
ATOM     34  C   UNL     1       0.924  12.145  -3.682  1.00  0.00     0.031 A 
ATOM     35  C   UNL     1      -0.283  12.460  -4.540  1.00  0.00     0.074 A 
ATOM     36  C   UNL     1       2.122  12.682  -3.991  1.00  0.00     0.049 A 
ATOM     37  N   UNL     1      -0.370  13.264  -5.570  1.00  0.00    -0.248 NA
ATOM     38  C   UNL     1      -1.547  11.762  -4.236  1.00  0.00     0.031 C 
ATOM     39  C   UNL     1       3.387  12.370  -3.321  1.00  0.00     0.029 A 
ATOM     40  N   UNL     1       2.472  13.609  -4.940  1.00  0.00    -0.354 N 
ATOM     41  C   UNL     1      -1.669  13.134  -6.051  1.00  0.00     0.074 A 
ATOM     42  C   UNL     1      -2.325  12.138  -5.240  1.00  0.00     0.031 C 
ATOM     43  C   UNL     1       4.358  13.142  -3.831  1.00  0.00     0.029 A 
ATOM     44  C   UNL     1       3.796  13.977  -4.888  1.00  0.00     0.049 A 
ATOM     45  H   UNL     1       1.836  13.976  -5.596  1.00  0.00     0.167 HD
ATOM     46  C   UNL     1      -2.283  13.820  -7.042  1.00  0.00     0.034 A 
ATOM     47  C   UNL     1       4.480  14.898  -5.595  1.00  0.00     0.034 A 
ATOM     48  C   UNL     1      -1.663  14.881  -7.781  1.00  0.00     0.049 A 
ATOM     49  C   UNL     1       3.756  15.712  -6.627  1.00  0.00     0.074 A 
ATOM     50  C   UNL     1      -2.234  15.714  -8.726  1.00  0.00     0.029 A 
ATOM     51  N   UNL     1      -0.339  15.264  -7.649  1.00  0.00    -0.354 N 
ATOM     52  N   UNL     1       2.491  15.666  -6.968  1.00  0.00    -0.248 NA
ATOM     53  C   UNL     1       4.541  16.720  -7.355  1.00  0.00     0.031 C 
ATOM     54  C   UNL     1      -1.250  16.599  -9.172  1.00  0.00     0.029 A 
ATOM     55  C   UNL     1      -0.072  16.322  -8.496  1.00  0.00     0.049 A 
ATOM     56  H   UNL     1       0.314  14.845  -7.043  1.00  0.00     0.167 HD
ATOM     57  C   UNL     1       2.323  16.644  -7.939  1.00  0.00     0.074 A 
ATOM     58  C   UNL     1       3.611  17.282  -8.119  1.00  0.00     0.031 C 
ATOM     59  C   UNL     1       1.205  16.971  -8.630  1.00  0.00     0.034 A 
BRANCH  46  60
ATOM     60  C   UNL     1      -3.731  13.523  -7.325  1.00  0.00     0.023 A 
ATOM     61  C   UNL     1      -4.717  14.000  -6.436  1.00  0.00     0.012 A 
ATOM     62  C   UNL     1      -4.123  12.871  -8.510  1.00  0.00     0.148 A 
ATOM     63  C   UNL     1      -6.070  13.821  -6.715  1.00  0.00     0.002 A 
ATOM     64  C   UNL     1      -5.476  12.726  -8.798  1.00  0.00     0.091 A 
ATOM     65  F   UNL     1      -3.168  12.417  -9.334  1.00  0.00    -0.205 F 
ATOM     66  C   UNL     1      -6.449  13.195  -7.899  1.00  0.00     0.022 A 
BRANCH  64  67
ATOM     67  S   UNL     1      -6.077  11.990 -10.322  1.00  0.00     0.127 S 
ATOM     68  O   UNL     1      -6.794  10.818  -9.821  1.00  0.00    -0.237 OA
ATOM     69  O   UNL     1      -6.935  13.049 -10.854  1.00  0.00    -0.237 OA
ATOM     70  O   UNL     1      -4.897  11.695 -11.122  1.00  0.00    -0.744 OA
ENDBRANCH  64  67
ENDBRANCH  46  60
BRANCH  47  71
ATOM     71  C   UNL     1       5.910  15.148  -5.267  1.00  0.00     0.023 A 
ATOM     72  C   UNL     1       6.254  16.293  -4.525  1.00  0.00     0.012 A 
ATOM     73  C   UNL     1       6.908  14.214  -5.601  1.00  0.00     0.148 A 
ATOM     74  C   UNL     1       7.573  16.507  -4.123  1.00  0.00     0.002 A 
ATOM     75  C   UNL     1       8.212  14.412  -5.164  1.00  0.00     0.091 A 
ATOM     76  F   UNL     1       6.551  13.132  -6.306  1.00  0.00    -0.205 F 
ATOM     77  C   UNL     1       8.549  15.563  -4.432  1.00  0.00     0.022 A 
BRANCH  75  78
ATOM     78  S   UNL     1       9.514  13.201  -5.418  1.00  0.00     0.127 S 
ATOM     79  O   UNL     1      10.443  13.937  -6.272  1.00  0.00    -0.237 OA
ATOM     80  O   UNL     1       9.982  12.976  -4.050  1.00  0.00    -0.237 OA
ATOM     81  O   UNL     1       8.872  12.050  -6.036  1.00  0.00    -0.744 OA
ENDBRANCH  75  78
ENDBRANCH  47  71
BRANCH  59  82
ATOM     82  C   UNL     1       1.299  18.070  -9.649  1.00  0.00     0.023 A 
ATOM     83  C   UNL     1       1.848  17.788 -10.914  1.00  0.00     0.012 A 
ATOM     84  C   UNL     1       0.710  19.325  -9.404  1.00  0.00     0.148 A 
ATOM     85  C   UNL     1       1.814  18.746 -11.924  1.00  0.00     0.002 A 
ATOM     86  C   UNL     1       0.649  20.263 -10.426  1.00  0.00     0.091 A 
ATOM     87  F   UNL     1       0.198  19.563  -8.188  1.00  0.00    -0.205 F 
ATOM     88  C   UNL     1       1.204  19.977 -11.685  1.00  0.00     0.022 A 
BRANCH  86  89
ATOM     89  S   UNL     1      -0.181  21.844 -10.241  1.00  0.00     0.127 S 
ATOM     90  O   UNL     1       0.936  22.781 -10.356  1.00  0.00    -0.237 OA
ATOM     91  O   UNL     1      -1.099  21.845 -11.380  1.00  0.00    -0.237 OA
ATOM     92  O   UNL     1      -0.828  21.812  -8.936  1.00  0.00    -0.744 OA
ENDBRANCH  86  89
ENDBRANCH  59  82
ENDBRANCH  33  34
ENDBRANCH  26  28
ENDBRANCH  25  26
ENDBRANCH   1  25
TORSDOF 15
