REMARK SMILES C[C@H](NC(=O)c1cc(S(=O)(=O)N(C)C)cs1)C(=O)OCCOC(=O)c1ccc(-c2c3nc(c(-c4cccc(S(=O)(=O)[O-])c4F)c4ccc([nH]4)c(-c4cccc(S(=O)(=O)[O-])c4F)c4nc(c(-c5cccc(S(=O)(=O)[O-])c5F)c5ccc2[nH]5)C=C4)C=C3)cc1
REMARK SMILES IDX 20 1 19 2 17 3 18 4 2 5 1 6 3 7 4 8 5 10 6 11 7 12 16 13
REMARK SMILES IDX 8 14 15 15 9 16 10 17 11 18 12 19 13 20 14 21 21 22 22 23
REMARK SMILES IDX 23 24 24 25 25 26 26 27 87 28 27 29 86 30 28 31 29 32 30 33
REMARK SMILES IDX 80 34 31 35 85 36 79 37 81 38 32 39 84 40 78 41 77 42 33 44
REMARK SMILES IDX 65 45 45 46 64 47 46 48 49 49 63 50 82 51 47 52 48 53 62 55
REMARK SMILES IDX 83 56 50 57 34 58 35 59 43 60 36 61 38 62 44 63 37 64 39 65
REMARK SMILES IDX 40 66 41 67 42 68 66 69 67 70 75 71 68 72 70 73 76 74 69 75
REMARK SMILES IDX 71 76 72 77 73 78 74 79 51 80 52 81 60 82 53 83 55 84 61 85
REMARK SMILES IDX 54 86 56 87 57 88 58 89 59 90
REMARK H PARENT 3 9 81 43 49 54
REMARK Flexibility Score: inf
ROOT
ATOM      1  C   UNL     1      -3.254  -0.957   0.355  1.00  0.00     0.274 C 
ENDROOT
BRANCH   1   2
ATOM      2  O   UNL     1      -1.828  -1.083   0.511  1.00  0.00    -0.461 OA
BRANCH   2   3
ATOM      3  C   UNL     1      -1.240  -2.111  -0.161  1.00  0.00     0.328 C 
ATOM      4  O   UNL     1      -1.847  -2.993  -0.756  1.00  0.00    -0.250 OA
BRANCH   3   5
ATOM      5  C   UNL     1       0.289  -2.103  -0.019  1.00  0.00     0.189 C 
ATOM      6  C   UNL     1       0.669  -3.228   0.942  1.00  0.00     0.043 C 
BRANCH   5   7
ATOM      7  N   UNL     1       0.832  -0.807   0.409  1.00  0.00    -0.338 N 
ATOM      8  C   UNL     1       2.137  -0.402   0.566  1.00  0.00     0.262 C 
ATOM      9  H   UNL     1       0.156  -0.122   0.617  1.00  0.00     0.164 HD
ATOM     10  O   UNL     1       2.350   0.699   1.072  1.00  0.00    -0.268 OA
BRANCH   8  11
ATOM     11  C   UNL     1       3.192  -1.306   0.148  1.00  0.00     0.093 A 
ATOM     12  C   UNL     1       3.350  -1.979  -1.048  1.00  0.00     0.047 A 
ATOM     13  S   UNL     1       4.475  -1.653   1.234  1.00  0.00    -0.137 S 
ATOM     14  C   UNL     1       4.444  -2.891  -1.011  1.00  0.00     0.094 A 
ATOM     15  C   UNL     1       5.142  -2.821   0.175  1.00  0.00     0.087 A 
BRANCH  14  16
ATOM     16  S   UNL     1       4.800  -4.034  -2.265  1.00  0.00     0.243 S 
ATOM     17  O   UNL     1       6.210  -3.850  -2.527  1.00  0.00    -0.207 OA
ATOM     18  O   UNL     1       4.276  -5.265  -1.717  1.00  0.00    -0.207 OA
BRANCH  16  19
ATOM     19  N   UNL     1       3.911  -3.626  -3.661  1.00  0.00    -0.204 NA
ATOM     20  C   UNL     1       4.399  -2.431  -4.388  1.00  0.00     0.124 C 
ATOM     21  C   UNL     1       3.708  -4.767  -4.586  1.00  0.00     0.124 C 
ENDBRANCH  16  19
ENDBRANCH  14  16
ENDBRANCH   8  11
ENDBRANCH   5   7
ENDBRANCH   3   5
ENDBRANCH   2   3
ENDBRANCH   1   2
BRANCH   1  22
ATOM     22  C   UNL     1      -3.602   0.295  -0.453  1.00  0.00     0.275 C 
BRANCH  22  23
ATOM     23  O   UNL     1      -3.135   0.206  -1.812  1.00  0.00    -0.458 OA
BRANCH  23  24
ATOM     24  C   UNL     1      -1.853   0.599  -2.006  1.00  0.00     0.338 C 
ATOM     25  O   UNL     1      -1.079   1.007  -1.154  1.00  0.00    -0.246 OA
BRANCH  24  26
ATOM     26  C   UNL     1      -1.444   0.344  -3.400  1.00  0.00     0.060 A 
ATOM     27  C   UNL     1      -0.184  -0.226  -3.615  1.00  0.00     0.016 A 
ATOM     28  C   UNL     1      -2.251   0.708  -4.481  1.00  0.00     0.016 A 
ATOM     29  C   UNL     1       0.278  -0.424  -4.915  1.00  0.00     0.010 A 
ATOM     30  C   UNL     1      -1.782   0.513  -5.785  1.00  0.00     0.010 A 
ATOM     31  C   UNL     1      -0.510  -0.039  -6.008  1.00  0.00    -0.014 A 
BRANCH  31  32
ATOM     32  C   UNL     1       0.021  -0.176  -7.385  1.00  0.00     0.031 A 
ATOM     33  C   UNL     1       0.550   1.030  -8.108  1.00  0.00     0.074 A 
ATOM     34  C   UNL     1       0.028  -1.382  -7.983  1.00  0.00     0.049 A 
ATOM     35  N   UNL     1       1.050   1.113  -9.313  1.00  0.00    -0.248 NA
ATOM     36  C   UNL     1       0.516   2.308  -7.379  1.00  0.00     0.031 C 
ATOM     37  C   UNL     1      -0.467  -2.621  -7.384  1.00  0.00     0.029 A 
ATOM     38  N   UNL     1       0.449  -1.756  -9.233  1.00  0.00    -0.354 N 
ATOM     39  C   UNL     1       1.371   2.452  -9.499  1.00  0.00     0.074 A 
ATOM     40  C   UNL     1       1.002   3.147  -8.284  1.00  0.00     0.031 C 
ATOM     41  C   UNL     1      -0.335  -3.618  -8.275  1.00  0.00     0.029 A 
ATOM     42  C   UNL     1       0.232  -3.085  -9.511  1.00  0.00     0.049 A 
ATOM     43  H   UNL     1       0.867  -1.133  -9.871  1.00  0.00     0.167 HD
ATOM     44  C   UNL     1       1.940   3.045 -10.575  1.00  0.00     0.034 A 
ATOM     45  C   UNL     1       0.452  -3.788 -10.640  1.00  0.00     0.034 A 
ATOM     46  C   UNL     1       2.326   2.352 -11.773  1.00  0.00     0.049 A 
ATOM     47  C   UNL     1       1.067  -3.099 -11.828  1.00  0.00     0.074 A 
ATOM     48  C   UNL     1       2.945   2.862 -12.901  1.00  0.00     0.029 A 
ATOM     49  N   UNL     1       2.127   1.000 -12.005  1.00  0.00    -0.354 N 
ATOM     50  N   UNL     1       1.476  -1.859 -11.941  1.00  0.00    -0.248 NA
ATOM     51  C   UNL     1       1.279  -3.913 -13.034  1.00  0.00     0.031 C 
ATOM     52  C   UNL     1       3.115   1.818 -13.818  1.00  0.00     0.029 A 
ATOM     53  C   UNL     1       2.606   0.657 -13.257  1.00  0.00     0.049 A 
ATOM     54  H   UNL     1       1.706   0.375 -11.371  1.00  0.00     0.167 HD
ATOM     55  C   UNL     1       2.016  -1.750 -13.218  1.00  0.00     0.074 A 
ATOM     56  C   UNL     1       1.903  -3.057 -13.832  1.00  0.00     0.031 C 
ATOM     57  C   UNL     1       2.539  -0.661 -13.833  1.00  0.00     0.034 A 
BRANCH  44  58
ATOM     58  C   UNL     1       2.226   4.519 -10.485  1.00  0.00     0.023 A 
ATOM     59  C   UNL     1       3.340   4.958  -9.742  1.00  0.00     0.012 A 
ATOM     60  C   UNL     1       1.438   5.460 -11.175  1.00  0.00     0.148 A 
ATOM     61  C   UNL     1       3.655   6.314  -9.670  1.00  0.00     0.002 A 
ATOM     62  C   UNL     1       1.776   6.808 -11.124  1.00  0.00     0.091 A 
ATOM     63  F   UNL     1       0.366   5.024 -11.852  1.00  0.00    -0.205 F 
ATOM     64  C   UNL     1       2.880   7.237 -10.368  1.00  0.00     0.022 A 
BRANCH  62  65
ATOM     65  S   UNL     1       0.870   8.060 -12.040  1.00  0.00     0.127 S 
ATOM     66  O   UNL     1       0.058   8.666 -10.986  1.00  0.00    -0.237 OA
ATOM     67  O   UNL     1       1.943   8.914 -12.549  1.00  0.00    -0.237 OA
ATOM     68  O   UNL     1       0.134   7.339 -13.069  1.00  0.00    -0.744 OA
ENDBRANCH  62  65
ENDBRANCH  44  58
BRANCH  45  69
ATOM     69  C   UNL     1       0.138  -5.243 -10.677  1.00  0.00     0.023 A 
ATOM     70  C   UNL     1       1.193  -6.176 -10.705  1.00  0.00     0.012 A 
ATOM     71  C   UNL     1      -1.190  -5.708 -10.649  1.00  0.00     0.148 A 
ATOM     72  C   UNL     1       0.929  -7.546 -10.722  1.00  0.00     0.002 A 
ATOM     73  C   UNL     1      -1.445  -7.074 -10.614  1.00  0.00     0.091 A 
ATOM     74  F   UNL     1      -2.181  -4.805 -10.650  1.00  0.00    -0.205 F 
ATOM     75  C   UNL     1      -0.387  -7.995 -10.663  1.00  0.00     0.022 A 
BRANCH  73  76
ATOM     76  S   UNL     1      -3.106  -7.726 -10.406  1.00  0.00     0.127 S 
ATOM     77  O   UNL     1      -3.439  -8.138 -11.767  1.00  0.00    -0.237 OA
ATOM     78  O   UNL     1      -2.889  -8.826  -9.464  1.00  0.00    -0.237 OA
ATOM     79  O   UNL     1      -3.885  -6.622  -9.862  1.00  0.00    -0.744 OA
ENDBRANCH  73  76
ENDBRANCH  45  69
BRANCH  57  80
ATOM     80  C   UNL     1       3.051  -0.833 -15.238  1.00  0.00     0.023 A 
ATOM     81  C   UNL     1       2.134  -0.916 -16.303  1.00  0.00     0.012 A 
ATOM     82  C   UNL     1       4.433  -0.830 -15.512  1.00  0.00     0.148 A 
ATOM     83  C   UNL     1       2.583  -1.017 -17.619  1.00  0.00     0.002 A 
ATOM     84  C   UNL     1       4.873  -0.891 -16.830  1.00  0.00     0.091 A 
ATOM     85  F   UNL     1       5.291  -0.774 -14.483  1.00  0.00    -0.205 F 
ATOM     86  C   UNL     1       3.951  -0.992 -17.884  1.00  0.00     0.022 A 
BRANCH  84  87
ATOM     87  S   UNL     1       6.615  -0.779 -17.256  1.00  0.00     0.127 S 
ATOM     88  O   UNL     1       6.958  -2.181 -17.485  1.00  0.00    -0.237 OA
ATOM     89  O   UNL     1       6.593   0.048 -18.464  1.00  0.00    -0.237 OA
ATOM     90  O   UNL     1       7.260  -0.149 -16.111  1.00  0.00    -0.744 OA
ENDBRANCH  84  87
ENDBRANCH  57  80
ENDBRANCH  31  32
ENDBRANCH  24  26
ENDBRANCH  23  24
ENDBRANCH  22  23
ENDBRANCH   1  22
TORSDOF 18
