REMARK SMILES N#Cc1ccccc1S(=O)(=O)N1CCC(C(=O)OCCOC(=O)c2ccc(-c3c4nc(c(-c5cccc(S(=O)(=O)[O-])c5F)c5ccc([nH]5)c(-c5cccc(S(=O)(=O)[O-])c5F)c5nc(c(-c6cccc(S(=O)(=O)[O-])c6F)c6ccc3[nH]6)C=C5)C=C4)cc2)CC1
REMARK SMILES IDX 19 1 18 2 16 3 17 4 15 5 12 6 13 7 88 8 14 9 87 10 9 11
REMARK SMILES IDX 10 12 11 13 8 14 3 15 4 16 5 17 7 18 6 19 2 20 1 21 20 22
REMARK SMILES IDX 21 23 22 24 23 25 24 26 25 27 86 28 26 29 85 30 27 31 28 32
REMARK SMILES IDX 29 33 79 34 30 35 84 36 78 37 80 38 31 39 83 40 77 41 76 42
REMARK SMILES IDX 32 44 64 45 44 46 63 47 45 48 48 49 62 50 81 51 46 52 47 53
REMARK SMILES IDX 61 55 82 56 49 57 33 58 34 59 42 60 35 61 37 62 43 63 36 64
REMARK SMILES IDX 38 65 39 66 40 67 41 68 65 69 66 70 74 71 67 72 69 73 75 74
REMARK SMILES IDX 68 75 70 76 71 77 72 78 73 79 50 80 51 81 59 82 52 83 54 84
REMARK SMILES IDX 60 85 53 86 55 87 56 88 57 89 58 90
REMARK H PARENT 80 43 48 54
REMARK Flexibility Score: inf
ROOT
ATOM      1  C   UNL     1      -8.508  -1.715  -0.511  1.00  0.00     0.274 C 
ENDROOT
BRANCH   1   2
ATOM      2  O   UNL     1      -7.098  -1.951  -0.337  1.00  0.00    -0.462 OA
BRANCH   2   3
ATOM      3  C   UNL     1      -6.276  -1.201  -1.112  1.00  0.00     0.309 C 
ATOM      4  O   UNL     1      -6.649  -0.451  -2.007  1.00  0.00    -0.252 OA
BRANCH   3   5
ATOM      5  C   UNL     1      -4.813  -1.370  -0.769  1.00  0.00     0.102 C 
ATOM      6  N   UNL     1      -2.141  -2.315  -0.320  1.00  0.00    -0.198 NA
ATOM      7  C   UNL     1      -3.017  -2.086   0.855  1.00  0.00     0.103 C 
ATOM      8  C   UNL     1      -2.568  -1.917  -1.679  1.00  0.00     0.103 C 
ATOM      9  C   UNL     1      -4.507  -2.091   0.535  1.00  0.00     0.032 C 
ATOM     10  C   UNL     1      -4.066  -2.068  -1.891  1.00  0.00     0.032 C 
BRANCH   6  11
ATOM     11  S   UNL     1      -0.491  -2.543  -0.039  1.00  0.00     0.244 S 
ATOM     12  O   UNL     1       0.021  -3.259  -1.193  1.00  0.00    -0.207 OA
ATOM     13  O   UNL     1      -0.341  -3.100   1.289  1.00  0.00    -0.207 OA
BRANCH  11  14
ATOM     14  C   UNL     1       0.425  -1.010  -0.010  1.00  0.00     0.100 A 
ATOM     15  C   UNL     1      -0.069   0.293   0.044  1.00  0.00     0.072 A 
ATOM     16  C   UNL     1       0.837   1.376   0.057  1.00  0.00     0.021 A 
ATOM     17  C   UNL     1       2.215   1.173   0.028  1.00  0.00     0.001 A 
ATOM     18  C   UNL     1       1.827  -1.200  -0.037  1.00  0.00     0.023 A 
ATOM     19  C   UNL     1       2.711  -0.120  -0.015  1.00  0.00     0.001 A 
BRANCH  15  20
ATOM     20  C   UNL     1      -1.442   0.672   0.100  1.00  0.00     0.101 C 
ATOM     21  N   UNL     1      -2.528   1.066   0.136  1.00  0.00    -0.192 NA
ENDBRANCH  15  20
ENDBRANCH  11  14
ENDBRANCH   6  11
ENDBRANCH   3   5
ENDBRANCH   2   3
ENDBRANCH   1   2
BRANCH   1  22
ATOM     22  C   UNL     1      -9.061  -0.862   0.633  1.00  0.00     0.275 C 
BRANCH  22  23
ATOM     23  O   UNL     1      -8.512   0.469   0.619  1.00  0.00    -0.458 OA
BRANCH  23  24
ATOM     24  C   UNL     1      -7.473   0.672   1.463  1.00  0.00     0.338 C 
ATOM     25  O   UNL     1      -6.969  -0.140   2.221  1.00  0.00    -0.246 OA
BRANCH  24  26
ATOM     26  C   UNL     1      -6.947   2.033   1.295  1.00  0.00     0.060 A 
ATOM     27  C   UNL     1      -5.750   2.198   0.601  1.00  0.00     0.016 A 
ATOM     28  C   UNL     1      -7.553   3.120   1.923  1.00  0.00     0.016 A 
ATOM     29  C   UNL     1      -5.125   3.442   0.561  1.00  0.00     0.010 A 
ATOM     30  C   UNL     1      -6.943   4.379   1.852  1.00  0.00     0.010 A 
ATOM     31  C   UNL     1      -5.713   4.546   1.190  1.00  0.00    -0.014 A 
BRANCH  31  32
ATOM     32  C   UNL     1      -5.026   5.864   1.175  1.00  0.00     0.031 A 
ATOM     33  C   UNL     1      -4.506   6.461   2.454  1.00  0.00     0.074 A 
ATOM     34  C   UNL     1      -4.886   6.533   0.014  1.00  0.00     0.049 A 
ATOM     35  N   UNL     1      -3.977   7.639   2.660  1.00  0.00    -0.248 NA
ATOM     36  C   UNL     1      -4.599   5.625   3.662  1.00  0.00     0.031 C 
ATOM     37  C   UNL     1      -5.337   6.056  -1.294  1.00  0.00     0.029 A 
ATOM     38  N   UNL     1      -4.349   7.769  -0.248  1.00  0.00    -0.354 N 
ATOM     39  C   UNL     1      -3.725   7.710   4.025  1.00  0.00     0.074 A 
ATOM     40  C   UNL     1      -4.157   6.453   4.598  1.00  0.00     0.031 C 
ATOM     41  C   UNL     1      -5.073   6.993  -2.218  1.00  0.00     0.029 A 
ATOM     42  C   UNL     1      -4.484   8.156  -1.561  1.00  0.00     0.049 A 
ATOM     43  H   UNL     1      -3.911   8.324   0.437  1.00  0.00     0.167 HD
ATOM     44  C   UNL     1      -3.174   8.726   4.734  1.00  0.00     0.034 A 
ATOM     45  C   UNL     1      -4.199   9.327  -2.163  1.00  0.00     0.034 A 
ATOM     46  C   UNL     1      -2.710   9.958   4.153  1.00  0.00     0.049 A 
ATOM     47  C   UNL     1      -3.604  10.444  -1.350  1.00  0.00     0.074 A 
ATOM     48  C   UNL     1      -2.087  11.024   4.780  1.00  0.00     0.029 A 
ATOM     49  N   UNL     1      -2.824  10.296   2.813  1.00  0.00    -0.354 N 
ATOM     50  N   UNL     1      -3.282  10.459  -0.080  1.00  0.00    -0.248 NA
ATOM     51  C   UNL     1      -3.308  11.697  -2.059  1.00  0.00     0.031 C 
ATOM     52  C   UNL     1      -1.849  12.017   3.823  1.00  0.00     0.029 A 
ATOM     53  C   UNL     1      -2.295  11.557   2.594  1.00  0.00     0.049 A 
ATOM     54  H   UNL     1      -3.222   9.723   2.118  1.00  0.00     0.167 HD
ATOM     55  C   UNL     1      -2.720  11.708   0.157  1.00  0.00     0.074 A 
ATOM     56  C   UNL     1      -2.723  12.413  -1.108  1.00  0.00     0.031 C 
ATOM     57  C   UNL     1      -2.258  12.230   1.320  1.00  0.00     0.034 A 
BRANCH  44  58
ATOM     58  C   UNL     1      -3.025   8.542   6.223  1.00  0.00     0.023 A 
ATOM     59  C   UNL     1      -2.049   7.660   6.727  1.00  0.00     0.012 A 
ATOM     60  C   UNL     1      -3.813   9.287   7.123  1.00  0.00     0.148 A 
ATOM     61  C   UNL     1      -1.883   7.494   8.102  1.00  0.00     0.002 A 
ATOM     62  C   UNL     1      -3.612   9.150   8.492  1.00  0.00     0.091 A 
ATOM     63  F   UNL     1      -4.750  10.107   6.626  1.00  0.00    -0.205 F 
ATOM     64  C   UNL     1      -2.656   8.246   8.983  1.00  0.00     0.022 A 
BRANCH  62  65
ATOM     65  S   UNL     1      -4.503  10.131   9.705  1.00  0.00     0.127 S 
ATOM     66  O   UNL     1      -5.393   9.133  10.296  1.00  0.00    -0.237 OA
ATOM     67  O   UNL     1      -3.425  10.583  10.587  1.00  0.00    -0.237 OA
ATOM     68  O   UNL     1      -5.160  11.193   8.958  1.00  0.00    -0.744 OA
ENDBRANCH  62  65
ENDBRANCH  44  58
BRANCH  45  69
ATOM     69  C   UNL     1      -4.456   9.493  -3.622  1.00  0.00     0.023 A 
ATOM     70  C   UNL     1      -3.369   9.603  -4.509  1.00  0.00     0.012 A 
ATOM     71  C   UNL     1      -5.768   9.510  -4.136  1.00  0.00     0.148 A 
ATOM     72  C   UNL     1      -3.583   9.754  -5.880  1.00  0.00     0.002 A 
ATOM     73  C   UNL     1      -5.973   9.603  -5.508  1.00  0.00     0.091 A 
ATOM     74  F   UNL     1      -6.790   9.422  -3.274  1.00  0.00    -0.205 F 
ATOM     75  C   UNL     1      -4.882   9.742  -6.380  1.00  0.00     0.022 A 
BRANCH  73  76
ATOM     76  S   UNL     1      -7.602   9.464  -6.251  1.00  0.00     0.127 S 
ATOM     77  O   UNL     1      -7.829  10.826  -6.728  1.00  0.00    -0.237 OA
ATOM     78  O   UNL     1      -7.370   8.474  -7.303  1.00  0.00    -0.237 OA
ATOM     79  O   UNL     1      -8.485   9.012  -5.185  1.00  0.00    -0.744 OA
ENDBRANCH  73  76
ENDBRANCH  45  69
BRANCH  57  80
ATOM     80  C   UNL     1      -1.680  13.621   1.279  1.00  0.00     0.023 A 
ATOM     81  C   UNL     1      -2.532  14.731   1.122  1.00  0.00     0.012 A 
ATOM     82  C   UNL     1      -0.299  13.830   1.465  1.00  0.00     0.148 A 
ATOM     83  C   UNL     1      -2.015  16.027   1.117  1.00  0.00     0.002 A 
ATOM     84  C   UNL     1       0.203  15.125   1.509  1.00  0.00     0.091 A 
ATOM     85  F   UNL     1       0.499  12.760   1.593  1.00  0.00    -0.205 F 
ATOM     86  C   UNL     1      -0.652  16.224   1.322  1.00  0.00     0.022 A 
BRANCH  84  87
ATOM     87  S   UNL     1       1.928  15.479   1.862  1.00  0.00     0.127 S 
ATOM     88  O   UNL     1       2.416  15.919   0.556  1.00  0.00    -0.237 OA
ATOM     89  O   UNL     1       1.829  16.539   2.866  1.00  0.00    -0.237 OA
ATOM     90  O   UNL     1       2.500  14.233   2.355  1.00  0.00    -0.744 OA
ENDBRANCH  84  87
ENDBRANCH  57  80
ENDBRANCH  31  32
ENDBRANCH  24  26
ENDBRANCH  23  24
ENDBRANCH  22  23
ENDBRANCH   1  22
TORSDOF 17
