REMARK SMILES CCN(CC(C)(C)O)C(=O)Nc1ccc(C(=O)OCCOC(=O)c2ccc(-c3c4nc(c(-c5cccc(S(=O)(=O)[O-])c5F)c5ccc([nH]5)c(-c5cccc(S(=O)(=O)[O-])c5F)c5nc(c(-c6cccc(S(=O)(=O)[O-])c6F)c6ccc3[nH]6)C=C5)C=C4)cc2)c(O)c1
REMARK SMILES IDX 19 1 18 2 16 3 17 4 15 5 12 6 13 7 89 8 14 9 87 10 11 11
REMARK SMILES IDX 9 12 10 13 3 15 2 16 1 17 4 18 5 19 6 20 7 21 8 22 88 24
REMARK SMILES IDX 20 26 21 27 22 28 23 29 24 30 25 31 86 32 26 33 85 34 27 35
REMARK SMILES IDX 28 36 29 37 79 38 30 39 84 40 78 41 80 42 31 43 83 44 77 45
REMARK SMILES IDX 76 46 32 48 64 49 44 50 63 51 45 52 48 53 62 54 81 55 46 56
REMARK SMILES IDX 47 57 61 59 82 60 49 61 33 62 34 63 42 64 35 65 37 66 43 67
REMARK SMILES IDX 36 68 38 69 39 70 40 71 41 72 65 73 66 74 74 75 67 76 69 77
REMARK SMILES IDX 75 78 68 79 70 80 71 81 72 82 73 83 50 84 51 85 59 86 52 87
REMARK SMILES IDX 54 88 60 89 53 90 55 91 56 92 57 93 58 94
REMARK H PARENT 11 14 8 23 88 25 80 47 48 58
REMARK Flexibility Score: inf
ROOT
ATOM      1  C   UNL     1      -1.675   9.555   4.074  1.00  0.00     0.275 C 
ENDROOT
BRANCH   1   2
ATOM      2  O   UNL     1      -0.629   8.747   3.495  1.00  0.00    -0.458 OA
BRANCH   2   3
ATOM      3  C   UNL     1      -0.024   7.873   4.337  1.00  0.00     0.342 C 
ATOM      4  O   UNL     1      -0.217   7.786   5.543  1.00  0.00    -0.246 OA
BRANCH   3   5
ATOM      5  C   UNL     1       0.846   6.937   3.584  1.00  0.00     0.101 A 
ATOM      6  C   UNL     1       2.197   4.896   2.192  1.00  0.00     0.046 A 
ATOM      7  C   UNL     1       1.846   4.727   3.522  1.00  0.00     0.027 A 
ATOM      8  C   UNL     1       2.035   6.160   1.615  1.00  0.00     0.073 A 
ATOM      9  C   UNL     1       1.150   5.723   4.210  1.00  0.00     0.022 A 
ATOM     10  C   UNL     1       1.353   7.171   2.301  1.00  0.00     0.132 A 
BRANCH   6  11
ATOM     11  N   UNL     1       2.769   3.883   1.417  1.00  0.00    -0.308 N 
ATOM     12  C   UNL     1       2.804   2.528   1.420  1.00  0.00     0.321 C 
ATOM     13  O   UNL     1       3.785   2.046   0.836  1.00  0.00    -0.248 OA
ATOM     14  H   UNL     1       3.288   4.253   0.667  1.00  0.00     0.171 HD
BRANCH  12  15
ATOM     15  N   UNL     1       1.780   1.722   1.864  1.00  0.00    -0.322 N 
BRANCH  15  16
ATOM     16  C   UNL     1       1.873   0.303   1.477  1.00  0.00     0.118 C 
ATOM     17  C   UNL     1       1.514   0.083   0.009  1.00  0.00     0.027 C 
ENDBRANCH  15  16
BRANCH  15  18
ATOM     18  C   UNL     1       0.474   2.098   2.434  1.00  0.00     0.155 C 
BRANCH  18  19
ATOM     19  C   UNL     1       0.168   1.509   3.855  1.00  0.00     0.077 C 
ATOM     20  C   UNL     1       1.362   1.365   4.806  1.00  0.00     0.043 C 
ATOM     21  C   UNL     1      -0.904   2.362   4.518  1.00  0.00     0.043 C 
BRANCH  19  22
ATOM     22  O   UNL     1      -0.401   0.200   3.697  1.00  0.00    -0.389 OA
ATOM     23  H   UNL     1       0.247  -0.386   3.276  1.00  0.00     0.211 HD
ENDBRANCH  19  22
ENDBRANCH  18  19
ENDBRANCH  15  18
ENDBRANCH  12  15
ENDBRANCH   6  11
BRANCH  10  24
ATOM     24  O   UNL     1       1.225   8.360   1.635  1.00  0.00    -0.507 OA
ATOM     25  H   UNL     1       0.778   9.078   2.039  1.00  0.00     0.293 HD
ENDBRANCH  10  24
ENDBRANCH   3   5
ENDBRANCH   2   3
ENDBRANCH   1   2
BRANCH   1  26
ATOM     26  C   UNL     1      -3.052   9.019   3.681  1.00  0.00     0.275 C 
BRANCH  26  27
ATOM     27  O   UNL     1      -3.354   7.796   4.381  1.00  0.00    -0.458 OA
BRANCH  27  28
ATOM     28  C   UNL     1      -3.523   6.705   3.599  1.00  0.00     0.338 C 
ATOM     29  O   UNL     1      -3.364   6.641   2.389  1.00  0.00    -0.246 OA
BRANCH  28  30
ATOM     30  C   UNL     1      -3.967   5.545   4.394  1.00  0.00     0.060 A 
ATOM     31  C   UNL     1      -3.120   4.985   5.340  1.00  0.00     0.016 A 
ATOM     32  C   UNL     1      -5.155   4.890   4.055  1.00  0.00     0.016 A 
ATOM     33  C   UNL     1      -3.401   3.701   5.830  1.00  0.00     0.010 A 
ATOM     34  C   UNL     1      -5.456   3.634   4.609  1.00  0.00     0.010 A 
ATOM     35  C   UNL     1      -4.532   2.960   5.426  1.00  0.00    -0.014 A 
BRANCH  35  36
ATOM     36  C   UNL     1      -4.669   1.477   5.720  1.00  0.00     0.031 A 
ATOM     37  C   UNL     1      -5.071   0.489   4.625  1.00  0.00     0.074 A 
ATOM     38  C   UNL     1      -4.376   0.943   6.928  1.00  0.00     0.049 A 
ATOM     39  N   UNL     1      -5.437  -0.769   4.734  1.00  0.00    -0.248 NA
ATOM     40  C   UNL     1      -5.083   0.977   3.236  1.00  0.00     0.031 C 
ATOM     41  C   UNL     1      -3.948   1.688   8.109  1.00  0.00     0.029 A 
ATOM     42  N   UNL     1      -4.377  -0.370   7.359  1.00  0.00    -0.354 N 
ATOM     43  C   UNL     1      -5.840  -1.172   3.461  1.00  0.00     0.074 A 
ATOM     44  C   UNL     1      -5.643  -0.036   2.588  1.00  0.00     0.031 C 
ATOM     45  C   UNL     1      -3.646   0.830   9.093  1.00  0.00     0.029 A 
ATOM     46  C   UNL     1      -3.981  -0.527   8.669  1.00  0.00     0.049 A 
ATOM     47  H   UNL     1      -4.637  -1.124   6.782  1.00  0.00     0.167 HD
ATOM     48  C   UNL     1      -6.318  -2.372   3.042  1.00  0.00     0.034 A 
ATOM     49  C   UNL     1      -3.932  -1.611   9.473  1.00  0.00     0.034 A 
ATOM     50  C   UNL     1      -6.363  -3.569   3.842  1.00  0.00     0.049 A 
ATOM     51  C   UNL     1      -4.396  -2.951   8.971  1.00  0.00     0.074 A 
ATOM     52  C   UNL     1      -6.799  -4.833   3.473  1.00  0.00     0.029 A 
ATOM     53  N   UNL     1      -5.911  -3.675   5.145  1.00  0.00    -0.354 N 
ATOM     54  N   UNL     1      -4.813  -3.286   7.777  1.00  0.00    -0.248 NA
ATOM     55  C   UNL     1      -4.389  -4.063   9.937  1.00  0.00     0.031 C 
ATOM     56  C   UNL     1      -6.599  -5.704   4.549  1.00  0.00     0.029 A 
ATOM     57  C   UNL     1      -6.037  -4.983   5.587  1.00  0.00     0.049 A 
ATOM     58  H   UNL     1      -5.552  -2.930   5.680  1.00  0.00     0.167 HD
ATOM     59  C   UNL     1      -5.117  -4.642   7.847  1.00  0.00     0.074 A 
ATOM     60  C   UNL     1      -4.792  -5.080   9.187  1.00  0.00     0.031 C 
ATOM     61  C   UNL     1      -5.656  -5.441   6.895  1.00  0.00     0.034 A 
BRANCH  48  62
ATOM     62  C   UNL     1      -6.814  -2.488   1.621  1.00  0.00     0.023 A 
ATOM     63  C   UNL     1      -5.897  -2.599   0.559  1.00  0.00     0.012 A 
ATOM     64  C   UNL     1      -8.195  -2.603   1.356  1.00  0.00     0.148 A 
ATOM     65  C   UNL     1      -6.346  -2.800  -0.747  1.00  0.00     0.002 A 
ATOM     66  C   UNL     1      -8.633  -2.847   0.059  1.00  0.00     0.091 A 
ATOM     67  F   UNL     1      -9.056  -2.480   2.377  1.00  0.00    -0.205 F 
ATOM     68  C   UNL     1      -7.711  -2.937  -0.995  1.00  0.00     0.022 A 
BRANCH  66  69
ATOM     69  S   UNL     1     -10.365  -3.132  -0.333  1.00  0.00     0.127 S 
ATOM     70  O   UNL     1     -10.751  -1.849  -0.917  1.00  0.00    -0.237 OA
ATOM     71  O   UNL     1     -10.293  -4.238  -1.289  1.00  0.00    -0.237 OA
ATOM     72  O   UNL     1     -11.007  -3.469   0.930  1.00  0.00    -0.744 OA
ENDBRANCH  66  69
ENDBRANCH  48  62
BRANCH  49  73
ATOM     73  C   UNL     1      -3.424  -1.471  10.870  1.00  0.00     0.023 A 
ATOM     74  C   UNL     1      -2.212  -2.088  11.235  1.00  0.00     0.012 A 
ATOM     75  C   UNL     1      -4.109  -0.693  11.821  1.00  0.00     0.148 A 
ATOM     76  C   UNL     1      -1.698  -1.937  12.525  1.00  0.00     0.002 A 
ATOM     77  C   UNL     1      -3.550  -0.479  13.075  1.00  0.00     0.091 A 
ATOM     78  F   UNL     1      -5.286  -0.152  11.476  1.00  0.00    -0.205 F 
ATOM     79  C   UNL     1      -2.355  -1.114  13.437  1.00  0.00     0.022 A 
BRANCH  77  80
ATOM     80  S   UNL     1      -4.247   0.729  14.207  1.00  0.00     0.127 S 
ATOM     81  O   UNL     1      -5.046  -0.111  15.092  1.00  0.00    -0.237 OA
ATOM     82  O   UNL     1      -3.050   1.309  14.819  1.00  0.00    -0.237 OA
ATOM     83  O   UNL     1      -4.982   1.658  13.358  1.00  0.00    -0.744 OA
ENDBRANCH  77  80
ENDBRANCH  49  73
BRANCH  61  84
ATOM     84  C   UNL     1      -5.915  -6.882   7.250  1.00  0.00     0.023 A 
ATOM     85  C   UNL     1      -7.011  -7.204   8.076  1.00  0.00     0.012 A 
ATOM     86  C   UNL     1      -5.116  -7.918   6.729  1.00  0.00     0.148 A 
ATOM     87  C   UNL     1      -7.289  -8.531   8.402  1.00  0.00     0.002 A 
ATOM     88  C   UNL     1      -5.421  -9.242   7.030  1.00  0.00     0.091 A 
ATOM     89  F   UNL     1      -4.064  -7.594   5.963  1.00  0.00    -0.205 F 
ATOM     90  C   UNL     1      -6.502  -9.550   7.872  1.00  0.00     0.022 A 
BRANCH  88  91
ATOM     91  S   UNL     1      -4.500 -10.618   6.330  1.00  0.00     0.127 S 
ATOM     92  O   UNL     1      -3.623 -10.985   7.440  1.00  0.00    -0.237 OA
ATOM     93  O   UNL     1      -5.555 -11.591   6.041  1.00  0.00    -0.237 OA
ATOM     94  O   UNL     1      -3.835 -10.086   5.149  1.00  0.00    -0.744 OA
ENDBRANCH  88  91
ENDBRANCH  61  84
ENDBRANCH  35  36
ENDBRANCH  28  30
ENDBRANCH  27  28
ENDBRANCH  26  27
ENDBRANCH   1  26
TORSDOF 21
