REMARK SMILES C[N@@H+]1CCC[C@@H](C[NH2+]CC(=O)OCCOC(=O)c2ccc(-c3c4nc(c(-c5cccc(S(=O)(=O)[O-])c5F)c5ccc([nH]5)c(-c5cccc(S(=O)(=O)[O-])c5F)c5nc(c(-c6cccc(S(=O)(=O)[O-])c6F)c6ccc3[nH]6)C=C5)C=C4)cc2)C1
REMARK SMILES IDX 13 1 12 2 10 3 11 4 9 5 8 6 7 9 6 10 1 11 2 12 3 13 81 14
REMARK SMILES IDX 4 16 5 17 14 18 15 19 16 20 17 21 18 22 19 23 80 24 20 25
REMARK SMILES IDX 79 26 21 27 22 28 23 29 73 30 24 31 78 32 72 33 74 34 25 35
REMARK SMILES IDX 77 36 71 37 70 38 26 40 58 41 38 42 57 43 39 44 42 45 56 46
REMARK SMILES IDX 75 47 40 48 41 49 55 51 76 52 43 53 27 54 28 55 36 56 29 57
REMARK SMILES IDX 31 58 37 59 30 60 32 61 33 62 34 63 35 64 59 65 60 66 68 67
REMARK SMILES IDX 61 68 63 69 69 70 62 71 64 72 65 73 66 74 67 75 44 76 45 77
REMARK SMILES IDX 53 78 46 79 48 80 54 81 47 82 49 83 50 84 51 85 52 86
REMARK H PARENT 8 7 8 8 2 15 74 39 42 50
REMARK Flexibility Score: inf
ROOT
ATOM      1  C   UNL     1      -0.225   0.928   4.899  1.00  0.00     0.274 C 
ENDROOT
BRANCH   1   2
ATOM      2  O   UNL     1       0.622   0.005   4.191  1.00  0.00    -0.458 OA
BRANCH   2   3
ATOM      3  C   UNL     1       0.773  -1.238   4.716  1.00  0.00     0.361 C 
ATOM      4  O   UNL     1       0.382  -1.569   5.830  1.00  0.00    -0.245 OA
BRANCH   3   5
ATOM      5  C   UNL     1       1.520  -2.189   3.776  1.00  0.00     0.384 C 
BRANCH   5   6
ATOM      6  N   UNL     1       1.053  -2.174   2.369  1.00  0.00    -0.337 N 
ATOM      7  H   UNL     1       1.314  -3.056   1.928  1.00  0.00     0.346 HD
ATOM      8  H   UNL     1       0.041  -2.046   2.379  1.00  0.00     0.346 HD
BRANCH   6   9
ATOM      9  C   UNL     1       1.635  -1.074   1.599  1.00  0.00     0.270 C 
BRANCH   9  10
ATOM     10  C   UNL     1       1.283  -1.118   0.094  1.00  0.00     0.099 C 
ATOM     11  C   UNL     1      -2.302   0.112  -0.120  1.00  0.00     0.332 C 
ATOM     12  N   UNL     1      -0.862   0.179   0.137  1.00  0.00    -0.337 N 
ATOM     13  C   UNL     1      -0.256   1.302  -0.581  1.00  0.00     0.262 C 
ATOM     14  C   UNL     1      -0.227  -1.101  -0.216  1.00  0.00     0.271 C 
ATOM     15  H   UNL     1      -0.711   0.343   1.132  1.00  0.00     0.347 HD
ATOM     16  C   UNL     1       1.248   1.389  -0.317  1.00  0.00     0.062 C 
ATOM     17  C   UNL     1       1.951   0.067  -0.629  1.00  0.00     0.021 C 
ENDBRANCH   9  10
ENDBRANCH   6   9
ENDBRANCH   5   6
ENDBRANCH   3   5
ENDBRANCH   2   3
ENDBRANCH   1   2
BRANCH   1  18
ATOM     18  C   UNL     1      -1.626   0.971   4.281  1.00  0.00     0.275 C 
BRANCH  18  19
ATOM     19  O   UNL     1      -2.418  -0.160   4.688  1.00  0.00    -0.458 OA
BRANCH  19  20
ATOM     20  C   UNL     1      -2.289  -1.257   3.908  1.00  0.00     0.338 C 
ATOM     21  O   UNL     1      -1.629  -1.362   2.888  1.00  0.00    -0.246 OA
BRANCH  20  22
ATOM     22  C   UNL     1      -2.947  -2.419   4.516  1.00  0.00     0.060 A 
ATOM     23  C   UNL     1      -2.229  -3.620   4.539  1.00  0.00     0.016 A 
ATOM     24  C   UNL     1      -4.266  -2.363   4.967  1.00  0.00     0.016 A 
ATOM     25  C   UNL     1      -2.839  -4.783   4.991  1.00  0.00     0.010 A 
ATOM     26  C   UNL     1      -4.876  -3.532   5.425  1.00  0.00     0.010 A 
ATOM     27  C   UNL     1      -4.172  -4.749   5.417  1.00  0.00    -0.014 A 
BRANCH  27  28
ATOM     28  C   UNL     1      -4.843  -6.010   5.796  1.00  0.00     0.031 A 
ATOM     29  C   UNL     1      -5.811  -6.650   4.845  1.00  0.00     0.074 A 
ATOM     30  C   UNL     1      -4.571  -6.573   6.987  1.00  0.00     0.049 A 
ATOM     31  N   UNL     1      -6.516  -7.740   4.997  1.00  0.00    -0.248 NA
ATOM     32  C   UNL     1      -6.015  -5.974   3.553  1.00  0.00     0.031 C 
ATOM     33  C   UNL     1      -3.644  -6.032   7.982  1.00  0.00     0.029 A 
ATOM     34  N   UNL     1      -5.059  -7.715   7.566  1.00  0.00    -0.354 N 
ATOM     35  C   UNL     1      -7.271  -7.865   3.838  1.00  0.00     0.074 A 
ATOM     36  C   UNL     1      -6.945  -6.737   2.994  1.00  0.00     0.031 C 
ATOM     37  C   UNL     1      -3.646  -6.834   9.059  1.00  0.00     0.029 A 
ATOM     38  C   UNL     1      -4.588  -7.928   8.838  1.00  0.00     0.049 A 
ATOM     39  H   UNL     1      -5.688  -8.323   7.114  1.00  0.00     0.167 HD
ATOM     40  C   UNL     1      -8.146  -8.843   3.504  1.00  0.00     0.034 A 
ATOM     41  C   UNL     1      -4.894  -8.891   9.729  1.00  0.00     0.034 A 
ATOM     42  C   UNL     1      -8.437  -9.979   4.337  1.00  0.00     0.049 A 
ATOM     43  C   UNL     1      -5.864  -9.969   9.327  1.00  0.00     0.074 A 
ATOM     44  C   UNL     1      -9.278 -11.045   4.075  1.00  0.00     0.029 A 
ATOM     45  N   UNL     1      -7.896 -10.194   5.596  1.00  0.00    -0.354 N 
ATOM     46  N   UNL     1      -6.489 -10.133   8.185  1.00  0.00    -0.248 NA
ATOM     47  C   UNL     1      -6.146 -11.013  10.322  1.00  0.00     0.031 C 
ATOM     48  C   UNL     1      -9.254 -11.901   5.182  1.00  0.00     0.029 A 
ATOM     49  C   UNL     1      -8.387 -11.375   6.126  1.00  0.00     0.049 A 
ATOM     50  H   UNL     1      -7.258  -9.595   6.046  1.00  0.00     0.167 HD
ATOM     51  C   UNL     1      -7.212 -11.314   8.312  1.00  0.00     0.074 A 
ATOM     52  C   UNL     1      -6.930 -11.834   9.635  1.00  0.00     0.031 C 
ATOM     53  C   UNL     1      -8.046 -11.905   7.422  1.00  0.00     0.034 A 
BRANCH  40  54
ATOM     54  C   UNL     1      -8.823  -8.745   2.164  1.00  0.00     0.023 A 
ATOM     55  C   UNL     1      -8.094  -9.043   0.995  1.00  0.00     0.012 A 
ATOM     56  C   UNL     1     -10.187  -8.409   2.062  1.00  0.00     0.148 A 
ATOM     57  C   UNL     1      -8.704  -8.982  -0.257  1.00  0.00     0.002 A 
ATOM     58  C   UNL     1     -10.798  -8.386   0.814  1.00  0.00     0.091 A 
ATOM     59  F   UNL     1     -10.856  -8.103   3.183  1.00  0.00    -0.205 F 
ATOM     60  C   UNL     1     -10.057  -8.664  -0.347  1.00  0.00     0.022 A 
BRANCH  58  61
ATOM     61  S   UNL     1     -12.551  -8.052   0.604  1.00  0.00     0.127 S 
ATOM     62  O   UNL     1     -12.531  -6.690   0.075  1.00  0.00    -0.237 OA
ATOM     63  O   UNL     1     -12.949  -9.076  -0.363  1.00  0.00    -0.237 OA
ATOM     64  O   UNL     1     -13.146  -8.205   1.925  1.00  0.00    -0.744 OA
ENDBRANCH  58  61
ENDBRANCH  40  54
BRANCH  41  65
ATOM     65  C   UNL     1      -4.233  -8.902  11.063  1.00  0.00     0.023 A 
ATOM     66  C   UNL     1      -3.286  -9.902  11.357  1.00  0.00     0.012 A 
ATOM     67  C   UNL     1      -4.506  -7.909  12.024  1.00  0.00     0.148 A 
ATOM     68  C   UNL     1      -2.641  -9.926  12.594  1.00  0.00     0.002 A 
ATOM     69  C   UNL     1      -3.821  -7.909  13.234  1.00  0.00     0.091 A 
ATOM     70  F   UNL     1      -5.426  -6.978  11.733  1.00  0.00    -0.205 F 
ATOM     71  C   UNL     1      -2.899  -8.925  13.527  1.00  0.00     0.022 A 
BRANCH  69  72
ATOM     72  S   UNL     1      -4.001  -6.585  14.435  1.00  0.00     0.127 S 
ATOM     73  O   UNL     1      -4.830  -7.218  15.457  1.00  0.00    -0.237 OA
ATOM     74  O   UNL     1      -2.614  -6.340  14.831  1.00  0.00    -0.237 OA
ATOM     75  O   UNL     1      -4.617  -5.483  13.708  1.00  0.00    -0.744 OA
ENDBRANCH  69  72
ENDBRANCH  41  65
BRANCH  53  76
ATOM     76  C   UNL     1      -8.696 -13.199   7.832  1.00  0.00     0.023 A 
ATOM     77  C   UNL     1      -9.756 -13.182   8.760  1.00  0.00     0.012 A 
ATOM     78  C   UNL     1      -8.312 -14.418   7.240  1.00  0.00     0.148 A 
ATOM     79  C   UNL     1     -10.407 -14.363   9.112  1.00  0.00     0.002 A 
ATOM     80  C   UNL     1      -8.995 -15.585   7.564  1.00  0.00     0.091 A 
ATOM     81  F   UNL     1      -7.287 -14.417   6.376  1.00  0.00    -0.205 F 
ATOM     82  C   UNL     1     -10.035 -15.561   8.506  1.00  0.00     0.022 A 
BRANCH  80  83
ATOM     83  S   UNL     1      -8.641 -17.153   6.760  1.00  0.00     0.127 S 
ATOM     84  O   UNL     1      -7.859 -17.844   7.784  1.00  0.00    -0.237 OA
ATOM     85  O   UNL     1      -9.979 -17.703   6.540  1.00  0.00    -0.237 OA
ATOM     86  O   UNL     1      -7.922 -16.818   5.538  1.00  0.00    -0.744 OA
ENDBRANCH  80  83
ENDBRANCH  53  76
ENDBRANCH  27  28
ENDBRANCH  20  22
ENDBRANCH  19  20
ENDBRANCH  18  19
ENDBRANCH   1  18
TORSDOF 17
