REMARK SMILES O=C(OCCOC(=O)c1ccc(-c2c3nc(c(-c4cccc(S(=O)(=O)[O-])c4F)c4ccc([nH]4)c(-c4cccc(S(=O)(=O)[O-])c4F)c4nc(c(-c5cccc(S(=O)(=O)[O-])c5F)c5ccc2[nH]5)C=C4)C=C3)cc1)C1=Cc2cc(Cl)ccc2O[C@@H]1C(F)(F)F
REMARK SMILES IDX 5 1 4 2 3 3 2 4 1 5 72 6 73 7 82 8 74 9 81 10 75 11 80 12
REMARK SMILES IDX 76 13 79 14 77 15 78 16 83 17 84 18 85 19 86 20 6 21 7 22
REMARK SMILES IDX 8 23 9 24 10 25 71 26 11 27 70 28 12 29 13 30 14 31 64 32
REMARK SMILES IDX 15 33 69 34 63 35 65 36 16 37 68 38 62 39 61 40 17 42 49 43
REMARK SMILES IDX 29 44 48 45 30 46 33 47 47 48 66 49 31 50 32 51 46 53 67 54
REMARK SMILES IDX 34 55 18 56 19 57 27 58 20 59 22 60 28 61 21 62 23 63 24 64
REMARK SMILES IDX 25 65 26 66 50 67 51 68 59 69 52 70 54 71 60 72 53 73 55 74
REMARK SMILES IDX 56 75 57 76 58 77 35 78 36 79 44 80 37 81 39 82 45 83 38 84
REMARK SMILES IDX 40 85 41 86 42 87 43 88
REMARK H PARENT 65 41 33 52
REMARK Flexibility Score: inf
ROOT
ATOM      1  C   UNL     1       4.655  -0.442  -0.769  1.00  0.00     0.275 C 
ENDROOT
BRANCH   1   2
ATOM      2  C   UNL     1       3.864   0.969   0.668  1.00  0.00     0.275 C 
BRANCH   2   3
ATOM      3  O   UNL     1       3.027   2.239   0.349  1.00  0.00    -0.459 OA
BRANCH   3   4
ATOM      4  C   UNL     1       3.242   2.718  -0.883  1.00  0.00     0.338 C 
ATOM      5  O   UNL     1       2.662   3.586  -1.481  1.00  0.00    -0.246 OA
BRANCH   4   6
ATOM      6  C   UNL     1       4.066   1.613  -1.309  1.00  0.00     0.087 C 
ATOM      7  C   UNL     1       5.434   1.698  -0.777  1.00  0.00     0.027 C 
ATOM      8  C   UNL     1       2.782   0.237  -0.878  1.00  0.00     0.316 C 
ATOM      9  C   UNL     1       6.055   0.618   0.526  1.00  0.00     0.019 A 
ATOM     10  O   UNL     1       3.406  -0.889   0.559  1.00  0.00    -0.475 OA
ATOM     11  C   UNL     1       7.260   0.920   1.096  1.00  0.00     0.032 A 
ATOM     12  C   UNL     1       5.066  -0.606   1.263  1.00  0.00     0.128 A 
ATOM     13  C   UNL     1       7.559   0.183   2.253  1.00  0.00     0.041 A 
ATOM     14  C   UNL     1       5.440  -1.284   2.388  1.00  0.00     0.048 A 
ATOM     15  Cl  UNL     1       9.052   0.576   3.050  1.00  0.00    -0.084 Cl
ATOM     16  C   UNL     1       6.709  -0.846   2.860  1.00  0.00     0.024 A 
BRANCH   8  17
ATOM     17  C   UNL     1       2.306  -0.042  -2.358  1.00  0.00     0.430 C 
ATOM     18  F   UNL     1       1.033  -0.461  -2.391  1.00  0.00    -0.167 F 
ATOM     19  F   UNL     1       2.276   1.148  -3.032  1.00  0.00    -0.167 F 
ATOM     20  F   UNL     1       3.093  -0.800  -3.134  1.00  0.00    -0.167 F 
ENDBRANCH   8  17
ENDBRANCH   4   6
ENDBRANCH   3   4
ENDBRANCH   2   3
ENDBRANCH   1   2
BRANCH   1  21
ATOM     21  O   UNL     1       3.844  -1.867  -1.323  1.00  0.00    -0.458 OA
BRANCH  21  22
ATOM     22  C   UNL     1       2.958  -2.854  -0.964  1.00  0.00     0.338 C 
ATOM     23  O   UNL     1       2.521  -3.152   0.133  1.00  0.00    -0.246 OA
BRANCH  22  24
ATOM     24  C   UNL     1       2.285  -3.264  -2.237  1.00  0.00     0.060 A 
ATOM     25  C   UNL     1       0.925  -2.946  -2.412  1.00  0.00     0.016 A 
ATOM     26  C   UNL     1       3.072  -3.573  -3.346  1.00  0.00     0.016 A 
ATOM     27  C   UNL     1       0.429  -2.698  -3.707  1.00  0.00     0.010 A 
ATOM     28  C   UNL     1       2.568  -3.342  -4.629  1.00  0.00     0.010 A 
ATOM     29  C   UNL     1       1.272  -2.828  -4.819  1.00  0.00    -0.014 A 
BRANCH  29  30
ATOM     30  C   UNL     1       0.764  -2.686  -6.210  1.00  0.00     0.031 A 
ATOM     31  C   UNL     1       0.238  -3.945  -6.830  1.00  0.00     0.074 A 
ATOM     32  C   UNL     1       0.876  -1.561  -6.949  1.00  0.00     0.049 A 
ATOM     33  N   UNL     1      -0.149  -4.176  -8.053  1.00  0.00    -0.248 NA
ATOM     34  C   UNL     1       0.186  -5.119  -5.941  1.00  0.00     0.031 C 
ATOM     35  C   UNL     1       1.404  -0.275  -6.491  1.00  0.00     0.029 A 
ATOM     36  N   UNL     1       0.582  -1.335  -8.278  1.00  0.00    -0.354 N 
ATOM     37  C   UNL     1      -0.453  -5.528  -8.088  1.00  0.00     0.074 A 
ATOM     38  C   UNL     1      -0.171  -6.072  -6.780  1.00  0.00     0.031 C 
ATOM     39  C   UNL     1       1.426   0.590  -7.526  1.00  0.00     0.029 A 
ATOM     40  C   UNL     1       0.928  -0.077  -8.729  1.00  0.00     0.049 A 
ATOM     41  H   UNL     1       0.162  -2.012  -8.856  1.00  0.00     0.167 HD
ATOM     42  C   UNL     1      -0.945  -6.263  -9.109  1.00  0.00     0.034 A 
ATOM     43  C   UNL     1       0.859   0.460  -9.969  1.00  0.00     0.034 A 
ATOM     44  C   UNL     1      -1.212  -5.737 -10.412  1.00  0.00     0.049 A 
ATOM     45  C   UNL     1       0.304  -0.382 -11.103  1.00  0.00     0.074 A 
ATOM     46  C   UNL     1      -1.748  -6.385 -11.506  1.00  0.00     0.029 A 
ATOM     47  N   UNL     1      -0.938  -4.435 -10.801  1.00  0.00    -0.354 N 
ATOM     48  N   UNL     1      -0.139  -1.617 -11.079  1.00  0.00    -0.248 NA
ATOM     49  C   UNL     1       0.207   0.254 -12.430  1.00  0.00     0.031 C 
ATOM     50  C   UNL     1      -1.772  -5.480 -12.571  1.00  0.00     0.029 A 
ATOM     51  C   UNL     1      -1.288  -4.259 -12.125  1.00  0.00     0.049 A 
ATOM     52  H   UNL     1      -0.551  -3.740 -10.220  1.00  0.00     0.167 HD
ATOM     53  C   UNL     1      -0.609  -1.886 -12.363  1.00  0.00     0.074 A 
ATOM     54  C   UNL     1      -0.408  -0.682 -13.141  1.00  0.00     0.031 C 
ATOM     55  C   UNL     1      -1.147  -3.028 -12.859  1.00  0.00     0.034 A 
BRANCH  42  56
ATOM     56  C   UNL     1      -1.218  -7.709  -8.815  1.00  0.00     0.023 A 
ATOM     57  C   UNL     1      -2.266  -8.053  -7.935  1.00  0.00     0.012 A 
ATOM     58  C   UNL     1      -0.401  -8.718  -9.354  1.00  0.00     0.148 A 
ATOM     59  C   UNL     1      -2.457  -9.376  -7.544  1.00  0.00     0.002 A 
ATOM     60  C   UNL     1      -0.633 -10.041  -9.003  1.00  0.00     0.091 A 
ATOM     61  F   UNL     1       0.608  -8.363 -10.161  1.00  0.00    -0.205 F 
ATOM     62  C   UNL     1      -1.645 -10.369  -8.083  1.00  0.00     0.022 A 
BRANCH  60  63
ATOM     63  S   UNL     1       0.309 -11.402  -9.692  1.00  0.00     0.127 S 
ATOM     64  O   UNL     1       1.045 -11.876  -8.521  1.00  0.00    -0.237 OA
ATOM     65  O   UNL     1      -0.750 -12.300 -10.152  1.00  0.00    -0.237 OA
ATOM     66  O   UNL     1       1.127 -10.831 -10.753  1.00  0.00    -0.744 OA
ENDBRANCH  60  63
ENDBRANCH  42  56
BRANCH  43  67
ATOM     67  C   UNL     1       1.268   1.879 -10.236  1.00  0.00     0.023 A 
ATOM     68  C   UNL     1       0.285   2.824 -10.601  1.00  0.00     0.012 A 
ATOM     69  C   UNL     1       2.616   2.289 -10.194  1.00  0.00     0.148 A 
ATOM     70  C   UNL     1       0.636   4.127 -10.964  1.00  0.00     0.002 A 
ATOM     71  C   UNL     1       2.955   3.604 -10.510  1.00  0.00     0.091 A 
ATOM     72  F   UNL     1       3.545   1.382  -9.865  1.00  0.00    -0.205 F 
ATOM     73  C   UNL     1       1.969   4.519 -10.914  1.00  0.00     0.022 A 
BRANCH  71  74
ATOM     74  S   UNL     1       4.635   4.237 -10.394  1.00  0.00     0.127 S 
ATOM     75  O   UNL     1       4.947   4.523 -11.792  1.00  0.00    -0.237 OA
ATOM     76  O   UNL     1       4.453   5.419  -9.551  1.00  0.00    -0.237 OA
ATOM     77  O   UNL     1       5.417   3.172  -9.781  1.00  0.00    -0.744 OA
ENDBRANCH  71  74
ENDBRANCH  43  67
BRANCH  55  78
ATOM     78  C   UNL     1      -1.627  -3.038 -14.288  1.00  0.00     0.023 A 
ATOM     79  C   UNL     1      -0.699  -3.069 -15.346  1.00  0.00     0.012 A 
ATOM     80  C   UNL     1      -3.003  -3.165 -14.569  1.00  0.00     0.148 A 
ATOM     81  C   UNL     1      -1.135  -3.210 -16.664  1.00  0.00     0.002 A 
ATOM     82  C   UNL     1      -3.425  -3.360 -15.878  1.00  0.00     0.091 A 
ATOM     83  F   UNL     1      -3.870  -3.118 -13.547  1.00  0.00    -0.205 F 
ATOM     84  C   UNL     1      -2.493  -3.372 -16.928  1.00  0.00     0.022 A 
BRANCH  82  85
ATOM     85  S   UNL     1      -5.140  -3.698 -16.296  1.00  0.00     0.127 S 
ATOM     86  O   UNL     1      -5.531  -2.461 -16.970  1.00  0.00    -0.237 OA
ATOM     87  O   UNL     1      -5.021  -4.861 -17.175  1.00  0.00    -0.237 OA
ATOM     88  O   UNL     1      -5.818  -3.962 -15.034  1.00  0.00    -0.744 OA
ENDBRANCH  82  85
ENDBRANCH  55  78
ENDBRANCH  29  30
ENDBRANCH  22  24
ENDBRANCH  21  22
ENDBRANCH   1  21
TORSDOF 15
