REMARK SMILES C[N@H+](Cc1ccc2nsnc2c1)Cc1ccccc1C(=O)OCCOC(=O)c1ccc(-c2c3nc(c(-c4cccc(S(=O)(=O)[O-])c4F)c4ccc([nH]4)c(-c4cccc(S(=O)(=O)[O-])c4F)c4nc(c(-c5cccc(S(=O)(=O)[O-])c5F)c5ccc2[nH]5)C=C4)C=C3)cc1
REMARK SMILES IDX 23 1 22 2 20 3 21 4 19 5 14 6 15 7 16 8 18 9 17 10 13 11
REMARK SMILES IDX 2 12 1 13 3 15 4 16 5 17 12 18 6 19 11 20 7 21 10 22 8 23
REMARK SMILES IDX 9 24 24 25 25 26 26 27 27 28 28 29 29 30 90 31 30 32 89 33
REMARK SMILES IDX 31 34 32 35 33 36 83 37 34 38 88 39 82 40 84 41 35 42 87 43
REMARK SMILES IDX 81 44 80 45 36 47 68 48 48 49 67 50 49 51 52 52 66 53 85 54
REMARK SMILES IDX 50 55 51 56 65 58 86 59 53 60 37 61 38 62 46 63 39 64 41 65
REMARK SMILES IDX 47 66 40 67 42 68 43 69 44 70 45 71 69 72 70 73 78 74 71 75
REMARK SMILES IDX 73 76 79 77 72 78 74 79 75 80 76 81 77 82 54 83 55 84 63 85
REMARK SMILES IDX 56 86 58 87 64 88 57 89 59 90 60 91 61 92 62 93
REMARK H PARENT 2 14 84 46 52 57
REMARK Flexibility Score: inf
ROOT
ATOM      1  C   UNL     1       0.899  -1.492   0.001  1.00  0.00     0.275 C 
ENDROOT
BRANCH   1   2
ATOM      2  O   UNL     1       1.118  -0.292   0.780  1.00  0.00    -0.458 OA
BRANCH   2   3
ATOM      3  C   UNL     1       0.134  -0.003   1.671  1.00  0.00     0.338 C 
ATOM      4  O   UNL     1      -0.716  -0.804   2.037  1.00  0.00    -0.246 OA
BRANCH   3   5
ATOM      5  C   UNL     1       0.268   1.335   2.328  1.00  0.00     0.068 A 
ATOM      6  C   UNL     1       0.555   2.558   1.695  1.00  0.00     0.021 A 
ATOM      7  C   UNL     1       0.706   3.710   2.512  1.00  0.00     0.010 A 
ATOM      8  C   UNL     1       0.501   3.673   3.892  1.00  0.00     0.001 A 
ATOM      9  C   UNL     1      -0.025   1.343   3.710  1.00  0.00     0.016 A 
ATOM     10  C   UNL     1       0.109   2.489   4.490  1.00  0.00     0.001 A 
BRANCH   6  11
ATOM     11  C   UNL     1       0.673   2.801   0.204  1.00  0.00     0.300 C 
BRANCH  11  12
ATOM     12  N   UNL     1       0.151   1.758  -0.685  1.00  0.00    -0.330 N 
ATOM     13  C   UNL     1       1.055   1.591  -1.821  1.00  0.00     0.333 C 
ATOM     14  H   UNL     1       0.124   0.904  -0.128  1.00  0.00     0.348 HD
BRANCH  12  15
ATOM     15  C   UNL     1      -1.254   1.906  -1.103  1.00  0.00     0.299 C 
BRANCH  15  16
ATOM     16  C   UNL     1      -2.253   1.744   0.040  1.00  0.00     0.009 A 
ATOM     17  C   UNL     1      -2.768   0.449   0.346  1.00  0.00     0.012 A 
ATOM     18  C   UNL     1      -2.542   2.860   0.859  1.00  0.00     0.041 A 
ATOM     19  C   UNL     1      -3.492   0.144   1.520  1.00  0.00     0.032 A 
ATOM     20  C   UNL     1      -3.198   2.597   2.086  1.00  0.00     0.105 A 
ATOM     21  C   UNL     1      -3.666   1.210   2.431  1.00  0.00     0.104 A 
ATOM     22  N   UNL     1      -3.439   3.497   3.053  1.00  0.00    -0.173 NA
ATOM     23  N   UNL     1      -4.215   1.129   3.652  1.00  0.00    -0.173 NA
ATOM     24  S   UNL     1      -4.098   2.643   4.321  1.00  0.00     0.069 S 
ENDBRANCH  15  16
ENDBRANCH  12  15
ENDBRANCH  11  12
ENDBRANCH   6  11
ENDBRANCH   3   5
ENDBRANCH   2   3
ENDBRANCH   1   2
BRANCH   1  25
ATOM     25  C   UNL     1       2.049  -2.486   0.142  1.00  0.00     0.275 C 
BRANCH  25  26
ATOM     26  O   UNL     1       2.028  -3.069   1.453  1.00  0.00    -0.458 OA
BRANCH  26  27
ATOM     27  C   UNL     1       2.833  -2.472   2.355  1.00  0.00     0.338 C 
ATOM     28  O   UNL     1       3.715  -1.645   2.142  1.00  0.00    -0.246 OA
BRANCH  27  29
ATOM     29  C   UNL     1       2.324  -2.785   3.690  1.00  0.00     0.060 A 
ATOM     30  C   UNL     1       1.442  -1.861   4.240  1.00  0.00     0.016 A 
ATOM     31  C   UNL     1       2.724  -3.895   4.422  1.00  0.00     0.016 A 
ATOM     32  C   UNL     1       0.944  -2.012   5.520  1.00  0.00     0.010 A 
ATOM     33  C   UNL     1       2.226  -4.057   5.721  1.00  0.00     0.010 A 
ATOM     34  C   UNL     1       1.348  -3.106   6.281  1.00  0.00    -0.014 A 
BRANCH  34  35
ATOM     35  C   UNL     1       0.970  -3.140   7.711  1.00  0.00     0.031 A 
ATOM     36  C   UNL     1       2.038  -2.901   8.737  1.00  0.00     0.074 A 
ATOM     37  C   UNL     1      -0.315  -3.296   8.081  1.00  0.00     0.049 A 
ATOM     38  N   UNL     1       1.983  -3.027  10.034  1.00  0.00    -0.248 NA
ATOM     39  C   UNL     1       3.350  -2.463   8.229  1.00  0.00     0.031 C 
ATOM     40  C   UNL     1      -1.449  -3.429   7.165  1.00  0.00     0.029 A 
ATOM     41  N   UNL     1      -0.882  -3.368   9.328  1.00  0.00    -0.354 N 
ATOM     42  C   UNL     1       3.269  -2.770  10.490  1.00  0.00     0.074 A 
ATOM     43  C   UNL     1       4.079  -2.453   9.335  1.00  0.00     0.031 C 
ATOM     44  C   UNL     1      -2.576  -3.572   7.881  1.00  0.00     0.029 A 
ATOM     45  C   UNL     1      -2.236  -3.610   9.299  1.00  0.00     0.049 A 
ATOM     46  H   UNL     1      -0.370  -3.257  10.161  1.00  0.00     0.167 HD
ATOM     47  C   UNL     1       3.730  -2.801  11.762  1.00  0.00     0.034 A 
ATOM     48  C   UNL     1      -3.091  -3.877  10.306  1.00  0.00     0.034 A 
ATOM     49  C   UNL     1       2.893  -3.054  12.902  1.00  0.00     0.049 A 
ATOM     50  C   UNL     1      -2.552  -3.917  11.711  1.00  0.00     0.074 A 
ATOM     51  C   UNL     1       3.247  -3.114  14.236  1.00  0.00     0.029 A 
ATOM     52  N   UNL     1       1.524  -3.274  12.838  1.00  0.00    -0.354 N 
ATOM     53  N   UNL     1      -1.332  -3.683  12.135  1.00  0.00    -0.248 NA
ATOM     54  C   UNL     1      -3.506  -4.245  12.779  1.00  0.00     0.031 C 
ATOM     55  C   UNL     1       2.092  -3.385  14.979  1.00  0.00     0.029 A 
ATOM     56  C   UNL     1       1.016  -3.468  14.110  1.00  0.00     0.049 A 
ATOM     57  H   UNL     1       0.993  -3.290  12.009  1.00  0.00     0.167 HD
ATOM     58  C   UNL     1      -1.375  -3.814  13.517  1.00  0.00     0.074 A 
ATOM     59  C   UNL     1      -2.750  -4.119  13.862  1.00  0.00     0.031 C 
ATOM     60  C   UNL     1      -0.369  -3.716  14.422  1.00  0.00     0.034 A 
BRANCH  47  61
ATOM     61  C   UNL     1       5.202  -2.574  11.972  1.00  0.00     0.023 A 
ATOM     62  C   UNL     1       5.750  -1.284  11.829  1.00  0.00     0.012 A 
ATOM     63  C   UNL     1       6.045  -3.649  12.320  1.00  0.00     0.148 A 
ATOM     64  C   UNL     1       7.120  -1.074  11.994  1.00  0.00     0.002 A 
ATOM     65  C   UNL     1       7.400  -3.424  12.526  1.00  0.00     0.091 A 
ATOM     66  F   UNL     1       5.509  -4.874  12.423  1.00  0.00    -0.205 F 
ATOM     67  C   UNL     1       7.942  -2.140  12.351  1.00  0.00     0.022 A 
BRANCH  65  68
ATOM     68  S   UNL     1       8.527  -4.719  13.054  1.00  0.00     0.127 S 
ATOM     69  O   UNL     1       9.322  -4.931  11.846  1.00  0.00    -0.237 OA
ATOM     70  O   UNL     1       9.247  -4.072  14.151  1.00  0.00    -0.237 OA
ATOM     71  O   UNL     1       7.690  -5.840  13.457  1.00  0.00    -0.744 OA
ENDBRANCH  65  68
ENDBRANCH  47  61
BRANCH  48  72
ATOM     72  C   UNL     1      -4.533  -4.133  10.019  1.00  0.00     0.023 A 
ATOM     73  C   UNL     1      -5.505  -3.219  10.470  1.00  0.00     0.012 A 
ATOM     74  C   UNL     1      -4.945  -5.262   9.283  1.00  0.00     0.148 A 
ATOM     75  C   UNL     1      -6.861  -3.437  10.212  1.00  0.00     0.002 A 
ATOM     76  C   UNL     1      -6.290  -5.441   8.979  1.00  0.00     0.091 A 
ATOM     77  F   UNL     1      -4.012  -6.138   8.886  1.00  0.00    -0.205 F 
ATOM     78  C   UNL     1      -7.252  -4.539   9.457  1.00  0.00     0.022 A 
BRANCH  76  79
ATOM     79  S   UNL     1      -6.862  -6.761   7.901  1.00  0.00     0.127 S 
ATOM     80  O   UNL     1      -7.492  -7.673   8.852  1.00  0.00    -0.237 OA
ATOM     81  O   UNL     1      -7.791  -6.054   7.019  1.00  0.00    -0.237 OA
ATOM     82  O   UNL     1      -5.669  -7.264   7.233  1.00  0.00    -0.744 OA
ENDBRANCH  76  79
ENDBRANCH  48  72
BRANCH  60  83
ATOM     83  C   UNL     1      -0.725  -3.904  15.872  1.00  0.00     0.023 A 
ATOM     84  C   UNL     1      -1.010  -5.194  16.360  1.00  0.00     0.012 A 
ATOM     85  C   UNL     1      -0.703  -2.813  16.762  1.00  0.00     0.148 A 
ATOM     86  C   UNL     1      -1.301  -5.389  17.709  1.00  0.00     0.002 A 
ATOM     87  C   UNL     1      -0.945  -3.023  18.113  1.00  0.00     0.091 A 
ATOM     88  F   UNL     1      -0.449  -1.591  16.271  1.00  0.00    -0.205 F 
ATOM     89  C   UNL     1      -1.256  -4.308  18.587  1.00  0.00     0.022 A 
BRANCH  87  90
ATOM     90  S   UNL     1      -0.808  -1.704  19.324  1.00  0.00     0.127 S 
ATOM     91  O   UNL     1      -2.212  -1.404  19.598  1.00  0.00    -0.237 OA
ATOM     92  O   UNL     1      -0.100  -2.361  20.423  1.00  0.00    -0.237 OA
ATOM     93  O   UNL     1      -0.053  -0.642  18.673  1.00  0.00    -0.744 OA
ENDBRANCH  87  90
ENDBRANCH  60  83
ENDBRANCH  34  35
ENDBRANCH  27  29
ENDBRANCH  26  27
ENDBRANCH  25  26
ENDBRANCH   1  25
TORSDOF 18
