REMARK SMILES O=C(OCCOC(=O)c1sccc1S(=O)(=O)Nc1ccc(Cn2cncn2)cc1)c1ccc(-c2c3nc(c(-c4cccc(S(=O)(=O)[O-])c4F)c4ccc([nH]4)c(-c4cccc(S(=O)(=O)[O-])c4F)c4nc(c(-c5cccc(S(=O)(=O)[O-])c5F)c5ccc2[nH]5)C=C4)C=C3)cc1
REMARK SMILES IDX 5 1 4 2 3 3 2 4 1 5 30 6 31 7 92 8 32 9 91 10 33 11 34 12
REMARK SMILES IDX 35 13 85 14 36 15 90 16 84 17 86 18 37 19 89 20 83 21 82 22
REMARK SMILES IDX 38 24 70 25 50 26 69 27 51 28 54 29 68 30 87 31 52 32 53 33
REMARK SMILES IDX 67 35 88 36 55 37 39 38 40 39 48 40 41 41 43 42 49 43 42 44
REMARK SMILES IDX 44 45 45 46 46 47 47 48 71 49 72 50 80 51 73 52 75 53 81 54
REMARK SMILES IDX 74 55 76 56 77 57 78 58 79 59 56 60 57 61 65 62 58 63 60 64
REMARK SMILES IDX 66 65 59 66 61 67 62 68 63 69 64 70 6 71 7 72 8 73 9 74
REMARK SMILES IDX 10 75 13 76 11 77 12 78 14 79 15 80 16 81 17 82 18 84 19 85
REMARK SMILES IDX 29 86 20 87 28 88 21 89 22 90 23 91 24 92 27 93 25 94 26 95
REMARK H PARENT 86 23 54 34 17 83
REMARK Flexibility Score: inf
ROOT
ATOM      1  C   UNL     1       5.503  -0.548   0.360  1.00  0.00     0.275 C 
ENDROOT
BRANCH   1   2
ATOM      2  C   UNL     1       5.469   0.848  -0.252  1.00  0.00     0.275 C 
BRANCH   2   3
ATOM      3  O   UNL     1       4.278   1.598   0.091  1.00  0.00    -0.458 OA
BRANCH   3   4
ATOM      4  C   UNL     1       3.187   1.909  -0.650  1.00  0.00     0.338 C 
ATOM      5  O   UNL     1       2.320   2.639  -0.174  1.00  0.00    -0.246 OA
BRANCH   4   6
ATOM      6  C   UNL     1       2.961   1.314  -1.988  1.00  0.00     0.060 A 
ATOM      7  C   UNL     1       3.949   1.274  -2.968  1.00  0.00     0.016 A 
ATOM      8  C   UNL     1       1.662   0.869  -2.296  1.00  0.00     0.016 A 
ATOM      9  C   UNL     1       3.677   0.706  -4.205  1.00  0.00     0.010 A 
ATOM     10  C   UNL     1       1.369   0.352  -3.558  1.00  0.00     0.010 A 
ATOM     11  C   UNL     1       2.383   0.272  -4.513  1.00  0.00    -0.014 A 
BRANCH  11  12
ATOM     12  C   UNL     1       2.149  -0.079  -5.910  1.00  0.00     0.031 A 
ATOM     13  C   UNL     1       2.716  -1.335  -6.465  1.00  0.00     0.074 A 
ATOM     14  C   UNL     1       1.514   0.764  -6.742  1.00  0.00     0.049 A 
ATOM     15  N   UNL     1       3.707  -1.463  -7.292  1.00  0.00    -0.248 NA
ATOM     16  C   UNL     1       2.097  -2.600  -6.060  1.00  0.00     0.031 C 
ATOM     17  C   UNL     1       0.641   1.886  -6.389  1.00  0.00     0.029 A 
ATOM     18  N   UNL     1       1.454   0.721  -8.104  1.00  0.00    -0.354 N 
ATOM     19  C   UNL     1       3.731  -2.810  -7.651  1.00  0.00     0.074 A 
ATOM     20  C   UNL     1       2.794  -3.480  -6.781  1.00  0.00     0.031 C 
ATOM     21  C   UNL     1      -0.033   2.274  -7.492  1.00  0.00     0.029 A 
ATOM     22  C   UNL     1       0.472   1.533  -8.636  1.00  0.00     0.049 A 
ATOM     23  H   UNL     1       2.053   0.165  -8.654  1.00  0.00     0.167 HD
ATOM     24  C   UNL     1       4.391  -3.280  -8.745  1.00  0.00     0.034 A 
ATOM     25  C   UNL     1       0.048   1.550  -9.916  1.00  0.00     0.034 A 
ATOM     26  C   UNL     1       5.295  -2.325  -9.319  1.00  0.00     0.049 A 
ATOM     27  C   UNL     1       1.118   1.008 -10.780  1.00  0.00     0.074 A 
ATOM     28  C   UNL     1       6.439  -1.671  -8.912  1.00  0.00     0.029 A 
ATOM     29  N   UNL     1       4.904  -1.715 -10.483  1.00  0.00    -0.354 N 
ATOM     30  N   UNL     1       2.253   1.610 -11.009  1.00  0.00    -0.248 NA
ATOM     31  C   UNL     1       1.057  -0.382 -11.202  1.00  0.00     0.031 C 
ATOM     32  C   UNL     1       6.451  -0.441  -9.632  1.00  0.00     0.029 A 
ATOM     33  C   UNL     1       5.292  -0.402 -10.413  1.00  0.00     0.049 A 
ATOM     34  H   UNL     1       4.431  -2.142 -11.234  1.00  0.00     0.167 HD
ATOM     35  C   UNL     1       3.163   0.584 -11.225  1.00  0.00     0.074 A 
ATOM     36  C   UNL     1       2.342  -0.587 -11.501  1.00  0.00     0.031 C 
ATOM     37  C   UNL     1       4.479   0.710 -10.870  1.00  0.00     0.034 A 
BRANCH  24  38
ATOM     38  C   UNL     1       4.060  -4.562  -9.464  1.00  0.00     0.023 A 
ATOM     39  C   UNL     1       5.045  -5.153 -10.286  1.00  0.00     0.012 A 
ATOM     40  C   UNL     1       2.761  -5.108  -9.527  1.00  0.00     0.148 A 
ATOM     41  C   UNL     1       4.754  -6.245 -11.112  1.00  0.00     0.002 A 
ATOM     42  C   UNL     1       2.498  -6.247 -10.282  1.00  0.00     0.091 A 
ATOM     43  F   UNL     1       1.740  -4.465  -8.944  1.00  0.00    -0.205 F 
ATOM     44  C   UNL     1       3.484  -6.810 -11.093  1.00  0.00     0.022 A 
BRANCH  42  45
ATOM     45  S   UNL     1       0.896  -7.046 -10.160  1.00  0.00     0.127 S 
ATOM     46  O   UNL     1       0.113  -6.310 -11.146  1.00  0.00    -0.237 OA
ATOM     47  O   UNL     1       1.200  -8.431 -10.522  1.00  0.00    -0.237 OA
ATOM     48  O   UNL     1       0.526  -6.870  -8.759  1.00  0.00    -0.744 OA
ENDBRANCH  42  45
ENDBRANCH  24  38
BRANCH  25  49
ATOM     49  C   UNL     1      -1.313   1.857 -10.396  1.00  0.00     0.023 A 
ATOM     50  C   UNL     1      -1.513   2.358 -11.693  1.00  0.00     0.012 A 
ATOM     51  C   UNL     1      -2.444   1.464  -9.644  1.00  0.00     0.148 A 
ATOM     52  C   UNL     1      -2.804   2.466 -12.224  1.00  0.00     0.002 A 
ATOM     53  C   UNL     1      -3.724   1.597 -10.166  1.00  0.00     0.091 A 
ATOM     54  F   UNL     1      -2.261   0.877  -8.453  1.00  0.00    -0.205 F 
ATOM     55  C   UNL     1      -3.909   2.091 -11.461  1.00  0.00     0.022 A 
BRANCH  53  56
ATOM     56  S   UNL     1      -5.174   1.148  -9.204  1.00  0.00     0.127 S 
ATOM     57  O   UNL     1      -6.146   2.163  -9.611  1.00  0.00    -0.237 OA
ATOM     58  O   UNL     1      -5.456  -0.199  -9.689  1.00  0.00    -0.237 OA
ATOM     59  O   UNL     1      -4.757   1.256  -7.810  1.00  0.00    -0.744 OA
ENDBRANCH  53  56
ENDBRANCH  25  49
BRANCH  37  60
ATOM     60  C   UNL     1       5.008   2.093 -10.559  1.00  0.00     0.023 A 
ATOM     61  C   UNL     1       4.469   2.855  -9.501  1.00  0.00     0.012 A 
ATOM     62  C   UNL     1       6.171   2.561 -11.200  1.00  0.00     0.148 A 
ATOM     63  C   UNL     1       5.046   4.066  -9.116  1.00  0.00     0.002 A 
ATOM     64  C   UNL     1       6.773   3.746 -10.780  1.00  0.00     0.091 A 
ATOM     65  F   UNL     1       6.693   1.828 -12.196  1.00  0.00    -0.205 F 
ATOM     66  C   UNL     1       6.206   4.506  -9.746  1.00  0.00     0.022 A 
BRANCH  64  67
ATOM     67  S   UNL     1       8.352   4.284 -11.449  1.00  0.00     0.127 S 
ATOM     68  O   UNL     1       7.945   5.219 -12.495  1.00  0.00    -0.237 OA
ATOM     69  O   UNL     1       8.999   4.907 -10.292  1.00  0.00    -0.237 OA
ATOM     70  O   UNL     1       9.013   3.066 -11.905  1.00  0.00    -0.744 OA
ENDBRANCH  64  67
ENDBRANCH  37  60
ENDBRANCH  11  12
ENDBRANCH   4   6
ENDBRANCH   3   4
ENDBRANCH   2   3
ENDBRANCH   1   2
BRANCH   1  71
ATOM     71  O   UNL     1       4.931  -1.604  -0.431  1.00  0.00    -0.458 OA
BRANCH  71  72
ATOM     72  C   UNL     1       3.580  -1.724  -0.384  1.00  0.00     0.349 C 
ATOM     73  O   UNL     1       2.823  -0.870   0.063  1.00  0.00    -0.245 OA
BRANCH  72  74
ATOM     74  C   UNL     1       3.166  -2.995  -0.907  1.00  0.00     0.133 A 
ATOM     75  S   UNL     1       2.262  -2.986  -2.362  1.00  0.00    -0.136 S 
ATOM     76  C   UNL     1       3.287  -4.275  -0.398  1.00  0.00     0.113 A 
ATOM     77  C   UNL     1       2.111  -4.684  -2.376  1.00  0.00     0.067 A 
ATOM     78  C   UNL     1       2.702  -5.253  -1.271  1.00  0.00     0.035 A 
BRANCH  76  79
ATOM     79  S   UNL     1       4.018  -4.741   1.103  1.00  0.00     0.263 S 
ATOM     80  O   UNL     1       3.033  -5.606   1.722  1.00  0.00    -0.201 OA
ATOM     81  O   UNL     1       5.307  -5.255   0.703  1.00  0.00    -0.201 OA
BRANCH  79  82
ATOM     82  N   UNL     1       4.336  -3.478   2.140  1.00  0.00    -0.280 N 
ATOM     83  H   UNL     1       5.280  -3.309   2.363  1.00  0.00     0.180 HD
BRANCH  82  84
ATOM     84  C   UNL     1       3.366  -2.619   2.735  1.00  0.00     0.049 A 
ATOM     85  C   UNL     1       3.883  -1.510   3.414  1.00  0.00     0.027 A 
ATOM     86  C   UNL     1       2.011  -2.646   2.420  1.00  0.00     0.027 A 
ATOM     87  C   UNL     1       3.122  -0.344   3.552  1.00  0.00     0.008 A 
ATOM     88  C   UNL     1       1.241  -1.489   2.582  1.00  0.00     0.008 A 
ATOM     89  C   UNL     1       1.816  -0.294   3.052  1.00  0.00    -0.026 A 
BRANCH  89  90
ATOM     90  C   UNL     1       1.091   1.000   2.735  1.00  0.00     0.181 C 
BRANCH  90  91
ATOM     91  N   UNL     1       1.448   2.142   3.556  1.00  0.00    -0.249 N 
ATOM     92  C   UNL     1       2.436   3.054   3.329  1.00  0.00     0.220 A 
ATOM     93  N   UNL     1       0.673   2.525   4.595  1.00  0.00    -0.160 NA
ATOM     94  N   UNL     1       2.359   4.019   4.219  1.00  0.00    -0.224 NA
ATOM     95  C   UNL     1       1.252   3.677   4.939  1.00  0.00     0.246 A 
ENDBRANCH  90  91
ENDBRANCH  89  90
ENDBRANCH  82  84
ENDBRANCH  79  82
ENDBRANCH  76  79
ENDBRANCH  72  74
ENDBRANCH  71  72
ENDBRANCH   1  71
TORSDOF 19
