REMARK SMILES CC[N@@H+](C[C@@H](C)C(=O)OCCOC(=O)c1ccc(-c2c3nc(c(-c4cccc(S(=O)(=O)[O-])c4F)c4ccc([nH]4)c(-c4cccc(S(=O)(=O)[O-])c4F)c4nc(c(-c5cccc(S(=O)(=O)[O-])c5F)c5ccc2[nH]5)C=C4)C=C3)cc1)[C@@H](C)c1ccoc1
REMARK SMILES IDX 10 1 9 2 7 3 8 4 5 5 6 6 4 7 3 8 2 10 1 11 78 12 79 13 80 14
REMARK SMILES IDX 81 15 84 16 82 17 83 18 11 19 12 20 13 21 14 22 15 23 16 24
REMARK SMILES IDX 77 25 17 26 76 27 18 28 19 29 20 30 70 31 21 32 75 33 69 34
REMARK SMILES IDX 71 35 22 36 74 37 68 38 67 39 23 41 55 42 35 43 54 44 36 45
REMARK SMILES IDX 39 46 53 47 72 48 37 49 38 50 52 52 73 53 40 54 24 55 25 56
REMARK SMILES IDX 33 57 26 58 28 59 34 60 27 61 29 62 30 63 31 64 32 65 56 66
REMARK SMILES IDX 57 67 65 68 58 69 60 70 66 71 59 72 61 73 62 74 63 75 64 76
REMARK SMILES IDX 41 77 42 78 50 79 43 80 45 81 51 82 44 83 46 84 47 85 48 86
REMARK SMILES IDX 49 87
REMARK H PARENT 3 9 71 40 39 51
REMARK Flexibility Score: inf
ROOT
ATOM      1  C   UNL     1      -0.090  -7.733  -1.180  1.00  0.00     0.274 C 
ENDROOT
BRANCH   1   2
ATOM      2  O   UNL     1       0.557  -6.535  -0.696  1.00  0.00    -0.462 OA
BRANCH   2   3
ATOM      3  C   UNL     1       0.999  -5.695  -1.666  1.00  0.00     0.314 C 
ATOM      4  O   UNL     1       0.846  -5.886  -2.868  1.00  0.00    -0.252 OA
BRANCH   3   5
ATOM      5  C   UNL     1       1.835  -4.537  -1.151  1.00  0.00     0.151 C 
ATOM      6  C   UNL     1       3.267  -5.055  -1.012  1.00  0.00     0.026 C 
BRANCH   5   7
ATOM      7  C   UNL     1       1.300  -3.847   0.123  1.00  0.00     0.277 C 
BRANCH   7   8
ATOM      8  N   UNL     1       1.399  -2.356   0.208  1.00  0.00    -0.328 N 
ATOM      9  H   UNL     1       1.203  -2.072   1.168  1.00  0.00     0.348 HD
BRANCH   8  10
ATOM     10  C   UNL     1       0.341  -1.726  -0.599  1.00  0.00     0.259 C 
ATOM     11  C   UNL     1       0.051  -0.257  -0.319  1.00  0.00     0.071 C 
ENDBRANCH   8  10
BRANCH   8  12
ATOM     12  C   UNL     1       2.769  -1.824   0.067  1.00  0.00     0.215 C 
ATOM     13  C   UNL     1       3.219  -1.402  -1.341  1.00  0.00     0.081 C 
BRANCH  12  14
ATOM     14  C   UNL     1       3.024  -0.733   1.085  1.00  0.00     0.047 A 
ATOM     15  C   UNL     1       3.013   0.686   0.910  1.00  0.00     0.052 A 
ATOM     16  C   UNL     1       3.431  -0.916   2.395  1.00  0.00     0.204 A 
ATOM     17  C   UNL     1       3.403   1.241   2.105  1.00  0.00     0.195 A 
ATOM     18  O   UNL     1       3.666   0.269   3.012  1.00  0.00    -0.472 OA
ENDBRANCH  12  14
ENDBRANCH   8  12
ENDBRANCH   7   8
ENDBRANCH   5   7
ENDBRANCH   3   5
ENDBRANCH   2   3
ENDBRANCH   1   2
BRANCH   1  19
ATOM     19  C   UNL     1      -1.616  -7.611  -1.262  1.00  0.00     0.275 C 
BRANCH  19  20
ATOM     20  O   UNL     1      -2.046  -6.674  -2.263  1.00  0.00    -0.458 OA
BRANCH  20  21
ATOM     21  C   UNL     1      -2.204  -5.404  -1.827  1.00  0.00     0.338 C 
ATOM     22  O   UNL     1      -2.045  -4.994  -0.685  1.00  0.00    -0.246 OA
BRANCH  21  23
ATOM     23  C   UNL     1      -2.463  -4.511  -2.963  1.00  0.00     0.060 A 
ATOM     24  C   UNL     1      -1.524  -3.514  -3.236  1.00  0.00     0.016 A 
ATOM     25  C   UNL     1      -3.635  -4.605  -3.712  1.00  0.00     0.016 A 
ATOM     26  C   UNL     1      -1.753  -2.590  -4.250  1.00  0.00     0.010 A 
ATOM     27  C   UNL     1      -3.860  -3.685  -4.741  1.00  0.00     0.010 A 
ATOM     28  C   UNL     1      -2.924  -2.670  -5.010  1.00  0.00    -0.014 A 
BRANCH  28  29
ATOM     29  C   UNL     1      -3.172  -1.704  -6.105  1.00  0.00     0.031 A 
ATOM     30  C   UNL     1      -4.203  -0.627  -5.941  1.00  0.00     0.074 A 
ATOM     31  C   UNL     1      -2.494  -1.829  -7.261  1.00  0.00     0.049 A 
ATOM     32  N   UNL     1      -4.645   0.230  -6.822  1.00  0.00    -0.248 NA
ATOM     33  C   UNL     1      -4.816  -0.497  -4.609  1.00  0.00     0.031 C 
ATOM     34  C   UNL     1      -1.456  -2.826  -7.523  1.00  0.00     0.029 A 
ATOM     35  N   UNL     1      -2.601  -1.136  -8.439  1.00  0.00    -0.354 N 
ATOM     36  C   UNL     1      -5.612   0.982  -6.167  1.00  0.00     0.074 A 
ATOM     37  C   UNL     1      -5.692   0.478  -4.811  1.00  0.00     0.031 C 
ATOM     38  C   UNL     1      -1.038  -2.698  -8.793  1.00  0.00     0.029 A 
ATOM     39  C   UNL     1      -1.811  -1.643  -9.443  1.00  0.00     0.049 A 
ATOM     40  H   UNL     1      -3.186  -0.352  -8.555  1.00  0.00     0.167 HD
ATOM     41  C   UNL     1      -6.355   2.005  -6.650  1.00  0.00     0.034 A 
ATOM     42  C   UNL     1      -1.745  -1.321 -10.749  1.00  0.00     0.034 A 
ATOM     43  C   UNL     1      -6.253   2.514  -7.992  1.00  0.00     0.049 A 
ATOM     44  C   UNL     1      -2.632  -0.227 -11.277  1.00  0.00     0.074 A 
ATOM     45  C   UNL     1      -6.922   3.583  -8.560  1.00  0.00     0.029 A 
ATOM     46  N   UNL     1      -5.439   1.981  -8.979  1.00  0.00    -0.354 N 
ATOM     47  N   UNL     1      -3.468   0.544 -10.624  1.00  0.00    -0.248 NA
ATOM     48  C   UNL     1      -2.561   0.049 -12.720  1.00  0.00     0.031 C 
ATOM     49  C   UNL     1      -6.527   3.684  -9.899  1.00  0.00     0.029 A 
ATOM     50  C   UNL     1      -5.604   2.683 -10.161  1.00  0.00     0.049 A 
ATOM     51  H   UNL     1      -4.832   1.216  -8.858  1.00  0.00     0.167 HD
ATOM     52  C   UNL     1      -4.010   1.407 -11.569  1.00  0.00     0.074 A 
ATOM     53  C   UNL     1      -3.389   1.079 -12.837  1.00  0.00     0.031 C 
ATOM     54  C   UNL     1      -4.950   2.370 -11.406  1.00  0.00     0.034 A 
BRANCH  41  55
ATOM     55  C   UNL     1      -7.324   2.666  -5.707  1.00  0.00     0.023 A 
ATOM     56  C   UNL     1      -6.838   3.548  -4.722  1.00  0.00     0.012 A 
ATOM     57  C   UNL     1      -8.711   2.450  -5.821  1.00  0.00     0.148 A 
ATOM     58  C   UNL     1      -7.715   4.187  -3.847  1.00  0.00     0.002 A 
ATOM     59  C   UNL     1      -9.582   3.116  -4.965  1.00  0.00     0.091 A 
ATOM     60  F   UNL     1      -9.152   1.584  -6.744  1.00  0.00    -0.205 F 
ATOM     61  C   UNL     1      -9.086   3.979  -3.974  1.00  0.00     0.022 A 
BRANCH  59  62
ATOM     62  S   UNL     1     -11.366   2.952  -5.099  1.00  0.00     0.127 S 
ATOM     63  O   UNL     1     -11.659   2.015  -4.016  1.00  0.00    -0.237 OA
ATOM     64  O   UNL     1     -11.826   4.321  -4.861  1.00  0.00    -0.237 OA
ATOM     65  O   UNL     1     -11.617   2.460  -6.447  1.00  0.00    -0.744 OA
ENDBRANCH  59  62
ENDBRANCH  41  55
BRANCH  42  66
ATOM     66  C   UNL     1      -0.787  -2.035 -11.639  1.00  0.00     0.023 A 
ATOM     67  C   UNL     1       0.340  -1.348 -12.125  1.00  0.00     0.012 A 
ATOM     68  C   UNL     1      -0.957  -3.396 -11.962  1.00  0.00     0.148 A 
ATOM     69  C   UNL     1       1.277  -2.000 -12.928  1.00  0.00     0.002 A 
ATOM     70  C   UNL     1       0.006  -4.053 -12.719  1.00  0.00     0.091 A 
ATOM     71  F   UNL     1      -2.050  -4.025 -11.508  1.00  0.00    -0.205 F 
ATOM     72  C   UNL     1       1.117  -3.353 -13.213  1.00  0.00     0.022 A 
BRANCH  70  73
ATOM     73  S   UNL     1      -0.054  -5.822 -13.025  1.00  0.00     0.127 S 
ATOM     74  O   UNL     1      -0.414  -5.869 -14.439  1.00  0.00    -0.237 OA
ATOM     75  O   UNL     1       1.320  -6.229 -12.725  1.00  0.00    -0.237 OA
ATOM     76  O   UNL     1      -1.048  -6.346 -12.099  1.00  0.00    -0.744 OA
ENDBRANCH  70  73
ENDBRANCH  42  66
BRANCH  54  77
ATOM     77  C   UNL     1      -5.373   3.143 -12.627  1.00  0.00     0.023 A 
ATOM     78  C   UNL     1      -6.236   2.536 -13.561  1.00  0.00     0.012 A 
ATOM     79  C   UNL     1      -4.990   4.486 -12.807  1.00  0.00     0.148 A 
ATOM     80  C   UNL     1      -6.696   3.249 -14.667  1.00  0.00     0.002 A 
ATOM     81  C   UNL     1      -5.484   5.203 -13.890  1.00  0.00     0.091 A 
ATOM     82  F   UNL     1      -4.154   5.037 -11.915  1.00  0.00    -0.205 F 
ATOM     83  C   UNL     1      -6.330   4.584 -14.825  1.00  0.00     0.022 A 
BRANCH  81  84
ATOM     84  S   UNL     1      -5.137   6.949 -14.133  1.00  0.00     0.127 S 
ATOM     85  O   UNL     1      -4.240   6.917 -15.287  1.00  0.00    -0.237 OA
ATOM     86  O   UNL     1      -6.466   7.495 -14.408  1.00  0.00    -0.237 OA
ATOM     87  O   UNL     1      -4.538   7.416 -12.890  1.00  0.00    -0.744 OA
ENDBRANCH  81  84
ENDBRANCH  54  77
ENDBRANCH  28  29
ENDBRANCH  21  23
ENDBRANCH  20  21
ENDBRANCH  19  20
ENDBRANCH   1  19
TORSDOF 19
