REMARK SMILES Cc1ccc(C)c(-c2cc(C(=O)OCCOC(=O)c3ccc(-c4c5nc(c(-c6cccc(S(=O)(=O)[O-])c6F)c6ccc([nH]6)c(-c6cccc(S(=O)(=O)[O-])c6F)c6nc(c(-c7cccc(S(=O)(=O)[O-])c7F)c7ccc4[nH]7)C=C6)C=C5)cc3)c3cc(C)ccc3n2)c1
REMARK SMILES IDX 15 1 14 2 13 3 11 4 12 5 10 6 8 7 9 8 89 9 88 10 82 11 87 12
REMARK SMILES IDX 83 13 86 14 84 15 85 16 7 17 1 18 2 19 3 20 90 21 4 22 5 23
REMARK SMILES IDX 6 24 16 25 17 26 18 27 19 28 20 29 81 30 21 31 80 32 22 33
REMARK SMILES IDX 23 34 24 35 74 36 25 37 79 38 73 39 75 40 26 41 78 42 72 43
REMARK SMILES IDX 71 44 27 46 59 47 39 48 58 49 40 50 43 51 57 52 76 53 41 54
REMARK SMILES IDX 42 55 56 57 77 58 44 59 28 60 29 61 37 62 30 63 32 64 38 65
REMARK SMILES IDX 31 66 33 67 34 68 35 69 36 70 60 71 61 72 69 73 62 74 64 75
REMARK SMILES IDX 70 76 63 77 65 78 66 79 67 80 68 81 45 82 46 83 54 84 47 85
REMARK SMILES IDX 49 86 55 87 48 88 50 89 51 90 52 91 53 92
REMARK H PARENT 75 45 43 56
REMARK Flexibility Score: inf
ROOT
ATOM      1  C   UNL     1       0.483   8.623  -3.283  1.00  0.00     0.275 C 
ENDROOT
BRANCH   1   2
ATOM      2  C   UNL     1      -0.732   8.612  -4.212  1.00  0.00     0.275 C 
BRANCH   2   3
ATOM      3  O   UNL     1      -1.772   7.869  -3.555  1.00  0.00    -0.458 OA
BRANCH   3   4
ATOM      4  C   UNL     1      -1.690   6.371  -3.575  1.00  0.00     0.339 C 
ATOM      5  O   UNL     1      -1.108   6.223  -4.685  1.00  0.00    -0.246 OA
BRANCH   4   6
ATOM      6  C   UNL     1      -2.350   5.011  -2.021  1.00  0.00     0.071 A 
ATOM      7  C   UNL     1      -1.928   2.716  -0.706  1.00  0.00     0.072 A 
ATOM      8  C   UNL     1      -1.965   3.510  -1.867  1.00  0.00     0.045 A 
ATOM      9  N   UNL     1      -2.463   3.128   0.426  1.00  0.00    -0.248 NA
ATOM     10  C   UNL     1      -3.131   4.257   0.453  1.00  0.00     0.072 A 
ATOM     11  C   UNL     1      -3.208   5.255  -0.596  1.00  0.00     0.015 A 
ATOM     12  C   UNL     1      -3.738   4.327   1.706  1.00  0.00     0.029 A 
ATOM     13  C   UNL     1      -4.098   6.317  -0.030  1.00  0.00     0.014 A 
ATOM     14  C   UNL     1      -4.539   5.371   2.118  1.00  0.00     0.005 A 
ATOM     15  C   UNL     1      -4.740   6.391   1.233  1.00  0.00    -0.050 A 
ATOM     16  C   UNL     1      -5.595   7.574   1.584  1.00  0.00     0.044 C 
BRANCH   7  17
ATOM     17  C   UNL     1      -1.166   1.445  -0.555  1.00  0.00     0.003 A 
ATOM     18  C   UNL     1       2.531   0.435  -0.101  1.00  0.00     0.044 C 
ATOM     19  C   UNL     1       1.036   0.358  -0.223  1.00  0.00    -0.050 A 
ATOM     20  C   UNL     1       0.407  -0.875  -0.063  1.00  0.00     0.004 A 
ATOM     21  C   UNL     1       0.251   1.498  -0.486  1.00  0.00     0.014 A 
ATOM     22  C   UNL     1      -0.981  -0.955  -0.102  1.00  0.00     0.004 A 
ATOM     23  C   UNL     1      -1.777   0.193  -0.309  1.00  0.00    -0.042 A 
ATOM     24  C   UNL     1      -3.267  -0.004  -0.226  1.00  0.00     0.045 C 
ENDBRANCH   7  17
ENDBRANCH   4   6
ENDBRANCH   3   4
ENDBRANCH   2   3
ENDBRANCH   1   2
BRANCH   1  25
ATOM     25  O   UNL     1       1.185   7.348  -3.184  1.00  0.00    -0.458 OA
BRANCH  25  26
ATOM     26  C   UNL     1       1.002   6.520  -2.115  1.00  0.00     0.338 C 
ATOM     27  O   UNL     1       1.895   6.112  -1.392  1.00  0.00    -0.246 OA
BRANCH  26  28
ATOM     28  C   UNL     1      -0.338   5.901  -2.106  1.00  0.00     0.060 A 
ATOM     29  C   UNL     1      -0.628   4.637  -3.376  1.00  0.00     0.016 A 
ATOM     30  C   UNL     1      -1.677   6.988  -1.590  1.00  0.00     0.016 A 
ATOM     31  C   UNL     1      -2.299   4.489  -4.166  1.00  0.00     0.010 A 
ATOM     32  C   UNL     1      -3.303   6.888  -2.461  1.00  0.00     0.010 A 
ATOM     33  C   UNL     1      -3.602   5.663  -3.749  1.00  0.00    -0.014 A 
BRANCH  33  34
ATOM     34  C   UNL     1      -4.703   6.072  -4.665  1.00  0.00     0.031 A 
ATOM     35  C   UNL     1      -6.039   5.944  -4.032  1.00  0.00     0.074 A 
ATOM     36  C   UNL     1      -4.636   6.874  -5.765  1.00  0.00     0.049 A 
ATOM     37  N   UNL     1      -6.872   4.963  -4.165  1.00  0.00    -0.248 NA
ATOM     38  C   UNL     1      -6.431   6.924  -3.007  1.00  0.00     0.031 C 
ATOM     39  C   UNL     1      -3.475   7.516  -6.387  1.00  0.00     0.029 A 
ATOM     40  N   UNL     1      -5.672   7.404  -6.508  1.00  0.00    -0.354 N 
ATOM     41  C   UNL     1      -7.971   5.341  -3.404  1.00  0.00     0.074 A 
ATOM     42  C   UNL     1      -7.498   6.329  -2.474  1.00  0.00     0.031 C 
ATOM     43  C   UNL     1      -3.872   8.494  -7.239  1.00  0.00     0.029 A 
ATOM     44  C   UNL     1      -5.317   8.465  -7.354  1.00  0.00     0.049 A 
ATOM     45  H   UNL     1      -6.593   7.062  -6.450  1.00  0.00     0.167 HD
ATOM     46  C   UNL     1      -9.253   5.109  -3.800  1.00  0.00     0.034 A 
ATOM     47  C   UNL     1      -6.142   9.262  -8.090  1.00  0.00     0.034 A 
ATOM     48  C   UNL     1      -9.313   4.281  -4.978  1.00  0.00     0.049 A 
ATOM     49  C   UNL     1      -7.422   8.539  -8.233  1.00  0.00     0.074 A 
ATOM     50  C   UNL     1      -8.790   3.059  -5.350  1.00  0.00     0.029 A 
ATOM     51  N   UNL     1      -9.685   4.900  -6.148  1.00  0.00    -0.354 N 
ATOM     52  N   UNL     1      -7.567   7.460  -8.946  1.00  0.00    -0.248 NA
ATOM     53  C   UNL     1      -8.487   8.821  -7.289  1.00  0.00     0.031 C 
ATOM     54  C   UNL     1      -8.438   3.209  -6.723  1.00  0.00     0.029 A 
ATOM     55  C   UNL     1      -8.817   4.491  -7.125  1.00  0.00     0.049 A 
ATOM     56  H   UNL     1     -10.438   5.524  -6.263  1.00  0.00     0.167 HD
ATOM     57  C   UNL     1      -8.459   6.694  -8.213  1.00  0.00     0.074 A 
ATOM     58  C   UNL     1      -9.094   7.632  -7.290  1.00  0.00     0.031 C 
ATOM     59  C   UNL     1      -8.368   5.332  -8.213  1.00  0.00     0.034 A 
BRANCH  46  60
ATOM     60  C   UNL     1     -10.449   5.909  -3.342  1.00  0.00     0.023 A 
ATOM     61  C   UNL     1     -11.719   5.324  -3.520  1.00  0.00     0.012 A 
ATOM     62  C   UNL     1     -10.421   7.263  -2.933  1.00  0.00     0.148 A 
ATOM     63  C   UNL     1     -12.896   6.047  -3.301  1.00  0.00     0.002 A 
ATOM     64  C   UNL     1     -11.589   7.941  -2.607  1.00  0.00     0.091 A 
ATOM     65  F   UNL     1      -9.281   7.960  -2.990  1.00  0.00    -0.205 F 
ATOM     66  C   UNL     1     -12.832   7.348  -2.817  1.00  0.00     0.022 A 
BRANCH  64  67
ATOM     67  S   UNL     1     -11.536   9.585  -1.883  1.00  0.00     0.127 S 
ATOM     68  O   UNL     1     -11.853  10.423  -3.034  1.00  0.00    -0.237 OA
ATOM     69  O   UNL     1     -12.583   9.502  -0.865  1.00  0.00    -0.237 OA
ATOM     70  O   UNL     1     -10.189   9.713  -1.337  1.00  0.00    -0.744 OA
ENDBRANCH  64  67
ENDBRANCH  46  60
BRANCH  47  71
ATOM     71  C   UNL     1      -6.029  10.654  -8.612  1.00  0.00     0.023 A 
ATOM     72  C   UNL     1      -6.840  11.071  -9.695  1.00  0.00     0.012 A 
ATOM     73  C   UNL     1      -5.379  11.654  -7.860  1.00  0.00     0.148 A 
ATOM     74  C   UNL     1      -7.036  12.429  -9.986  1.00  0.00     0.002 A 
ATOM     75  C   UNL     1      -5.578  13.005  -8.151  1.00  0.00     0.091 A 
ATOM     76  F   UNL     1      -4.643  11.280  -6.805  1.00  0.00    -0.205 F 
ATOM     77  C   UNL     1      -6.417  13.397  -9.204  1.00  0.00     0.022 A 
BRANCH  75  78
ATOM     78  S   UNL     1      -4.850  14.322  -7.164  1.00  0.00     0.127 S 
ATOM     79  O   UNL     1      -4.231  15.163  -8.189  1.00  0.00    -0.237 OA
ATOM     80  O   UNL     1      -6.026  14.906  -6.523  1.00  0.00    -0.237 OA
ATOM     81  O   UNL     1      -3.904  13.670  -6.269  1.00  0.00    -0.744 OA
ENDBRANCH  75  78
ENDBRANCH  47  71
BRANCH  59  82
ATOM     82  C   UNL     1      -7.482   4.677  -9.249  1.00  0.00     0.023 A 
ATOM     83  C   UNL     1      -6.093   4.923  -9.320  1.00  0.00     0.012 A 
ATOM     84  C   UNL     1      -8.027   3.659 -10.050  1.00  0.00     0.148 A 
ATOM     85  C   UNL     1      -5.273   4.187 -10.179  1.00  0.00     0.002 A 
ATOM     86  C   UNL     1      -7.201   2.893 -10.864  1.00  0.00     0.091 A 
ATOM     87  F   UNL     1      -9.348   3.434  -9.974  1.00  0.00    -0.205 F 
ATOM     88  C   UNL     1      -5.825   3.161 -10.939  1.00  0.00     0.022 A 
BRANCH  86  89
ATOM     89  S   UNL     1      -7.816   1.471 -11.769  1.00  0.00     0.127 S 
ATOM     90  O   UNL     1      -7.720   1.924 -13.155  1.00  0.00    -0.237 OA
ATOM     91  O   UNL     1      -6.856   0.429 -11.398  1.00  0.00    -0.237 OA
ATOM     92  O   UNL     1      -9.170   1.236 -11.283  1.00  0.00    -0.744 OA
ENDBRANCH  86  89
ENDBRANCH  59  82
ENDBRANCH  33  34
ENDBRANCH  26  28
ENDBRANCH  25  26
ENDBRANCH   1  25
TORSDOF 15
