REMARK SMILES CC1(C)[C@H](C#N)C(SCC(=O)OCCOC(=O)c2ccc(-c3c4nc(c(-c5cccc(S(=O)(=O)[O-])c5F)c5ccc([nH]5)c(-c5cccc(S(=O)(=O)[O-])c5F)c5nc(c(-c6cccc(S(=O)(=O)[O-])c6F)c6ccc3[nH]6)C=C5)C=C4)cc2)=NC(=O)[C@@H]1C#N
REMARK SMILES IDX 13 1 12 2 10 3 11 4 9 5 8 6 7 7 1 8 2 9 3 10 4 11 84 12
REMARK SMILES IDX 82 13 81 14 83 15 5 16 6 17 85 18 86 19 14 20 15 21 16 22
REMARK SMILES IDX 17 23 18 24 19 25 80 26 20 27 79 28 21 29 22 30 23 31 73 32
REMARK SMILES IDX 24 33 78 34 72 35 74 36 25 37 77 38 71 39 70 40 26 42 58 43
REMARK SMILES IDX 38 44 57 45 39 46 42 47 56 48 75 49 40 50 41 51 55 53 76 54
REMARK SMILES IDX 43 55 27 56 28 57 36 58 29 59 31 60 37 61 30 62 32 63 33 64
REMARK SMILES IDX 34 65 35 66 59 67 60 68 68 69 61 70 63 71 69 72 62 73 64 74
REMARK SMILES IDX 65 75 66 76 67 77 44 78 45 79 53 80 46 81 48 82 54 83 47 84
REMARK SMILES IDX 49 85 50 86 51 87 52 88
REMARK H PARENT 74 41 42 52
REMARK Flexibility Score: inf
ROOT
ATOM      1  C   UNL     1      -0.630   6.144  -2.932  1.00  0.00     0.274 C 
ENDROOT
BRANCH   1   2
ATOM      2  O   UNL     1       0.092   5.842  -1.725  1.00  0.00    -0.461 OA
BRANCH   2   3
ATOM      3  C   UNL     1      -0.208   6.601  -0.635  1.00  0.00     0.316 C 
ATOM      4  O   UNL     1      -0.965   7.565  -0.658  1.00  0.00    -0.251 OA
BRANCH   3   5
ATOM      5  C   UNL     1       0.519   6.186   0.625  1.00  0.00     0.198 C 
BRANCH   5   6
ATOM      6  S   UNL     1       1.473   4.678   0.473  1.00  0.00    -0.097 SA
BRANCH   6   7
ATOM      7  C   UNL     1       0.409   3.349   0.927  1.00  0.00     0.095 C 
ATOM      8  C   UNL     1       0.835   0.003  -0.284  1.00  0.00     0.015 C 
ATOM      9  C   UNL     1       0.447   0.706   1.041  1.00  0.00     0.012 C 
ATOM     10  C   UNL     1       0.993  -0.300   2.137  1.00  0.00     0.015 C 
ATOM     11  C   UNL     1       1.165   2.095   1.087  1.00  0.00     0.156 C 
ATOM     12  C   UNL     1      -1.087   0.900   1.116  1.00  0.00     0.191 C 
ATOM     13  C   UNL     1      -1.548   2.297   1.541  1.00  0.00     0.264 C 
ATOM     14  N   UNL     1      -0.833   3.443   1.210  1.00  0.00    -0.209 NA
ATOM     15  O   UNL     1      -2.640   2.403   2.083  1.00  0.00    -0.271 OA
BRANCH  11  16
ATOM     16  C   UNL     1       1.763   2.183   2.482  1.00  0.00     0.073 C 
ATOM     17  N   UNL     1       2.259   2.256   3.639  1.00  0.00    -0.198 NA
ENDBRANCH  11  16
BRANCH  12  18
ATOM     18  C   UNL     1      -1.734  -0.085   2.018  1.00  0.00     0.076 C 
ATOM     19  N   UNL     1      -2.160  -0.885   2.740  1.00  0.00    -0.197 NA
ENDBRANCH  12  18
ENDBRANCH   6   7
ENDBRANCH   5   6
ENDBRANCH   3   5
ENDBRANCH   2   3
ENDBRANCH   1   2
BRANCH   1  20
ATOM     20  C   UNL     1      -1.817   5.198  -3.086  1.00  0.00     0.275 C 
BRANCH  20  21
ATOM     21  O   UNL     1      -2.731   5.380  -1.984  1.00  0.00    -0.458 OA
BRANCH  21  22
ATOM     22  C   UNL     1      -2.707   4.381  -1.072  1.00  0.00     0.338 C 
ATOM     23  O   UNL     1      -2.074   3.338  -1.176  1.00  0.00    -0.246 OA
BRANCH  22  24
ATOM     24  C   UNL     1      -3.543   4.688   0.112  1.00  0.00     0.060 A 
ATOM     25  C   UNL     1      -3.049   5.488   1.147  1.00  0.00     0.016 A 
ATOM     26  C   UNL     1      -4.685   3.919   0.324  1.00  0.00     0.016 A 
ATOM     27  C   UNL     1      -3.604   5.412   2.428  1.00  0.00     0.010 A 
ATOM     28  C   UNL     1      -5.300   3.917   1.583  1.00  0.00     0.010 A 
ATOM     29  C   UNL     1      -4.743   4.627   2.659  1.00  0.00    -0.014 A 
BRANCH  29  30
ATOM     30  C   UNL     1      -5.428   4.653   3.979  1.00  0.00     0.031 A 
ATOM     31  C   UNL     1      -5.564   3.433   4.854  1.00  0.00     0.074 A 
ATOM     32  C   UNL     1      -6.024   5.806   4.338  1.00  0.00     0.049 A 
ATOM     33  N   UNL     1      -6.267   3.274   5.949  1.00  0.00    -0.248 NA
ATOM     34  C   UNL     1      -4.817   2.236   4.457  1.00  0.00     0.031 C 
ATOM     35  C   UNL     1      -5.961   7.056   3.578  1.00  0.00     0.029 A 
ATOM     36  N   UNL     1      -6.834   6.101   5.402  1.00  0.00    -0.354 N 
ATOM     37  C   UNL     1      -6.076   1.952   6.345  1.00  0.00     0.074 A 
ATOM     38  C   UNL     1      -5.180   1.354   5.380  1.00  0.00     0.031 C 
ATOM     39  C   UNL     1      -6.722   7.976   4.182  1.00  0.00     0.029 A 
ATOM     40  C   UNL     1      -7.377   7.362   5.328  1.00  0.00     0.049 A 
ATOM     41  H   UNL     1      -7.010   5.476   6.142  1.00  0.00     0.167 HD
ATOM     42  C   UNL     1      -6.605   1.296   7.409  1.00  0.00     0.034 A 
ATOM     43  C   UNL     1      -8.338   7.947   6.064  1.00  0.00     0.034 A 
ATOM     44  C   UNL     1      -7.506   1.901   8.357  1.00  0.00     0.049 A 
ATOM     45  C   UNL     1      -8.952   7.183   7.198  1.00  0.00     0.074 A 
ATOM     46  C   UNL     1      -8.063   1.342   9.495  1.00  0.00     0.029 A 
ATOM     47  N   UNL     1      -8.006   3.192   8.266  1.00  0.00    -0.354 N 
ATOM     48  N   UNL     1      -8.689   5.969   7.615  1.00  0.00    -0.248 NA
ATOM     49  C   UNL     1      -9.976   7.883   7.983  1.00  0.00     0.031 C 
ATOM     50  C   UNL     1      -8.941   2.274  10.058  1.00  0.00     0.029 A 
ATOM     51  C   UNL     1      -8.885   3.438   9.308  1.00  0.00     0.049 A 
ATOM     52  H   UNL     1      -7.770   3.840   7.562  1.00  0.00     0.167 HD
ATOM     53  C   UNL     1      -9.482   5.775   8.739  1.00  0.00     0.074 A 
ATOM     54  C   UNL     1     -10.222   7.004   8.944  1.00  0.00     0.031 C 
ATOM     55  C   UNL     1      -9.589   4.676   9.527  1.00  0.00     0.034 A 
BRANCH  42  56
ATOM     56  C   UNL     1      -6.236  -0.158   7.608  1.00  0.00     0.023 A 
ATOM     57  C   UNL     1      -4.926  -0.509   7.992  1.00  0.00     0.012 A 
ATOM     58  C   UNL     1      -7.207  -1.174   7.482  1.00  0.00     0.148 A 
ATOM     59  C   UNL     1      -4.578  -1.844   8.206  1.00  0.00     0.002 A 
ATOM     60  C   UNL     1      -6.866  -2.498   7.743  1.00  0.00     0.091 A 
ATOM     61  F   UNL     1      -8.448  -0.830   7.109  1.00  0.00    -0.205 F 
ATOM     62  C   UNL     1      -5.549  -2.836   8.091  1.00  0.00     0.022 A 
BRANCH  60  63
ATOM     63  S   UNL     1      -8.064  -3.838   7.708  1.00  0.00     0.127 S 
ATOM     64  O   UNL     1      -7.631  -4.595   6.534  1.00  0.00    -0.237 OA
ATOM     65  O   UNL     1      -7.817  -4.506   8.986  1.00  0.00    -0.237 OA
ATOM     66  O   UNL     1      -9.373  -3.209   7.594  1.00  0.00    -0.744 OA
ENDBRANCH  60  63
ENDBRANCH  42  56
BRANCH  43  67
ATOM     67  C   UNL     1      -8.753   9.342   5.755  1.00  0.00     0.023 A 
ATOM     68  C   UNL     1      -8.431  10.369   6.662  1.00  0.00     0.012 A 
ATOM     69  C   UNL     1      -9.423   9.660   4.557  1.00  0.00     0.148 A 
ATOM     70  C   UNL     1      -8.805  11.686   6.400  1.00  0.00     0.002 A 
ATOM     71  C   UNL     1      -9.739  10.982   4.275  1.00  0.00     0.091 A 
ATOM     72  F   UNL     1      -9.715   8.665   3.707  1.00  0.00    -0.205 F 
ATOM     73  C   UNL     1      -9.449  11.994   5.204  1.00  0.00     0.022 A 
BRANCH  71  74
ATOM     74  S   UNL     1     -10.452  11.494   2.708  1.00  0.00     0.127 S 
ATOM     75  O   UNL     1     -11.776  11.953   3.119  1.00  0.00    -0.237 OA
ATOM     76  O   UNL     1      -9.533  12.555   2.294  1.00  0.00    -0.237 OA
ATOM     77  O   UNL     1     -10.432  10.313   1.857  1.00  0.00    -0.744 OA
ENDBRANCH  71  74
ENDBRANCH  43  67
BRANCH  55  78
ATOM     78  C   UNL     1     -10.502   4.770  10.723  1.00  0.00     0.023 A 
ATOM     79  C   UNL     1     -11.899   4.835  10.549  1.00  0.00     0.012 A 
ATOM     80  C   UNL     1      -9.970   4.750  12.027  1.00  0.00     0.148 A 
ATOM     81  C   UNL     1     -12.748   4.923  11.652  1.00  0.00     0.002 A 
ATOM     82  C   UNL     1     -10.824   4.779  13.122  1.00  0.00     0.091 A 
ATOM     83  F   UNL     1      -8.637   4.707  12.174  1.00  0.00    -0.205 F 
ATOM     84  C   UNL     1     -12.212   4.883  12.937  1.00  0.00     0.022 A 
BRANCH  82  85
ATOM     85  S   UNL     1     -10.234   4.636  14.812  1.00  0.00     0.127 S 
ATOM     86  O   UNL     1     -10.524   5.968  15.343  1.00  0.00    -0.237 OA
ATOM     87  O   UNL     1     -11.083   3.570  15.345  1.00  0.00    -0.237 OA
ATOM     88  O   UNL     1      -8.820   4.299  14.722  1.00  0.00    -0.744 OA
ENDBRANCH  82  85
ENDBRANCH  55  78
ENDBRANCH  29  30
ENDBRANCH  22  24
ENDBRANCH  21  22
ENDBRANCH  20  21
ENDBRANCH   1  20
TORSDOF 18
