REMARK SMILES COc1cc2c(c(OC)c1)[C@H](C)C[C@H](CC(=O)OCCOC(=O)c1ccc(-c3c4nc(c(-c5cccc(S(=O)(=O)[O-])c5F)c5ccc([nH]5)c(-c5cccc(S(=O)(=O)[O-])c5F)c5nc(c(-c6cccc(S(=O)(=O)[O-])c6F)c6ccc3[nH]6)C=C5)C=C4)cc1)C2
REMARK SMILES IDX 20 1 19 2 18 3 16 4 17 5 15 6 14 7 3 8 4 9 10 10 5 11 7 12
REMARK SMILES IDX 6 13 87 14 11 15 12 16 13 17 2 18 1 19 8 20 9 21 21 22 22 23
REMARK SMILES IDX 23 24 24 25 25 26 86 27 26 28 85 29 27 30 28 31 29 32 79 33
REMARK SMILES IDX 30 34 84 35 78 36 80 37 31 38 83 39 77 40 76 41 32 43 64 44
REMARK SMILES IDX 44 45 63 46 45 47 48 48 62 49 81 50 46 51 47 52 61 54 82 55
REMARK SMILES IDX 49 56 33 57 34 58 42 59 35 60 37 61 43 62 36 63 38 64 39 65
REMARK SMILES IDX 40 66 41 67 65 68 66 69 74 70 67 71 69 72 75 73 68 74 70 75
REMARK SMILES IDX 71 76 72 77 73 78 50 79 51 80 59 81 52 82 54 83 60 84 53 85
REMARK SMILES IDX 55 86 56 87 57 88 58 89
REMARK H PARENT 80 42 48 53
REMARK Flexibility Score: inf
ROOT
ATOM      1  C   UNL     1       2.323  10.697   4.418  1.00  0.00     0.275 C 
ENDROOT
BRANCH   1   2
ATOM      2  C   UNL     1       1.560  10.083   5.591  1.00  0.00     0.274 C 
BRANCH   2   3
ATOM      3  O   UNL     1       1.054   8.780   5.243  1.00  0.00    -0.462 OA
BRANCH   3   4
ATOM      4  C   UNL     1      -0.279   8.676   5.023  1.00  0.00     0.306 C 
ATOM      5  O   UNL     1      -1.082   9.591   5.156  1.00  0.00    -0.252 OA
BRANCH   4   6
ATOM      6  C   UNL     1      -0.715   7.273   4.652  1.00  0.00     0.126 C 
BRANCH   6   7
ATOM      7  C   UNL     1       0.346   6.380   3.985  1.00  0.00     0.005 C 
ATOM      8  C   UNL     1       1.010   2.406   1.083  1.00  0.00     0.122 A 
ATOM      9  C   UNL     1       0.189   3.397   1.615  1.00  0.00     0.050 A 
ATOM     10  C   UNL     1       2.316   2.294   1.540  1.00  0.00     0.093 A 
ATOM     11  C   UNL     1       0.631   4.228   2.661  1.00  0.00    -0.037 A 
ATOM     12  C   UNL     1       2.777   3.131   2.564  1.00  0.00     0.126 A 
ATOM     13  C   UNL     1       1.924   4.056   3.202  1.00  0.00     0.000 A 
ATOM     14  C   UNL     1      -0.338   5.253   3.199  1.00  0.00     0.040 C 
ATOM     15  C   UNL     1       2.371   4.879   4.402  1.00  0.00     0.020 C 
ATOM     16  C   UNL     1       2.951   4.027   5.543  1.00  0.00     0.013 C 
ATOM     17  C   UNL     1       1.255   5.736   5.030  1.00  0.00     0.012 C 
BRANCH   8  18
ATOM     18  O   UNL     1       0.453   1.638   0.098  1.00  0.00    -0.497 OA
ATOM     19  C   UNL     1       0.943   0.304   0.025  1.00  0.00     0.278 C 
ENDBRANCH   8  18
BRANCH  12  20
ATOM     20  O   UNL     1       4.086   2.929   2.924  1.00  0.00    -0.496 OA
ATOM     21  C   UNL     1       4.917   4.051   2.619  1.00  0.00     0.278 C 
ENDBRANCH  12  20
ENDBRANCH   6   7
ENDBRANCH   4   6
ENDBRANCH   3   4
ENDBRANCH   2   3
ENDBRANCH   1   2
BRANCH   1  22
ATOM     22  O   UNL     1       1.423  11.055   3.356  1.00  0.00    -0.458 OA
BRANCH  22  23
ATOM     23  C   UNL     1       1.277  10.134   2.379  1.00  0.00     0.338 C 
ATOM     24  O   UNL     1       1.881   9.077   2.258  1.00  0.00    -0.246 OA
BRANCH  23  25
ATOM     25  C   UNL     1       0.155  10.529   1.521  1.00  0.00     0.060 A 
ATOM     26  C   UNL     1      -1.018   9.771   1.567  1.00  0.00     0.016 A 
ATOM     27  C   UNL     1       0.269  11.617   0.655  1.00  0.00     0.016 A 
ATOM     28  C   UNL     1      -2.094  10.104   0.748  1.00  0.00     0.010 A 
ATOM     29  C   UNL     1      -0.811  11.950  -0.166  1.00  0.00     0.010 A 
ATOM     30  C   UNL     1      -1.996  11.193  -0.127  1.00  0.00    -0.014 A 
BRANCH  30  31
ATOM     31  C   UNL     1      -3.123  11.533  -1.026  1.00  0.00     0.031 A 
ATOM     32  C   UNL     1      -3.022  11.234  -2.494  1.00  0.00     0.074 A 
ATOM     33  C   UNL     1      -4.218  12.136  -0.525  1.00  0.00     0.049 A 
ATOM     34  N   UNL     1      -3.848  11.544  -3.458  1.00  0.00    -0.248 NA
ATOM     35  C   UNL     1      -1.831  10.489  -2.937  1.00  0.00     0.031 C 
ATOM     36  C   UNL     1      -4.428  12.468   0.885  1.00  0.00     0.029 A 
ATOM     37  N   UNL     1      -5.346  12.603  -1.151  1.00  0.00    -0.354 N 
ATOM     38  C   UNL     1      -3.266  11.065  -4.625  1.00  0.00     0.074 A 
ATOM     39  C   UNL     1      -2.013  10.445  -4.250  1.00  0.00     0.031 C 
ATOM     40  C   UNL     1      -5.602  13.107   1.014  1.00  0.00     0.029 A 
ATOM     41  C   UNL     1      -6.209  13.261  -0.305  1.00  0.00     0.049 A 
ATOM     42  H   UNL     1      -5.521  12.480  -2.112  1.00  0.00     0.167 HD
ATOM     43  C   UNL     1      -3.743  11.123  -5.891  1.00  0.00     0.034 A 
ATOM     44  C   UNL     1      -7.345  13.935  -0.571  1.00  0.00     0.034 A 
ATOM     45  C   UNL     1      -5.003  11.714  -6.252  1.00  0.00     0.049 A 
ATOM     46  C   UNL     1      -7.837  14.004  -1.993  1.00  0.00     0.074 A 
ATOM     47  C   UNL     1      -5.588  11.795  -7.503  1.00  0.00     0.029 A 
ATOM     48  N   UNL     1      -5.874  12.324  -5.363  1.00  0.00    -0.354 N 
ATOM     49  N   UNL     1      -7.323  13.463  -3.071  1.00  0.00    -0.248 NA
ATOM     50  C   UNL     1      -9.077  14.756  -2.232  1.00  0.00     0.031 C 
ATOM     51  C   UNL     1      -6.808  12.466  -7.372  1.00  0.00     0.029 A 
ATOM     52  C   UNL     1      -6.989  12.790  -6.037  1.00  0.00     0.049 A 
ATOM     53  H   UNL     1      -5.722  12.414  -4.394  1.00  0.00     0.167 HD
ATOM     54  C   UNL     1      -8.191  13.783  -4.109  1.00  0.00     0.074 A 
ATOM     55  C   UNL     1      -9.277  14.544  -3.526  1.00  0.00     0.031 C 
ATOM     56  C   UNL     1      -8.090  13.492  -5.429  1.00  0.00     0.034 A 
BRANCH  43  57
ATOM     57  C   UNL     1      -2.917  10.494  -6.980  1.00  0.00     0.023 A 
ATOM     58  C   UNL     1      -2.892   9.090  -7.104  1.00  0.00     0.012 A 
ATOM     59  C   UNL     1      -2.229  11.286  -7.920  1.00  0.00     0.148 A 
ATOM     60  C   UNL     1      -2.177   8.482  -8.135  1.00  0.00     0.002 A 
ATOM     61  C   UNL     1      -1.548  10.673  -8.967  1.00  0.00     0.091 A 
ATOM     62  F   UNL     1      -2.249  12.617  -7.771  1.00  0.00    -0.205 F 
ATOM     63  C   UNL     1      -1.515   9.273  -9.071  1.00  0.00     0.022 A 
BRANCH  61  64
ATOM     64  S   UNL     1      -0.720  11.603 -10.262  1.00  0.00     0.127 S 
ATOM     65  O   UNL     1       0.686  11.338  -9.962  1.00  0.00    -0.237 OA
ATOM     66  O   UNL     1      -1.218  10.954 -11.475  1.00  0.00    -0.237 OA
ATOM     67  O   UNL     1      -1.142  12.987 -10.096  1.00  0.00    -0.744 OA
ENDBRANCH  61  64
ENDBRANCH  43  57
BRANCH  44  68
ATOM     68  C   UNL     1      -8.113  14.574   0.535  1.00  0.00     0.023 A 
ATOM     69  C   UNL     1      -9.371  14.052   0.892  1.00  0.00     0.012 A 
ATOM     70  C   UNL     1      -7.605  15.682   1.240  1.00  0.00     0.148 A 
ATOM     71  C   UNL     1     -10.122  14.639   1.912  1.00  0.00     0.002 A 
ATOM     72  C   UNL     1      -8.334  16.229   2.291  1.00  0.00     0.091 A 
ATOM     73  F   UNL     1      -6.418  16.184   0.871  1.00  0.00    -0.205 F 
ATOM     74  C   UNL     1      -9.599  15.720   2.618  1.00  0.00     0.022 A 
BRANCH  72  75
ATOM     75  S   UNL     1      -7.670  17.537   3.328  1.00  0.00     0.127 S 
ATOM     76  O   UNL     1      -8.341  18.717   2.790  1.00  0.00    -0.237 OA
ATOM     77  O   UNL     1      -8.115  17.131   4.662  1.00  0.00    -0.237 OA
ATOM     78  O   UNL     1      -6.226  17.480   3.141  1.00  0.00    -0.744 OA
ENDBRANCH  72  75
ENDBRANCH  44  68
BRANCH  56  79
ATOM     79  C   UNL     1      -9.193  13.970  -6.335  1.00  0.00     0.023 A 
ATOM     80  C   UNL     1      -9.266  15.334  -6.679  1.00  0.00     0.012 A 
ATOM     81  C   UNL     1     -10.104  13.061  -6.907  1.00  0.00     0.148 A 
ATOM     82  C   UNL     1     -10.246  15.790  -7.559  1.00  0.00     0.002 A 
ATOM     83  C   UNL     1     -11.051  13.516  -7.817  1.00  0.00     0.091 A 
ATOM     84  F   UNL     1     -10.029  11.770  -6.551  1.00  0.00    -0.205 F 
ATOM     85  C   UNL     1     -11.130  14.881  -8.137  1.00  0.00     0.022 A 
BRANCH  83  86
ATOM     86  S   UNL     1     -12.170  12.404  -8.677  1.00  0.00     0.127 S 
ATOM     87  O   UNL     1     -13.436  12.670  -7.997  1.00  0.00    -0.237 OA
ATOM     88  O   UNL     1     -12.102  12.896 -10.054  1.00  0.00    -0.237 OA
ATOM     89  O   UNL     1     -11.626  11.066  -8.489  1.00  0.00    -0.744 OA
ENDBRANCH  83  86
ENDBRANCH  56  79
ENDBRANCH  30  31
ENDBRANCH  23  25
ENDBRANCH  22  23
ENDBRANCH   1  22
TORSDOF 17
