REMARK SMILES CC(C)C[NH2+][C@@H](CC(=O)Nc1cccc(Cl)c1)C(=O)OCCOC(=O)c1ccc(-c2c3nc(c(-c4cccc(S(=O)(=O)[O-])c4F)c4ccc([nH]4)c(-c4cccc(S(=O)(=O)[O-])c4F)c4nc(c(-c5cccc(S(=O)(=O)[O-])c5F)c5ccc2[nH]5)C=C4)C=C3)cc1
REMARK SMILES IDX 21 1 20 2 18 3 19 4 6 5 5 6 4 9 2 10 1 11 3 12 7 13 8 14
REMARK SMILES IDX 9 15 10 16 11 18 12 19 17 20 13 21 15 22 14 23 16 24 22 25
REMARK SMILES IDX 23 26 24 27 25 28 26 29 27 30 88 31 28 32 87 33 29 34 30 35
REMARK SMILES IDX 31 36 81 37 32 38 86 39 80 40 82 41 33 42 85 43 79 44 78 45
REMARK SMILES IDX 34 47 66 48 46 49 65 50 47 51 50 52 64 53 83 54 48 55 49 56
REMARK SMILES IDX 63 58 84 59 51 60 35 61 36 62 44 63 37 64 39 65 45 66 38 67
REMARK SMILES IDX 40 68 41 69 42 70 43 71 67 72 68 73 76 74 69 75 71 76 77 77
REMARK SMILES IDX 70 78 72 79 73 80 74 81 75 82 52 83 53 84 61 85 54 86 56 87
REMARK SMILES IDX 62 88 55 89 57 90 58 91 59 92 60 93
REMARK H PARENT 5 7 5 8 10 17 82 46 50 57
REMARK Flexibility Score: inf
ROOT
ATOM      1  C   UNL     1      -3.732  -2.479  -3.294  1.00  0.00     0.274 C 
ENDROOT
BRANCH   1   2
ATOM      2  O   UNL     1      -3.272  -1.777  -2.123  1.00  0.00    -0.458 OA
BRANCH   2   3
ATOM      3  C   UNL     1      -4.202  -1.549  -1.152  1.00  0.00     0.365 C 
ATOM      4  O   UNL     1      -5.362  -1.943  -1.192  1.00  0.00    -0.245 OA
BRANCH   3   5
ATOM      5  C   UNL     1      -3.639  -0.703   0.005  1.00  0.00     0.302 C 
BRANCH   5   6
ATOM      6  N   UNL     1      -2.421  -1.281   0.555  1.00  0.00    -0.334 N 
ATOM      7  H   UNL     1      -2.709  -2.075   1.127  1.00  0.00     0.347 HD
ATOM      8  H   UNL     1      -1.864  -1.468  -0.279  1.00  0.00     0.347 HD
BRANCH   6   9
ATOM      9  C   UNL     1      -1.527  -0.490   1.367  1.00  0.00     0.264 C 
BRANCH   9  10
ATOM     10  C   UNL     1       0.241  -0.474   1.151  1.00  0.00     0.038 C 
ATOM     11  C   UNL     1       1.473  -0.074  -0.618  1.00  0.00     0.013 C 
ATOM     12  C   UNL     1       0.435   0.161   2.786  1.00  0.00     0.013 C 
ENDBRANCH   9  10
ENDBRANCH   6   9
ENDBRANCH   5   6
BRANCH   5  13
ATOM     13  C   UNL     1      -3.587   0.758  -0.414  1.00  0.00     0.177 C 
BRANCH  13  14
ATOM     14  C   UNL     1      -2.741   1.063  -1.629  1.00  0.00     0.231 C 
ATOM     15  O   UNL     1      -3.274   1.521  -2.646  1.00  0.00    -0.274 OA
ATOM     16  N   UNL     1      -1.385   0.933  -1.625  1.00  0.00    -0.326 N 
ATOM     17  H   UNL     1      -0.930   1.285  -2.425  1.00  0.00     0.169 HD
BRANCH  16  18
ATOM     18  C   UNL     1      -0.538   0.376  -0.660  1.00  0.00     0.042 A 
ATOM     19  C   UNL     1      -0.114  -1.382  -0.764  1.00  0.00     0.026 A 
ATOM     20  C   UNL     1       0.470   1.489   0.333  1.00  0.00     0.046 A 
ATOM     21  C   UNL     1       1.341  -2.026   0.089  1.00  0.00     0.004 A 
ATOM     22  C   UNL     1       1.949   0.853   1.138  1.00  0.00     0.043 A 
ATOM     23  C   UNL     1       2.346  -0.914   1.086  1.00  0.00     0.020 A 
ATOM     24  Cl  UNL     1       3.079   1.961   1.827  1.00  0.00    -0.084 Cl
ENDBRANCH  16  18
ENDBRANCH  13  14
ENDBRANCH   5  13
ENDBRANCH   3   5
ENDBRANCH   2   3
ENDBRANCH   1   2
BRANCH   1  25
ATOM     25  C   UNL     1      -3.227  -3.923  -3.325  1.00  0.00     0.275 C 
BRANCH  25  26
ATOM     26  O   UNL     1      -3.707  -4.676  -2.198  1.00  0.00    -0.458 OA
BRANCH  26  27
ATOM     27  C   UNL     1      -2.883  -4.646  -1.127  1.00  0.00     0.338 C 
ATOM     28  O   UNL     1      -1.782  -4.121  -1.059  1.00  0.00    -0.246 OA
BRANCH  27  29
ATOM     29  C   UNL     1      -3.530  -5.218   0.055  1.00  0.00     0.060 A 
ATOM     30  C   UNL     1      -3.764  -4.359   1.127  1.00  0.00     0.016 A 
ATOM     31  C   UNL     1      -3.730  -6.590   0.186  1.00  0.00     0.016 A 
ATOM     32  C   UNL     1      -4.109  -4.863   2.366  1.00  0.00     0.010 A 
ATOM     33  C   UNL     1      -4.136  -7.096   1.425  1.00  0.00     0.010 A 
ATOM     34  C   UNL     1      -4.285  -6.238   2.531  1.00  0.00    -0.014 A 
BRANCH  34  35
ATOM     35  C   UNL     1      -4.554  -6.749   3.893  1.00  0.00     0.031 A 
ATOM     36  C   UNL     1      -3.523  -7.582   4.597  1.00  0.00     0.074 A 
ATOM     37  C   UNL     1      -5.698  -6.402   4.512  1.00  0.00     0.049 A 
ATOM     38  N   UNL     1      -3.574  -8.122   5.786  1.00  0.00    -0.248 NA
ATOM     39  C   UNL     1      -2.271  -7.849   3.870  1.00  0.00     0.031 C 
ATOM     40  C   UNL     1      -6.754  -5.570   3.929  1.00  0.00     0.029 A 
ATOM     41  N   UNL     1      -6.163  -6.705   5.764  1.00  0.00    -0.354 N 
ATOM     42  C   UNL     1      -2.390  -8.833   5.931  1.00  0.00     0.074 A 
ATOM     43  C   UNL     1      -1.641  -8.663   4.705  1.00  0.00     0.031 C 
ATOM     44  C   UNL     1      -7.744  -5.429   4.823  1.00  0.00     0.029 A 
ATOM     45  C   UNL     1      -7.418  -6.205   6.014  1.00  0.00     0.049 A 
ATOM     46  H   UNL     1      -5.649  -7.229   6.420  1.00  0.00     0.167 HD
ATOM     47  C   UNL     1      -1.963  -9.555   6.994  1.00  0.00     0.034 A 
ATOM     48  C   UNL     1      -8.230  -6.382   7.073  1.00  0.00     0.034 A 
ATOM     49  C   UNL     1      -2.711  -9.700   8.215  1.00  0.00     0.049 A 
ATOM     50  C   UNL     1      -7.741  -7.213   8.225  1.00  0.00     0.074 A 
ATOM     51  C   UNL     1      -2.354 -10.379   9.366  1.00  0.00     0.029 A 
ATOM     52  N   UNL     1      -3.974  -9.173   8.438  1.00  0.00    -0.354 N 
ATOM     53  N   UNL     1      -6.588  -7.817   8.379  1.00  0.00    -0.248 NA
ATOM     54  C   UNL     1      -8.654  -7.359   9.366  1.00  0.00     0.031 C 
ATOM     55  C   UNL     1      -3.423 -10.307  10.265  1.00  0.00     0.029 A 
ATOM     56  C   UNL     1      -4.420  -9.527   9.701  1.00  0.00     0.049 A 
ATOM     57  H   UNL     1      -4.480  -8.627   7.794  1.00  0.00     0.167 HD
ATOM     58  C   UNL     1      -6.620  -8.382   9.648  1.00  0.00     0.074 A 
ATOM     59  C   UNL     1      -7.899  -8.023  10.228  1.00  0.00     0.031 C 
ATOM     60  C   UNL     1      -5.682  -9.134  10.276  1.00  0.00     0.034 A 
BRANCH  47  61
ATOM     61  C   UNL     1      -0.634 -10.255   6.877  1.00  0.00     0.023 A 
ATOM     62  C   UNL     1       0.563  -9.512   6.846  1.00  0.00     0.012 A 
ATOM     63  C   UNL     1      -0.573 -11.663   6.838  1.00  0.00     0.148 A 
ATOM     64  C   UNL     1       1.796 -10.156   6.737  1.00  0.00     0.002 A 
ATOM     65  C   UNL     1       0.661 -12.298   6.784  1.00  0.00     0.091 A 
ATOM     66  F   UNL     1      -1.723 -12.352   6.847  1.00  0.00    -0.205 F 
ATOM     67  C   UNL     1       1.845 -11.547   6.717  1.00  0.00     0.022 A 
BRANCH  65  68
ATOM     68  S   UNL     1       0.834 -14.085   6.836  1.00  0.00     0.127 S 
ATOM     69  O   UNL     1       1.355 -14.370   5.499  1.00  0.00    -0.237 OA
ATOM     70  O   UNL     1       1.801 -14.265   7.918  1.00  0.00    -0.237 OA
ATOM     71  O   UNL     1      -0.495 -14.613   7.110  1.00  0.00    -0.744 OA
ENDBRANCH  65  68
ENDBRANCH  47  61
BRANCH  48  72
ATOM     72  C   UNL     1      -9.582  -5.759   7.090  1.00  0.00     0.023 A 
ATOM     73  C   UNL     1      -9.874  -4.742   8.018  1.00  0.00     0.012 A 
ATOM     74  C   UNL     1     -10.579  -6.171   6.184  1.00  0.00     0.148 A 
ATOM     75  C   UNL     1     -11.148  -4.174   8.072  1.00  0.00     0.002 A 
ATOM     76  C   UNL     1     -11.826  -5.560   6.202  1.00  0.00     0.091 A 
ATOM     77  F   UNL     1     -10.282  -7.146   5.314  1.00  0.00    -0.205 F 
ATOM     78  C   UNL     1     -12.120  -4.577   7.159  1.00  0.00     0.022 A 
BRANCH  76  79
ATOM     79  S   UNL     1     -13.097  -5.927   4.989  1.00  0.00     0.127 S 
ATOM     80  O   UNL     1     -14.125  -6.556   5.815  1.00  0.00    -0.237 OA
ATOM     81  O   UNL     1     -13.434  -4.591   4.497  1.00  0.00    -0.237 OA
ATOM     82  O   UNL     1     -12.467  -6.792   4.002  1.00  0.00    -0.744 OA
ENDBRANCH  76  79
ENDBRANCH  48  72
BRANCH  60  83
ATOM     83  C   UNL     1      -5.979  -9.570  11.688  1.00  0.00     0.023 A 
ATOM     84  C   UNL     1      -7.000 -10.506  11.947  1.00  0.00     0.012 A 
ATOM     85  C   UNL     1      -5.217  -9.066  12.761  1.00  0.00     0.148 A 
ATOM     86  C   UNL     1      -7.296 -10.888  13.255  1.00  0.00     0.002 A 
ATOM     87  C   UNL     1      -5.476  -9.498  14.054  1.00  0.00     0.091 A 
ATOM     88  F   UNL     1      -4.260  -8.164  12.498  1.00  0.00    -0.205 F 
ATOM     89  C   UNL     1      -6.529 -10.392  14.306  1.00  0.00     0.022 A 
BRANCH  87  90
ATOM     90  S   UNL     1      -4.473  -8.993  15.455  1.00  0.00     0.127 S 
ATOM     91  O   UNL     1      -5.388  -8.109  16.174  1.00  0.00    -0.237 OA
ATOM     92  O   UNL     1      -4.209 -10.270  16.120  1.00  0.00    -0.237 OA
ATOM     93  O   UNL     1      -3.293  -8.348  14.895  1.00  0.00    -0.744 OA
ENDBRANCH  87  90
ENDBRANCH  60  83
ENDBRANCH  34  35
ENDBRANCH  27  29
ENDBRANCH  26  27
ENDBRANCH  25  26
ENDBRANCH   1  25
TORSDOF 20
