REMARK SMILES CC(=O)Nc1ccc(/C(=C\c2ccc(S(C)(=O)=O)cc2)C(=O)OCCOC(=O)c2ccc(-c3c4nc(c(-c5cccc(S(=O)(=O)[O-])c5F)c5ccc([nH]5)c(-c5cccc(S(=O)(=O)[O-])c5F)c5nc(c(-c6cccc(S(=O)(=O)[O-])c6F)c6ccc3[nH]6)C=C5)C=C4)cc2)cc1
REMARK SMILES IDX 25 1 24 2 23 3 21 4 22 5 9 6 10 7 8 8 5 9 6 10 93 11 7 12
REMARK SMILES IDX 92 13 4 14 1 15 2 16 3 17 11 19 12 20 20 21 13 22 19 23
REMARK SMILES IDX 14 24 15 25 16 26 17 27 18 28 26 29 27 30 28 31 29 32 30 33
REMARK SMILES IDX 91 34 31 35 90 36 32 37 33 38 34 39 84 40 35 41 89 42 83 43
REMARK SMILES IDX 85 44 36 45 88 46 82 47 81 48 37 50 69 51 49 52 68 53 50 54
REMARK SMILES IDX 53 55 67 56 86 57 51 58 52 59 66 61 87 62 54 63 38 64 39 65
REMARK SMILES IDX 47 66 40 67 42 68 48 69 41 70 43 71 44 72 45 73 46 74 70 75
REMARK SMILES IDX 71 76 79 77 72 78 74 79 80 80 73 81 75 82 76 83 77 84 78 85
REMARK SMILES IDX 55 86 56 87 64 88 57 89 59 90 65 91 58 92 60 93 61 94 62 95
REMARK SMILES IDX 63 96
REMARK H PARENT 4 18 85 49 53 60
REMARK Flexibility Score: inf
ROOT
ATOM      1  C   UNL     1       6.919  -3.050   4.972  1.00  0.00     0.275 C 
ENDROOT
BRANCH   1   2
ATOM      2  C   UNL     1       7.150  -1.638   5.509  1.00  0.00     0.275 C 
BRANCH   2   3
ATOM      3  O   UNL     1       5.876  -1.007   5.768  1.00  0.00    -0.458 OA
BRANCH   3   4
ATOM      4  C   UNL     1       5.691   0.263   5.306  1.00  0.00     0.338 C 
ATOM      5  O   UNL     1       6.484   0.889   4.620  1.00  0.00    -0.246 OA
BRANCH   4   6
ATOM      6  C   UNL     1       4.354   0.805   5.748  1.00  0.00     0.067 C 
ATOM      7  C   UNL     1       4.040   0.463   7.024  1.00  0.00     0.024 C 
BRANCH   6   8
ATOM      8  C   UNL     1       3.494   1.602   4.798  1.00  0.00    -0.011 A 
ATOM      9  C   UNL     1       1.548   2.591   2.951  1.00  0.00     0.041 A 
ATOM     10  C   UNL     1       1.493   2.940   4.294  1.00  0.00     0.027 A 
ATOM     11  C   UNL     1       2.682   1.934   2.503  1.00  0.00     0.027 A 
ATOM     12  C   UNL     1       2.463   2.466   5.192  1.00  0.00     0.011 A 
ATOM     13  C   UNL     1       3.646   1.467   3.415  1.00  0.00     0.011 A 
BRANCH   9  14
ATOM     14  N   UNL     1       0.480   2.972   2.131  1.00  0.00    -0.326 N 
ATOM     15  C   UNL     1       0.412   1.037   0.557  1.00  0.00     0.114 C 
ATOM     16  C   UNL     1      -0.039   2.401   1.002  1.00  0.00     0.221 C 
ATOM     17  O   UNL     1      -0.961   2.986   0.429  1.00  0.00    -0.275 OA
ATOM     18  H   UNL     1       0.022   3.795   2.417  1.00  0.00     0.169 HD
ENDBRANCH   9  14
ENDBRANCH   6   8
BRANCH   7  19
ATOM     19  C   UNL     1       2.837   0.848   7.764  1.00  0.00    -0.025 A 
ATOM     20  C   UNL     1       2.946   1.900   8.683  1.00  0.00     0.009 A 
ATOM     21  C   UNL     1       1.580   0.329   7.428  1.00  0.00     0.009 A 
ATOM     22  C   UNL     1       1.797   2.524   9.161  1.00  0.00     0.021 A 
ATOM     23  C   UNL     1       0.425   0.952   7.906  1.00  0.00     0.021 A 
ATOM     24  C   UNL     1       0.544   2.068   8.739  1.00  0.00     0.067 A 
BRANCH  24  25
ATOM     25  S   UNL     1      -0.887   3.053   9.114  1.00  0.00     0.175 S 
ATOM     26  C   UNL     1      -1.277   2.604  10.780  1.00  0.00     0.163 C 
ATOM     27  O   UNL     1      -0.462   4.440   9.111  1.00  0.00    -0.224 OA
ATOM     28  O   UNL     1      -1.972   2.605   8.264  1.00  0.00    -0.224 OA
ENDBRANCH  24  25
ENDBRANCH   7  19
ENDBRANCH   4   6
ENDBRANCH   3   4
ENDBRANCH   2   3
ENDBRANCH   1   2
BRANCH   1  29
ATOM     29  O   UNL     1       6.466  -2.918   3.616  1.00  0.00    -0.458 OA
BRANCH  29  30
ATOM     30  C   UNL     1       5.328  -3.550   3.263  1.00  0.00     0.338 C 
ATOM     31  O   UNL     1       4.733  -4.421   3.889  1.00  0.00    -0.246 OA
BRANCH  30  32
ATOM     32  C   UNL     1       4.851  -2.938   2.009  1.00  0.00     0.060 A 
ATOM     33  C   UNL     1       4.852  -1.550   1.918  1.00  0.00     0.016 A 
ATOM     34  C   UNL     1       4.343  -3.693   0.954  1.00  0.00     0.016 A 
ATOM     35  C   UNL     1       4.281  -0.916   0.819  1.00  0.00     0.010 A 
ATOM     36  C   UNL     1       3.855  -3.044  -0.195  1.00  0.00     0.010 A 
ATOM     37  C   UNL     1       3.773  -1.640  -0.266  1.00  0.00    -0.014 A 
BRANCH  37  38
ATOM     38  C   UNL     1       3.097  -0.919  -1.397  1.00  0.00     0.031 A 
ATOM     39  C   UNL     1       1.700  -1.313  -1.825  1.00  0.00     0.074 A 
ATOM     40  C   UNL     1       3.657   0.157  -1.996  1.00  0.00     0.049 A 
ATOM     41  N   UNL     1       1.007  -0.903  -2.859  1.00  0.00    -0.248 NA
ATOM     42  C   UNL     1       0.982  -2.277  -0.976  1.00  0.00     0.031 C 
ATOM     43  C   UNL     1       4.960   0.736  -1.666  1.00  0.00     0.029 A 
ATOM     44  N   UNL     1       3.187   0.975  -3.002  1.00  0.00    -0.354 N 
ATOM     45  C   UNL     1      -0.190  -1.609  -2.824  1.00  0.00     0.074 A 
ATOM     46  C   UNL     1      -0.137  -2.468  -1.661  1.00  0.00     0.031 C 
ATOM     47  C   UNL     1       5.157   1.840  -2.401  1.00  0.00     0.029 A 
ATOM     48  C   UNL     1       4.060   1.982  -3.353  1.00  0.00     0.049 A 
ATOM     49  H   UNL     1       2.309   0.852  -3.429  1.00  0.00     0.167 HD
ATOM     50  C   UNL     1      -1.250  -1.542  -3.663  1.00  0.00     0.034 A 
ATOM     51  C   UNL     1       4.032   2.881  -4.360  1.00  0.00     0.034 A 
ATOM     52  C   UNL     1      -1.369  -0.638  -4.773  1.00  0.00     0.049 A 
ATOM     53  C   UNL     1       2.894   2.865  -5.343  1.00  0.00     0.074 A 
ATOM     54  C   UNL     1      -2.418  -0.514  -5.669  1.00  0.00     0.029 A 
ATOM     55  N   UNL     1      -0.428   0.311  -5.130  1.00  0.00    -0.354 N 
ATOM     56  N   UNL     1       1.787   2.166  -5.311  1.00  0.00    -0.248 NA
ATOM     57  C   UNL     1       3.012   3.748  -6.514  1.00  0.00     0.031 C 
ATOM     58  C   UNL     1      -2.103   0.501  -6.578  1.00  0.00     0.029 A 
ATOM     59  C   UNL     1      -0.861   1.012  -6.243  1.00  0.00     0.049 A 
ATOM     60  H   UNL     1       0.424   0.465  -4.661  1.00  0.00     0.167 HD
ATOM     61  C   UNL     1       1.077   2.527  -6.452  1.00  0.00     0.074 A 
ATOM     62  C   UNL     1       1.860   3.533  -7.136  1.00  0.00     0.031 C 
ATOM     63  C   UNL     1      -0.104   2.041  -6.905  1.00  0.00     0.034 A 
BRANCH  50  64
ATOM     64  C   UNL     1      -2.400  -2.474  -3.402  1.00  0.00     0.023 A 
ATOM     65  C   UNL     1      -3.344  -2.157  -2.406  1.00  0.00     0.012 A 
ATOM     66  C   UNL     1      -2.580  -3.627  -4.191  1.00  0.00     0.148 A 
ATOM     67  C   UNL     1      -4.443  -2.986  -2.188  1.00  0.00     0.002 A 
ATOM     68  C   UNL     1      -3.696  -4.429  -3.990  1.00  0.00     0.091 A 
ATOM     69  F   UNL     1      -1.653  -3.922  -5.114  1.00  0.00    -0.205 F 
ATOM     70  C   UNL     1      -4.625  -4.114  -2.986  1.00  0.00     0.022 A 
BRANCH  68  71
ATOM     71  S   UNL     1      -4.040  -5.865  -5.013  1.00  0.00     0.127 S 
ATOM     72  O   UNL     1      -3.660  -6.960  -4.122  1.00  0.00    -0.237 OA
ATOM     73  O   UNL     1      -5.480  -5.744  -5.248  1.00  0.00    -0.237 OA
ATOM     74  O   UNL     1      -3.219  -5.710  -6.205  1.00  0.00    -0.744 OA
ENDBRANCH  68  71
ENDBRANCH  50  64
BRANCH  51  75
ATOM     75  C   UNL     1       5.157   3.851  -4.526  1.00  0.00     0.023 A 
ATOM     76  C   UNL     1       4.922   5.230  -4.374  1.00  0.00     0.012 A 
ATOM     77  C   UNL     1       6.465   3.408  -4.808  1.00  0.00     0.148 A 
ATOM     78  C   UNL     1       5.967   6.148  -4.505  1.00  0.00     0.002 A 
ATOM     79  C   UNL     1       7.513   4.319  -4.858  1.00  0.00     0.091 A 
ATOM     80  F   UNL     1       6.667   2.098  -5.006  1.00  0.00    -0.205 F 
ATOM     81  C   UNL     1       7.265   5.692  -4.725  1.00  0.00     0.022 A 
BRANCH  79  82
ATOM     82  S   UNL     1       9.221   3.773  -4.957  1.00  0.00     0.127 S 
ATOM     83  O   UNL     1       9.513   3.945  -6.376  1.00  0.00    -0.237 OA
ATOM     84  O   UNL     1       9.901   4.717  -4.068  1.00  0.00    -0.237 OA
ATOM     85  O   UNL     1       9.210   2.401  -4.464  1.00  0.00    -0.744 OA
ENDBRANCH  79  82
ENDBRANCH  51  75
BRANCH  63  86
ATOM     86  C   UNL     1      -0.629   2.571  -8.213  1.00  0.00     0.023 A 
ATOM     87  C   UNL     1      -0.036   2.137  -9.415  1.00  0.00     0.012 A 
ATOM     88  C   UNL     1      -1.750   3.422  -8.263  1.00  0.00     0.148 A 
ATOM     89  C   UNL     1      -0.536   2.558 -10.647  1.00  0.00     0.002 A 
ATOM     90  C   UNL     1      -2.268   3.807  -9.496  1.00  0.00     0.091 A 
ATOM     91  F   UNL     1      -2.291   3.838  -7.109  1.00  0.00    -0.205 F 
ATOM     92  C   UNL     1      -1.657   3.383 -10.687  1.00  0.00     0.022 A 
BRANCH  90  93
ATOM     93  S   UNL     1      -3.757   4.801  -9.652  1.00  0.00     0.127 S 
ATOM     94  O   UNL     1      -3.214   6.087 -10.086  1.00  0.00    -0.237 OA
ATOM     95  O   UNL     1      -4.507   4.079 -10.681  1.00  0.00    -0.237 OA
ATOM     96  O   UNL     1      -4.382   4.797  -8.336  1.00  0.00    -0.744 OA
ENDBRANCH  90  93
ENDBRANCH  63  86
ENDBRANCH  37  38
ENDBRANCH  30  32
ENDBRANCH  29  30
ENDBRANCH   1  29
TORSDOF 18
