REMARK SMILES CCC[C@@H](C(=O)OCCOC(=O)c1ccc(-c2c3nc(c(-c4cccc(S(=O)(=O)[O-])c4F)c4ccc([nH]4)c(-c4cccc(S(=O)(=O)[O-])c4F)c4nc(c(-c5cccc(S(=O)(=O)[O-])c5F)c5ccc2[nH]5)C=C4)C=C3)cc1)n1nc(/C=C/c2ccc(OC)cc2)ccc1=O
REMARK SMILES IDX 8 1 7 2 5 3 6 4 4 5 3 6 2 7 1 8 76 9 77 10 91 11 78 12 90 13
REMARK SMILES IDX 92 14 89 15 79 16 80 17 81 18 82 19 88 20 83 21 87 22 84 23
REMARK SMILES IDX 85 24 86 25 9 26 10 27 11 28 12 29 13 30 14 31 75 32 15 33
REMARK SMILES IDX 74 34 16 35 17 36 18 37 68 38 19 39 73 40 67 41 69 42 20 43
REMARK SMILES IDX 72 44 66 45 65 46 21 48 53 49 33 50 52 51 34 52 37 53 51 54
REMARK SMILES IDX 70 55 35 56 36 57 50 59 71 60 38 61 22 62 23 63 31 64 24 65
REMARK SMILES IDX 26 66 32 67 25 68 27 69 28 70 29 71 30 72 54 73 55 74 63 75
REMARK SMILES IDX 56 76 58 77 64 78 57 79 59 80 60 81 61 82 62 83 39 84 40 85
REMARK SMILES IDX 48 86 41 87 43 88 49 89 42 90 44 91 45 92 46 93 47 94
REMARK H PARENT 69 47 37 58
REMARK Flexibility Score: inf
ROOT
ATOM      1  C   UNL     1      -2.755  -0.128   1.961  1.00  0.00     0.274 C 
ENDROOT
BRANCH   1   2
ATOM      2  O   UNL     1      -1.361  -0.502   1.936  1.00  0.00    -0.460 OA
BRANCH   2   3
ATOM      3  C   UNL     1      -0.520   0.152   2.785  1.00  0.00     0.331 C 
ATOM      4  O   UNL     1      -0.894   1.030   3.556  1.00  0.00    -0.250 OA
BRANCH   3   5
ATOM      5  C   UNL     1       0.954  -0.267   2.607  1.00  0.00     0.221 C 
BRANCH   5   6
ATOM      6  C   UNL     1       1.199  -1.371   1.548  1.00  0.00     0.039 C 
BRANCH   6   7
ATOM      7  C   UNL     1       0.848  -1.063   0.085  1.00  0.00    -0.001 C 
ATOM      8  C   UNL     1       1.305   0.293  -0.415  1.00  0.00     0.004 C 
ENDBRANCH   6   7
ENDBRANCH   5   6
BRANCH   5   9
ATOM      9  N   UNL     1       1.600  -0.549   3.928  1.00  0.00    -0.215 N 
ATOM     10  N   UNL     1       1.933   0.577   4.690  1.00  0.00    -0.169 NA
ATOM     11  C   UNL     1       1.730  -1.842   4.427  1.00  0.00     0.267 A 
ATOM     12  C   UNL     1       2.470   0.401   5.865  1.00  0.00     0.084 A 
ATOM     13  C   UNL     1       2.498  -1.985   5.677  1.00  0.00     0.075 A 
ATOM     14  O   UNL     1       1.302  -2.865   3.903  1.00  0.00    -0.268 OA
ATOM     15  C   UNL     1       2.873  -0.922   6.384  1.00  0.00     0.036 A 
BRANCH  12  16
ATOM     16  C   UNL     1       2.696   1.591   6.754  1.00  0.00     0.031 C 
ATOM     17  C   UNL     1       3.121   1.552   8.029  1.00  0.00     0.010 C 
BRANCH  17  18
ATOM     18  C   UNL     1       3.318   2.725   8.895  1.00  0.00    -0.025 A 
ATOM     19  C   UNL     1       4.485   2.801   9.665  1.00  0.00     0.012 A 
ATOM     20  C   UNL     1       2.340   3.710   9.064  1.00  0.00     0.012 A 
ATOM     21  C   UNL     1       4.679   3.854  10.564  1.00  0.00     0.047 A 
ATOM     22  C   UNL     1       2.533   4.763   9.973  1.00  0.00     0.047 A 
ATOM     23  C   UNL     1       3.708   4.843  10.722  1.00  0.00     0.118 A 
BRANCH  23  24
ATOM     24  O   UNL     1       4.020   5.807  11.641  1.00  0.00    -0.497 OA
ATOM     25  C   UNL     1       3.090   6.871  11.798  1.00  0.00     0.278 C 
ENDBRANCH  23  24
ENDBRANCH  17  18
ENDBRANCH  12  16
ENDBRANCH   5   9
ENDBRANCH   3   5
ENDBRANCH   2   3
ENDBRANCH   1   2
BRANCH   1  26
ATOM     26  C   UNL     1      -3.582  -1.262   2.553  1.00  0.00     0.275 C 
BRANCH  26  27
ATOM     27  O   UNL     1      -3.186  -1.429   3.921  1.00  0.00    -0.458 OA
BRANCH  27  28
ATOM     28  C   UNL     1      -2.725  -2.653   4.266  1.00  0.00     0.338 C 
ATOM     29  O   UNL     1      -2.765  -3.671   3.599  1.00  0.00    -0.246 OA
BRANCH  28  30
ATOM     30  C   UNL     1      -2.153  -2.569   5.622  1.00  0.00     0.060 A 
ATOM     31  C   UNL     1      -1.267  -1.544   5.946  1.00  0.00     0.016 A 
ATOM     32  C   UNL     1      -2.443  -3.559   6.558  1.00  0.00     0.016 A 
ATOM     33  C   UNL     1      -0.600  -1.559   7.168  1.00  0.00     0.010 A 
ATOM     34  C   UNL     1      -1.841  -3.514   7.821  1.00  0.00     0.010 A 
ATOM     35  C   UNL     1      -0.872  -2.542   8.127  1.00  0.00    -0.014 A 
BRANCH  35  36
ATOM     36  C   UNL     1      -0.107  -2.589   9.409  1.00  0.00     0.031 A 
ATOM     37  C   UNL     1       0.583  -3.865   9.833  1.00  0.00     0.074 A 
ATOM     38  C   UNL     1      -0.009  -1.502  10.203  1.00  0.00     0.049 A 
ATOM     39  N   UNL     1       1.105  -4.177  10.992  1.00  0.00    -0.248 NA
ATOM     40  C   UNL     1       0.686  -4.936   8.827  1.00  0.00     0.031 C 
ATOM     41  C   UNL     1      -0.589  -0.187   9.922  1.00  0.00     0.029 A 
ATOM     42  N   UNL     1       0.615  -1.331  11.416  1.00  0.00    -0.354 N 
ATOM     43  C   UNL     1       1.499  -5.506  10.888  1.00  0.00     0.074 A 
ATOM     44  C   UNL     1       1.183  -5.935   9.543  1.00  0.00     0.031 C 
ATOM     45  C   UNL     1      -0.263   0.662  10.907  1.00  0.00     0.029 A 
ATOM     46  C   UNL     1       0.458  -0.069  11.943  1.00  0.00     0.049 A 
ATOM     47  H   UNL     1       1.126  -2.043  11.865  1.00  0.00     0.167 HD
ATOM     48  C   UNL     1       2.080  -6.297  11.822  1.00  0.00     0.034 A 
ATOM     49  C   UNL     1       0.802   0.438  13.143  1.00  0.00     0.034 A 
ATOM     50  C   UNL     1       2.493  -5.845  13.124  1.00  0.00     0.049 A 
ATOM     51  C   UNL     1       1.471  -0.451  14.153  1.00  0.00     0.074 A 
ATOM     52  C   UNL     1       3.121  -6.565  14.126  1.00  0.00     0.029 A 
ATOM     53  N   UNL     1       2.347  -4.550  13.596  1.00  0.00    -0.354 N 
ATOM     54  N   UNL     1       1.835  -1.704  14.035  1.00  0.00    -0.248 NA
ATOM     55  C   UNL     1       1.778   0.145  15.462  1.00  0.00     0.031 C 
ATOM     56  C   UNL     1       3.362  -5.703  15.201  1.00  0.00     0.029 A 
ATOM     57  C   UNL     1       2.888  -4.445  14.866  1.00  0.00     0.049 A 
ATOM     58  H   UNL     1       1.922  -3.813  13.100  1.00  0.00     0.167 HD
ATOM     59  C   UNL     1       2.422  -2.044  15.249  1.00  0.00     0.074 A 
ATOM     60  C   UNL     1       2.399  -0.854  16.074  1.00  0.00     0.031 C 
ATOM     61  C   UNL     1       2.909  -3.242  15.654  1.00  0.00     0.034 A 
BRANCH  48  62
ATOM     62  C   UNL     1       2.339  -7.737  11.464  1.00  0.00     0.023 A 
ATOM     63  C   UNL     1       3.409  -8.065  10.610  1.00  0.00     0.012 A 
ATOM     64  C   UNL     1       1.566  -8.770  12.033  1.00  0.00     0.148 A 
ATOM     65  C   UNL     1       3.691  -9.397  10.305  1.00  0.00     0.002 A 
ATOM     66  C   UNL     1       1.879 -10.097  11.758  1.00  0.00     0.091 A 
ATOM     67  F   UNL     1       0.537  -8.438  12.825  1.00  0.00    -0.205 F 
ATOM     68  C   UNL     1       2.935 -10.411  10.887  1.00  0.00     0.022 A 
BRANCH  66  69
ATOM     69  S   UNL     1       1.013 -11.470  12.529  1.00  0.00     0.127 S 
ATOM     70  O   UNL     1       0.153 -11.927  11.439  1.00  0.00    -0.237 OA
ATOM     71  O   UNL     1       2.108 -12.381  12.865  1.00  0.00    -0.237 OA
ATOM     72  O   UNL     1       0.324 -10.906  13.682  1.00  0.00    -0.744 OA
ENDBRANCH  66  69
ENDBRANCH  48  62
BRANCH  49  73
ATOM     73  C   UNL     1       0.519   1.869  13.452  1.00  0.00     0.023 A 
ATOM     74  C   UNL     1       1.593   2.767  13.593  1.00  0.00     0.012 A 
ATOM     75  C   UNL     1      -0.799   2.353  13.562  1.00  0.00     0.148 A 
ATOM     76  C   UNL     1       1.359   4.115  13.864  1.00  0.00     0.002 A 
ATOM     77  C   UNL     1      -1.025   3.711  13.752  1.00  0.00     0.091 A 
ATOM     78  F   UNL     1      -1.812   1.480  13.461  1.00  0.00    -0.205 F 
ATOM     79  C   UNL     1       0.052   4.592  13.923  1.00  0.00     0.022 A 
BRANCH  77  80
ATOM     80  S   UNL     1      -2.674   4.416  13.653  1.00  0.00     0.127 S 
ATOM     81  O   UNL     1      -3.022   4.571  15.062  1.00  0.00    -0.237 OA
ATOM     82  O   UNL     1      -2.431   5.669  12.936  1.00  0.00    -0.237 OA
ATOM     83  O   UNL     1      -3.458   3.446  12.898  1.00  0.00    -0.744 OA
ENDBRANCH  77  80
ENDBRANCH  49  73
BRANCH  61  84
ATOM     84  C   UNL     1       3.478  -3.324  17.045  1.00  0.00     0.023 A 
ATOM     85  C   UNL     1       2.604  -3.365  18.149  1.00  0.00     0.012 A 
ATOM     86  C   UNL     1       4.866  -3.421  17.255  1.00  0.00     0.148 A 
ATOM     87  C   UNL     1       3.106  -3.474  19.445  1.00  0.00     0.002 A 
ATOM     88  C   UNL     1       5.357  -3.568  18.547  1.00  0.00     0.091 A 
ATOM     89  F   UNL     1       5.682  -3.356  16.192  1.00  0.00    -0.205 F 
ATOM     90  C   UNL     1       4.480  -3.586  19.643  1.00  0.00     0.022 A 
BRANCH  88  91
ATOM     91  S   UNL     1       7.108  -3.799  18.881  1.00  0.00     0.127 S 
ATOM     92  O   UNL     1       7.505  -2.465  19.328  1.00  0.00    -0.237 OA
ATOM     93  O   UNL     1       7.097  -4.816  19.933  1.00  0.00    -0.237 OA
ATOM     94  O   UNL     1       7.694  -4.243  17.624  1.00  0.00    -0.744 OA
ENDBRANCH  88  91
ENDBRANCH  61  84
ENDBRANCH  35  36
ENDBRANCH  28  30
ENDBRANCH  27  28
ENDBRANCH  26  27
ENDBRANCH   1  26
TORSDOF 20
