REMARK SMILES COc1ccc(C(=O)OCCOC(=O)c2ccc(-c3c4nc(c(-c5cccc(S(=O)(=O)[O-])c5F)c5ccc([nH]5)c(-c5cccc(S(=O)(=O)[O-])c5F)c5nc(c(-c6cccc(S(=O)(=O)[O-])c6F)c6ccc3[nH]6)C=C5)C=C4)cc2)cc1NC(=O)c1cc([N+](=O)[O-])ccc1Cl
REMARK SMILES IDX 10 1 9 2 7 3 8 4 6 5 3 6 4 7 79 8 5 9 78 10 2 11 1 12 80 13
REMARK SMILES IDX 81 14 82 16 83 17 84 18 91 19 85 20 90 21 92 22 89 23 86 24
REMARK SMILES IDX 87 25 88 26 11 27 12 28 13 29 14 30 15 31 16 32 77 33 17 34
REMARK SMILES IDX 76 35 18 36 19 37 20 38 70 39 21 40 75 41 69 42 71 43 22 44
REMARK SMILES IDX 74 45 68 46 67 47 23 49 55 50 35 51 54 52 36 53 39 54 53 55
REMARK SMILES IDX 72 56 37 57 38 58 52 60 73 61 40 62 24 63 25 64 33 65 26 66
REMARK SMILES IDX 28 67 34 68 27 69 29 70 30 71 31 72 32 73 56 74 57 75 65 76
REMARK SMILES IDX 58 77 60 78 66 79 59 80 61 81 62 82 63 83 64 84 41 85 42 86
REMARK SMILES IDX 50 87 43 88 45 89 51 90 44 91 46 92 47 93 48 94 49 95
REMARK H PARENT 80 15 71 48 39 59
REMARK Flexibility Score: inf
ROOT
ATOM      1  C   UNL     1       3.238  -2.038  -7.729  1.00  0.00     0.275 C 
ENDROOT
BRANCH   1   2
ATOM      2  O   UNL     1       2.988  -2.037  -6.307  1.00  0.00    -0.458 OA
BRANCH   2   3
ATOM      3  C   UNL     1       1.832  -1.451  -5.899  1.00  0.00     0.338 C 
ATOM      4  O   UNL     1       1.022  -0.888  -6.611  1.00  0.00    -0.246 OA
BRANCH   3   5
ATOM      5  C   UNL     1       1.653  -1.566  -4.424  1.00  0.00     0.062 A 
ATOM      6  C   UNL     1       1.368  -1.302  -1.673  1.00  0.00     0.142 A 
ATOM      7  C   UNL     1       0.230  -1.421  -2.469  1.00  0.00     0.049 A 
ATOM      8  C   UNL     1       2.651  -1.329  -2.243  1.00  0.00     0.084 A 
ATOM      9  C   UNL     1       0.377  -1.455  -3.854  1.00  0.00     0.019 A 
ATOM     10  C   UNL     1       2.771  -1.625  -3.595  1.00  0.00     0.045 A 
BRANCH   6  11
ATOM     11  O   UNL     1       1.224  -1.135  -0.319  1.00  0.00    -0.495 OA
ATOM     12  C   UNL     1       0.924   0.226  -0.001  1.00  0.00     0.278 C 
ENDBRANCH   6  11
BRANCH   8  13
ATOM     13  N   UNL     1       3.731  -0.909  -1.438  1.00  0.00    -0.319 N 
ATOM     14  C   UNL     1       4.964  -0.379  -1.756  1.00  0.00     0.257 C 
ATOM     15  H   UNL     1       3.577  -1.014  -0.472  1.00  0.00     0.170 HD
ATOM     16  O   UNL     1       5.722   0.021  -0.874  1.00  0.00    -0.269 OA
BRANCH  14  17
ATOM     17  C   UNL     1       5.456  -0.315  -3.143  1.00  0.00     0.065 A 
ATOM     18  C   UNL     1       6.486  -1.212  -3.461  1.00  0.00     0.101 A 
ATOM     19  C   UNL     1       4.918   0.528  -4.128  1.00  0.00     0.054 A 
ATOM     20  C   UNL     1       6.915  -1.323  -4.787  1.00  0.00     0.270 A 
ATOM     21  C   UNL     1       5.331   0.381  -5.459  1.00  0.00     0.028 A 
ATOM     22  Cl  UNL     1       3.712   1.712  -3.783  1.00  0.00    -0.083 Cl
ATOM     23  C   UNL     1       6.321  -0.551  -5.795  1.00  0.00     0.087 A 
BRANCH  20  24
ATOM     24  N   UNL     1       7.989  -2.264  -5.123  1.00  0.00     0.062 N 
ATOM     25  O   UNL     1       8.621  -2.772  -4.187  1.00  0.00    -0.258 OA
ATOM     26  O   UNL     1       8.207  -2.480  -6.323  1.00  0.00    -0.258 OA
ENDBRANCH  20  24
ENDBRANCH  14  17
ENDBRANCH   8  13
ENDBRANCH   3   5
ENDBRANCH   2   3
ENDBRANCH   1   2
BRANCH   1  27
ATOM     27  C   UNL     1       3.116  -3.447  -8.311  1.00  0.00     0.275 C 
BRANCH  27  28
ATOM     28  O   UNL     1       1.749  -3.888  -8.277  1.00  0.00    -0.458 OA
BRANCH  28  29
ATOM     29  C   UNL     1       1.417  -4.602  -7.180  1.00  0.00     0.338 C 
ATOM     30  O   UNL     1       2.157  -4.974  -6.283  1.00  0.00    -0.246 OA
BRANCH  29  31
ATOM     31  C   UNL     1      -0.041  -4.728  -7.105  1.00  0.00     0.060 A 
ATOM     32  C   UNL     1      -0.721  -3.761  -6.373  1.00  0.00     0.016 A 
ATOM     33  C   UNL     1      -0.716  -5.837  -7.599  1.00  0.00     0.016 A 
ATOM     34  C   UNL     1      -2.051  -3.929  -6.032  1.00  0.00     0.010 A 
ATOM     35  C   UNL     1      -2.085  -5.961  -7.339  1.00  0.00     0.010 A 
ATOM     36  C   UNL     1      -2.755  -5.029  -6.520  1.00  0.00    -0.014 A 
BRANCH  36  37
ATOM     37  C   UNL     1      -4.171  -5.223  -6.121  1.00  0.00     0.031 A 
ATOM     38  C   UNL     1      -4.570  -6.476  -5.392  1.00  0.00     0.074 A 
ATOM     39  C   UNL     1      -5.088  -4.275  -6.398  1.00  0.00     0.049 A 
ATOM     40  N   UNL     1      -5.765  -6.920  -5.106  1.00  0.00    -0.248 NA
ATOM     41  C   UNL     1      -3.479  -7.357  -4.943  1.00  0.00     0.031 C 
ATOM     42  C   UNL     1      -4.813  -2.991  -7.049  1.00  0.00     0.029 A 
ATOM     43  N   UNL     1      -6.441  -4.247  -6.174  1.00  0.00    -0.354 N 
ATOM     44  C   UNL     1      -5.575  -8.168  -4.526  1.00  0.00     0.074 A 
ATOM     45  C   UNL     1      -4.149  -8.408  -4.494  1.00  0.00     0.031 C 
ATOM     46  C   UNL     1      -5.954  -2.295  -7.153  1.00  0.00     0.029 A 
ATOM     47  C   UNL     1      -7.053  -3.119  -6.667  1.00  0.00     0.049 A 
ATOM     48  H   UNL     1      -6.926  -4.965  -5.707  1.00  0.00     0.167 HD
ATOM     49  C   UNL     1      -6.508  -9.034  -4.062  1.00  0.00     0.034 A 
ATOM     50  C   UNL     1      -8.358  -2.803  -6.764  1.00  0.00     0.034 A 
ATOM     51  C   UNL     1      -7.919  -8.754  -4.054  1.00  0.00     0.049 A 
ATOM     52  C   UNL     1      -9.374  -3.795  -6.276  1.00  0.00     0.074 A 
ATOM     53  C   UNL     1      -8.950  -9.539  -3.571  1.00  0.00     0.029 A 
ATOM     54  N   UNL     1      -8.498  -7.597  -4.556  1.00  0.00    -0.354 N 
ATOM     55  N   UNL     1      -9.182  -4.957  -5.700  1.00  0.00    -0.248 NA
ATOM     56  C   UNL     1     -10.786  -3.430  -6.443  1.00  0.00     0.031 C 
ATOM     57  C   UNL     1     -10.156  -8.872  -3.816  1.00  0.00     0.029 A 
ATOM     58  C   UNL     1      -9.873  -7.652  -4.410  1.00  0.00     0.049 A 
ATOM     59  H   UNL     1      -8.003  -6.847  -4.957  1.00  0.00     0.167 HD
ATOM     60  C   UNL     1     -10.447  -5.447  -5.401  1.00  0.00     0.074 A 
ATOM     61  C   UNL     1     -11.396  -4.445  -5.846  1.00  0.00     0.031 C 
ATOM     62  C   UNL     1     -10.795  -6.622  -4.821  1.00  0.00     0.034 A 
BRANCH  49  63
ATOM     63  C   UNL     1      -6.026 -10.367  -3.547  1.00  0.00     0.023 A 
ATOM     64  C   UNL     1      -5.285 -10.445  -2.349  1.00  0.00     0.012 A 
ATOM     65  C   UNL     1      -6.319 -11.552  -4.252  1.00  0.00     0.148 A 
ATOM     66  C   UNL     1      -4.798 -11.670  -1.893  1.00  0.00     0.002 A 
ATOM     67  C   UNL     1      -5.876 -12.775  -3.762  1.00  0.00     0.091 A 
ATOM     68  F   UNL     1      -7.005 -11.461  -5.400  1.00  0.00    -0.205 F 
ATOM     69  C   UNL     1      -5.100 -12.835  -2.594  1.00  0.00     0.022 A 
BRANCH  67  70
ATOM     70  S   UNL     1      -6.286 -14.337  -4.550  1.00  0.00     0.127 S 
ATOM     71  O   UNL     1      -5.003 -14.717  -5.138  1.00  0.00    -0.237 OA
ATOM     72  O   UNL     1      -6.701 -15.156  -3.410  1.00  0.00    -0.237 OA
ATOM     73  O   UNL     1      -7.348 -14.040  -5.501  1.00  0.00    -0.744 OA
ENDBRANCH  67  70
ENDBRANCH  49  63
BRANCH  50  74
ATOM     74  C   UNL     1      -8.770  -1.488  -7.333  1.00  0.00     0.023 A 
ATOM     75  C   UNL     1      -9.365  -0.531  -6.489  1.00  0.00     0.012 A 
ATOM     76  C   UNL     1      -8.542  -1.165  -8.685  1.00  0.00     0.148 A 
ATOM     77  C   UNL     1      -9.748   0.715  -6.986  1.00  0.00     0.002 A 
ATOM     78  C   UNL     1      -8.872   0.099  -9.160  1.00  0.00     0.091 A 
ATOM     79  F   UNL     1      -7.985  -2.093  -9.476  1.00  0.00    -0.205 F 
ATOM     80  C   UNL     1      -9.491   1.035  -8.316  1.00  0.00     0.022 A 
BRANCH  78  81
ATOM     81  S   UNL     1      -8.461   0.647 -10.821  1.00  0.00     0.127 S 
ATOM     82  O   UNL     1      -9.784   0.797 -11.422  1.00  0.00    -0.237 OA
ATOM     83  O   UNL     1      -7.758   1.903 -10.556  1.00  0.00    -0.237 OA
ATOM     84  O   UNL     1      -7.626  -0.402 -11.389  1.00  0.00    -0.744 OA
ENDBRANCH  78  81
ENDBRANCH  50  74
BRANCH  62  85
ATOM     85  C   UNL     1     -12.262  -6.866  -4.582  1.00  0.00     0.023 A 
ATOM     86  C   UNL     1     -13.121  -7.135  -5.665  1.00  0.00     0.012 A 
ATOM     87  C   UNL     1     -12.773  -6.887  -3.270  1.00  0.00     0.148 A 
ATOM     88  C   UNL     1     -14.476  -7.383  -5.448  1.00  0.00     0.002 A 
ATOM     89  C   UNL     1     -14.111  -7.191  -3.057  1.00  0.00     0.091 A 
ATOM     90  F   UNL     1     -11.942  -6.609  -2.255  1.00  0.00    -0.205 F 
ATOM     91  C   UNL     1     -14.967  -7.423  -4.145  1.00  0.00     0.022 A 
BRANCH  89  92
ATOM     92  S   UNL     1     -14.808  -7.366  -1.412  1.00  0.00     0.127 S 
ATOM     93  O   UNL     1     -15.672  -6.189  -1.327  1.00  0.00    -0.237 OA
ATOM     94  O   UNL     1     -15.520  -8.640  -1.513  1.00  0.00    -0.237 OA
ATOM     95  O   UNL     1     -13.677  -7.376  -0.493  1.00  0.00    -0.744 OA
ENDBRANCH  89  92
ENDBRANCH  62  85
ENDBRANCH  36  37
ENDBRANCH  29  31
ENDBRANCH  28  29
ENDBRANCH  27  28
ENDBRANCH   1  27
TORSDOF 18
