REMARK SMILES C[C@@H]1CCCN(c2ccc(NC(=O)Cc3cccs3)c(C(=O)OCCOC(=O)c3ccc(-c4c5nc(c(-c6cccc(S(=O)(=O)[O-])c6F)c6ccc([nH]6)c(-c6cccc(S(=O)(=O)[O-])c6F)c6nc(c(-c7cccc(S(=O)(=O)[O-])c7F)c7ccc4[nH]7)C=C6)C=C5)cc3)c2)C1
REMARK SMILES IDX 24 1 23 2 21 3 22 4 20 5 7 6 8 7 92 8 9 9 10 10 6 11 1 12
REMARK SMILES IDX 2 13 3 14 93 15 4 16 5 17 11 18 12 19 13 21 14 22 15 23
REMARK SMILES IDX 16 24 19 25 17 26 18 27 25 28 26 29 27 30 28 31 29 32 30 33
REMARK SMILES IDX 91 34 31 35 90 36 32 37 33 38 34 39 84 40 35 41 89 42 83 43
REMARK SMILES IDX 85 44 36 45 88 46 82 47 81 48 37 50 69 51 49 52 68 53 50 54
REMARK SMILES IDX 53 55 67 56 86 57 51 58 52 59 66 61 87 62 54 63 38 64 39 65
REMARK SMILES IDX 47 66 40 67 42 68 48 69 41 70 43 71 44 72 45 73 46 74 70 75
REMARK SMILES IDX 71 76 79 77 72 78 74 79 80 80 73 81 75 82 76 83 77 84 78 85
REMARK SMILES IDX 55 86 56 87 64 88 57 89 59 90 65 91 58 92 60 93 61 94 62 95
REMARK SMILES IDX 63 96
REMARK H PARENT 11 20 85 49 53 60
REMARK Flexibility Score: inf
ROOT
ATOM      1  C   UNL     1       3.711   0.931  -5.868  1.00  0.00     0.275 C 
ENDROOT
BRANCH   1   2
ATOM      2  O   UNL     1       3.219   1.323  -4.568  1.00  0.00    -0.458 OA
BRANCH   2   3
ATOM      3  C   UNL     1       3.905   2.288  -3.897  1.00  0.00     0.340 C 
ATOM      4  O   UNL     1       4.853   2.919  -4.329  1.00  0.00    -0.246 OA
BRANCH   3   5
ATOM      5  C   UNL     1       3.354   2.491  -2.520  1.00  0.00     0.085 A 
ATOM      6  C   UNL     1       1.935   1.682  -0.704  1.00  0.00     0.038 A 
ATOM      7  C   UNL     1       2.261   2.801   0.050  1.00  0.00     0.028 A 
ATOM      8  C   UNL     1       2.509   1.520  -1.970  1.00  0.00     0.043 A 
ATOM      9  C   UNL     1       3.128   3.758  -0.462  1.00  0.00     0.029 A 
ATOM     10  C   UNL     1       3.624   3.655  -1.766  1.00  0.00     0.055 A 
BRANCH   6  11
ATOM     11  N   UNL     1       1.098   0.705  -0.225  1.00  0.00    -0.371 N 
ATOM     12  C   UNL     1      -2.599   0.021   0.147  1.00  0.00     0.009 C 
ATOM     13  C   UNL     1      -1.150  -0.175  -0.285  1.00  0.00     0.005 C 
ATOM     14  C   UNL     1      -0.588  -1.502   0.264  1.00  0.00     0.007 C 
ATOM     15  C   UNL     1      -0.275   1.013   0.148  1.00  0.00     0.119 C 
ATOM     16  C   UNL     1       0.889  -1.686  -0.096  1.00  0.00     0.022 C 
ATOM     17  C   UNL     1       1.711  -0.483   0.344  1.00  0.00     0.116 C 
ENDBRANCH   6  11
BRANCH  10  18
ATOM     18  N   UNL     1       4.344   4.716  -2.329  1.00  0.00    -0.325 N 
ATOM     19  C   UNL     1       4.338   6.057  -2.078  1.00  0.00     0.229 C 
ATOM     20  H   UNL     1       4.971   4.444  -3.037  1.00  0.00     0.169 HD
ATOM     21  O   UNL     1       5.271   6.699  -2.577  1.00  0.00    -0.274 OA
BRANCH  19  22
ATOM     22  C   UNL     1       3.297   6.795  -1.236  1.00  0.00     0.147 C 
BRANCH  22  23
ATOM     23  C   UNL     1       1.830   6.699  -1.628  1.00  0.00     0.014 A 
ATOM     24  C   UNL     1       1.033   5.669  -2.099  1.00  0.00     0.016 A 
ATOM     25  S   UNL     1       0.855   8.113  -1.398  1.00  0.00    -0.148 S 
ATOM     26  C   UNL     1      -0.341   6.020  -2.252  1.00  0.00     0.012 A 
ATOM     27  C   UNL     1      -0.573   7.324  -1.898  1.00  0.00     0.065 A 
ENDBRANCH  22  23
ENDBRANCH  19  22
ENDBRANCH  10  18
ENDBRANCH   3   5
ENDBRANCH   2   3
ENDBRANCH   1   2
BRANCH   1  28
ATOM     28  C   UNL     1       2.805   1.418  -7.004  1.00  0.00     0.275 C 
BRANCH  28  29
ATOM     29  O   UNL     1       2.938   2.836  -7.197  1.00  0.00    -0.458 OA
BRANCH  29  30
ATOM     30  C   UNL     1       2.015   3.582  -6.551  1.00  0.00     0.338 C 
ATOM     31  O   UNL     1       1.038   3.172  -5.939  1.00  0.00    -0.246 OA
BRANCH  30  32
ATOM     32  C   UNL     1       2.476   4.978  -6.479  1.00  0.00     0.060 A 
ATOM     33  C   UNL     1       2.599   5.500  -5.197  1.00  0.00     0.016 A 
ATOM     34  C   UNL     1       2.754   5.778  -7.589  1.00  0.00     0.016 A 
ATOM     35  C   UNL     1       2.998   6.814  -5.013  1.00  0.00     0.010 A 
ATOM     36  C   UNL     1       3.162   7.112  -7.397  1.00  0.00     0.010 A 
ATOM     37  C   UNL     1       3.292   7.633  -6.101  1.00  0.00    -0.014 A 
BRANCH  37  38
ATOM     38  C   UNL     1       3.634   9.043  -5.798  1.00  0.00     0.031 A 
ATOM     39  C   UNL     1       2.543  10.070  -5.768  1.00  0.00     0.074 A 
ATOM     40  C   UNL     1       4.871   9.376  -5.382  1.00  0.00     0.049 A 
ATOM     41  N   UNL     1       2.619  11.351  -5.521  1.00  0.00    -0.248 NA
ATOM     42  C   UNL     1       1.179   9.582  -6.027  1.00  0.00     0.031 C 
ATOM     43  C   UNL     1       5.981   8.442  -5.205  1.00  0.00     0.029 A 
ATOM     44  N   UNL     1       5.394  10.592  -5.012  1.00  0.00    -0.354 N 
ATOM     45  C   UNL     1       1.324  11.834  -5.641  1.00  0.00     0.074 A 
ATOM     46  C   UNL     1       0.477  10.703  -5.956  1.00  0.00     0.031 C 
ATOM     47  C   UNL     1       7.058   9.119  -4.774  1.00  0.00     0.029 A 
ATOM     48  C   UNL     1       6.731  10.540  -4.694  1.00  0.00     0.049 A 
ATOM     49  H   UNL     1       4.862  11.419  -4.977  1.00  0.00     0.167 HD
ATOM     50  C   UNL     1       0.885  13.107  -5.513  1.00  0.00     0.034 A 
ATOM     51  C   UNL     1       7.600  11.531  -4.407  1.00  0.00     0.034 A 
ATOM     52  C   UNL     1       1.725  14.227  -5.185  1.00  0.00     0.049 A 
ATOM     53  C   UNL     1       7.101  12.953  -4.366  1.00  0.00     0.074 A 
ATOM     54  C   UNL     1       1.371  15.560  -5.068  1.00  0.00     0.029 A 
ATOM     55  N   UNL     1       3.086  14.152  -4.930  1.00  0.00    -0.354 N 
ATOM     56  N   UNL     1       5.876  13.405  -4.480  1.00  0.00    -0.248 NA
ATOM     57  C   UNL     1       8.106  14.005  -4.145  1.00  0.00     0.031 C 
ATOM     58  C   UNL     1       2.526  16.296  -4.782  1.00  0.00     0.029 A 
ATOM     59  C   UNL     1       3.591  15.416  -4.675  1.00  0.00     0.049 A 
ATOM     60  H   UNL     1       3.615  13.322  -4.930  1.00  0.00     0.167 HD
ATOM     61  C   UNL     1       5.957  14.784  -4.314  1.00  0.00     0.074 A 
ATOM     62  C   UNL     1       7.350  15.092  -4.066  1.00  0.00     0.031 C 
ATOM     63  C   UNL     1       4.969  15.711  -4.377  1.00  0.00     0.034 A 
BRANCH  50  64
ATOM     64  C   UNL     1      -0.572  13.362  -5.784  1.00  0.00     0.023 A 
ATOM     65  C   UNL     1      -1.550  12.974  -4.848  1.00  0.00     0.012 A 
ATOM     66  C   UNL     1      -0.963  14.016  -6.969  1.00  0.00     0.148 A 
ATOM     67  C   UNL     1      -2.901  13.205  -5.104  1.00  0.00     0.002 A 
ATOM     68  C   UNL     1      -2.306  14.283  -7.195  1.00  0.00     0.091 A 
ATOM     69  F   UNL     1      -0.016  14.352  -7.856  1.00  0.00    -0.205 F 
ATOM     70  C   UNL     1      -3.278  13.867  -6.271  1.00  0.00     0.022 A 
BRANCH  68  71
ATOM     71  S   UNL     1      -2.880  15.195  -8.631  1.00  0.00     0.127 S 
ATOM     72  O   UNL     1      -3.572  14.152  -9.386  1.00  0.00    -0.237 OA
ATOM     73  O   UNL     1      -3.759  16.196  -8.027  1.00  0.00    -0.237 OA
ATOM     74  O   UNL     1      -1.688  15.738  -9.268  1.00  0.00    -0.744 OA
ENDBRANCH  68  71
ENDBRANCH  50  64
BRANCH  51  75
ATOM     75  C   UNL     1       9.042  11.228  -4.165  1.00  0.00     0.023 A 
ATOM     76  C   UNL     1       9.616  11.495  -2.907  1.00  0.00     0.012 A 
ATOM     77  C   UNL     1       9.856  10.706  -5.191  1.00  0.00     0.148 A 
ATOM     78  C   UNL     1      10.979  11.285  -2.687  1.00  0.00     0.002 A 
ATOM     79  C   UNL     1      11.198  10.443  -4.948  1.00  0.00     0.091 A 
ATOM     80  F   UNL     1       9.302  10.486  -6.392  1.00  0.00    -0.205 F 
ATOM     81  C   UNL     1      11.767  10.751  -3.703  1.00  0.00     0.022 A 
BRANCH  79  82
ATOM     82  S   UNL     1      12.263   9.657  -6.162  1.00  0.00     0.127 S 
ATOM     83  O   UNL     1      13.175  10.744  -6.509  1.00  0.00    -0.237 OA
ATOM     84  O   UNL     1      12.865   8.576  -5.381  1.00  0.00    -0.237 OA
ATOM     85  O   UNL     1      11.383   9.209  -7.232  1.00  0.00    -0.744 OA
ENDBRANCH  79  82
ENDBRANCH  51  75
BRANCH  63  86
ATOM     86  C   UNL     1       5.338  17.154  -4.138  1.00  0.00     0.023 A 
ATOM     87  C   UNL     1       6.080  17.862  -5.104  1.00  0.00     0.012 A 
ATOM     88  C   UNL     1       4.876  17.831  -2.991  1.00  0.00     0.148 A 
ATOM     89  C   UNL     1       6.383  19.211  -4.919  1.00  0.00     0.002 A 
ATOM     90  C   UNL     1       5.136  19.188  -2.838  1.00  0.00     0.091 A 
ATOM     91  F   UNL     1       4.185  17.138  -2.074  1.00  0.00    -0.205 F 
ATOM     92  C   UNL     1       5.901  19.876  -3.794  1.00  0.00     0.022 A 
BRANCH  90  93
ATOM     93  S   UNL     1       4.472  20.152  -1.474  1.00  0.00     0.127 S 
ATOM     94  O   UNL     1       5.675  20.430  -0.692  1.00  0.00    -0.237 OA
ATOM     95  O   UNL     1       3.910  21.315  -2.162  1.00  0.00    -0.237 OA
ATOM     96  O   UNL     1       3.486  19.301  -0.821  1.00  0.00    -0.744 OA
ENDBRANCH  90  93
ENDBRANCH  63  86
ENDBRANCH  37  38
ENDBRANCH  30  32
ENDBRANCH  29  30
ENDBRANCH  28  29
ENDBRANCH   1  28
TORSDOF 18
