REMARK SMILES [NH3+][C@H](C(=O)OCCOC(=O)c1ccc(-c2c3nc(c(-c4cccc(S(=O)(=O)[O-])c4F)c4ccc([nH]4)c(-c4cccc(S(=O)(=O)[O-])c4F)c4nc(c(-c5cccc(S(=O)(=O)[O-])c5F)c5ccc2[nH]5)C=C4)C=C3)cc1)c1cccc(OCc2ccc(F)cc2)c1
REMARK SMILES IDX 6 1 5 2 3 3 4 4 2 5 1 6 74 10 75 11 88 12 76 13 78 14 77 15
REMARK SMILES IDX 79 16 80 17 81 18 82 19 87 20 83 21 86 22 84 23 85 24 7 25
REMARK SMILES IDX 8 26 9 27 10 28 11 29 12 30 73 31 13 32 72 33 14 34 15 35
REMARK SMILES IDX 16 36 66 37 17 38 71 39 65 40 67 41 18 42 70 43 64 44 63 45
REMARK SMILES IDX 19 47 51 48 31 49 50 50 32 51 35 52 49 53 68 54 33 55 34 56
REMARK SMILES IDX 48 58 69 59 36 60 20 61 21 62 29 63 22 64 24 65 30 66 23 67
REMARK SMILES IDX 25 68 26 69 27 70 28 71 52 72 53 73 61 74 54 75 56 76 62 77
REMARK SMILES IDX 55 78 57 79 58 80 59 81 60 82 37 83 38 84 46 85 39 86 41 87
REMARK SMILES IDX 47 88 40 89 42 90 43 91 44 92 45 93
REMARK H PARENT 1 7 1 8 1 9 67 46 35 57
REMARK Flexibility Score: inf
ROOT
ATOM      1  C   UNL     1       2.092  -2.042  -0.037  1.00  0.00     0.274 C 
ENDROOT
BRANCH   1   2
ATOM      2  O   UNL     1       1.355  -1.036  -0.756  1.00  0.00    -0.457 OA
BRANCH   2   3
ATOM      3  C   UNL     1       0.753  -0.071   0.004  1.00  0.00     0.369 C 
ATOM      4  O   UNL     1       0.720  -0.084   1.230  1.00  0.00    -0.245 OA
BRANCH   3   5
ATOM      5  C   UNL     1       0.097   1.035  -0.867  1.00  0.00     0.323 C 
BRANCH   5   6
ATOM      6  N   UNL     1       0.426   0.884  -2.305  1.00  0.00    -0.342 N 
ATOM      7  H   UNL     1      -0.025   1.629  -2.837  1.00  0.00     0.345 HD
ATOM      8  H   UNL     1       0.092  -0.020  -2.638  1.00  0.00     0.345 HD
ATOM      9  H   UNL     1       1.437   0.941  -2.430  1.00  0.00     0.345 HD
ENDBRANCH   5   6
BRANCH   5  10
ATOM     10  C   UNL     1      -1.401   1.107  -0.667  1.00  0.00     0.024 A 
ATOM     11  C   UNL     1      -2.078   2.333  -0.693  1.00  0.00     0.011 A 
ATOM     12  C   UNL     1      -2.146  -0.073  -0.562  1.00  0.00     0.057 A 
ATOM     13  C   UNL     1      -3.471   2.367  -0.637  1.00  0.00     0.004 A 
ATOM     14  C   UNL     1      -3.535  -0.052  -0.628  1.00  0.00     0.120 A 
ATOM     15  C   UNL     1      -4.198   1.175  -0.626  1.00  0.00     0.046 A 
BRANCH  14  16
ATOM     16  O   UNL     1      -4.318  -1.157  -0.837  1.00  0.00    -0.489 OA
BRANCH  16  17
ATOM     17  C   UNL     1      -3.676  -2.434  -0.972  1.00  0.00     0.265 C 
BRANCH  17  18
ATOM     18  C   UNL     1      -2.778  -2.664  -2.187  1.00  0.00    -0.011 A 
ATOM     19  C   UNL     1      -2.031  -3.855  -2.249  1.00  0.00     0.010 A 
ATOM     20  C   UNL     1      -2.604  -1.714  -3.209  1.00  0.00     0.010 A 
ATOM     21  C   UNL     1      -1.106  -4.064  -3.275  1.00  0.00     0.039 A 
ATOM     22  C   UNL     1      -1.653  -1.909  -4.213  1.00  0.00     0.039 A 
ATOM     23  C   UNL     1      -0.913  -3.082  -4.237  1.00  0.00     0.123 A 
ATOM     24  F   UNL     1       0.002  -3.268  -5.197  1.00  0.00    -0.207 F 
ENDBRANCH  17  18
ENDBRANCH  16  17
ENDBRANCH  14  16
ENDBRANCH   5  10
ENDBRANCH   3   5
ENDBRANCH   2   3
ENDBRANCH   1   2
BRANCH   1  25
ATOM     25  C   UNL     1       3.595  -1.742  -0.041  1.00  0.00     0.275 C 
BRANCH  25  26
ATOM     26  O   UNL     1       3.916  -0.555   0.707  1.00  0.00    -0.458 OA
BRANCH  26  27
ATOM     27  C   UNL     1       3.867   0.595  -0.007  1.00  0.00     0.338 C 
ATOM     28  O   UNL     1       3.597   0.716  -1.190  1.00  0.00    -0.246 OA
BRANCH  27  29
ATOM     29  C   UNL     1       4.020   1.750   0.888  1.00  0.00     0.060 A 
ATOM     30  C   UNL     1       2.884   2.513   1.154  1.00  0.00     0.016 A 
ATOM     31  C   UNL     1       5.269   2.162   1.346  1.00  0.00     0.016 A 
ATOM     32  C   UNL     1       2.984   3.726   1.811  1.00  0.00     0.010 A 
ATOM     33  C   UNL     1       5.365   3.362   2.060  1.00  0.00     0.010 A 
ATOM     34  C   UNL     1       4.227   4.164   2.270  1.00  0.00    -0.014 A 
BRANCH  34  35
ATOM     35  C   UNL     1       4.320   5.486   2.927  1.00  0.00     0.031 A 
ATOM     36  C   UNL     1       5.066   6.599   2.253  1.00  0.00     0.074 A 
ATOM     37  C   UNL     1       3.703   5.687   4.107  1.00  0.00     0.049 A 
ATOM     38  N   UNL     1       5.364   7.785   2.711  1.00  0.00    -0.248 NA
ATOM     39  C   UNL     1       5.547   6.343   0.884  1.00  0.00     0.031 C 
ATOM     40  C   UNL     1       2.911   4.688   4.827  1.00  0.00     0.029 A 
ATOM     41  N   UNL     1       3.651   6.796   4.911  1.00  0.00    -0.354 N 
ATOM     42  C   UNL     1       6.121   8.393   1.718  1.00  0.00     0.074 A 
ATOM     43  C   UNL     1       6.225   7.452   0.625  1.00  0.00     0.031 C 
ATOM     44  C   UNL     1       2.453   5.227   5.966  1.00  0.00     0.029 A 
ATOM     45  C   UNL     1       2.970   6.586   6.087  1.00  0.00     0.049 A 
ATOM     46  H   UNL     1       4.062   7.658   4.671  1.00  0.00     0.167 HD
ATOM     47  C   UNL     1       6.671   9.630   1.720  1.00  0.00     0.034 A 
ATOM     48  C   UNL     1       2.811   7.387   7.158  1.00  0.00     0.034 A 
ATOM     49  C   UNL     1       6.506  10.578   2.787  1.00  0.00     0.049 A 
ATOM     50  C   UNL     1       3.429   8.756   7.130  1.00  0.00     0.074 A 
ATOM     51  C   UNL     1       7.005  11.865   2.881  1.00  0.00     0.029 A 
ATOM     52  N   UNL     1       5.775  10.345   3.943  1.00  0.00    -0.354 N 
ATOM     53  N   UNL     1       4.111   9.333   6.169  1.00  0.00    -0.248 NA
ATOM     54  C   UNL     1       3.248   9.591   8.325  1.00  0.00     0.031 C 
ATOM     55  C   UNL     1       6.575  12.410   4.096  1.00  0.00     0.029 A 
ATOM     56  C   UNL     1       5.804  11.465   4.755  1.00  0.00     0.049 A 
ATOM     57  H   UNL     1       5.303   9.507   4.153  1.00  0.00     0.167 HD
ATOM     58  C   UNL     1       4.427  10.602   6.635  1.00  0.00     0.074 A 
ATOM     59  C   UNL     1       3.836  10.721   7.954  1.00  0.00     0.031 C 
ATOM     60  C   UNL     1       5.162  11.574   6.040  1.00  0.00     0.034 A 
BRANCH  47  61
ATOM     61  C   UNL     1       7.485  10.030   0.521  1.00  0.00     0.023 A 
ATOM     62  C   UNL     1       6.834  10.398  -0.673  1.00  0.00     0.012 A 
ATOM     63  C   UNL     1       8.891  10.078   0.586  1.00  0.00     0.148 A 
ATOM     64  C   UNL     1       7.571  10.785  -1.792  1.00  0.00     0.002 A 
ATOM     65  C   UNL     1       9.618  10.498  -0.522  1.00  0.00     0.091 A 
ATOM     66  F   UNL     1       9.493   9.693   1.721  1.00  0.00    -0.205 F 
ATOM     67  C   UNL     1       8.961  10.845  -1.714  1.00  0.00     0.022 A 
BRANCH  65  68
ATOM     68  S   UNL     1      11.407  10.664  -0.490  1.00  0.00     0.127 S 
ATOM     69  O   UNL     1      11.828   9.471  -1.222  1.00  0.00    -0.237 OA
ATOM     70  O   UNL     1      11.617  11.923  -1.206  1.00  0.00    -0.237 OA
ATOM     71  O   UNL     1      11.776  10.704   0.918  1.00  0.00    -0.744 OA
ENDBRANCH  65  68
ENDBRANCH  47  61
BRANCH  48  72
ATOM     72  C   UNL     1       2.019   6.910   8.326  1.00  0.00     0.023 A 
ATOM     73  C   UNL     1       0.767   7.491   8.597  1.00  0.00     0.012 A 
ATOM     74  C   UNL     1       2.471   5.846   9.132  1.00  0.00     0.148 A 
ATOM     75  C   UNL     1      -0.015   7.031   9.658  1.00  0.00     0.002 A 
ATOM     76  C   UNL     1       1.662   5.354  10.150  1.00  0.00     0.091 A 
ATOM     77  F   UNL     1       3.678   5.321   8.878  1.00  0.00    -0.205 F 
ATOM     78  C   UNL     1       0.424   5.954  10.424  1.00  0.00     0.022 A 
BRANCH  76  79
ATOM     79  S   UNL     1       2.100   3.879  11.079  1.00  0.00     0.127 S 
ATOM     80  O   UNL     1       2.626   4.447  12.316  1.00  0.00    -0.237 OA
ATOM     81  O   UNL     1       0.809   3.202  11.212  1.00  0.00    -0.237 OA
ATOM     82  O   UNL     1       3.058   3.170  10.240  1.00  0.00    -0.744 OA
ENDBRANCH  76  79
ENDBRANCH  48  72
BRANCH  60  83
ATOM     83  C   UNL     1       5.358  12.854   6.803  1.00  0.00     0.023 A 
ATOM     84  C   UNL     1       6.283  12.890   7.865  1.00  0.00     0.012 A 
ATOM     85  C   UNL     1       4.689  14.033   6.423  1.00  0.00     0.148 A 
ATOM     86  C   UNL     1       6.523  14.077   8.553  1.00  0.00     0.002 A 
ATOM     87  C   UNL     1       4.962  15.222   7.089  1.00  0.00     0.091 A 
ATOM     88  F   UNL     1       3.794  13.970   5.426  1.00  0.00    -0.205 F 
ATOM     89  C   UNL     1       5.873  15.245   8.158  1.00  0.00     0.022 A 
BRANCH  87  90
ATOM     90  S   UNL     1       4.231  16.783   6.585  1.00  0.00     0.127 S 
ATOM     91  O   UNL     1       3.163  16.945   7.569  1.00  0.00    -0.237 OA
ATOM     92  O   UNL     1       5.347  17.718   6.737  1.00  0.00    -0.237 OA
ATOM     93  O   UNL     1       3.798  16.588   5.207  1.00  0.00    -0.744 OA
ENDBRANCH  87  90
ENDBRANCH  60  83
ENDBRANCH  34  35
ENDBRANCH  27  29
ENDBRANCH  26  27
ENDBRANCH  25  26
ENDBRANCH   1  25
TORSDOF 19
