REMARK SMILES O=C(OCCOC(=O)c1ccc(-c2c3nc(c(-c4cccc(S(=O)(=O)[O-])c4F)c4ccc([nH]4)c(-c4cccc(S(=O)(=O)[O-])c4F)c4nc(c(-c5cccc(S(=O)(=O)[O-])c5F)c5ccc2[nH]5)C=C4)C=C3)cc1)C1=Cc2cc(C(F)(F)F)ccc2O[C@@H]1C(F)(F)F
REMARK SMILES IDX 5 1 4 2 3 3 2 4 1 5 72 6 73 7 85 8 74 9 84 10 75 11 83 12
REMARK SMILES IDX 76 13 82 14 81 15 86 16 87 17 88 18 89 19 77 20 78 21 79 22
REMARK SMILES IDX 80 23 6 24 7 25 8 26 9 27 10 28 71 29 11 30 70 31 12 32
REMARK SMILES IDX 13 33 14 34 64 35 15 36 69 37 63 38 65 39 16 40 68 41 62 42
REMARK SMILES IDX 61 43 17 45 49 46 29 47 48 48 30 49 33 50 47 51 66 52 31 53
REMARK SMILES IDX 32 54 46 56 67 57 34 58 18 59 19 60 27 61 20 62 22 63 28 64
REMARK SMILES IDX 21 65 23 66 24 67 25 68 26 69 50 70 51 71 59 72 52 73 54 74
REMARK SMILES IDX 60 75 53 76 55 77 56 78 57 79 58 80 35 81 36 82 44 83 37 84
REMARK SMILES IDX 39 85 45 86 38 87 40 88 41 89 42 90 43 91
REMARK H PARENT 65 44 33 55
REMARK Flexibility Score: inf
ROOT
ATOM      1  C   UNL     1       4.606  -0.043  -0.870  1.00  0.00     0.275 C 
ENDROOT
BRANCH   1   2
ATOM      2  C   UNL     1       3.794   0.889   0.910  1.00  0.00     0.275 C 
BRANCH   2   3
ATOM      3  O   UNL     1       2.848   2.120   0.958  1.00  0.00    -0.459 OA
BRANCH   3   4
ATOM      4  C   UNL     1       2.990   2.930  -0.099  1.00  0.00     0.338 C 
ATOM      5  O   UNL     1       2.334   3.884  -0.428  1.00  0.00    -0.246 OA
BRANCH   4   6
ATOM      6  C   UNL     1       3.868   2.045  -0.825  1.00  0.00     0.087 C 
ATOM      7  C   UNL     1       5.240   2.100  -0.352  1.00  0.00     0.027 C 
ATOM      8  C   UNL     1       2.708   0.508  -0.749  1.00  0.00     0.316 C 
ATOM      9  C   UNL     1       6.000   0.787   0.582  1.00  0.00     0.018 A 
ATOM     10  O   UNL     1       3.486  -0.898   0.339  1.00  0.00    -0.475 OA
ATOM     11  C   UNL     1       7.237   1.034   1.091  1.00  0.00     0.025 A 
ATOM     12  C   UNL     1       5.159  -0.655   1.040  1.00  0.00     0.128 A 
ATOM     13  C   UNL     1       7.726   0.071   1.994  1.00  0.00     0.056 A 
ATOM     14  C   UNL     1       5.686  -1.556   1.921  1.00  0.00     0.048 A 
ATOM     15  C   UNL     1       6.980  -1.148   2.384  1.00  0.00     0.017 A 
BRANCH   8  16
ATOM     16  C   UNL     1       2.271   0.650  -2.281  1.00  0.00     0.430 C 
ATOM     17  F   UNL     1       0.988   0.301  -2.451  1.00  0.00    -0.167 F 
ATOM     18  F   UNL     1       2.283   1.974  -2.634  1.00  0.00    -0.167 F 
ATOM     19  F   UNL     1       3.059   0.107  -3.219  1.00  0.00    -0.167 F 
ENDBRANCH   8  16
BRANCH  13  20
ATOM     20  C   UNL     1       9.115   0.381   2.539  1.00  0.00     0.416 C 
ATOM     21  F   UNL     1      10.086   0.175   1.607  1.00  0.00    -0.166 F 
ATOM     22  F   UNL     1       9.241   1.690   2.910  1.00  0.00    -0.166 F 
ATOM     23  F   UNL     1       9.465  -0.349   3.628  1.00  0.00    -0.166 F 
ENDBRANCH  13  20
ENDBRANCH   4   6
ENDBRANCH   3   4
ENDBRANCH   2   3
ENDBRANCH   1   2
BRANCH   1  24
ATOM     24  O   UNL     1       3.842  -1.349  -1.746  1.00  0.00    -0.458 OA
BRANCH  24  25
ATOM     25  C   UNL     1       2.912  -2.363  -1.643  1.00  0.00     0.338 C 
ATOM     26  O   UNL     1       2.411  -2.864  -0.651  1.00  0.00    -0.246 OA
BRANCH  25  27
ATOM     27  C   UNL     1       2.252  -2.455  -2.987  1.00  0.00     0.060 A 
ATOM     28  C   UNL     1       0.895  -2.091  -3.084  1.00  0.00     0.016 A 
ATOM     29  C   UNL     1       3.045  -2.470  -4.132  1.00  0.00     0.016 A 
ATOM     30  C   UNL     1       0.416  -1.493  -4.266  1.00  0.00     0.010 A 
ATOM     31  C   UNL     1       2.560  -1.889  -5.307  1.00  0.00     0.010 A 
ATOM     32  C   UNL     1       1.274  -1.318  -5.361  1.00  0.00    -0.014 A 
BRANCH  32  33
ATOM     33  C   UNL     1       0.784  -0.791  -6.663  1.00  0.00     0.031 A 
ATOM     34  C   UNL     1       0.251  -1.828  -7.603  1.00  0.00     0.074 A 
ATOM     35  C   UNL     1       0.908   0.494  -7.067  1.00  0.00     0.049 A 
ATOM     36  N   UNL     1      -0.126  -1.716  -8.845  1.00  0.00    -0.248 NA
ATOM     37  C   UNL     1       0.178  -3.198  -7.063  1.00  0.00     0.031 C 
ATOM     38  C   UNL     1       1.436   1.604  -6.274  1.00  0.00     0.029 A 
ATOM     39  N   UNL     1       0.624   1.076  -8.286  1.00  0.00    -0.354 N 
ATOM     40  C   UNL     1      -0.449  -3.005  -9.242  1.00  0.00     0.074 A 
ATOM     41  C   UNL     1      -0.181  -3.885  -8.129  1.00  0.00     0.031 C 
ATOM     42  C   UNL     1       1.462   2.720  -7.032  1.00  0.00     0.029 A 
ATOM     43  C   UNL     1       0.969   2.410  -8.373  1.00  0.00     0.049 A 
ATOM     44  H   UNL     1       0.210   0.581  -9.030  1.00  0.00     0.167 HD
ATOM     45  C   UNL     1      -0.949  -3.430 -10.421  1.00  0.00     0.034 A 
ATOM     46  C   UNL     1       0.897   3.268  -9.418  1.00  0.00     0.034 A 
ATOM     47  C   UNL     1      -1.201  -2.570 -11.534  1.00  0.00     0.049 A 
ATOM     48  C   UNL     1       0.348   2.765 -10.741  1.00  0.00     0.074 A 
ATOM     49  C   UNL     1      -1.733  -2.893 -12.766  1.00  0.00     0.029 A 
ATOM     50  N   UNL     1      -0.915  -1.214 -11.555  1.00  0.00    -0.354 N 
ATOM     51  N   UNL     1      -0.101   1.572 -11.054  1.00  0.00    -0.248 NA
ATOM     52  C   UNL     1       0.264   3.735 -11.848  1.00  0.00     0.031 C 
ATOM     53  C   UNL     1      -1.744  -1.733 -13.546  1.00  0.00     0.029 A 
ATOM     54  C   UNL     1      -1.256  -0.683 -12.782  1.00  0.00     0.049 A 
ATOM     55  H   UNL     1      -0.527  -0.706 -10.806  1.00  0.00     0.167 HD
ATOM     56  C   UNL     1      -0.563   1.662 -12.365  1.00  0.00     0.074 A 
ATOM     57  C   UNL     1      -0.352   3.030 -12.788  1.00  0.00     0.031 C 
ATOM     58  C   UNL     1      -1.104   0.700 -13.154  1.00  0.00     0.034 A 
BRANCH  45  59
ATOM     59  C   UNL     1      -1.253  -4.896 -10.522  1.00  0.00     0.023 A 
ATOM     60  C   UNL     1      -2.314  -5.437  -9.764  1.00  0.00     0.012 A 
ATOM     61  C   UNL     1      -0.453  -5.744 -11.307  1.00  0.00     0.148 A 
ATOM     62  C   UNL     1      -2.535  -6.811  -9.738  1.00  0.00     0.002 A 
ATOM     63  C   UNL     1      -0.716  -7.107 -11.319  1.00  0.00     0.091 A 
ATOM     64  F   UNL     1       0.569  -5.210 -11.990  1.00  0.00    -0.205 F 
ATOM     65  C   UNL     1      -1.741  -7.644 -10.521  1.00  0.00     0.022 A 
BRANCH  63  66
ATOM     66  S   UNL     1       0.202  -8.258 -12.343  1.00  0.00     0.127 S 
ATOM     67  O   UNL     1       0.893  -9.063 -11.336  1.00  0.00    -0.237 OA
ATOM     68  O   UNL     1      -0.872  -8.956 -13.049  1.00  0.00    -0.237 OA
ATOM     69  O   UNL     1       1.066  -7.448 -13.189  1.00  0.00    -0.744 OA
ENDBRANCH  63  66
ENDBRANCH  45  59
BRANCH  46  70
ATOM     70  C   UNL     1       1.294   4.710  -9.287  1.00  0.00     0.023 A 
ATOM     71  C   UNL     1       0.301   5.709  -9.396  1.00  0.00     0.012 A 
ATOM     72  C   UNL     1       2.636   5.109  -9.130  1.00  0.00     0.148 A 
ATOM     73  C   UNL     1       0.638   7.065  -9.399  1.00  0.00     0.002 A 
ATOM     74  C   UNL     1       2.961   6.465  -9.086  1.00  0.00     0.091 A 
ATOM     75  F   UNL     1       3.575   4.157  -9.048  1.00  0.00    -0.205 F 
ATOM     76  C   UNL     1       1.967   7.444  -9.240  1.00  0.00     0.022 A 
BRANCH  74  77
ATOM     77  S   UNL     1       4.634   7.063  -8.800  1.00  0.00     0.127 S 
ATOM     78  O   UNL     1       4.943   7.715 -10.070  1.00  0.00    -0.237 OA
ATOM     79  O   UNL     1       4.438   7.975  -7.673  1.00  0.00    -0.237 OA
ATOM     80  O   UNL     1       5.429   5.882  -8.491  1.00  0.00    -0.744 OA
ENDBRANCH  74  77
ENDBRANCH  46  70
BRANCH  58  81
ATOM     81  C   UNL     1      -1.574   1.080 -14.535  1.00  0.00     0.023 A 
ATOM     82  C   UNL     1      -0.638   1.331 -15.556  1.00  0.00     0.012 A 
ATOM     83  C   UNL     1      -2.948   1.041 -14.847  1.00  0.00     0.148 A 
ATOM     84  C   UNL     1      -1.065   1.554 -16.865  1.00  0.00     0.002 A 
ATOM     85  C   UNL     1      -3.362   1.209 -16.162  1.00  0.00     0.091 A 
ATOM     86  F   UNL     1      -3.822   0.814 -13.855  1.00  0.00    -0.205 F 
ATOM     87  C   UNL     1      -2.423   1.476 -17.171  1.00  0.00     0.022 A 
BRANCH  85  88
ATOM     88  S   UNL     1      -5.075   1.006 -16.666  1.00  0.00     0.127 S 
ATOM     89  O   UNL     1      -5.453   2.379 -16.995  1.00  0.00    -0.237 OA
ATOM     90  O   UNL     1      -4.954   0.113 -17.819  1.00  0.00    -0.237 OA
ATOM     91  O   UNL     1      -5.766   0.427 -15.522  1.00  0.00    -0.744 OA
ENDBRANCH  85  88
ENDBRANCH  58  81
ENDBRANCH  32  33
ENDBRANCH  25  27
ENDBRANCH  24  25
ENDBRANCH   1  24
TORSDOF 16
