REMARK SMILES Cc1cc(F)c([C@@H](C)[N@@H+]2C[C@H](C)[C@H](C(=O)OCCOC(=O)c3ccc(-c4c5nc(c(-c6cccc(S(=O)(=O)[O-])c6F)c6ccc([nH]6)c(-c6cccc(S(=O)(=O)[O-])c6F)c6nc(c(-c7cccc(S(=O)(=O)[O-])c7F)c7ccc4[nH]7)C=C6)C=C5)cc3)C2)cc1F
REMARK SMILES IDX 18 1 17 2 16 3 14 4 15 5 13 6 9 7 10 8 85 9 11 11 12 12 7 13
REMARK SMILES IDX 8 14 6 15 1 16 2 17 3 18 87 19 4 20 86 21 88 22 5 23 19 24
REMARK SMILES IDX 20 25 21 26 22 27 23 28 84 29 24 30 83 31 25 32 26 33 27 34
REMARK SMILES IDX 77 35 28 36 82 37 76 38 78 39 29 40 81 41 75 42 74 43 30 45
REMARK SMILES IDX 62 46 42 47 61 48 43 49 46 50 60 51 79 52 44 53 45 54 59 56
REMARK SMILES IDX 80 57 47 58 31 59 32 60 40 61 33 62 35 63 41 64 34 65 36 66
REMARK SMILES IDX 37 67 38 68 39 69 63 70 64 71 72 72 65 73 67 74 73 75 66 76
REMARK SMILES IDX 68 77 69 78 70 79 71 80 48 81 49 82 57 83 50 84 52 85 58 86
REMARK SMILES IDX 51 87 53 88 54 89 55 90 56 91
REMARK H PARENT 9 10 78 44 46 55
REMARK Flexibility Score: inf
ROOT
ATOM      1  C   UNL     1       5.032  -4.118   1.861  1.00  0.00     0.275 C 
ENDROOT
BRANCH   1   2
ATOM      2  C   UNL     1       3.522  -4.324   1.717  1.00  0.00     0.274 C 
BRANCH   2   3
ATOM      3  O   UNL     1       2.803  -3.721   2.811  1.00  0.00    -0.462 OA
BRANCH   3   4
ATOM      4  C   UNL     1       2.384  -4.547   3.796  1.00  0.00     0.315 C 
ATOM      5  O   UNL     1       2.503  -5.768   3.759  1.00  0.00    -0.252 OA
BRANCH   4   6
ATOM      6  C   UNL     1       1.709  -3.853   4.964  1.00  0.00     0.162 C 
ATOM      7  N   UNL     1      -0.463  -2.915   5.370  1.00  0.00    -0.328 N 
ATOM      8  C   UNL     1       0.528  -1.981   5.893  1.00  0.00     0.267 C 
ATOM      9  C   UNL     1       0.212  -4.130   4.932  1.00  0.00     0.278 C 
ATOM     10  H   UNL     1      -1.077  -3.170   6.144  1.00  0.00     0.348 HD
ATOM     11  C   UNL     1       1.886  -2.365   5.294  1.00  0.00     0.061 C 
ATOM     12  C   UNL     1       2.316  -1.403   4.196  1.00  0.00     0.015 C 
BRANCH   7  13
ATOM     13  C   UNL     1      -1.534  -2.380   4.520  1.00  0.00     0.215 C 
ATOM     14  C   UNL     1      -2.655  -3.413   4.315  1.00  0.00     0.081 C 
BRANCH  13  15
ATOM     15  C   UNL     1      -1.067  -1.726   3.229  1.00  0.00     0.048 A 
ATOM     16  C   UNL     1       0.797   0.243  -0.149  1.00  0.00     0.047 C 
ATOM     17  C   UNL     1       0.066  -0.425   0.972  1.00  0.00    -0.012 A 
ATOM     18  C   UNL     1      -0.110  -1.812   0.982  1.00  0.00     0.046 A 
ATOM     19  C   UNL     1      -0.368   0.304   2.079  1.00  0.00     0.126 A 
ATOM     20  C   UNL     1      -0.684  -2.443   2.088  1.00  0.00     0.132 A 
ATOM     21  C   UNL     1      -0.930  -0.326   3.188  1.00  0.00     0.052 A 
ATOM     22  F   UNL     1      -0.210   1.635   2.106  1.00  0.00    -0.207 F 
ATOM     23  F   UNL     1      -0.817  -3.773   2.030  1.00  0.00    -0.206 F 
ENDBRANCH  13  15
ENDBRANCH   7  13
ENDBRANCH   4   6
ENDBRANCH   3   4
ENDBRANCH   2   3
ENDBRANCH   1   2
BRANCH   1  24
ATOM     24  O   UNL     1       5.558  -4.843   2.988  1.00  0.00    -0.458 OA
BRANCH  24  25
ATOM     25  C   UNL     1       5.661  -4.130   4.132  1.00  0.00     0.338 C 
ATOM     26  O   UNL     1       5.421  -2.938   4.284  1.00  0.00    -0.246 OA
BRANCH  25  27
ATOM     27  C   UNL     1       5.956  -5.028   5.253  1.00  0.00     0.060 A 
ATOM     28  C   UNL     1       7.173  -5.699   5.352  1.00  0.00     0.016 A 
ATOM     29  C   UNL     1       5.006  -5.129   6.272  1.00  0.00     0.016 A 
ATOM     30  C   UNL     1       7.422  -6.485   6.481  1.00  0.00     0.010 A 
ATOM     31  C   UNL     1       5.247  -5.917   7.390  1.00  0.00     0.010 A 
ATOM     32  C   UNL     1       6.460  -6.600   7.504  1.00  0.00    -0.014 A 
BRANCH  32  33
ATOM     33  C   UNL     1       6.768  -7.338   8.748  1.00  0.00     0.031 A 
ATOM     34  C   UNL     1       6.113  -8.651   9.058  1.00  0.00     0.074 A 
ATOM     35  C   UNL     1       7.616  -6.775   9.629  1.00  0.00     0.049 A 
ATOM     36  N   UNL     1       6.397  -9.495  10.014  1.00  0.00    -0.248 NA
ATOM     37  C   UNL     1       4.984  -9.063   8.208  1.00  0.00     0.031 C 
ATOM     38  C   UNL     1       8.191  -5.434   9.498  1.00  0.00     0.029 A 
ATOM     39  N   UNL     1       8.145  -7.253  10.799  1.00  0.00    -0.354 N 
ATOM     40  C   UNL     1       5.488 -10.536   9.885  1.00  0.00     0.074 A 
ATOM     41  C   UNL     1       4.613 -10.200   8.784  1.00  0.00     0.031 C 
ATOM     42  C   UNL     1       9.034  -5.218  10.520  1.00  0.00     0.029 A 
ATOM     43  C   UNL     1       9.065  -6.405  11.368  1.00  0.00     0.049 A 
ATOM     44  H   UNL     1       7.891  -8.119  11.193  1.00  0.00     0.167 HD
ATOM     45  C   UNL     1       5.424 -11.685  10.596  1.00  0.00     0.034 A 
ATOM     46  C   UNL     1       9.882  -6.587  12.423  1.00  0.00     0.034 A 
ATOM     47  C   UNL     1       6.334 -12.018  11.657  1.00  0.00     0.049 A 
ATOM     48  C   UNL     1       9.872  -7.912  13.129  1.00  0.00     0.074 A 
ATOM     49  C   UNL     1       6.430 -13.201  12.367  1.00  0.00     0.029 A 
ATOM     50  N   UNL     1       7.305 -11.166  12.158  1.00  0.00    -0.354 N 
ATOM     51  N   UNL     1       9.142  -8.971  12.870  1.00  0.00    -0.248 NA
ATOM     52  C   UNL     1      10.817  -8.089  14.239  1.00  0.00     0.031 C 
ATOM     53  C   UNL     1       7.464 -13.065  13.298  1.00  0.00     0.029 A 
ATOM     54  C   UNL     1       8.009 -11.796  13.166  1.00  0.00     0.049 A 
ATOM     55  H   UNL     1       7.470 -10.248  11.842  1.00  0.00     0.167 HD
ATOM     56  C   UNL     1       9.551  -9.946  13.770  1.00  0.00     0.074 A 
ATOM     57  C   UNL     1      10.603  -9.357  14.574  1.00  0.00     0.031 C 
ATOM     58  C   UNL     1       9.085 -11.208  13.922  1.00  0.00     0.034 A 
BRANCH  45  59
ATOM     59  C   UNL     1       4.414 -12.720  10.185  1.00  0.00     0.023 A 
ATOM     60  C   UNL     1       4.679 -13.504   9.044  1.00  0.00     0.012 A 
ATOM     61  C   UNL     1       3.277 -12.999  10.969  1.00  0.00     0.148 A 
ATOM     62  C   UNL     1       3.824 -14.541   8.679  1.00  0.00     0.002 A 
ATOM     63  C   UNL     1       2.442 -14.053  10.614  1.00  0.00     0.091 A 
ATOM     64  F   UNL     1       3.042 -12.236  12.046  1.00  0.00    -0.205 F 
ATOM     65  C   UNL     1       2.712 -14.822   9.468  1.00  0.00     0.022 A 
BRANCH  63  66
ATOM     66  S   UNL     1       1.012 -14.540  11.587  1.00  0.00     0.127 S 
ATOM     67  O   UNL     1      -0.085 -14.246  10.666  1.00  0.00    -0.237 OA
ATOM     68  O   UNL     1       1.260 -15.965  11.804  1.00  0.00    -0.237 OA
ATOM     69  O   UNL     1       1.045 -13.722  12.791  1.00  0.00    -0.744 OA
ENDBRANCH  63  66
ENDBRANCH  45  59
BRANCH  46  70
ATOM     70  C   UNL     1      10.879  -5.532  12.748  1.00  0.00     0.023 A 
ATOM     71  C   UNL     1      12.212  -5.706  12.326  1.00  0.00     0.012 A 
ATOM     72  C   UNL     1      10.499  -4.321  13.356  1.00  0.00     0.148 A 
ATOM     73  C   UNL     1      13.152  -4.692  12.508  1.00  0.00     0.002 A 
ATOM     74  C   UNL     1      11.432  -3.301  13.502  1.00  0.00     0.091 A 
ATOM     75  F   UNL     1       9.223  -4.181  13.744  1.00  0.00    -0.205 F 
ATOM     76  C   UNL     1      12.760  -3.487  13.085  1.00  0.00     0.022 A 
BRANCH  74  77
ATOM     77  S   UNL     1      11.002  -1.674  14.131  1.00  0.00     0.127 S 
ATOM     78  O   UNL     1      11.751  -1.632  15.385  1.00  0.00    -0.237 OA
ATOM     79  O   UNL     1      11.516  -0.799  13.077  1.00  0.00    -0.237 OA
ATOM     80  O   UNL     1       9.552  -1.672  14.265  1.00  0.00    -0.744 OA
ENDBRANCH  74  77
ENDBRANCH  46  70
BRANCH  58  81
ATOM     81  C   UNL     1       9.688 -12.064  14.998  1.00  0.00     0.023 A 
ATOM     82  C   UNL     1       9.222 -11.925  16.319  1.00  0.00     0.012 A 
ATOM     83  C   UNL     1      10.568 -13.114  14.672  1.00  0.00     0.148 A 
ATOM     84  C   UNL     1       9.619 -12.826  17.304  1.00  0.00     0.002 A 
ATOM     85  C   UNL     1      10.935 -14.027  15.652  1.00  0.00     0.091 A 
ATOM     86  F   UNL     1      10.991 -13.220  13.404  1.00  0.00    -0.205 F 
ATOM     87  C   UNL     1      10.463 -13.883  16.968  1.00  0.00     0.022 A 
BRANCH  85  88
ATOM     88  S   UNL     1      11.952 -15.467  15.307  1.00  0.00     0.127 S 
ATOM     89  O   UNL     1      13.107 -15.230  16.173  1.00  0.00    -0.237 OA
ATOM     90  O   UNL     1      11.084 -16.564  15.733  1.00  0.00    -0.237 OA
ATOM     91  O   UNL     1      12.239 -15.429  13.880  1.00  0.00    -0.744 OA
ENDBRANCH  85  88
ENDBRANCH  58  81
ENDBRANCH  32  33
ENDBRANCH  25  27
ENDBRANCH  24  25
ENDBRANCH   1  24
TORSDOF 16
