REMARK SMILES C[C@H]1Oc2ccccc2C=C1/C=C/C(=O)N[C@H](C(=O)OCCOC(=O)c1ccc(-c2c3nc(c(-c4cccc(S(=O)(=O)[O-])c4F)c4ccc([nH]4)c(-c4cccc(S(=O)(=O)[O-])c4F)c4nc(c(-c5cccc(S(=O)(=O)[O-])c5F)c5ccc2[nH]5)C=C4)C=C3)cc1)c1ccccc1
REMARK SMILES IDX 21 1 20 2 18 3 19 4 17 5 16 6 14 7 15 8 13 10 12 11 11 12
REMARK SMILES IDX 1 13 2 14 3 15 4 16 10 17 5 18 9 19 6 20 8 21 7 22 89 23
REMARK SMILES IDX 90 24 94 25 91 26 93 27 92 28 22 29 23 30 24 31 25 32 26 33
REMARK SMILES IDX 27 34 88 35 28 36 87 37 29 38 30 39 31 40 81 41 32 42 86 43
REMARK SMILES IDX 80 44 82 45 33 46 85 47 79 48 78 49 34 51 66 52 46 53 65 54
REMARK SMILES IDX 47 55 50 56 64 57 83 58 48 59 49 60 63 62 84 63 51 64 35 65
REMARK SMILES IDX 36 66 44 67 37 68 39 69 45 70 38 71 40 72 41 73 42 74 43 75
REMARK SMILES IDX 67 76 68 77 76 78 69 79 71 80 77 81 70 82 72 83 73 84 74 85
REMARK SMILES IDX 75 86 52 87 53 88 61 89 54 90 56 91 62 92 55 93 57 94 58 95
REMARK SMILES IDX 59 96 60 97
REMARK H PARENT 16 9 82 50 50 61
REMARK Flexibility Score: inf
ROOT
ATOM      1  C   UNL     1       1.268  -0.953   7.027  1.00  0.00     0.274 C 
ENDROOT
BRANCH   1   2
ATOM      2  O   UNL     1       1.310  -1.576   5.731  1.00  0.00    -0.460 OA
BRANCH   2   3
ATOM      3  C   UNL     1       0.183  -1.379   4.986  1.00  0.00     0.333 C 
ATOM      4  O   UNL     1      -0.777  -0.719   5.378  1.00  0.00    -0.249 OA
BRANCH   3   5
ATOM      5  C   UNL     1       0.237  -2.066   3.589  1.00  0.00     0.223 C 
BRANCH   5   6
ATOM      6  N   UNL     1       1.468  -2.834   3.379  1.00  0.00    -0.335 N 
ATOM      7  C   UNL     1       1.846  -3.859   2.586  1.00  0.00     0.244 C 
ATOM      8  O   UNL     1       3.044  -4.052   2.377  1.00  0.00    -0.270 OA
ATOM      9  H   UNL     1       2.201  -2.525   3.960  1.00  0.00     0.165 HD
BRANCH   7  10
ATOM     10  C   UNL     1       0.884  -4.890   2.170  1.00  0.00     0.071 C 
ATOM     11  C   UNL     1      -0.067  -4.744   1.237  1.00  0.00     0.013 C 
BRANCH  11  12
ATOM     12  C   UNL     1      -1.013  -5.808   0.907  1.00  0.00    -0.007 C 
ATOM     13  C   UNL     1      -2.815  -4.605  -0.444  1.00  0.00     0.058 C 
ATOM     14  C   UNL     1      -2.480  -5.421   0.801  1.00  0.00     0.200 C 
ATOM     15  O   UNL     1      -3.432  -6.497   0.898  1.00  0.00    -0.485 OA
ATOM     16  C   UNL     1      -2.998  -7.749   0.584  1.00  0.00     0.127 A 
ATOM     17  C   UNL     1      -0.628  -7.084   0.740  1.00  0.00     0.019 C 
ATOM     18  C   UNL     1      -3.993  -8.707   0.392  1.00  0.00     0.047 A 
ATOM     19  C   UNL     1      -1.650  -8.092   0.489  1.00  0.00     0.017 A 
ATOM     20  C   UNL     1      -3.644 -10.018   0.078  1.00  0.00     0.004 A 
ATOM     21  C   UNL     1      -1.304  -9.413   0.192  1.00  0.00     0.012 A 
ATOM     22  C   UNL     1      -2.299 -10.371  -0.022  1.00  0.00     0.001 A 
ENDBRANCH  11  12
ENDBRANCH   7  10
ENDBRANCH   5   6
BRANCH   5  23
ATOM     23  C   UNL     1      -1.123  -2.699   3.398  1.00  0.00    -0.014 A 
ATOM     24  C   UNL     1      -1.530  -3.779   4.194  1.00  0.00     0.006 A 
ATOM     25  C   UNL     1      -2.086  -2.013   2.630  1.00  0.00     0.006 A 
ATOM     26  C   UNL     1      -2.878  -4.131   4.258  1.00  0.00     0.000 A 
ATOM     27  C   UNL     1      -3.433  -2.363   2.704  1.00  0.00     0.000 A 
ATOM     28  C   UNL     1      -3.829  -3.412   3.531  1.00  0.00     0.000 A 
ENDBRANCH   5  23
ENDBRANCH   3   5
ENDBRANCH   2   3
ENDBRANCH   1   2
BRANCH   1  29
ATOM     29  C   UNL     1       1.826   0.477   7.010  1.00  0.00     0.275 C 
BRANCH  29  30
ATOM     30  O   UNL     1       1.000   1.414   6.292  1.00  0.00    -0.458 OA
BRANCH  30  31
ATOM     31  C   UNL     1       1.204   1.472   4.949  1.00  0.00     0.338 C 
ATOM     32  O   UNL     1       2.022   0.834   4.312  1.00  0.00    -0.246 OA
BRANCH  31  33
ATOM     33  C   UNL     1       0.144   2.286   4.316  1.00  0.00     0.060 A 
ATOM     34  C   UNL     1      -0.151   3.577   4.750  1.00  0.00     0.016 A 
ATOM     35  C   UNL     1      -0.553   1.733   3.236  1.00  0.00     0.016 A 
ATOM     36  C   UNL     1      -1.168   4.298   4.112  1.00  0.00     0.010 A 
ATOM     37  C   UNL     1      -1.567   2.447   2.604  1.00  0.00     0.010 A 
ATOM     38  C   UNL     1      -1.890   3.732   3.045  1.00  0.00    -0.014 A 
BRANCH  38  39
ATOM     39  C   UNL     1      -2.947   4.499   2.344  1.00  0.00     0.031 A 
ATOM     40  C   UNL     1      -4.396   4.130   2.487  1.00  0.00     0.074 A 
ATOM     41  C   UNL     1      -2.585   5.504   1.526  1.00  0.00     0.049 A 
ATOM     42  N   UNL     1      -5.445   4.735   1.995  1.00  0.00    -0.248 NA
ATOM     43  C   UNL     1      -4.710   2.923   3.269  1.00  0.00     0.031 C 
ATOM     44  C   UNL     1      -1.204   5.891   1.232  1.00  0.00     0.029 A 
ATOM     45  N   UNL     1      -3.344   6.374   0.786  1.00  0.00    -0.354 N 
ATOM     46  C   UNL     1      -6.543   3.988   2.402  1.00  0.00     0.074 A 
ATOM     47  C   UNL     1      -6.030   2.861   3.153  1.00  0.00     0.031 C 
ATOM     48  C   UNL     1      -1.214   6.939   0.393  1.00  0.00     0.029 A 
ATOM     49  C   UNL     1      -2.598   7.287   0.081  1.00  0.00     0.049 A 
ATOM     50  H   UNL     1      -4.327   6.347   0.763  1.00  0.00     0.167 HD
ATOM     51  C   UNL     1      -7.857   4.238   2.199  1.00  0.00     0.034 A 
ATOM     52  C   UNL     1      -2.983   8.302  -0.717  1.00  0.00     0.034 A 
ATOM     53  C   UNL     1      -8.363   5.370   1.468  1.00  0.00     0.049 A 
ATOM     54  C   UNL     1      -4.446   8.576  -0.909  1.00  0.00     0.074 A 
ATOM     55  C   UNL     1      -9.680   5.748   1.277  1.00  0.00     0.029 A 
ATOM     56  N   UNL     1      -7.579   6.295   0.798  1.00  0.00    -0.354 N 
ATOM     57  N   UNL     1      -5.472   7.949  -0.390  1.00  0.00    -0.248 NA
ATOM     58  C   UNL     1      -4.805   9.711  -1.771  1.00  0.00     0.031 C 
ATOM     59  C   UNL     1      -9.693   6.893   0.474  1.00  0.00     0.029 A 
ATOM     60  C   UNL     1      -8.383   7.238   0.181  1.00  0.00     0.049 A 
ATOM     61  H   UNL     1      -6.595   6.284   0.766  1.00  0.00     0.167 HD
ATOM     62  C   UNL     1      -6.600   8.617  -0.850  1.00  0.00     0.074 A 
ATOM     63  C   UNL     1      -6.129   9.712  -1.675  1.00  0.00     0.031 C 
ATOM     64  C   UNL     1      -7.906   8.338  -0.617  1.00  0.00     0.034 A 
BRANCH  51  65
ATOM     65  C   UNL     1      -8.857   3.312   2.836  1.00  0.00     0.023 A 
ATOM     66  C   UNL     1      -9.089   3.408   4.223  1.00  0.00     0.012 A 
ATOM     67  C   UNL     1      -9.629   2.422   2.064  1.00  0.00     0.148 A 
ATOM     68  C   UNL     1     -10.064   2.623   4.836  1.00  0.00     0.002 A 
ATOM     69  C   UNL     1     -10.619   1.664   2.677  1.00  0.00     0.091 A 
ATOM     70  F   UNL     1      -9.383   2.341   0.749  1.00  0.00    -0.205 F 
ATOM     71  C   UNL     1     -10.835   1.760   4.062  1.00  0.00     0.022 A 
BRANCH  69  72
ATOM     72  S   UNL     1     -11.700   0.553   1.769  1.00  0.00     0.127 S 
ATOM     73  O   UNL     1     -11.298  -0.749   2.301  1.00  0.00    -0.237 OA
ATOM     74  O   UNL     1     -13.027   1.001   2.193  1.00  0.00    -0.237 OA
ATOM     75  O   UNL     1     -11.404   0.763   0.359  1.00  0.00    -0.744 OA
ENDBRANCH  69  72
ENDBRANCH  51  65
BRANCH  52  76
ATOM     76  C   UNL     1      -1.939   9.178  -1.310  1.00  0.00     0.023 A 
ATOM     77  C   UNL     1      -1.685  10.433  -0.725  1.00  0.00     0.012 A 
ATOM     78  C   UNL     1      -1.129   8.728  -2.369  1.00  0.00     0.148 A 
ATOM     79  C   UNL     1      -0.635  11.227  -1.185  1.00  0.00     0.002 A 
ATOM     80  C   UNL     1      -0.063   9.509  -2.798  1.00  0.00     0.091 A 
ATOM     81  F   UNL     1      -1.391   7.526  -2.898  1.00  0.00    -0.205 F 
ATOM     82  C   UNL     1       0.182  10.761  -2.212  1.00  0.00     0.022 A 
BRANCH  80  83
ATOM     83  S   UNL     1       1.105   8.957  -4.046  1.00  0.00     0.127 S 
ATOM     84  O   UNL     1       0.955   9.987  -5.071  1.00  0.00    -0.237 OA
ATOM     85  O   UNL     1       2.367   8.999  -3.308  1.00  0.00    -0.237 OA
ATOM     86  O   UNL     1       0.670   7.623  -4.436  1.00  0.00    -0.744 OA
ENDBRANCH  80  83
ENDBRANCH  52  76
BRANCH  64  87
ATOM     87  C   UNL     1      -8.941   9.216  -1.266  1.00  0.00     0.023 A 
ATOM     88  C   UNL     1      -9.232   9.043  -2.632  1.00  0.00     0.012 A 
ATOM     89  C   UNL     1      -9.702  10.122  -0.501  1.00  0.00     0.148 A 
ATOM     90  C   UNL     1     -10.261   9.767  -3.233  1.00  0.00     0.002 A 
ATOM     91  C   UNL     1     -10.747  10.816  -1.099  1.00  0.00     0.091 A 
ATOM     92  F   UNL     1      -9.401  10.272   0.797  1.00  0.00    -0.205 F 
ATOM     93  C   UNL     1     -11.025  10.643  -2.465  1.00  0.00     0.022 A 
BRANCH  91  94
ATOM     94  S   UNL     1     -11.831  11.918  -0.182  1.00  0.00     0.127 S 
ATOM     95  O   UNL     1     -11.508  13.215  -0.777  1.00  0.00    -0.237 OA
ATOM     96  O   UNL     1     -13.156  11.403  -0.524  1.00  0.00    -0.237 OA
ATOM     97  O   UNL     1     -11.464  11.774   1.220  1.00  0.00    -0.744 OA
ENDBRANCH  91  94
ENDBRANCH  64  87
ENDBRANCH  38  39
ENDBRANCH  31  33
ENDBRANCH  30  31
ENDBRANCH  29  30
ENDBRANCH   1  29
TORSDOF 18
