REMARK SMILES COc1cccc(-c2c([C@H]3c4ccccc4C(=O)N3CC(=O)OCCOC(=O)c3ccc(-c4c5nc(c(-c6cccc(S(=O)(=O)[O-])c6F)c6ccc([nH]6)c(-c6cccc(S(=O)(=O)[O-])c6F)c6nc(c(-c7cccc(S(=O)(=O)[O-])c7F)c7ccc4[nH]7)C=C6)C=C5)cc3)c3ccccc3n2C)c1
REMARK SMILES IDX 24 1 23 2 21 3 22 4 20 5 19 6 10 7 11 8 12 9 16 10 17 11
REMARK SMILES IDX 13 12 15 13 18 14 14 15 9 16 8 17 98 18 92 19 97 20 99 21
REMARK SMILES IDX 93 22 96 23 94 24 95 25 7 26 3 27 4 28 100 29 5 30 6 31 2 32
REMARK SMILES IDX 1 33 25 34 26 35 27 36 28 37 29 38 30 39 91 40 31 41 90 42
REMARK SMILES IDX 32 43 33 44 34 45 84 46 35 47 89 48 83 49 85 50 36 51 88 52
REMARK SMILES IDX 82 53 81 54 37 56 69 57 49 58 68 59 50 60 53 61 67 62 86 63
REMARK SMILES IDX 51 64 52 65 66 67 87 68 54 69 38 70 39 71 47 72 40 73 42 74
REMARK SMILES IDX 48 75 41 76 43 77 44 78 45 79 46 80 70 81 71 82 79 83 72 84
REMARK SMILES IDX 74 85 80 86 73 87 75 88 76 89 77 90 78 91 55 92 56 93 64 94
REMARK SMILES IDX 57 95 59 96 65 97 58 98 60 99 61 100 62 101 63 102
REMARK H PARENT 85 55 53 66
REMARK Flexibility Score: inf
ROOT
ATOM      1  C   UNL     1       8.210   0.417   1.918  1.00  0.00     0.274 C 
ENDROOT
BRANCH   1   2
ATOM      2  O   UNL     1       7.270   0.587   0.850  1.00  0.00    -0.461 OA
BRANCH   2   3
ATOM      3  C   UNL     1       7.785   0.526  -0.397  1.00  0.00     0.325 C 
ATOM      4  O   UNL     1       8.982   0.521  -0.671  1.00  0.00    -0.250 OA
BRANCH   3   5
ATOM      5  C   UNL     1       6.735   0.365  -1.473  1.00  0.00     0.243 C 
BRANCH   5   6
ATOM      6  N   UNL     1       5.309   0.346  -1.154  1.00  0.00    -0.316 N 
ATOM      7  C   UNL     1       4.470  -0.495  -2.001  1.00  0.00     0.150 C 
ATOM      8  C   UNL     1       3.906   0.552  -2.920  1.00  0.00    -0.008 A 
ATOM      9  C   UNL     1       3.724   0.512  -4.294  1.00  0.00     0.007 A 
ATOM     10  C   UNL     1       3.906   1.783  -2.258  1.00  0.00     0.045 A 
ATOM     11  C   UNL     1       4.742   1.626  -1.056  1.00  0.00     0.255 C 
ATOM     12  C   UNL     1       3.510   1.721  -4.967  1.00  0.00     0.000 A 
ATOM     13  C   UNL     1       3.644   2.983  -2.891  1.00  0.00     0.014 A 
ATOM     14  O   UNL     1       5.090   2.547  -0.338  1.00  0.00    -0.269 OA
ATOM     15  C   UNL     1       3.445   2.943  -4.270  1.00  0.00     0.001 A 
BRANCH   7  16
ATOM     16  C   UNL     1       3.287  -1.144  -1.292  1.00  0.00     0.013 A 
ATOM     17  C   UNL     1       2.383  -2.045  -1.886  1.00  0.00     0.055 A 
ATOM     18  N   UNL     1       1.355  -2.252  -0.982  1.00  0.00    -0.343 N 
ATOM     19  C   UNL     1       2.913  -1.074   0.103  1.00  0.00     0.006 A 
ATOM     20  C   UNL     1       1.703  -1.758   0.260  1.00  0.00     0.049 A 
ATOM     21  C   UNL     1       0.102  -2.921  -1.265  1.00  0.00     0.150 C 
ATOM     22  C   UNL     1       3.494  -0.504   1.261  1.00  0.00     0.011 A 
ATOM     23  C   UNL     1       1.057  -1.859   1.510  1.00  0.00     0.027 A 
ATOM     24  C   UNL     1       2.869  -0.614   2.507  1.00  0.00     0.001 A 
ATOM     25  C   UNL     1       1.660  -1.279   2.627  1.00  0.00     0.002 A 
BRANCH  17  26
ATOM     26  C   UNL     1       2.494  -2.682  -3.212  1.00  0.00     0.002 A 
ATOM     27  C   UNL     1       3.943  -3.747  -4.859  1.00  0.00     0.119 A 
ATOM     28  C   UNL     1       2.920  -3.667  -5.801  1.00  0.00     0.046 A 
ATOM     29  C   UNL     1       3.704  -3.315  -3.555  1.00  0.00     0.056 A 
ATOM     30  C   UNL     1       1.686  -3.118  -5.457  1.00  0.00     0.005 A 
ATOM     31  C   UNL     1       1.484  -2.600  -4.175  1.00  0.00     0.010 A 
BRANCH  27  32
ATOM     32  O   UNL     1       5.126  -4.228  -5.342  1.00  0.00    -0.497 OA
ATOM     33  C   UNL     1       6.257  -4.128  -4.489  1.00  0.00     0.278 C 
ENDBRANCH  27  32
ENDBRANCH  17  26
ENDBRANCH   7  16
ENDBRANCH   5   6
ENDBRANCH   3   5
ENDBRANCH   2   3
ENDBRANCH   1   2
BRANCH   1  34
ATOM     34  C   UNL     1       7.977  -0.941   2.582  1.00  0.00     0.275 C 
BRANCH  34  35
ATOM     35  O   UNL     1       8.412  -2.041   1.754  1.00  0.00    -0.458 OA
BRANCH  35  36
ATOM     36  C   UNL     1       7.488  -2.538   0.900  1.00  0.00     0.338 C 
ATOM     37  O   UNL     1       6.353  -2.135   0.714  1.00  0.00    -0.246 OA
BRANCH  36  38
ATOM     38  C   UNL     1       8.064  -3.622   0.094  1.00  0.00     0.060 A 
ATOM     39  C   UNL     1       8.191  -3.423  -1.280  1.00  0.00     0.016 A 
ATOM     40  C   UNL     1       8.385  -4.854   0.663  1.00  0.00     0.016 A 
ATOM     41  C   UNL     1       8.635  -4.463  -2.091  1.00  0.00     0.010 A 
ATOM     42  C   UNL     1       8.855  -5.890  -0.155  1.00  0.00     0.010 A 
ATOM     43  C   UNL     1       8.979  -5.708  -1.543  1.00  0.00    -0.014 A 
BRANCH  43  44
ATOM     44  C   UNL     1       9.521  -6.784  -2.420  1.00  0.00     0.031 A 
ATOM     45  C   UNL     1       8.814  -8.104  -2.569  1.00  0.00     0.074 A 
ATOM     46  C   UNL     1      10.679  -6.573  -3.078  1.00  0.00     0.049 A 
ATOM     47  N   UNL     1       9.213  -9.184  -3.193  1.00  0.00    -0.248 NA
ATOM     48  C   UNL     1       7.492  -8.233  -1.936  1.00  0.00     0.031 C 
ATOM     49  C   UNL     1      11.466  -5.340  -3.024  1.00  0.00     0.029 A 
ATOM     50  N   UNL     1      11.406  -7.393  -3.906  1.00  0.00    -0.354 N 
ATOM     51  C   UNL     1       8.224 -10.138  -2.981  1.00  0.00     0.074 A 
ATOM     52  C   UNL     1       7.196  -9.504  -2.183  1.00  0.00     0.031 C 
ATOM     53  C   UNL     1      12.556  -5.478  -3.789  1.00  0.00     0.029 A 
ATOM     54  C   UNL     1      12.592  -6.835  -4.323  1.00  0.00     0.049 A 
ATOM     55  H   UNL     1      11.107  -8.292  -4.175  1.00  0.00     0.167 HD
ATOM     56  C   UNL     1       8.175 -11.421  -3.417  1.00  0.00     0.034 A 
ATOM     57  C   UNL     1      13.623  -7.362  -5.012  1.00  0.00     0.034 A 
ATOM     58  C   UNL     1       9.173 -12.036  -4.256  1.00  0.00     0.049 A 
ATOM     59  C   UNL     1      13.554  -8.793  -5.460  1.00  0.00     0.074 A 
ATOM     60  C   UNL     1       9.170 -13.309  -4.801  1.00  0.00     0.029 A 
ATOM     61  N   UNL     1      10.351 -11.432  -4.666  1.00  0.00    -0.354 N 
ATOM     62  N   UNL     1      12.574  -9.652  -5.322  1.00  0.00    -0.248 NA
ATOM     63  C   UNL     1      14.729  -9.325  -6.164  1.00  0.00     0.031 C 
ATOM     64  C   UNL     1      10.358 -13.484  -5.519  1.00  0.00     0.029 A 
ATOM     65  C   UNL     1      11.093 -12.313  -5.437  1.00  0.00     0.049 A 
ATOM     66  H   UNL     1      10.621 -10.512  -4.442  1.00  0.00     0.167 HD
ATOM     67  C   UNL     1      13.012 -10.826  -5.922  1.00  0.00     0.074 A 
ATOM     68  C   UNL     1      14.329 -10.555  -6.461  1.00  0.00     0.031 C 
ATOM     69  C   UNL     1      12.390 -12.028  -5.995  1.00  0.00     0.034 A 
BRANCH  56  70
ATOM     70  C   UNL     1       6.988 -12.259  -3.019  1.00  0.00     0.023 A 
ATOM     71  C   UNL     1       5.748 -12.064  -3.658  1.00  0.00     0.012 A 
ATOM     72  C   UNL     1       7.125 -13.300  -2.078  1.00  0.00     0.148 A 
ATOM     73  C   UNL     1       4.656 -12.877  -3.351  1.00  0.00     0.002 A 
ATOM     74  C   UNL     1       6.043 -14.130  -1.805  1.00  0.00     0.091 A 
ATOM     75  F   UNL     1       8.307 -13.457  -1.465  1.00  0.00    -0.205 F 
ATOM     76  C   UNL     1       4.806 -13.915  -2.435  1.00  0.00     0.022 A 
BRANCH  74  77
ATOM     77  S   UNL     1       6.161 -15.538  -0.695  1.00  0.00     0.127 S 
ATOM     78  O   UNL     1       5.433 -15.052   0.476  1.00  0.00    -0.237 OA
ATOM     79  O   UNL     1       5.471 -16.586  -1.449  1.00  0.00    -0.237 OA
ATOM     80  O   UNL     1       7.584 -15.773  -0.497  1.00  0.00    -0.744 OA
ENDBRANCH  74  77
ENDBRANCH  56  70
BRANCH  57  81
ATOM     81  C   UNL     1      14.816  -6.518  -5.303  1.00  0.00     0.023 A 
ATOM     82  C   UNL     1      15.080  -6.120  -6.627  1.00  0.00     0.012 A 
ATOM     83  C   UNL     1      15.652  -6.058  -4.266  1.00  0.00     0.148 A 
ATOM     84  C   UNL     1      16.160  -5.285  -6.913  1.00  0.00     0.002 A 
ATOM     85  C   UNL     1      16.684  -5.173  -4.549  1.00  0.00     0.091 A 
ATOM     86  F   UNL     1      15.402  -6.473  -3.016  1.00  0.00    -0.205 F 
ATOM     87  C   UNL     1      16.950  -4.797  -5.874  1.00  0.00     0.022 A 
BRANCH  85  88
ATOM     88  S   UNL     1      17.635  -4.375  -3.251  1.00  0.00     0.127 S 
ATOM     89  O   UNL     1      18.899  -5.103  -3.315  1.00  0.00    -0.237 OA
ATOM     90  O   UNL     1      17.696  -2.991  -3.723  1.00  0.00    -0.237 OA
ATOM     91  O   UNL     1      16.855  -4.554  -2.034  1.00  0.00    -0.744 OA
ENDBRANCH  85  88
ENDBRANCH  57  81
BRANCH  69  92
ATOM     92  C   UNL     1      13.130 -13.149  -6.675  1.00  0.00     0.023 A 
ATOM     93  C   UNL     1      14.209 -13.765  -6.011  1.00  0.00     0.012 A 
ATOM     94  C   UNL     1      12.729 -13.630  -7.937  1.00  0.00     0.148 A 
ATOM     95  C   UNL     1      14.897 -14.823  -6.604  1.00  0.00     0.002 A 
ATOM     96  C   UNL     1      13.393 -14.712  -8.504  1.00  0.00     0.091 A 
ATOM     97  F   UNL     1      11.712 -13.018  -8.561  1.00  0.00    -0.205 F 
ATOM     98  C   UNL     1      14.483 -15.303  -7.844  1.00  0.00     0.022 A 
BRANCH  96  99
ATOM     99  S   UNL     1      12.883 -15.450 -10.060  1.00  0.00     0.127 S 
ATOM    100  O   UNL     1      13.955 -15.025 -10.958  1.00  0.00    -0.237 OA
ATOM    101  O   UNL     1      12.883 -16.878  -9.742  1.00  0.00    -0.237 OA
ATOM    102  O   UNL     1      11.567 -14.898 -10.354  1.00  0.00    -0.744 OA
ENDBRANCH  96  99
ENDBRANCH  69  92
ENDBRANCH  43  44
ENDBRANCH  36  38
ENDBRANCH  35  36
ENDBRANCH  34  35
ENDBRANCH   1  34
TORSDOF 18
