REMARK SMILES C[C@H]1[C@@H](C(=O)OCCOC(=O)c2ccc(-c3c4nc(c(-c5cccc(S(=O)(=O)[O-])c5F)c5ccc([nH]5)c(-c5cccc(S(=O)(=O)[O-])c5F)c5nc(c(-c6cccc(S(=O)(=O)[O-])c6F)c6ccc3[nH]6)C=C5)C=C4)cc2)CCN1C(=O)c1cc2cc(F)ccc2s1
REMARK SMILES IDX 8 1 7 2 6 3 4 4 5 5 3 6 1 7 2 8 77 9 75 10 76 11 78 12 79 13
REMARK SMILES IDX 80 14 81 15 89 16 82 17 88 18 83 19 87 20 84 21 86 22 85 23
REMARK SMILES IDX 9 24 10 25 11 26 12 27 13 28 74 29 14 30 73 31 15 32 16 33
REMARK SMILES IDX 17 34 67 35 18 36 72 37 66 38 68 39 19 40 71 41 65 42 64 43
REMARK SMILES IDX 20 45 52 46 32 47 51 48 33 49 36 50 50 51 69 52 34 53 35 54
REMARK SMILES IDX 49 56 70 57 37 58 21 59 22 60 30 61 23 62 25 63 31 64 24 65
REMARK SMILES IDX 26 66 27 67 28 68 29 69 53 70 54 71 62 72 55 73 57 74 63 75
REMARK SMILES IDX 56 76 58 77 59 78 60 79 61 80 38 81 39 82 47 83 40 84 42 85
REMARK SMILES IDX 48 86 41 87 43 88 44 89 45 90 46 91
REMARK H PARENT 68 44 36 55
REMARK Flexibility Score: inf
ROOT
ATOM      1  C   UNL     1       1.261   2.299  -3.936  1.00  0.00     0.275 C 
ENDROOT
BRANCH   1   2
ATOM      2  C   UNL     1       2.002   2.614  -2.642  1.00  0.00     0.274 C 
BRANCH   2   3
ATOM      3  O   UNL     1       1.641   1.683  -1.601  1.00  0.00    -0.462 OA
BRANCH   3   4
ATOM      4  C   UNL     1       0.926   2.167  -0.565  1.00  0.00     0.311 C 
ATOM      5  O   UNL     1       0.485   3.310  -0.507  1.00  0.00    -0.252 OA
BRANCH   4   6
ATOM      6  C   UNL     1       0.721   1.192   0.577  1.00  0.00     0.123 C 
ATOM      7  C   UNL     1       2.580  -0.498  -0.289  1.00  0.00     0.032 C 
ATOM      8  C   UNL     1       1.405  -0.189   0.623  1.00  0.00     0.096 C 
ATOM      9  N   UNL     1       0.336  -1.174   0.463  1.00  0.00    -0.334 N 
ATOM     10  C   UNL     1      -0.767   0.857   0.745  1.00  0.00     0.039 C 
ATOM     11  C   UNL     1      -0.886  -0.496   0.073  1.00  0.00     0.121 C 
BRANCH   9  12
ATOM     12  C   UNL     1       0.229  -2.095   1.499  1.00  0.00     0.264 C 
ATOM     13  O   UNL     1      -0.324  -1.793   2.557  1.00  0.00    -0.268 OA
BRANCH  12  14
ATOM     14  C   UNL     1       0.795  -3.403   1.277  1.00  0.00     0.093 A 
ATOM     15  C   UNL     1       1.201  -4.279   2.260  1.00  0.00     0.034 A 
ATOM     16  S   UNL     1       0.827  -4.149  -0.255  1.00  0.00    -0.130 S 
ATOM     17  C   UNL     1       0.975  -5.630   1.850  1.00  0.00    -0.004 A 
ATOM     18  C   UNL     1       0.697  -5.704   0.481  1.00  0.00     0.035 A 
ATOM     19  C   UNL     1       0.869  -6.802   2.629  1.00  0.00     0.048 A 
ATOM     20  C   UNL     1       0.309  -6.908  -0.133  1.00  0.00     0.022 A 
ATOM     21  C   UNL     1       0.391  -7.965   2.036  1.00  0.00     0.123 A 
ATOM     22  C   UNL     1       0.110  -8.025   0.680  1.00  0.00     0.041 A 
ATOM     23  F   UNL     1       0.155  -9.036   2.805  1.00  0.00    -0.207 F 
ENDBRANCH  12  14
ENDBRANCH   9  12
ENDBRANCH   4   6
ENDBRANCH   3   4
ENDBRANCH   2   3
ENDBRANCH   1   2
BRANCH   1  24
ATOM     24  O   UNL     1      -0.136   2.588  -3.778  1.00  0.00    -0.458 OA
BRANCH  24  25
ATOM     25  C   UNL     1      -0.931   1.514  -3.598  1.00  0.00     0.338 C 
ATOM     26  O   UNL     1      -0.608   0.334  -3.602  1.00  0.00    -0.246 OA
BRANCH  25  27
ATOM     27  C   UNL     1      -2.299   1.968  -3.338  1.00  0.00     0.060 A 
ATOM     28  C   UNL     1      -2.606   2.527  -2.098  1.00  0.00     0.016 A 
ATOM     29  C   UNL     1      -3.295   1.742  -4.283  1.00  0.00     0.016 A 
ATOM     30  C   UNL     1      -3.932   2.784  -1.762  1.00  0.00     0.010 A 
ATOM     31  C   UNL     1      -4.611   2.095  -3.980  1.00  0.00     0.010 A 
ATOM     32  C   UNL     1      -4.949   2.591  -2.707  1.00  0.00    -0.014 A 
BRANCH  32  33
ATOM     33  C   UNL     1      -6.369   2.907  -2.397  1.00  0.00     0.031 A 
ATOM     34  C   UNL     1      -7.419   1.838  -2.541  1.00  0.00     0.074 A 
ATOM     35  C   UNL     1      -6.729   4.164  -2.071  1.00  0.00     0.049 A 
ATOM     36  N   UNL     1      -8.718   1.960  -2.612  1.00  0.00    -0.248 NA
ATOM     37  C   UNL     1      -6.940   0.449  -2.641  1.00  0.00     0.031 C 
ATOM     38  C   UNL     1      -5.809   5.286  -1.877  1.00  0.00     0.029 A 
ATOM     39  N   UNL     1      -7.971   4.719  -1.881  1.00  0.00    -0.354 N 
ATOM     40  C   UNL     1      -9.206   0.681  -2.851  1.00  0.00     0.074 A 
ATOM     41  C   UNL     1      -8.065  -0.208  -2.888  1.00  0.00     0.031 C 
ATOM     42  C   UNL     1      -6.514   6.394  -1.604  1.00  0.00     0.029 A 
ATOM     43  C   UNL     1      -7.935   6.081  -1.687  1.00  0.00     0.049 A 
ATOM     44  H   UNL     1      -8.804   4.194  -1.882  1.00  0.00     0.167 HD
ATOM     45  C   UNL     1     -10.490   0.288  -3.025  1.00  0.00     0.034 A 
ATOM     46  C   UNL     1      -8.929   6.990  -1.641  1.00  0.00     0.034 A 
ATOM     47  C   UNL     1     -11.621   1.169  -2.906  1.00  0.00     0.049 A 
ATOM     48  C   UNL     1     -10.347   6.527  -1.812  1.00  0.00     0.074 A 
ATOM     49  C   UNL     1     -12.965   0.864  -3.021  1.00  0.00     0.029 A 
ATOM     50  N   UNL     1     -11.539   2.525  -2.625  1.00  0.00    -0.354 N 
ATOM     51  N   UNL     1     -10.796   5.311  -2.009  1.00  0.00    -0.248 NA
ATOM     52  C   UNL     1     -11.397   7.553  -1.748  1.00  0.00     0.031 C 
ATOM     53  C   UNL     1     -13.698   2.037  -2.809  1.00  0.00     0.029 A 
ATOM     54  C   UNL     1     -12.809   3.069  -2.554  1.00  0.00     0.049 A 
ATOM     55  H   UNL     1     -10.702   3.025  -2.495  1.00  0.00     0.167 HD
ATOM     56  C   UNL     1     -12.180   5.420  -2.067  1.00  0.00     0.074 A 
ATOM     57  C   UNL     1     -12.497   6.820  -1.867  1.00  0.00     0.031 C 
ATOM     58  C   UNL     1     -13.103   4.453  -2.286  1.00  0.00     0.034 A 
BRANCH  45  59
ATOM     59  C   UNL     1     -10.752  -1.161  -3.332  1.00  0.00     0.023 A 
ATOM     60  C   UNL     1     -10.675  -2.119  -2.303  1.00  0.00     0.012 A 
ATOM     61  C   UNL     1     -11.142  -1.565  -4.625  1.00  0.00     0.148 A 
ATOM     62  C   UNL     1     -10.963  -3.460  -2.559  1.00  0.00     0.002 A 
ATOM     63  C   UNL     1     -11.463  -2.897  -4.864  1.00  0.00     0.091 A 
ATOM     64  F   UNL     1     -11.184  -0.644  -5.599  1.00  0.00    -0.205 F 
ATOM     65  C   UNL     1     -11.367  -3.846  -3.835  1.00  0.00     0.022 A 
BRANCH  63  66
ATOM     66  S   UNL     1     -12.061  -3.469  -6.460  1.00  0.00     0.127 S 
ATOM     67  O   UNL     1     -10.868  -4.109  -7.011  1.00  0.00    -0.237 OA
ATOM     68  O   UNL     1     -13.129  -4.395  -6.080  1.00  0.00    -0.237 OA
ATOM     69  O   UNL     1     -12.520  -2.277  -7.160  1.00  0.00    -0.744 OA
ENDBRANCH  63  66
ENDBRANCH  45  59
BRANCH  46  70
ATOM     70  C   UNL     1      -8.599   8.425  -1.408  1.00  0.00     0.023 A 
ATOM     71  C   UNL     1      -8.927   9.014  -0.172  1.00  0.00     0.012 A 
ATOM     72  C   UNL     1      -7.895   9.183  -2.365  1.00  0.00     0.148 A 
ATOM     73  C   UNL     1      -8.567  10.334   0.103  1.00  0.00     0.002 A 
ATOM     74  C   UNL     1      -7.486  10.477  -2.060  1.00  0.00     0.091 A 
ATOM     75  F   UNL     1      -7.614   8.617  -3.547  1.00  0.00    -0.205 F 
ATOM     76  C   UNL     1      -7.832  11.059  -0.832  1.00  0.00     0.022 A 
BRANCH  74  77
ATOM     77  S   UNL     1      -6.402  11.408  -3.150  1.00  0.00     0.127 S 
ATOM     78  O   UNL     1      -7.344  12.297  -3.824  1.00  0.00    -0.237 OA
ATOM     79  O   UNL     1      -5.502  12.068  -2.203  1.00  0.00    -0.237 OA
ATOM     80  O   UNL     1      -5.751  10.409  -3.987  1.00  0.00    -0.744 OA
ENDBRANCH  74  77
ENDBRANCH  46  70
BRANCH  58  81
ATOM     81  C   UNL     1     -14.550   4.857  -2.285  1.00  0.00     0.023 A 
ATOM     82  C   UNL     1     -15.096   5.484  -3.421  1.00  0.00     0.012 A 
ATOM     83  C   UNL     1     -15.387   4.523  -1.203  1.00  0.00     0.148 A 
ATOM     84  C   UNL     1     -16.456   5.785  -3.475  1.00  0.00     0.002 A 
ATOM     85  C   UNL     1     -16.748   4.793  -1.279  1.00  0.00     0.091 A 
ATOM     86  F   UNL     1     -14.838   3.944  -0.125  1.00  0.00    -0.205 F 
ATOM     87  C   UNL     1     -17.283   5.428  -2.412  1.00  0.00     0.022 A 
BRANCH  85  88
ATOM     88  S   UNL     1     -17.900   4.295   0.005  1.00  0.00     0.127 S 
ATOM     89  O   UNL     1     -18.226   5.578   0.626  1.00  0.00    -0.237 OA
ATOM     90  O   UNL     1     -18.990   3.697  -0.768  1.00  0.00    -0.237 OA
ATOM     91  O   UNL     1     -17.176   3.357   0.852  1.00  0.00    -0.744 OA
ENDBRANCH  85  88
ENDBRANCH  58  81
ENDBRANCH  32  33
ENDBRANCH  25  27
ENDBRANCH  24  25
ENDBRANCH   1  24
TORSDOF 16
