REMARK SMILES COc1cc(NC(=O)[C@@H]2[C@@H](C(=O)OCCOC(=O)c3ccc(-c4c5nc(c(-c6cccc(S(=O)(=O)[O-])c6F)c6ccc([nH]6)c(-c6cccc(S(=O)(=O)[O-])c6F)c6nc(c(-c7cccc(S(=O)(=O)[O-])c7F)c7ccc4[nH]7)C=C6)C=C5)cc3)[C@H]3C=C[C@@H]2C3)ccc1NC(=O)c1ccccc1
REMARK SMILES IDX 14 1 13 2 11 3 12 4 10 5 9 6 85 7 82 8 84 9 86 10 83 11 7 12
REMARK SMILES IDX 6 13 8 15 5 16 3 17 4 18 89 19 88 20 87 21 2 22 1 23 90 24
REMARK SMILES IDX 91 25 92 27 93 28 94 29 98 30 95 31 97 32 96 33 15 34 16 35
REMARK SMILES IDX 17 36 18 37 19 38 20 39 81 40 21 41 80 42 22 43 23 44 24 45
REMARK SMILES IDX 74 46 25 47 79 48 73 49 75 50 26 51 78 52 72 53 71 54 27 56
REMARK SMILES IDX 59 57 39 58 58 59 40 60 43 61 57 62 76 63 41 64 42 65 56 67
REMARK SMILES IDX 77 68 44 69 28 70 29 71 37 72 30 73 32 74 38 75 31 76 33 77
REMARK SMILES IDX 34 78 35 79 36 80 60 81 61 82 69 83 62 84 64 85 70 86 63 87
REMARK SMILES IDX 65 88 66 89 67 90 68 91 45 92 46 93 54 94 47 95 49 96 55 97
REMARK SMILES IDX 48 98 50 99 51 100 52 101 53 102
REMARK H PARENT 6 14 90 26 75 55 43 66
REMARK Flexibility Score: inf
ROOT
ATOM      1  C   UNL     1      -5.315   4.453  -1.839  1.00  0.00     0.274 C 
ENDROOT
BRANCH   1   2
ATOM      2  O   UNL     1      -5.257   4.327  -0.403  1.00  0.00    -0.462 OA
BRANCH   2   3
ATOM      3  C   UNL     1      -4.137   3.711   0.065  1.00  0.00     0.310 C 
ATOM      4  O   UNL     1      -3.234   3.296  -0.651  1.00  0.00    -0.252 OA
BRANCH   3   5
ATOM      5  C   UNL     1      -4.145   3.607   1.582  1.00  0.00     0.119 C 
ATOM      6  C   UNL     1      -2.731   3.193   2.121  1.00  0.00     0.100 C 
ATOM      7  C   UNL     1      -3.025   1.916   2.936  1.00  0.00     0.025 C 
ATOM      8  C   UNL     1      -5.031   2.441   2.086  1.00  0.00     0.027 C 
ATOM      9  C   UNL     1      -3.384   0.830   1.952  1.00  0.00    -0.027 C 
ATOM     10  C   UNL     1      -4.431   2.210   3.478  1.00  0.00     0.017 C 
ATOM     11  C   UNL     1      -4.588   1.139   1.445  1.00  0.00    -0.027 C 
BRANCH   6  12
ATOM     12  C   UNL     1      -2.029   4.196   3.000  1.00  0.00     0.228 C 
ATOM     13  N   UNL     1      -0.680   4.129   3.215  1.00  0.00    -0.326 N 
ATOM     14  H   UNL     1      -0.378   4.778   3.891  1.00  0.00     0.169 HD
ATOM     15  O   UNL     1      -2.665   5.072   3.593  1.00  0.00    -0.274 OA
BRANCH  13  16
ATOM     16  C   UNL     1       0.388   3.354   2.703  1.00  0.00     0.045 A 
ATOM     17  C   UNL     1       1.488   1.728   1.265  1.00  0.00     0.144 A 
ATOM     18  C   UNL     1       0.344   2.441   1.649  1.00  0.00     0.074 A 
ATOM     19  C   UNL     1       2.700   1.874   1.940  1.00  0.00     0.084 A 
ATOM     20  C   UNL     1       2.786   2.898   2.874  1.00  0.00     0.032 A 
ATOM     21  C   UNL     1       1.644   3.611   3.268  1.00  0.00     0.028 A 
BRANCH  17  22
ATOM     22  O   UNL     1       1.417   0.967   0.125  1.00  0.00    -0.494 OA
ATOM     23  C   UNL     1       1.035  -0.381   0.374  1.00  0.00     0.278 C 
ENDBRANCH  17  22
BRANCH  19  24
ATOM     24  N   UNL     1       3.716   0.945   1.648  1.00  0.00    -0.319 N 
ATOM     25  C   UNL     1       4.823   0.511   2.341  1.00  0.00     0.255 C 
ATOM     26  H   UNL     1       3.614   0.518   0.766  1.00  0.00     0.170 HD
ATOM     27  O   UNL     1       5.514  -0.403   1.889  1.00  0.00    -0.269 OA
BRANCH  25  28
ATOM     28  C   UNL     1       5.221   1.094   3.635  1.00  0.00     0.040 A 
ATOM     29  C   UNL     1       6.500   1.646   3.710  1.00  0.00     0.014 A 
ATOM     30  C   UNL     1       4.373   1.140   4.744  1.00  0.00     0.014 A 
ATOM     31  C   UNL     1       6.881   2.386   4.824  1.00  0.00     0.001 A 
ATOM     32  C   UNL     1       4.758   1.878   5.867  1.00  0.00     0.001 A 
ATOM     33  C   UNL     1       5.997   2.523   5.892  1.00  0.00     0.000 A 
ENDBRANCH  25  28
ENDBRANCH  19  24
ENDBRANCH  13  16
ENDBRANCH   6  12
ENDBRANCH   3   5
ENDBRANCH   2   3
ENDBRANCH   1   2
BRANCH   1  34
ATOM     34  C   UNL     1      -4.839   5.826  -2.316  1.00  0.00     0.275 C 
BRANCH  34  35
ATOM     35  O   UNL     1      -3.444   6.032  -2.029  1.00  0.00    -0.458 OA
BRANCH  35  36
ATOM     36  C   UNL     1      -3.175   6.944  -1.065  1.00  0.00     0.338 C 
ATOM     37  O   UNL     1      -3.977   7.605  -0.430  1.00  0.00    -0.246 OA
BRANCH  36  38
ATOM     38  C   UNL     1      -1.725   6.995  -0.818  1.00  0.00     0.060 A 
ATOM     39  C   UNL     1      -1.178   6.081   0.075  1.00  0.00     0.016 A 
ATOM     40  C   UNL     1      -0.937   8.020  -1.344  1.00  0.00     0.016 A 
ATOM     41  C   UNL     1       0.144   6.218   0.488  1.00  0.00     0.010 A 
ATOM     42  C   UNL     1       0.410   8.123  -0.960  1.00  0.00     0.010 A 
ATOM     43  C   UNL     1       0.956   7.240  -0.012  1.00  0.00    -0.014 A 
BRANCH  43  44
ATOM     44  C   UNL     1       2.334   7.413   0.530  1.00  0.00     0.031 A 
ATOM     45  C   UNL     1       2.672   8.641   1.333  1.00  0.00     0.074 A 
ATOM     46  C   UNL     1       3.273   6.462   0.344  1.00  0.00     0.049 A 
ATOM     47  N   UNL     1       3.827   9.023   1.815  1.00  0.00    -0.248 NA
ATOM     48  C   UNL     1       1.562   9.557   1.643  1.00  0.00     0.031 C 
ATOM     49  C   UNL     1       3.059   5.192  -0.348  1.00  0.00     0.029 A 
ATOM     50  N   UNL     1       4.598   6.418   0.712  1.00  0.00    -0.354 N 
ATOM     51  C   UNL     1       3.599  10.256   2.414  1.00  0.00     0.074 A 
ATOM     52  C   UNL     1       2.190  10.547   2.262  1.00  0.00     0.031 C 
ATOM     53  C   UNL     1       4.209   4.500  -0.363  1.00  0.00     0.029 A 
ATOM     54  C   UNL     1       5.263   5.302   0.251  1.00  0.00     0.049 A 
ATOM     55  H   UNL     1       5.031   7.118   1.253  1.00  0.00     0.167 HD
ATOM     56  C   UNL     1       4.481  11.071   3.039  1.00  0.00     0.034 A 
ATOM     57  C   UNL     1       6.575   4.980   0.285  1.00  0.00     0.034 A 
ATOM     58  C   UNL     1       5.865  10.751   3.261  1.00  0.00     0.049 A 
ATOM     59  C   UNL     1       7.529   5.917   0.990  1.00  0.00     0.074 A 
ATOM     60  C   UNL     1       6.827  11.500   3.915  1.00  0.00     0.029 A 
ATOM     61  N   UNL     1       6.484   9.585   2.840  1.00  0.00    -0.354 N 
ATOM     62  N   UNL     1       7.268   7.011   1.667  1.00  0.00    -0.248 NA
ATOM     63  C   UNL     1       8.957   5.562   0.968  1.00  0.00     0.031 C 
ATOM     64  C   UNL     1       8.032  10.790   3.880  1.00  0.00     0.029 A 
ATOM     65  C   UNL     1       7.818   9.598   3.208  1.00  0.00     0.049 A 
ATOM     66  H   UNL     1       6.040   8.854   2.351  1.00  0.00     0.167 HD
ATOM     67  C   UNL     1       8.486   7.445   2.182  1.00  0.00     0.074 A 
ATOM     68  C   UNL     1       9.480   6.473   1.777  1.00  0.00     0.031 C 
ATOM     69  C   UNL     1       8.771   8.566   2.889  1.00  0.00     0.034 A 
BRANCH  56  70
ATOM     70  C   UNL     1       3.975  12.397   3.540  1.00  0.00     0.023 A 
ATOM     71  C   UNL     1       3.223  12.459   4.729  1.00  0.00     0.012 A 
ATOM     72  C   UNL     1       4.295  13.587   2.857  1.00  0.00     0.148 A 
ATOM     73  C   UNL     1       2.776  13.686   5.219  1.00  0.00     0.002 A 
ATOM     74  C   UNL     1       3.876  14.809   3.371  1.00  0.00     0.091 A 
ATOM     75  F   UNL     1       4.989  13.502   1.713  1.00  0.00    -0.205 F 
ATOM     76  C   UNL     1       3.110  14.860   4.547  1.00  0.00     0.022 A 
BRANCH  74  77
ATOM     77  S   UNL     1       4.320  16.374   2.609  1.00  0.00     0.127 S 
ATOM     78  O   UNL     1       3.066  16.752   1.958  1.00  0.00    -0.237 OA
ATOM     79  O   UNL     1       4.676  17.195   3.767  1.00  0.00    -0.237 OA
ATOM     80  O   UNL     1       5.430  16.080   1.714  1.00  0.00    -0.744 OA
ENDBRANCH  74  77
ENDBRANCH  56  70
BRANCH  57  81
ATOM     81  C   UNL     1       7.057   3.690  -0.309  1.00  0.00     0.023 A 
ATOM     82  C   UNL     1       7.721   2.763   0.513  1.00  0.00     0.012 A 
ATOM     83  C   UNL     1       6.847   3.349  -1.661  1.00  0.00     0.148 A 
ATOM     84  C   UNL     1       8.146   1.526   0.026  1.00  0.00     0.002 A 
ATOM     85  C   UNL     1       7.219   2.092  -2.132  1.00  0.00     0.091 A 
ATOM     86  F   UNL     1       6.268   4.255  -2.461  1.00  0.00    -0.205 F 
ATOM     87  C   UNL     1       7.877   1.182  -1.293  1.00  0.00     0.022 A 
BRANCH  85  88
ATOM     88  S   UNL     1       6.825   1.520  -3.789  1.00  0.00     0.127 S 
ATOM     89  O   UNL     1       8.155   1.324  -4.362  1.00  0.00    -0.237 OA
ATOM     90  O   UNL     1       6.084   0.289  -3.515  1.00  0.00    -0.237 OA
ATOM     91  O   UNL     1       6.034   2.580  -4.398  1.00  0.00    -0.744 OA
ENDBRANCH  85  88
ENDBRANCH  57  81
BRANCH  69  92
ATOM     92  C   UNL     1      10.201   8.787   3.311  1.00  0.00     0.023 A 
ATOM     93  C   UNL     1      11.157   9.160   2.346  1.00  0.00     0.012 A 
ATOM     94  C   UNL     1      10.583   8.704   4.665  1.00  0.00     0.148 A 
ATOM     95  C   UNL     1      12.478   9.412   2.714  1.00  0.00     0.002 A 
ATOM     96  C   UNL     1      11.891   9.002   5.031  1.00  0.00     0.091 A 
ATOM     97  F   UNL     1       9.665   8.330   5.569  1.00  0.00    -0.205 F 
ATOM     98  C   UNL     1      12.842   9.345   4.056  1.00  0.00     0.022 A 
BRANCH  96  99
ATOM     99  S   UNL     1      12.422   9.034   6.748  1.00  0.00     0.127 S 
ATOM    100  O   UNL     1      13.157   7.775   6.856  1.00  0.00    -0.237 OA
ATOM    101  O   UNL     1      13.259  10.234   6.796  1.00  0.00    -0.237 OA
ATOM    102  O   UNL     1      11.202   9.121   7.538  1.00  0.00    -0.744 OA
ENDBRANCH  96  99
ENDBRANCH  69  92
ENDBRANCH  43  44
ENDBRANCH  36  38
ENDBRANCH  35  36
ENDBRANCH  34  35
ENDBRANCH   1  34
TORSDOF 19
