REMARK SMILES COCCNC(=O)c1cccc(NC(=O)[C@@H]2CCCC[C@H]2C(=O)OCCOC(=O)c2ccc(-c3c4nc(c(-c5cccc(S(=O)(=O)[O-])c5F)c5ccc([nH]5)c(-c5cccc(S(=O)(=O)[O-])c5F)c5nc(c(-c6cccc(S(=O)(=O)[O-])c6F)c6ccc3[nH]6)C=C5)C=C4)cc2)c1
REMARK SMILES IDX 24 1 22 2 23 3 21 4 16 5 17 6 18 7 20 8 19 9 14 10 13 11
REMARK SMILES IDX 15 13 12 14 8 15 9 16 93 17 10 18 11 19 6 20 5 21 7 23 4 24
REMARK SMILES IDX 3 25 2 26 1 27 25 28 26 29 27 30 28 31 29 32 30 33 31 34
REMARK SMILES IDX 92 35 32 36 91 37 33 38 34 39 35 40 85 41 36 42 90 43 84 44
REMARK SMILES IDX 86 45 37 46 89 47 83 48 82 49 38 51 70 52 50 53 69 54 51 55
REMARK SMILES IDX 54 56 68 57 87 58 52 59 53 60 67 62 88 63 55 64 39 65 40 66
REMARK SMILES IDX 48 67 41 68 43 69 49 70 42 71 44 72 45 73 46 74 47 75 71 76
REMARK SMILES IDX 72 77 80 78 73 79 75 80 81 81 74 82 76 83 77 84 78 85 79 86
REMARK SMILES IDX 56 87 57 88 65 89 58 90 60 91 66 92 59 93 61 94 62 95 63 96
REMARK SMILES IDX 64 97
REMARK H PARENT 13 12 5 22 86 50 54 61
REMARK Flexibility Score: inf
ROOT
ATOM      1  O   UNL     1       3.211   1.904   8.911  1.00  0.00    -0.462 OA
ENDROOT
BRANCH   1   2
ATOM      2  C   UNL     1       3.000   1.862  10.254  1.00  0.00     0.309 C 
ATOM      3  O   UNL     1       3.073   2.833  10.998  1.00  0.00    -0.252 OA
BRANCH   2   4
ATOM      4  C   UNL     1       2.740   0.456  10.780  1.00  0.00     0.111 C 
ATOM      5  C   UNL     1       2.493  -0.600   9.682  1.00  0.00     0.093 C 
ATOM      6  C   UNL     1       2.373  -2.004  10.297  1.00  0.00     0.014 C 
ATOM      7  C   UNL     1       3.592  -2.366  11.132  1.00  0.00     0.001 C 
ATOM      8  C   UNL     1       3.959   0.073  11.635  1.00  0.00     0.016 C 
ATOM      9  C   UNL     1       3.842  -1.328  12.219  1.00  0.00     0.001 C 
BRANCH   5  10
ATOM     10  C   UNL     1       1.206  -0.350   8.918  1.00  0.00     0.228 C 
ATOM     11  N   UNL     1       1.039  -0.656   7.603  1.00  0.00    -0.326 N 
ATOM     12  H   UNL     1       0.128  -0.454   7.287  1.00  0.00     0.169 HD
ATOM     13  O   UNL     1       0.222   0.104   9.510  1.00  0.00    -0.274 OA
BRANCH  11  14
ATOM     14  C   UNL     1       1.847  -1.191   6.582  1.00  0.00     0.041 A 
ATOM     15  C   UNL     1       2.023  -1.651   4.188  1.00  0.00     0.041 A 
ATOM     16  C   UNL     1       3.336  -2.096   4.366  1.00  0.00     0.014 A 
ATOM     17  C   UNL     1       1.282  -1.216   5.296  1.00  0.00     0.040 A 
ATOM     18  C   UNL     1       3.886  -2.128   5.641  1.00  0.00     0.003 A 
ATOM     19  C   UNL     1       3.136  -1.700   6.740  1.00  0.00     0.026 A 
BRANCH  15  20
ATOM     20  C   UNL     1       1.414  -1.829   2.850  1.00  0.00     0.251 C 
ATOM     21  N   UNL     1       0.504  -0.946   2.339  1.00  0.00    -0.350 N 
ATOM     22  H   UNL     1      -0.084  -1.323   1.645  1.00  0.00     0.163 HD
ATOM     23  O   UNL     1       1.719  -2.818   2.184  1.00  0.00    -0.269 OA
BRANCH  21  24
ATOM     24  C   UNL     1       0.256   0.457   2.645  1.00  0.00     0.144 C 
BRANCH  24  25
ATOM     25  C   UNL     1       1.020   1.406   1.711  1.00  0.00     0.181 C 
BRANCH  25  26
ATOM     26  O   UNL     1       0.483   1.453   0.385  1.00  0.00    -0.383 OA
ATOM     27  C   UNL     1       0.971   0.436  -0.479  1.00  0.00     0.194 C 
ENDBRANCH  25  26
ENDBRANCH  24  25
ENDBRANCH  21  24
ENDBRANCH  15  20
ENDBRANCH  11  14
ENDBRANCH   5  10
ENDBRANCH   2   4
ENDBRANCH   1   2
BRANCH   1  28
ATOM     28  C   UNL     1       3.463   3.213   8.362  1.00  0.00     0.274 C 
BRANCH  28  29
ATOM     29  C   UNL     1       2.191   3.795   7.753  1.00  0.00     0.275 C 
BRANCH  29  30
ATOM     30  O   UNL     1       1.166   3.853   8.756  1.00  0.00    -0.458 OA
BRANCH  30  31
ATOM     31  C   UNL     1      -0.024   3.303   8.426  1.00  0.00     0.338 C 
ATOM     32  O   UNL     1      -0.348   2.842   7.339  1.00  0.00    -0.246 OA
BRANCH  31  33
ATOM     33  C   UNL     1      -0.914   3.360   9.597  1.00  0.00     0.060 A 
ATOM     34  C   UNL     1      -0.552   2.712  10.781  1.00  0.00     0.016 A 
ATOM     35  C   UNL     1      -2.151   3.992   9.495  1.00  0.00     0.016 A 
ATOM     36  C   UNL     1      -1.449   2.628  11.840  1.00  0.00     0.010 A 
ATOM     37  C   UNL     1      -3.021   3.975  10.588  1.00  0.00     0.010 A 
ATOM     38  C   UNL     1      -2.691   3.266  11.758  1.00  0.00    -0.014 A 
BRANCH  38  39
ATOM     39  C   UNL     1      -3.663   3.173  12.877  1.00  0.00     0.031 A 
ATOM     40  C   UNL     1      -4.993   2.507  12.656  1.00  0.00     0.074 A 
ATOM     41  C   UNL     1      -3.372   3.725  14.070  1.00  0.00     0.049 A 
ATOM     42  N   UNL     1      -6.045   2.487  13.432  1.00  0.00    -0.248 NA
ATOM     43  C   UNL     1      -5.170   1.781  11.386  1.00  0.00     0.031 C 
ATOM     44  C   UNL     1      -2.113   4.391  14.410  1.00  0.00     0.029 A 
ATOM     45  N   UNL     1      -4.129   3.843  15.210  1.00  0.00    -0.354 N 
ATOM     46  C   UNL     1      -7.029   1.814  12.718  1.00  0.00     0.074 A 
ATOM     47  C   UNL     1      -6.446   1.427  11.452  1.00  0.00     0.031 C 
ATOM     48  C   UNL     1      -2.191   4.864  15.664  1.00  0.00     0.029 A 
ATOM     49  C   UNL     1      -3.520   4.585  16.195  1.00  0.00     0.049 A 
ATOM     50  H   UNL     1      -5.019   3.436  15.311  1.00  0.00     0.167 HD
ATOM     51  C   UNL     1      -8.301   1.539  13.091  1.00  0.00     0.034 A 
ATOM     52  C   UNL     1      -3.993   5.029  17.376  1.00  0.00     0.034 A 
ATOM     53  C   UNL     1      -8.850   1.857  14.381  1.00  0.00     0.049 A 
ATOM     54  C   UNL     1      -5.400   4.679  17.776  1.00  0.00     0.074 A 
ATOM     55  C   UNL     1     -10.106   1.560  14.878  1.00  0.00     0.029 A 
ATOM     56  N   UNL     1      -8.173   2.535  15.383  1.00  0.00    -0.354 N 
ATOM     57  N   UNL     1      -6.290   3.970  17.126  1.00  0.00    -0.248 NA
ATOM     58  C   UNL     1      -5.863   5.174  19.081  1.00  0.00     0.031 C 
ATOM     59  C   UNL     1     -10.192   2.064  16.180  1.00  0.00     0.029 A 
ATOM     60  C   UNL     1      -8.985   2.668  16.496  1.00  0.00     0.049 A 
ATOM     61  H   UNL     1      -7.250   2.872  15.313  1.00  0.00     0.167 HD
ATOM     62  C   UNL     1      -7.408   3.913  17.948  1.00  0.00     0.074 A 
ATOM     63  C   UNL     1      -7.074   4.637  19.158  1.00  0.00     0.031 C 
ATOM     64  C   UNL     1      -8.613   3.337  17.715  1.00  0.00     0.034 A 
BRANCH  51  65
ATOM     65  C   UNL     1      -9.187   0.828  12.104  1.00  0.00     0.023 A 
ATOM     66  C   UNL     1      -9.030  -0.557  11.898  1.00  0.00     0.012 A 
ATOM     67  C   UNL     1     -10.223   1.515  11.441  1.00  0.00     0.148 A 
ATOM     68  C   UNL     1      -9.879  -1.244  11.031  1.00  0.00     0.002 A 
ATOM     69  C   UNL     1     -11.088   0.817  10.607  1.00  0.00     0.091 A 
ATOM     70  F   UNL     1     -10.338   2.837  11.634  1.00  0.00    -0.205 F 
ATOM     71  C   UNL     1     -10.914  -0.561  10.396  1.00  0.00     0.022 A 
BRANCH  69  72
ATOM     72  S   UNL     1     -12.492   1.595   9.800  1.00  0.00     0.127 S 
ATOM     73  O   UNL     1     -12.046   1.638   8.408  1.00  0.00    -0.237 OA
ATOM     74  O   UNL     1     -13.569   0.641  10.065  1.00  0.00    -0.237 OA
ATOM     75  O   UNL     1     -12.658   2.890  10.444  1.00  0.00    -0.744 OA
ENDBRANCH  69  72
ENDBRANCH  51  65
BRANCH  52  76
ATOM     76  C   UNL     1      -3.116   5.835  18.270  1.00  0.00     0.023 A 
ATOM     77  C   UNL     1      -2.651   5.272  19.474  1.00  0.00     0.012 A 
ATOM     78  C   UNL     1      -2.706   7.137  17.918  1.00  0.00     0.148 A 
ATOM     79  C   UNL     1      -1.813   5.999  20.321  1.00  0.00     0.002 A 
ATOM     80  C   UNL     1      -1.825   7.832  18.739  1.00  0.00     0.091 A 
ATOM     81  F   UNL     1      -3.178   7.670  16.782  1.00  0.00    -0.205 F 
ATOM     82  C   UNL     1      -1.389   7.272  19.948  1.00  0.00     0.022 A 
BRANCH  80  83
ATOM     83  S   UNL     1      -1.129   9.415  18.249  1.00  0.00     0.127 S 
ATOM     84  O   UNL     1      -1.981  10.355  18.971  1.00  0.00    -0.237 OA
ATOM     85  O   UNL     1       0.244   9.320  18.749  1.00  0.00    -0.237 OA
ATOM     86  O   UNL     1      -1.230   9.441  16.796  1.00  0.00    -0.744 OA
ENDBRANCH  80  83
ENDBRANCH  52  76
BRANCH  64  87
ATOM     87  C   UNL     1      -9.655   3.443  18.794  1.00  0.00     0.023 A 
ATOM     88  C   UNL     1     -10.333   4.663  18.984  1.00  0.00     0.012 A 
ATOM     89  C   UNL     1     -10.017   2.321  19.563  1.00  0.00     0.148 A 
ATOM     90  C   UNL     1     -11.341   4.771  19.941  1.00  0.00     0.002 A 
ATOM     91  C   UNL     1     -11.051   2.425  20.487  1.00  0.00     0.091 A 
ATOM     92  F   UNL     1      -9.344   1.175  19.383  1.00  0.00    -0.205 F 
ATOM     93  C   UNL     1     -11.707   3.650  20.683  1.00  0.00     0.022 A 
BRANCH  91  94
ATOM     94  S   UNL     1     -11.642   1.007  21.419  1.00  0.00     0.127 S 
ATOM     95  O   UNL     1     -11.009   1.219  22.720  1.00  0.00    -0.237 OA
ATOM     96  O   UNL     1     -13.092   1.203  21.407  1.00  0.00    -0.237 OA
ATOM     97  O   UNL     1     -11.191  -0.166  20.682  1.00  0.00    -0.744 OA
ENDBRANCH  91  94
ENDBRANCH  64  87
ENDBRANCH  38  39
ENDBRANCH  31  33
ENDBRANCH  30  31
ENDBRANCH  29  30
ENDBRANCH  28  29
ENDBRANCH   1  28
TORSDOF 20
