REMARK SMILES CN1C(=O)C[C@H](C(=O)Nc2ccc(C(=O)OCCOC(=O)c3ccc(-c4c5nc(c(-c6cccc(S(=O)(=O)[O-])c6F)c6ccc([nH]6)c(-c6cccc(S(=O)(=O)[O-])c6F)c6nc(c(-c7cccc(S(=O)(=O)[O-])c7F)c7ccc4[nH]7)C=C6)C=C5)cc3)cc2)S/C1=[NH+]\c1cccc(C(F)(F)F)c1
REMARK SMILES IDX 17 1 16 2 14 3 15 4 13 5 10 6 11 7 86 8 12 9 85 10 9 11 7 12
REMARK SMILES IDX 8 13 6 15 1 16 2 17 3 18 88 19 4 20 5 21 87 22 89 23 90 25
REMARK SMILES IDX 91 26 99 27 92 28 94 29 93 30 95 31 96 32 97 33 98 34 18 35
REMARK SMILES IDX 19 36 20 37 21 38 22 39 23 40 84 41 24 42 83 43 25 44 26 45
REMARK SMILES IDX 27 46 77 47 28 48 82 49 76 50 78 51 29 52 81 53 75 54 74 55
REMARK SMILES IDX 30 57 62 58 42 59 61 60 43 61 46 62 60 63 79 64 44 65 45 66
REMARK SMILES IDX 59 68 80 69 47 70 31 71 32 72 40 73 33 74 35 75 41 76 34 77
REMARK SMILES IDX 36 78 37 79 38 80 39 81 63 82 64 83 72 84 65 85 67 86 73 87
REMARK SMILES IDX 66 88 68 89 69 90 70 91 71 92 48 93 49 94 57 95 50 96 52 97
REMARK SMILES IDX 58 98 51 99 53 100 54 101 55 102 56 103
REMARK H PARENT 9 14 89 24 78 56 46 67
REMARK Flexibility Score: inf
ROOT
ATOM      1  C   UNL     1       3.895   1.792  -2.318  1.00  0.00     0.275 C 
ENDROOT
BRANCH   1   2
ATOM      2  O   UNL     1       3.574   1.954  -0.923  1.00  0.00    -0.458 OA
BRANCH   2   3
ATOM      3  C   UNL     1       3.171   0.813  -0.314  1.00  0.00     0.338 C 
ATOM      4  O   UNL     1       3.010  -0.266  -0.857  1.00  0.00    -0.246 OA
BRANCH   3   5
ATOM      5  C   UNL     1       2.892   1.000   1.131  1.00  0.00     0.060 A 
ATOM      6  C   UNL     1       1.684   1.052   3.630  1.00  0.00     0.041 A 
ATOM      7  C   UNL     1       2.357  -0.094   3.234  1.00  0.00     0.027 A 
ATOM      8  C   UNL     1       1.807   2.230   2.892  1.00  0.00     0.027 A 
ATOM      9  C   UNL     1       2.912  -0.133   1.961  1.00  0.00     0.018 A 
ATOM     10  C   UNL     1       2.414   2.209   1.633  1.00  0.00     0.018 A 
BRANCH   6  11
ATOM     11  N   UNL     1       0.885   0.970   4.761  1.00  0.00    -0.325 N 
ATOM     12  C   UNL     1      -0.442   1.226   4.925  1.00  0.00     0.238 C 
ATOM     13  O   UNL     1      -0.855   1.192   6.095  1.00  0.00    -0.273 OA
ATOM     14  H   UNL     1       1.353   0.680   5.577  1.00  0.00     0.169 HD
BRANCH  12  15
ATOM     15  C   UNL     1      -1.476   1.355   3.788  1.00  0.00     0.160 C 
ATOM     16  C   UNL     1      -0.015  -0.418   0.030  1.00  0.00     0.301 C 
ATOM     17  N   UNL     1      -0.578   0.148   1.255  1.00  0.00    -0.194 N 
ATOM     18  C   UNL     1      -0.818   1.517   1.273  1.00  0.00     0.311 C 
ATOM     19  C   UNL     1      -0.929  -0.776   2.236  1.00  0.00     0.319 C 
ATOM     20  O   UNL     1      -0.658   2.235   0.278  1.00  0.00    -0.247 OA
ATOM     21  C   UNL     1      -1.299   2.185   2.547  1.00  0.00     0.153 C 
ATOM     22  S   UNL     1      -2.155  -0.253   3.362  1.00  0.00    -0.024 SA
ATOM     23  N   UNL     1      -0.416  -1.967   2.207  1.00  0.00    -0.235 N 
ATOM     24  H   UNL     1       0.313  -2.171   1.578  1.00  0.00     0.313 HD
BRANCH  23  25
ATOM     25  C   UNL     1      -0.894  -2.959   3.066  1.00  0.00     0.126 A 
ATOM     26  C   UNL     1      -0.216  -3.314   4.231  1.00  0.00     0.052 A 
ATOM     27  C   UNL     1      -2.094  -3.595   2.742  1.00  0.00     0.064 A 
ATOM     28  C   UNL     1      -0.774  -4.252   5.101  1.00  0.00     0.005 A 
ATOM     29  C   UNL     1      -2.686  -4.505   3.621  1.00  0.00     0.060 A 
ATOM     30  C   UNL     1      -2.011  -4.832   4.806  1.00  0.00     0.013 A 
BRANCH  29  31
ATOM     31  C   UNL     1      -4.041  -5.077   3.307  1.00  0.00     0.416 C 
ATOM     32  F   UNL     1      -4.029  -6.429   3.166  1.00  0.00    -0.166 F 
ATOM     33  F   UNL     1      -4.955  -4.809   4.282  1.00  0.00    -0.166 F 
ATOM     34  F   UNL     1      -4.587  -4.586   2.156  1.00  0.00    -0.166 F 
ENDBRANCH  29  31
ENDBRANCH  23  25
ENDBRANCH  12  15
ENDBRANCH   6  11
ENDBRANCH   3   5
ENDBRANCH   2   3
ENDBRANCH   1   2
BRANCH   1  35
ATOM     35  C   UNL     1       5.402   1.642  -2.520  1.00  0.00     0.275 C 
BRANCH  35  36
ATOM     36  O   UNL     1       5.893   0.444  -1.887  1.00  0.00    -0.458 OA
BRANCH  36  37
ATOM     37  C   UNL     1       6.499   0.635  -0.694  1.00  0.00     0.338 C 
ATOM     38  O   UNL     1       6.702   1.703  -0.133  1.00  0.00    -0.246 OA
BRANCH  37  39
ATOM     39  C   UNL     1       6.837  -0.649  -0.064  1.00  0.00     0.060 A 
ATOM     40  C   UNL     1       5.808  -1.433   0.443  1.00  0.00     0.016 A 
ATOM     41  C   UNL     1       8.158  -0.976   0.221  1.00  0.00     0.016 A 
ATOM     42  C   UNL     1       6.074  -2.440   1.362  1.00  0.00     0.010 A 
ATOM     43  C   UNL     1       8.432  -2.091   1.024  1.00  0.00     0.010 A 
ATOM     44  C   UNL     1       7.393  -2.806   1.650  1.00  0.00    -0.014 A 
BRANCH  44  45
ATOM     45  C   UNL     1       7.678  -3.913   2.610  1.00  0.00     0.031 A 
ATOM     46  C   UNL     1       8.616  -3.688   3.770  1.00  0.00     0.074 A 
ATOM     47  C   UNL     1       7.112  -5.127   2.441  1.00  0.00     0.049 A 
ATOM     48  N   UNL     1       9.158  -4.563   4.578  1.00  0.00    -0.248 NA
ATOM     49  C   UNL     1       9.015  -2.297   4.048  1.00  0.00     0.031 C 
ATOM     50  C   UNL     1       6.161  -5.483   1.383  1.00  0.00     0.029 A 
ATOM     51  N   UNL     1       7.265  -6.297   3.146  1.00  0.00    -0.354 N 
ATOM     52  C   UNL     1      10.027  -3.846   5.393  1.00  0.00     0.074 A 
ATOM     53  C   UNL     1       9.930  -2.459   4.994  1.00  0.00     0.031 C 
ATOM     54  C   UNL     1       5.802  -6.766   1.520  1.00  0.00     0.029 A 
ATOM     55  C   UNL     1       6.578  -7.358   2.599  1.00  0.00     0.049 A 
ATOM     56  H   UNL     1       7.813  -6.369   3.961  1.00  0.00     0.167 HD
ATOM     57  C   UNL     1      10.832  -4.302   6.383  1.00  0.00     0.034 A 
ATOM     58  C   UNL     1       6.614  -8.674   2.881  1.00  0.00     0.034 A 
ATOM     59  C   UNL     1      10.871  -5.674   6.818  1.00  0.00     0.049 A 
ATOM     60  C   UNL     1       7.523  -9.156   3.973  1.00  0.00     0.074 A 
ATOM     61  C   UNL     1      11.615  -6.231   7.843  1.00  0.00     0.029 A 
ATOM     62  N   UNL     1      10.132  -6.704   6.257  1.00  0.00    -0.354 N 
ATOM     63  N   UNL     1       8.315  -8.461   4.753  1.00  0.00    -0.248 NA
ATOM     64  C   UNL     1       7.537 -10.602   4.234  1.00  0.00     0.031 C 
ATOM     65  C   UNL     1      11.350  -7.603   7.881  1.00  0.00     0.029 A 
ATOM     66  C   UNL     1      10.408  -7.895   6.907  1.00  0.00     0.049 A 
ATOM     67  H   UNL     1       9.503  -6.604   5.506  1.00  0.00     0.167 HD
ATOM     68  C   UNL     1       8.898  -9.379   5.616  1.00  0.00     0.074 A 
ATOM     69  C   UNL     1       8.350 -10.677   5.278  1.00  0.00     0.031 C 
ATOM     70  C   UNL     1       9.816  -9.169   6.591  1.00  0.00     0.034 A 
BRANCH  57  71
ATOM     71  C   UNL     1      11.743  -3.313   7.069  1.00  0.00     0.023 A 
ATOM     72  C   UNL     1      11.211  -2.343   7.941  1.00  0.00     0.012 A 
ATOM     73  C   UNL     1      13.140  -3.387   6.891  1.00  0.00     0.148 A 
ATOM     74  C   UNL     1      12.049  -1.438   8.593  1.00  0.00     0.002 A 
ATOM     75  C   UNL     1      13.972  -2.514   7.582  1.00  0.00     0.091 A 
ATOM     76  F   UNL     1      13.629  -4.305   6.045  1.00  0.00    -0.205 F 
ATOM     77  C   UNL     1      13.428  -1.530   8.422  1.00  0.00     0.022 A 
BRANCH  75  78
ATOM     78  S   UNL     1      15.764  -2.607   7.494  1.00  0.00     0.127 S 
ATOM     79  O   UNL     1      16.088  -1.383   6.762  1.00  0.00    -0.237 OA
ATOM     80  O   UNL     1      16.142  -2.589   8.908  1.00  0.00    -0.237 OA
ATOM     81  O   UNL     1      16.070  -3.849   6.799  1.00  0.00    -0.744 OA
ENDBRANCH  75  78
ENDBRANCH  57  71
BRANCH  58  82
ATOM     82  C   UNL     1       5.774  -9.627   2.099  1.00  0.00     0.023 A 
ATOM     83  C   UNL     1       4.706 -10.292   2.731  1.00  0.00     0.012 A 
ATOM     84  C   UNL     1       6.004  -9.849   0.726  1.00  0.00     0.148 A 
ATOM     85  C   UNL     1       3.898 -11.178   2.017  1.00  0.00     0.002 A 
ATOM     86  C   UNL     1       5.156 -10.682   0.006  1.00  0.00     0.091 A 
ATOM     87  F   UNL     1       7.036  -9.220   0.145  1.00  0.00    -0.205 F 
ATOM     88  C   UNL     1       4.115 -11.363   0.653  1.00  0.00     0.022 A 
BRANCH  86  89
ATOM     89  S   UNL     1       5.273 -10.863  -1.777  1.00  0.00     0.127 S 
ATOM     90  O   UNL     1       5.758 -12.235  -1.907  1.00  0.00    -0.237 OA
ATOM     91  O   UNL     1       3.884 -10.659  -2.192  1.00  0.00    -0.237 OA
ATOM     92  O   UNL     1       6.190  -9.823  -2.220  1.00  0.00    -0.744 OA
ENDBRANCH  86  89
ENDBRANCH  58  82
BRANCH  70  93
ATOM     93  C   UNL     1      10.246 -10.361   7.404  1.00  0.00     0.023 A 
ATOM     94  C   UNL     1      11.076 -11.346   6.832  1.00  0.00     0.012 A 
ATOM     95  C   UNL     1       9.873 -10.470   8.757  1.00  0.00     0.148 A 
ATOM     96  C   UNL     1      11.497 -12.440   7.586  1.00  0.00     0.002 A 
ATOM     97  C   UNL     1      10.341 -11.534   9.517  1.00  0.00     0.091 A 
ATOM     98  F   UNL     1       9.067  -9.531   9.275  1.00  0.00    -0.205 F 
ATOM     99  C   UNL     1      11.140 -12.528   8.930  1.00  0.00     0.022 A 
BRANCH  97 100
ATOM    100  S   UNL     1      10.015 -11.675  11.277  1.00  0.00     0.127 S 
ATOM    101  O   UNL     1       9.091 -12.807  11.319  1.00  0.00    -0.237 OA
ATOM    102  O   UNL     1      11.347 -11.954  11.816  1.00  0.00    -0.237 OA
ATOM    103  O   UNL     1       9.453 -10.396  11.687  1.00  0.00    -0.744 OA
ENDBRANCH  97 100
ENDBRANCH  70  93
ENDBRANCH  44  45
ENDBRANCH  37  39
ENDBRANCH  36  37
ENDBRANCH  35  36
ENDBRANCH   1  35
TORSDOF 18
