REMARK SMILES O=C(OCCOC(=O)c1ccc2nc(-c3c[nH]nc3-c3ccc(F)cc3F)[nH]c2c1)c1ccc(-c2c3nc(c(-c4cccc(S(=O)(=O)[O-])c4F)c4ccc([nH]4)c(-c4cccc(S(=O)(=O)[O-])c4F)c4nc(c(-c5cccc(S(=O)(=O)[O-])c5F)c5ccc2[nH]5)C=C4)C=C3)cc1
REMARK SMILES IDX 4 1 3 2 2 3 1 4 31 5 32 6 93 7 33 8 92 9 34 10 35 11 36 12
REMARK SMILES IDX 86 13 37 14 91 15 85 16 87 17 38 18 90 19 84 20 83 21 39 23
REMARK SMILES IDX 71 24 51 25 70 26 52 27 55 28 69 29 88 30 53 31 54 32 68 34
REMARK SMILES IDX 89 35 56 36 40 37 41 38 49 39 42 40 44 41 50 42 43 43 45 44
REMARK SMILES IDX 46 45 47 46 48 47 72 48 73 49 81 50 74 51 76 52 82 53 75 54
REMARK SMILES IDX 77 55 78 56 79 57 80 58 57 59 58 60 66 61 59 62 61 63 67 64
REMARK SMILES IDX 60 65 62 66 63 67 64 68 65 69 5 70 6 71 7 72 8 73 9 74 10 75
REMARK SMILES IDX 30 76 11 77 29 78 12 79 28 80 13 81 14 82 15 84 16 85 19 86
REMARK SMILES IDX 17 87 18 88 20 90 21 91 26 92 22 93 25 94 27 95 23 96 24 97
REMARK H PARENT 87 22 55 33 28 83 17 89
REMARK Flexibility Score: inf
ROOT
ATOM      1  C   UNL     1       3.981   0.679  -1.400  1.00  0.00     0.275 C 
ENDROOT
BRANCH   1   2
ATOM      2  O   UNL     1       2.966  -0.307  -1.144  1.00  0.00    -0.458 OA
BRANCH   2   3
ATOM      3  C   UNL     1       2.857  -1.206  -0.138  1.00  0.00     0.338 C 
ATOM      4  O   UNL     1       2.015  -2.099  -0.234  1.00  0.00    -0.246 OA
BRANCH   3   5
ATOM      5  C   UNL     1       3.601  -1.098   1.156  1.00  0.00     0.060 A 
ATOM      6  C   UNL     1       4.885  -0.578   1.327  1.00  0.00     0.016 A 
ATOM      7  C   UNL     1       2.934  -1.588   2.294  1.00  0.00     0.016 A 
ATOM      8  C   UNL     1       5.453  -0.468   2.600  1.00  0.00     0.010 A 
ATOM      9  C   UNL     1       3.486  -1.463   3.571  1.00  0.00     0.010 A 
ATOM     10  C   UNL     1       4.756  -0.904   3.728  1.00  0.00    -0.014 A 
BRANCH  10  11
ATOM     11  C   UNL     1       5.423  -0.915   5.046  1.00  0.00     0.031 A 
ATOM     12  C   UNL     1       5.956  -2.218   5.564  1.00  0.00     0.074 A 
ATOM     13  C   UNL     1       5.566   0.221   5.753  1.00  0.00     0.049 A 
ATOM     14  N   UNL     1       6.632  -2.456   6.654  1.00  0.00    -0.248 NA
ATOM     15  C   UNL     1       5.715  -3.409   4.730  1.00  0.00     0.031 C 
ATOM     16  C   UNL     1       5.106   1.542   5.329  1.00  0.00     0.029 A 
ATOM     17  N   UNL     1       6.116   0.443   6.989  1.00  0.00    -0.354 N 
ATOM     18  C   UNL     1       6.917  -3.813   6.627  1.00  0.00     0.074 A 
ATOM     19  C   UNL     1       6.293  -4.362   5.444  1.00  0.00     0.031 C 
ATOM     20  C   UNL     1       5.329   2.426   6.317  1.00  0.00     0.029 A 
ATOM     21  C   UNL     1       5.961   1.735   7.436  1.00  0.00     0.049 A 
ATOM     22  H   UNL     1       6.577  -0.256   7.507  1.00  0.00     0.167 HD
ATOM     23  C   UNL     1       7.675  -4.530   7.488  1.00  0.00     0.034 A 
ATOM     24  C   UNL     1       6.293   2.288   8.618  1.00  0.00     0.034 A 
ATOM     25  C   UNL     1       8.275  -3.976   8.666  1.00  0.00     0.049 A 
ATOM     26  C   UNL     1       7.050   1.444   9.611  1.00  0.00     0.074 A 
ATOM     27  C   UNL     1       9.077  -4.600   9.603  1.00  0.00     0.029 A 
ATOM     28  N   UNL     1       8.118  -2.661   9.081  1.00  0.00    -0.354 N 
ATOM     29  N   UNL     1       7.447   0.198   9.499  1.00  0.00    -0.248 NA
ATOM     30  C   UNL     1       7.463   2.095  10.862  1.00  0.00     0.031 C 
ATOM     31  C   UNL     1       9.386  -3.666  10.598  1.00  0.00     0.029 A 
ATOM     32  C   UNL     1       8.797  -2.454  10.267  1.00  0.00     0.049 A 
ATOM     33  H   UNL     1       7.599  -1.976   8.601  1.00  0.00     0.167 HD
ATOM     34  C   UNL     1       8.206  -0.066  10.633  1.00  0.00     0.074 A 
ATOM     35  C   UNL     1       8.213   1.153  11.418  1.00  0.00     0.031 C 
ATOM     36  C   UNL     1       8.839  -1.210  10.994  1.00  0.00     0.034 A 
BRANCH  23  37
ATOM     37  C   UNL     1       7.915  -5.972   7.140  1.00  0.00     0.023 A 
ATOM     38  C   UNL     1       8.785  -6.287   6.074  1.00  0.00     0.012 A 
ATOM     39  C   UNL     1       7.277  -7.010   7.843  1.00  0.00     0.148 A 
ATOM     40  C   UNL     1       8.986  -7.611   5.688  1.00  0.00     0.002 A 
ATOM     41  C   UNL     1       7.509  -8.330   7.474  1.00  0.00     0.091 A 
ATOM     42  F   UNL     1       6.432  -6.687   8.832  1.00  0.00    -0.205 F 
ATOM     43  C   UNL     1       8.353  -8.632   6.391  1.00  0.00     0.022 A 
BRANCH  41  44
ATOM     44  S   UNL     1       6.775  -9.721   8.340  1.00  0.00     0.127 S 
ATOM     45  O   UNL     1       5.829 -10.221   7.344  1.00  0.00    -0.237 OA
ATOM     46  O   UNL     1       7.934 -10.585   8.569  1.00  0.00    -0.237 OA
ATOM     47  O   UNL     1       6.176  -9.172   9.548  1.00  0.00    -0.744 OA
ENDBRANCH  41  44
ENDBRANCH  23  37
BRANCH  24  48
ATOM     48  C   UNL     1       5.985   3.721   8.898  1.00  0.00     0.023 A 
ATOM     49  C   UNL     1       7.035   4.657   8.968  1.00  0.00     0.012 A 
ATOM     50  C   UNL     1       4.660   4.162   9.094  1.00  0.00     0.148 A 
ATOM     51  C   UNL     1       6.777   5.997   9.265  1.00  0.00     0.002 A 
ATOM     52  C   UNL     1       4.406   5.506   9.349  1.00  0.00     0.091 A 
ATOM     53  F   UNL     1       3.674   3.257   9.030  1.00  0.00    -0.205 F 
ATOM     54  C   UNL     1       5.465   6.421   9.450  1.00  0.00     0.022 A 
BRANCH  52  55
ATOM     55  S   UNL     1       2.743   6.170   9.506  1.00  0.00     0.127 S 
ATOM     56  O   UNL     1       2.682   6.488  10.930  1.00  0.00    -0.237 OA
ATOM     57  O   UNL     1       2.801   7.332   8.617  1.00  0.00    -0.237 OA
ATOM     58  O   UNL     1       1.853   5.112   9.053  1.00  0.00    -0.744 OA
ENDBRANCH  52  55
ENDBRANCH  24  48
BRANCH  36  59
ATOM     59  C   UNL     1       9.642  -1.188  12.265  1.00  0.00     0.023 A 
ATOM     60  C   UNL     1       8.986  -1.194  13.511  1.00  0.00     0.012 A 
ATOM     61  C   UNL     1      11.049  -1.257  12.219  1.00  0.00     0.148 A 
ATOM     62  C   UNL     1       9.721  -1.243  14.694  1.00  0.00     0.002 A 
ATOM     63  C   UNL     1      11.771  -1.359  13.401  1.00  0.00     0.091 A 
ATOM     64  F   UNL     1      11.653  -1.228  11.022  1.00  0.00    -0.205 F 
ATOM     65  C   UNL     1      11.110  -1.340  14.639  1.00  0.00     0.022 A 
BRANCH  63  66
ATOM     66  S   UNL     1      13.551  -1.597  13.417  1.00  0.00     0.127 S 
ATOM     67  O   UNL     1      14.025  -0.278  13.832  1.00  0.00    -0.237 OA
ATOM     68  O   UNL     1      13.716  -2.648  14.421  1.00  0.00    -0.237 OA
ATOM     69  O   UNL     1      13.913  -1.996  12.063  1.00  0.00    -0.744 OA
ENDBRANCH  63  66
ENDBRANCH  36  59
ENDBRANCH  10  11
ENDBRANCH   3   5
ENDBRANCH   2   3
ENDBRANCH   1   2
BRANCH   1  70
ATOM     70  C   UNL     1       3.740   2.048  -0.758  1.00  0.00     0.275 C 
BRANCH  70  71
ATOM     71  O   UNL     1       3.290   1.981   0.600  1.00  0.00    -0.458 OA
BRANCH  71  72
ATOM     72  C   UNL     1       1.941   2.021   0.753  1.00  0.00     0.338 C 
ATOM     73  O   UNL     1       1.105   2.102  -0.132  1.00  0.00    -0.246 OA
BRANCH  72  74
ATOM     74  C   UNL     1       1.604   1.807   2.172  1.00  0.00     0.062 A 
ATOM     75  C   UNL     1       2.124   2.644   3.166  1.00  0.00     0.018 A 
ATOM     76  C   UNL     1       0.758   0.726   2.476  1.00  0.00     0.044 A 
ATOM     77  C   UNL     1       1.785   2.433   4.509  1.00  0.00     0.031 A 
ATOM     78  C   UNL     1       0.529   0.484   3.831  1.00  0.00     0.067 A 
ATOM     79  C   UNL     1       0.978   1.334   4.835  1.00  0.00     0.089 A 
ATOM     80  N   UNL     1      -0.091  -0.538   4.508  1.00  0.00    -0.338 N 
ATOM     81  N   UNL     1       0.501   0.931   6.047  1.00  0.00    -0.228 NA
ATOM     82  C   UNL     1      -0.129  -0.202   5.835  1.00  0.00     0.142 A 
ATOM     83  H   UNL     1      -0.445  -1.367   4.110  1.00  0.00     0.168 HD
BRANCH  82  84
ATOM     84  C   UNL     1      -0.853  -0.941   6.891  1.00  0.00     0.063 A 
ATOM     85  C   UNL     1      -0.992  -2.301   7.011  1.00  0.00     0.117 A 
ATOM     86  C   UNL     1      -1.569  -0.374   7.985  1.00  0.00     0.106 A 
ATOM     87  N   UNL     1      -1.662  -2.483   8.187  1.00  0.00    -0.284 N 
ATOM     88  N   UNL     1      -2.119  -1.345   8.735  1.00  0.00    -0.175 NA
ATOM     89  H   UNL     1      -1.798  -3.368   8.596  1.00  0.00     0.189 HD
BRANCH  86  90
ATOM     90  C   UNL     1      -1.862   1.038   8.199  1.00  0.00     0.039 A 
ATOM     91  C   UNL     1      -2.470   1.775   7.165  1.00  0.00     0.016 A 
ATOM     92  C   UNL     1      -1.521   1.692   9.385  1.00  0.00     0.135 A 
ATOM     93  C   UNL     1      -2.715   3.138   7.318  1.00  0.00     0.040 A 
ATOM     94  C   UNL     1      -1.763   3.056   9.541  1.00  0.00     0.079 A 
ATOM     95  F   UNL     1      -0.952   1.023  10.399  1.00  0.00    -0.206 F 
ATOM     96  C   UNL     1      -2.360   3.765   8.506  1.00  0.00     0.126 A 
ATOM     97  F   UNL     1      -2.627   5.069   8.656  1.00  0.00    -0.207 F 
ENDBRANCH  86  90
ENDBRANCH  82  84
ENDBRANCH  72  74
ENDBRANCH  71  72
ENDBRANCH  70  71
ENDBRANCH   1  70
TORSDOF 16
