REMARK SMILES Cc1cccc(CNC(=O)N[C@@H](CC2=c3ccccc3=NC2)C(=O)OCCOC(=O)c2ccc(-c3c4nc(c(-c5cccc(S(=O)(=O)[O-])c5F)c5ccc([nH]5)c(-c5cccc(S(=O)(=O)[O-])c5F)c5nc(c(-c6cccc(S(=O)(=O)[O-])c6F)c6ccc3[nH]6)C=C5)C=C4)cc2)c1
REMARK SMILES IDX 26 1 25 2 23 3 24 4 12 5 11 6 8 7 9 8 10 10 7 12 6 13 1 14
REMARK SMILES IDX 2 15 3 16 94 17 4 18 5 19 13 20 14 21 15 22 22 23 16 24
REMARK SMILES IDX 20 25 21 26 17 27 19 28 18 29 27 30 28 31 29 32 30 33 31 34
REMARK SMILES IDX 32 35 93 36 33 37 92 38 34 39 35 40 36 41 86 42 37 43 91 44
REMARK SMILES IDX 85 45 87 46 38 47 90 48 84 49 83 50 39 52 71 53 51 54 70 55
REMARK SMILES IDX 52 56 55 57 69 58 88 59 53 60 54 61 68 63 89 64 56 65 40 66
REMARK SMILES IDX 41 67 49 68 42 69 44 70 50 71 43 72 45 73 46 74 47 75 48 76
REMARK SMILES IDX 72 77 73 78 81 79 74 80 76 81 82 82 75 83 77 84 78 85 79 86
REMARK SMILES IDX 80 87 57 88 58 89 66 90 59 91 61 92 67 93 60 94 62 95 63 96
REMARK SMILES IDX 64 97 65 98
REMARK H PARENT 8 9 11 11 87 51 55 62
REMARK Flexibility Score: inf
ROOT
ATOM      1  C   UNL     1      -5.476  -1.341   4.018  1.00  0.00     0.274 C 
ENDROOT
BRANCH   1   2
ATOM      2  O   UNL     1      -5.513   0.078   3.784  1.00  0.00    -0.461 OA
BRANCH   2   3
ATOM      3  C   UNL     1      -4.408   0.651   3.014  1.00  0.00     0.329 C 
ATOM      4  O   UNL     1      -3.438  -0.125   3.265  1.00  0.00    -0.250 OA
BRANCH   3   5
ATOM      5  C   UNL     1      -4.644   2.280   1.554  1.00  0.00     0.198 C 
BRANCH   5   6
ATOM      6  N   UNL     1      -4.870   2.198  -0.116  1.00  0.00    -0.324 N 
ATOM      7  N   UNL     1      -2.950   2.598  -1.496  1.00  0.00    -0.334 N 
ATOM      8  C   UNL     1      -4.247   2.433  -1.269  1.00  0.00     0.315 C 
ATOM      9  H   UNL     1      -2.794   2.832  -2.439  1.00  0.00     0.165 HD
ATOM     10  O   UNL     1      -4.980   2.490  -2.266  1.00  0.00    -0.249 OA
ATOM     11  H   UNL     1      -5.775   1.860  -0.303  1.00  0.00     0.166 HD
BRANCH   7  12
ATOM     12  C   UNL     1      -1.689   2.537  -0.773  1.00  0.00     0.153 C 
BRANCH  12  13
ATOM     13  C   UNL     1      -0.910   1.246  -0.999  1.00  0.00    -0.028 A 
ATOM     14  C   UNL     1       2.595   0.017  -0.081  1.00  0.00     0.044 C 
ATOM     15  C   UNL     1       1.176   0.019  -0.575  1.00  0.00    -0.051 A 
ATOM     16  C   UNL     1       0.515  -1.185  -0.825  1.00  0.00     0.003 A 
ATOM     17  C   UNL     1       0.461   1.222  -0.684  1.00  0.00     0.009 A 
ATOM     18  C   UNL     1      -0.822  -1.178  -1.219  1.00  0.00     0.001 A 
ATOM     19  C   UNL     1      -1.523   0.028  -1.327  1.00  0.00     0.005 A 
ENDBRANCH  12  13
ENDBRANCH   7  12
ENDBRANCH   5   6
BRANCH   5  20
ATOM     20  C   UNL     1      -5.533   3.875   1.607  1.00  0.00     0.070 C 
BRANCH  20  21
ATOM     21  C   UNL     1      -7.027   4.167   1.825  1.00  0.00    -0.037 C 
ATOM     22  C   UNL     1      -8.158   3.469   1.679  1.00  0.00     0.001 A 
ATOM     23  C   UNL     1      -7.367   5.463   2.544  1.00  0.00     0.174 C 
ATOM     24  C   UNL     1      -8.597   2.279   1.025  1.00  0.00     0.010 A 
ATOM     25  C   UNL     1      -8.990   4.056   2.755  1.00  0.00     0.065 A 
ATOM     26  N   UNL     1      -8.643   5.205   3.227  1.00  0.00    -0.280 NA
ATOM     27  C   UNL     1      -9.612   1.570   1.551  1.00  0.00     0.001 A 
ATOM     28  C   UNL     1     -10.054   3.197   3.323  1.00  0.00     0.028 A 
ATOM     29  C   UNL     1     -10.273   1.992   2.773  1.00  0.00     0.002 A 
ENDBRANCH  20  21
ENDBRANCH   5  20
ENDBRANCH   3   5
ENDBRANCH   2   3
ENDBRANCH   1   2
BRANCH   1  30
ATOM     30  C   UNL     1      -5.943  -2.066   2.749  1.00  0.00     0.275 C 
BRANCH  30  31
ATOM     31  O   UNL     1      -4.972  -2.106   1.663  1.00  0.00    -0.458 OA
BRANCH  31  32
ATOM     32  C   UNL     1      -4.987  -1.217   0.629  1.00  0.00     0.338 C 
ATOM     33  O   UNL     1      -4.966  -1.539  -0.547  1.00  0.00    -0.246 OA
BRANCH  32  34
ATOM     34  C   UNL     1      -4.804   0.182   1.054  1.00  0.00     0.060 A 
ATOM     35  C   UNL     1      -3.134   0.787   1.368  1.00  0.00     0.016 A 
ATOM     36  C   UNL     1      -6.179   0.937   1.907  1.00  0.00     0.016 A 
ATOM     37  C   UNL     1      -2.817   1.979   2.705  1.00  0.00     0.010 A 
ATOM     38  C   UNL     1      -5.865   2.128   3.238  1.00  0.00     0.010 A 
ATOM     39  C   UNL     1      -4.184   2.606   3.659  1.00  0.00    -0.014 A 
BRANCH  39  40
ATOM     40  C   UNL     1      -4.129   2.909   5.100  1.00  0.00     0.031 A 
ATOM     41  C   UNL     1      -4.865   4.087   5.589  1.00  0.00     0.074 A 
ATOM     42  C   UNL     1      -3.888   1.870   5.931  1.00  0.00     0.049 A 
ATOM     43  N   UNL     1      -5.838   4.053   6.439  1.00  0.00    -0.248 NA
ATOM     44  C   UNL     1      -4.530   5.419   5.085  1.00  0.00     0.031 C 
ATOM     45  C   UNL     1      -4.396   1.657   7.280  1.00  0.00     0.029 A 
ATOM     46  N   UNL     1      -3.030   0.794   5.749  1.00  0.00    -0.354 N 
ATOM     47  C   UNL     1      -6.164   5.362   6.715  1.00  0.00     0.074 A 
ATOM     48  C   UNL     1      -5.401   6.168   5.766  1.00  0.00     0.031 C 
ATOM     49  C   UNL     1      -3.673   0.693   7.876  1.00  0.00     0.029 A 
ATOM     50  C   UNL     1      -2.563   0.380   6.995  1.00  0.00     0.049 A 
ATOM     51  H   UNL     1      -2.791   0.390   4.883  1.00  0.00     0.167 HD
ATOM     52  C   UNL     1      -6.271   5.807   7.993  1.00  0.00     0.034 A 
ATOM     53  C   UNL     1      -1.237   0.403   7.322  1.00  0.00     0.034 A 
ATOM     54  C   UNL     1      -5.443   5.074   8.936  1.00  0.00     0.049 A 
ATOM     55  C   UNL     1      -0.970   1.460   8.389  1.00  0.00     0.074 A 
ATOM     56  C   UNL     1      -5.654   4.001   9.780  1.00  0.00     0.029 A 
ATOM     57  N   UNL     1      -4.075   5.331   8.959  1.00  0.00    -0.354 N 
ATOM     58  N   UNL     1      -1.880   2.250   8.890  1.00  0.00    -0.248 NA
ATOM     59  C   UNL     1       0.363   1.770   8.900  1.00  0.00     0.031 C 
ATOM     60  C   UNL     1      -4.384   3.561  10.248  1.00  0.00     0.029 A 
ATOM     61  C   UNL     1      -3.403   4.390   9.725  1.00  0.00     0.049 A 
ATOM     62  H   UNL     1      -3.642   6.082   8.493  1.00  0.00     0.167 HD
ATOM     63  C   UNL     1      -1.273   3.285   9.546  1.00  0.00     0.074 A 
ATOM     64  C   UNL     1       0.120   2.877   9.621  1.00  0.00     0.031 C 
ATOM     65  C   UNL     1      -1.945   4.434   9.870  1.00  0.00     0.034 A 
BRANCH  52  66
ATOM     66  C   UNL     1      -7.463   6.674   8.320  1.00  0.00     0.023 A 
ATOM     67  C   UNL     1      -7.822   6.822   9.675  1.00  0.00     0.012 A 
ATOM     68  C   UNL     1      -8.303   7.297   7.355  1.00  0.00     0.148 A 
ATOM     69  C   UNL     1      -8.974   7.515  10.059  1.00  0.00     0.002 A 
ATOM     70  C   UNL     1      -9.448   7.997   7.744  1.00  0.00     0.091 A 
ATOM     71  F   UNL     1      -8.004   7.190   6.053  1.00  0.00    -0.205 F 
ATOM     72  C   UNL     1      -9.788   8.099   9.097  1.00  0.00     0.022 A 
BRANCH  70  73
ATOM     73  S   UNL     1     -10.550   8.807   6.569  1.00  0.00     0.127 S 
ATOM     74  O   UNL     1     -11.726   7.937   6.601  1.00  0.00    -0.237 OA
ATOM     75  O   UNL     1     -10.757  10.120   7.185  1.00  0.00    -0.237 OA
ATOM     76  O   UNL     1      -9.836   8.853   5.300  1.00  0.00    -0.744 OA
ENDBRANCH  70  73
ENDBRANCH  52  66
BRANCH  53  77
ATOM     77  C   UNL     1      -0.337   0.153   6.146  1.00  0.00     0.023 A 
ATOM     78  C   UNL     1      -0.521  -1.047   5.415  1.00  0.00     0.012 A 
ATOM     79  C   UNL     1       0.348   1.209   5.530  1.00  0.00     0.148 A 
ATOM     80  C   UNL     1      -0.177  -1.123   4.062  1.00  0.00     0.002 A 
ATOM     81  C   UNL     1       0.669   1.136   4.179  1.00  0.00     0.091 A 
ATOM     82  F   UNL     1       0.606   2.321   6.228  1.00  0.00    -0.205 F 
ATOM     83  C   UNL     1       0.380  -0.014   3.431  1.00  0.00     0.022 A 
BRANCH  81  84
ATOM     84  S   UNL     1       1.218   2.633   3.350  1.00  0.00     0.127 S 
ATOM     85  O   UNL     1       0.795   2.418   1.971  1.00  0.00    -0.237 OA
ATOM     86  O   UNL     1       0.476   3.697   4.012  1.00  0.00    -0.237 OA
ATOM     87  O   UNL     1       2.659   2.592   3.570  1.00  0.00    -0.744 OA
ENDBRANCH  81  84
ENDBRANCH  53  77
BRANCH  65  88
ATOM     88  C   UNL     1      -1.257   5.695  10.357  1.00  0.00     0.023 A 
ATOM     89  C   UNL     1       0.084   5.989  10.031  1.00  0.00     0.012 A 
ATOM     90  C   UNL     1      -1.965   6.690  11.073  1.00  0.00     0.148 A 
ATOM     91  C   UNL     1       0.729   7.140  10.495  1.00  0.00     0.002 A 
ATOM     92  C   UNL     1      -1.351   7.888  11.436  1.00  0.00     0.091 A 
ATOM     93  F   UNL     1      -3.241   6.474  11.425  1.00  0.00    -0.205 F 
ATOM     94  C   UNL     1       0.008   8.097  11.191  1.00  0.00     0.022 A 
BRANCH  92  95
ATOM     95  S   UNL     1      -2.316   9.254  12.095  1.00  0.00     0.127 S 
ATOM     96  O   UNL     1      -2.268   8.999  13.532  1.00  0.00    -0.237 OA
ATOM     97  O   UNL     1      -1.551  10.425  11.660  1.00  0.00    -0.237 OA
ATOM     98  O   UNL     1      -3.618   9.125  11.455  1.00  0.00    -0.744 OA
ENDBRANCH  92  95
ENDBRANCH  65  88
ENDBRANCH  39  40
ENDBRANCH  32  34
ENDBRANCH  31  32
ENDBRANCH  30  31
ENDBRANCH   1  30
TORSDOF 19
