REMARK SMILES Cc1noc(C)c1[C@H](C)NC(=O)NCC(=O)NCC(=O)OCCOC(=O)c1ccc(-c2c3nc(c(-c4cccc(S(=O)(=O)[O-])c4F)c4ccc([nH]4)c(-c4cccc(S(=O)(=O)[O-])c4F)c4nc(c(-c5cccc(S(=O)(=O)[O-])c5F)c5ccc2[nH]5)C=C4)C=C3)cc1
REMARK SMILES IDX 22 1 21 2 19 3 20 4 18 5 17 6 15 7 16 8 14 10 13 11 10 12
REMARK SMILES IDX 11 13 12 15 8 17 9 18 7 19 1 20 2 21 3 22 4 23 5 24 6 25
REMARK SMILES IDX 23 26 24 27 25 28 26 29 27 30 28 31 89 32 29 33 88 34 30 35
REMARK SMILES IDX 31 36 32 37 82 38 33 39 87 40 81 41 83 42 34 43 86 44 80 45
REMARK SMILES IDX 79 46 35 48 67 49 47 50 66 51 48 52 51 53 65 54 84 55 49 56
REMARK SMILES IDX 50 57 64 59 85 60 52 61 36 62 37 63 45 64 38 65 40 66 46 67
REMARK SMILES IDX 39 68 41 69 42 70 43 71 44 72 68 73 69 74 77 75 70 76 72 77
REMARK SMILES IDX 78 78 71 79 73 80 74 81 75 82 76 83 53 84 54 85 62 86 55 87
REMARK SMILES IDX 57 88 63 89 56 90 58 91 59 92 60 93 61 94
REMARK H PARENT 17 9 10 14 13 16 83 47 51 58
REMARK Flexibility Score: inf
ROOT
ATOM      1  C   UNL     1      -0.365   9.061   2.530  1.00  0.00     0.274 C 
ENDROOT
BRANCH   1   2
ATOM      2  O   UNL     1       0.477   8.016   2.008  1.00  0.00    -0.461 OA
BRANCH   2   3
ATOM      3  C   UNL     1      -0.177   7.030   1.334  1.00  0.00     0.325 C 
ATOM      4  O   UNL     1      -1.395   6.898   1.295  1.00  0.00    -0.250 OA
BRANCH   3   5
ATOM      5  C   UNL     1       0.759   6.259   0.413  1.00  0.00     0.238 C 
BRANCH   5   6
ATOM      6  N   UNL     1       2.173   6.246   0.728  1.00  0.00    -0.344 N 
ATOM      7  C   UNL     1       2.984   5.208   1.060  1.00  0.00     0.239 C 
ATOM      8  O   UNL     1       4.203   5.404   1.011  1.00  0.00    -0.273 OA
ATOM      9  H   UNL     1       2.615   7.125   0.697  1.00  0.00     0.164 HD
BRANCH   7  10
ATOM     10  C   UNL     1       2.453   3.787   1.319  1.00  0.00     0.217 C 
BRANCH  10  11
ATOM     11  N   UNL     1       1.200   3.673   2.050  1.00  0.00    -0.329 N 
ATOM     12  N   UNL     1      -0.493   2.837   0.615  1.00  0.00    -0.331 N 
ATOM     13  C   UNL     1      -0.059   3.319   1.783  1.00  0.00     0.315 C 
ATOM     14  H   UNL     1      -1.467   2.928   0.501  1.00  0.00     0.165 HD
ATOM     15  O   UNL     1      -0.883   3.493   2.683  1.00  0.00    -0.249 OA
ATOM     16  H   UNL     1       1.311   3.924   2.995  1.00  0.00     0.165 HD
BRANCH  12  17
ATOM     17  C   UNL     1       0.155   2.209  -0.525  1.00  0.00     0.116 C 
ATOM     18  C   UNL     1       0.503   0.763  -0.186  1.00  0.00     0.036 C 
BRANCH  17  19
ATOM     19  C   UNL     1      -0.719   2.377  -1.733  1.00  0.00     0.040 A 
ATOM     20  C   UNL     1       0.202   4.651  -2.686  1.00  0.00     0.071 C 
ATOM     21  C   UNL     1      -0.678   3.463  -2.664  1.00  0.00     0.086 A 
ATOM     22  N   UNL     1      -1.595   3.328  -3.624  1.00  0.00    -0.085 NA
ATOM     23  O   UNL     1      -2.226   2.135  -3.376  1.00  0.00    -0.361 OA
ATOM     24  C   UNL     1      -1.697   1.556  -2.267  1.00  0.00     0.139 A 
ATOM     25  C   UNL     1      -2.255   0.231  -1.938  1.00  0.00     0.091 C 
ENDBRANCH  17  19
ENDBRANCH  12  17
ENDBRANCH  10  11
ENDBRANCH   7  10
ENDBRANCH   5   6
ENDBRANCH   3   5
ENDBRANCH   2   3
ENDBRANCH   1   2
BRANCH   1  26
ATOM     26  C   UNL     1      -0.448  10.237   1.549  1.00  0.00     0.275 C 
BRANCH  26  27
ATOM     27  O   UNL     1      -1.208   9.920   0.364  1.00  0.00    -0.458 OA
BRANCH  27  28
ATOM     28  C   UNL     1      -0.483   9.512  -0.703  1.00  0.00     0.338 C 
ATOM     29  O   UNL     1       0.724   9.332  -0.744  1.00  0.00    -0.246 OA
BRANCH  28  30
ATOM     30  C   UNL     1      -1.360   9.220  -1.849  1.00  0.00     0.060 A 
ATOM     31  C   UNL     1      -1.731   7.898  -2.098  1.00  0.00     0.016 A 
ATOM     32  C   UNL     1      -1.682  10.223  -2.762  1.00  0.00     0.016 A 
ATOM     33  C   UNL     1      -2.361   7.561  -3.299  1.00  0.00     0.010 A 
ATOM     34  C   UNL     1      -2.381   9.891  -3.931  1.00  0.00     0.010 A 
ATOM     35  C   UNL     1      -2.703   8.554  -4.231  1.00  0.00    -0.014 A 
BRANCH  35  36
ATOM     36  C   UNL     1      -3.401   8.209  -5.506  1.00  0.00     0.031 A 
ATOM     37  C   UNL     1      -2.785   8.552  -6.841  1.00  0.00     0.074 A 
ATOM     38  C   UNL     1      -4.620   7.633  -5.478  1.00  0.00     0.049 A 
ATOM     39  N   UNL     1      -3.314   8.490  -8.037  1.00  0.00    -0.248 NA
ATOM     40  C   UNL     1      -1.398   9.045  -6.828  1.00  0.00     0.031 C 
ATOM     41  C   UNL     1      -5.348   7.249  -4.268  1.00  0.00     0.029 A 
ATOM     42  N   UNL     1      -5.476   7.293  -6.500  1.00  0.00    -0.354 N 
ATOM     43  C   UNL     1      -2.356   8.996  -8.909  1.00  0.00     0.074 A 
ATOM     44  C   UNL     1      -1.206   9.353  -8.105  1.00  0.00     0.031 C 
ATOM     45  C   UNL     1      -6.535   6.729  -4.613  1.00  0.00     0.029 A 
ATOM     46  C   UNL     1      -6.683   6.796  -6.064  1.00  0.00     0.049 A 
ATOM     47  H   UNL     1      -5.247   7.396  -7.452  1.00  0.00     0.167 HD
ATOM     48  C   UNL     1      -2.419   9.138 -10.255  1.00  0.00     0.034 A 
ATOM     49  C   UNL     1      -7.799   6.461  -6.742  1.00  0.00     0.034 A 
ATOM     50  C   UNL     1      -3.523   8.706 -11.072  1.00  0.00     0.049 A 
ATOM     51  C   UNL     1      -7.829   6.599  -8.238  1.00  0.00     0.074 A 
ATOM     52  C   UNL     1      -3.639   8.752 -12.452  1.00  0.00     0.029 A 
ATOM     53  N   UNL     1      -4.692   8.139 -10.594  1.00  0.00    -0.354 N 
ATOM     54  N   UNL     1      -6.883   7.004  -9.049  1.00  0.00    -0.248 NA
ATOM     55  C   UNL     1      -9.078   6.218  -8.916  1.00  0.00     0.031 C 
ATOM     56  C   UNL     1      -4.882   8.217 -12.808  1.00  0.00     0.029 A 
ATOM     57  C   UNL     1      -5.536   7.832 -11.650  1.00  0.00     0.049 A 
ATOM     58  H   UNL     1      -4.894   7.977  -9.644  1.00  0.00     0.167 HD
ATOM     59  C   UNL     1      -7.412   6.906 -10.331  1.00  0.00     0.074 A 
ATOM     60  C   UNL     1      -8.753   6.378 -10.193  1.00  0.00     0.031 C 
ATOM     61  C   UNL     1      -6.846   7.249 -11.513  1.00  0.00     0.034 A 
BRANCH  48  62
ATOM     62  C   UNL     1      -1.236   9.752 -10.957  1.00  0.00     0.023 A 
ATOM     63  C   UNL     1      -0.079   8.979 -11.173  1.00  0.00     0.012 A 
ATOM     64  C   UNL     1      -1.304  11.059 -11.481  1.00  0.00     0.148 A 
ATOM     65  C   UNL     1       1.001   9.503 -11.883  1.00  0.00     0.002 A 
ATOM     66  C   UNL     1      -0.238  11.561 -12.219  1.00  0.00     0.091 A 
ATOM     67  F   UNL     1      -2.406  11.786 -11.247  1.00  0.00    -0.205 F 
ATOM     68  C   UNL     1       0.917  10.787 -12.415  1.00  0.00     0.022 A 
BRANCH  66  69
ATOM     69  S   UNL     1      -0.286  13.177 -13.005  1.00  0.00     0.127 S 
ATOM     70  O   UNL     1       0.566  13.963 -12.115  1.00  0.00    -0.237 OA
ATOM     71  O   UNL     1       0.295  12.902 -14.320  1.00  0.00    -0.237 OA
ATOM     72  O   UNL     1      -1.690  13.562 -13.035  1.00  0.00    -0.744 OA
ENDBRANCH  66  69
ENDBRANCH  48  62
BRANCH  49  73
ATOM     73  C   UNL     1      -8.979   5.933  -6.000  1.00  0.00     0.023 A 
ATOM     74  C   UNL     1      -9.328   4.576  -6.137  1.00  0.00     0.012 A 
ATOM     75  C   UNL     1      -9.727   6.751  -5.131  1.00  0.00     0.148 A 
ATOM     76  C   UNL     1     -10.412   4.048  -5.436  1.00  0.00     0.002 A 
ATOM     77  C   UNL     1     -10.769   6.204  -4.391  1.00  0.00     0.091 A 
ATOM     78  F   UNL     1      -9.399   8.047  -5.035  1.00  0.00    -0.205 F 
ATOM     79  C   UNL     1     -11.123   4.856  -4.553  1.00  0.00     0.022 A 
BRANCH  77  80
ATOM     80  S   UNL     1     -11.630   7.150  -3.130  1.00  0.00     0.127 S 
ATOM     81  O   UNL     1     -12.850   7.544  -3.828  1.00  0.00    -0.237 OA
ATOM     82  O   UNL     1     -11.820   6.156  -2.071  1.00  0.00    -0.237 OA
ATOM     83  O   UNL     1     -10.718   8.229  -2.772  1.00  0.00    -0.744 OA
ENDBRANCH  77  80
ENDBRANCH  49  73
BRANCH  61  84
ATOM     84  C   UNL     1      -7.660   7.051 -12.763  1.00  0.00     0.023 A 
ATOM     85  C   UNL     1      -8.705   7.950 -13.057  1.00  0.00     0.012 A 
ATOM     86  C   UNL     1      -7.352   6.027 -13.679  1.00  0.00     0.148 A 
ATOM     87  C   UNL     1      -9.446   7.818 -14.230  1.00  0.00     0.002 A 
ATOM     88  C   UNL     1      -8.070   5.924 -14.866  1.00  0.00     0.091 A 
ATOM     89  F   UNL     1      -6.369   5.167 -13.373  1.00  0.00    -0.205 F 
ATOM     90  C   UNL     1      -9.122   6.814 -15.139  1.00  0.00     0.022 A 
BRANCH  88  91
ATOM     91  S   UNL     1      -7.664   4.711 -16.128  1.00  0.00     0.127 S 
ATOM     92  O   UNL     1      -8.695   3.698 -15.912  1.00  0.00    -0.237 OA
ATOM     93  O   UNL     1      -7.814   5.479 -17.365  1.00  0.00    -0.237 OA
ATOM     94  O   UNL     1      -6.298   4.290 -15.847  1.00  0.00    -0.744 OA
ENDBRANCH  88  91
ENDBRANCH  61  84
ENDBRANCH  35  36
ENDBRANCH  28  30
ENDBRANCH  27  28
ENDBRANCH  26  27
ENDBRANCH   1  26
TORSDOF 19
