REMARK SMILES Cc1c(NS(=O)(=O)c2ncn(C)c2Cl)cccc1C(=O)OCCOC(=O)c1ccc(-c2c3nc(c(-c4cccc(S(=O)(=O)[O-])c4F)c4ccc([nH]4)c(-c4cccc(S(=O)(=O)[O-])c4F)c4nc(c(-c5cccc(S(=O)(=O)[O-])c5F)c5ccc2[nH]5)C=C4)C=C3)cc1
REMARK SMILES IDX 22 1 21 2 19 3 20 4 18 5 1 6 2 7 3 8 15 9 17 10 16 11 4 12
REMARK SMILES IDX 5 14 6 15 7 16 8 17 9 18 13 19 10 20 11 21 14 22 12 23 23 24
REMARK SMILES IDX 24 25 25 26 26 27 27 28 28 29 89 30 29 31 88 32 30 33 31 34
REMARK SMILES IDX 32 35 82 36 33 37 87 38 81 39 83 40 34 41 86 42 80 43 79 44
REMARK SMILES IDX 35 46 67 47 47 48 66 49 48 50 51 51 65 52 84 53 49 54 50 55
REMARK SMILES IDX 64 57 85 58 52 59 36 60 37 61 45 62 38 63 40 64 46 65 39 66
REMARK SMILES IDX 41 67 42 68 43 69 44 70 68 71 69 72 77 73 70 74 72 75 78 76
REMARK SMILES IDX 71 77 73 78 74 79 75 80 76 81 53 82 54 83 62 84 55 85 57 86
REMARK SMILES IDX 63 87 56 88 58 89 59 90 60 91 61 92
REMARK H PARENT 4 13 83 45 51 56
REMARK Flexibility Score: inf
ROOT
ATOM      1  C   UNL     1       3.804   3.094  -1.843  1.00  0.00     0.275 C 
ENDROOT
BRANCH   1   2
ATOM      2  O   UNL     1       2.871   2.099  -1.417  1.00  0.00    -0.458 OA
BRANCH   2   3
ATOM      3  C   UNL     1       2.247   1.397  -2.381  1.00  0.00     0.338 C 
ATOM      4  O   UNL     1       2.371   1.565  -3.580  1.00  0.00    -0.246 OA
BRANCH   3   5
ATOM      5  C   UNL     1       1.244   0.493  -1.768  1.00  0.00     0.065 A 
ATOM      6  C   UNL     1       2.982  -0.831  -0.488  1.00  0.00     0.047 C 
ATOM      7  C   UNL     1       1.555  -0.603  -0.911  1.00  0.00    -0.012 A 
ATOM      8  C   UNL     1       0.496  -1.452  -0.512  1.00  0.00     0.053 A 
ATOM      9  C   UNL     1      -0.814  -1.071  -0.833  1.00  0.00     0.027 A 
ATOM     10  C   UNL     1      -0.076   0.800  -2.116  1.00  0.00     0.016 A 
ATOM     11  C   UNL     1      -1.109   0.044  -1.606  1.00  0.00     0.003 A 
BRANCH   8  12
ATOM     12  N   UNL     1       0.698  -2.605   0.339  1.00  0.00    -0.278 N 
ATOM     13  H   UNL     1       1.256  -2.521   1.146  1.00  0.00     0.180 HD
BRANCH  12  14
ATOM     14  S   UNL     1      -0.018  -4.108  -0.041  1.00  0.00     0.282 S 
ATOM     15  O   UNL     1       0.223  -4.367  -1.447  1.00  0.00    -0.199 OA
ATOM     16  O   UNL     1       0.420  -5.052   0.967  1.00  0.00    -0.199 OA
BRANCH  14  17
ATOM     17  C   UNL     1      -1.751  -4.078   0.130  1.00  0.00     0.213 A 
ATOM     18  N   UNL     1      -2.630  -4.654  -0.787  1.00  0.00    -0.222 NA
ATOM     19  C   UNL     1      -2.464  -3.348   1.053  1.00  0.00     0.149 A 
ATOM     20  C   UNL     1      -3.801  -4.124  -0.512  1.00  0.00     0.202 A 
ATOM     21  N   UNL     1      -3.709  -3.203   0.503  1.00  0.00    -0.324 N 
ATOM     22  Cl  UNL     1      -2.003  -2.479   2.438  1.00  0.00    -0.061 Cl
ATOM     23  C   UNL     1      -4.614  -2.081   0.630  1.00  0.00     0.152 C 
ENDBRANCH  14  17
ENDBRANCH  12  14
ENDBRANCH   8  12
ENDBRANCH   3   5
ENDBRANCH   2   3
ENDBRANCH   1   2
BRANCH   1  24
ATOM     24  C   UNL     1       3.308   4.253  -2.743  1.00  0.00     0.275 C 
BRANCH  24  25
ATOM     25  O   UNL     1       1.974   4.856  -2.746  1.00  0.00    -0.458 OA
BRANCH  25  26
ATOM     26  C   UNL     1       0.850   4.677  -2.006  1.00  0.00     0.338 C 
ATOM     27  O   UNL     1      -0.253   4.938  -2.418  1.00  0.00    -0.246 OA
BRANCH  26  28
ATOM     28  C   UNL     1       1.064   4.226  -0.632  1.00  0.00     0.060 A 
ATOM     29  C   UNL     1       0.164   3.339  -0.022  1.00  0.00     0.016 A 
ATOM     30  C   UNL     1       2.214   4.664   0.006  1.00  0.00     0.016 A 
ATOM     31  C   UNL     1       0.455   2.832   1.235  1.00  0.00     0.010 A 
ATOM     32  C   UNL     1       2.612   4.004   1.129  1.00  0.00     0.010 A 
ATOM     33  C   UNL     1       1.675   3.196   1.792  1.00  0.00    -0.014 A 
BRANCH  33  34
ATOM     34  C   UNL     1       1.923   3.230   3.216  1.00  0.00     0.031 A 
ATOM     35  C   UNL     1       2.554   2.102   3.897  1.00  0.00     0.074 A 
ATOM     36  C   UNL     1       1.815   4.505   3.663  1.00  0.00     0.049 A 
ATOM     37  N   UNL     1       2.659   2.021   5.170  1.00  0.00    -0.248 NA
ATOM     38  C   UNL     1       3.100   0.940   3.201  1.00  0.00     0.031 C 
ATOM     39  C   UNL     1       2.442   5.200   4.770  1.00  0.00     0.029 A 
ATOM     40  N   UNL     1       1.079   5.535   3.079  1.00  0.00    -0.354 N 
ATOM     41  C   UNL     1       3.562   1.013   5.443  1.00  0.00     0.074 A 
ATOM     42  C   UNL     1       3.668   0.270   4.213  1.00  0.00     0.031 C 
ATOM     43  C   UNL     1       1.802   6.381   4.946  1.00  0.00     0.029 A 
ATOM     44  C   UNL     1       0.630   6.377   4.070  1.00  0.00     0.049 A 
ATOM     45  H   UNL     1       0.909   5.641   2.116  1.00  0.00     0.167 HD
ATOM     46  C   UNL     1       4.237   1.078   6.626  1.00  0.00     0.034 A 
ATOM     47  C   UNL     1      -0.679   6.277   4.474  1.00  0.00     0.034 A 
ATOM     48  C   UNL     1       3.739   2.236   7.396  1.00  0.00     0.049 A 
ATOM     49  C   UNL     1      -0.748   5.717   5.885  1.00  0.00     0.074 A 
ATOM     50  C   UNL     1       4.202   3.537   7.503  1.00  0.00     0.029 A 
ATOM     51  N   UNL     1       2.422   2.249   7.851  1.00  0.00    -0.354 N 
ATOM     52  N   UNL     1       0.189   4.985   6.425  1.00  0.00    -0.248 NA
ATOM     53  C   UNL     1      -1.844   5.986   6.806  1.00  0.00     0.031 C 
ATOM     54  C   UNL     1       3.104   4.355   7.899  1.00  0.00     0.029 A 
ATOM     55  C   UNL     1       1.985   3.552   8.060  1.00  0.00     0.049 A 
ATOM     56  H   UNL     1       1.875   1.445   8.003  1.00  0.00     0.167 HD
ATOM     57  C   UNL     1      -0.149   4.654   7.701  1.00  0.00     0.074 A 
ATOM     58  C   UNL     1      -1.419   5.341   7.906  1.00  0.00     0.031 C 
ATOM     59  C   UNL     1       0.606   3.814   8.473  1.00  0.00     0.034 A 
BRANCH  46  60
ATOM     60  C   UNL     1       5.517   0.344   7.014  1.00  0.00     0.023 A 
ATOM     61  C   UNL     1       6.148   0.780   8.204  1.00  0.00     0.012 A 
ATOM     62  C   UNL     1       6.192  -0.682   6.307  1.00  0.00     0.148 A 
ATOM     63  C   UNL     1       7.381   0.282   8.641  1.00  0.00     0.002 A 
ATOM     64  C   UNL     1       7.424  -1.190   6.747  1.00  0.00     0.091 A 
ATOM     65  F   UNL     1       5.666  -1.188   5.193  1.00  0.00    -0.205 F 
ATOM     66  C   UNL     1       8.024  -0.701   7.910  1.00  0.00     0.022 A 
BRANCH  64  67
ATOM     67  S   UNL     1       8.331  -2.479   5.866  1.00  0.00     0.127 S 
ATOM     68  O   UNL     1       9.574  -1.791   5.513  1.00  0.00    -0.237 OA
ATOM     69  O   UNL     1       8.480  -3.512   6.891  1.00  0.00    -0.237 OA
ATOM     70  O   UNL     1       7.505  -2.861   4.727  1.00  0.00    -0.744 OA
ENDBRANCH  64  67
ENDBRANCH  46  60
BRANCH  47  71
ATOM     71  C   UNL     1      -1.654   5.937   3.362  1.00  0.00     0.023 A 
ATOM     72  C   UNL     1      -1.641   6.770   2.210  1.00  0.00     0.012 A 
ATOM     73  C   UNL     1      -2.341   4.707   3.273  1.00  0.00     0.148 A 
ATOM     74  C   UNL     1      -2.161   6.339   0.985  1.00  0.00     0.002 A 
ATOM     75  C   UNL     1      -2.882   4.290   2.048  1.00  0.00     0.091 A 
ATOM     76  F   UNL     1      -2.417   3.937   4.365  1.00  0.00    -0.205 F 
ATOM     77  C   UNL     1      -2.762   5.091   0.900  1.00  0.00     0.022 A 
BRANCH  75  78
ATOM     78  S   UNL     1      -3.691   2.695   1.805  1.00  0.00     0.127 S 
ATOM     79  O   UNL     1      -5.040   3.099   1.413  1.00  0.00    -0.237 OA
ATOM     80  O   UNL     1      -2.906   2.096   0.724  1.00  0.00    -0.237 OA
ATOM     81  O   UNL     1      -3.603   2.001   3.080  1.00  0.00    -0.744 OA
ENDBRANCH  75  78
ENDBRANCH  47  71
BRANCH  59  82
ATOM     82  C   UNL     1       0.073   3.148   9.718  1.00  0.00     0.023 A 
ATOM     83  C   UNL     1      -1.306   2.941   9.909  1.00  0.00     0.012 A 
ATOM     84  C   UNL     1       0.949   2.542  10.650  1.00  0.00     0.148 A 
ATOM     85  C   UNL     1      -1.804   2.261  11.019  1.00  0.00     0.002 A 
ATOM     86  C   UNL     1       0.452   1.741  11.670  1.00  0.00     0.091 A 
ATOM     87  F   UNL     1       2.272   2.742  10.560  1.00  0.00    -0.205 F 
ATOM     88  C   UNL     1      -0.922   1.638  11.889  1.00  0.00     0.022 A 
BRANCH  86  89
ATOM     89  S   UNL     1       1.550   0.668  12.602  1.00  0.00     0.127 S 
ATOM     90  O   UNL     1       1.872   1.496  13.762  1.00  0.00    -0.237 OA
ATOM     91  O   UNL     1       0.693  -0.483  12.892  1.00  0.00    -0.237 OA
ATOM     92  O   UNL     1       2.650   0.375  11.692  1.00  0.00    -0.744 OA
ENDBRANCH  86  89
ENDBRANCH  59  82
ENDBRANCH  33  34
ENDBRANCH  26  28
ENDBRANCH  25  26
ENDBRANCH  24  25
ENDBRANCH   1  24
TORSDOF 17
