REMARK SMILES CCc1cccc(-c2ccc([C@@H](C)C(=O)OCCOC(=O)c3ccc(-c4c5nc(c(-c6cccc(S(=O)(=O)[O-])c6F)c6ccc([nH]6)c(-c6cccc(S(=O)(=O)[O-])c6F)c6nc(c(-c7cccc(S(=O)(=O)[O-])c7F)c7ccc4[nH]7)C=C6)C=C5)cc3)cc2)c1
REMARK SMILES IDX 17 1 16 2 14 3 15 4 12 5 13 6 11 7 8 8 9 9 86 10 10 11 85 12
REMARK SMILES IDX 7 13 3 14 4 15 87 16 5 17 6 18 2 19 1 20 18 21 19 22 20 23
REMARK SMILES IDX 21 24 22 25 23 26 84 27 24 28 83 29 25 30 26 31 27 32 77 33
REMARK SMILES IDX 28 34 82 35 76 36 78 37 29 38 81 39 75 40 74 41 30 43 62 44
REMARK SMILES IDX 42 45 61 46 43 47 46 48 60 49 79 50 44 51 45 52 59 54 80 55
REMARK SMILES IDX 47 56 31 57 32 58 40 59 33 60 35 61 41 62 34 63 36 64 37 65
REMARK SMILES IDX 38 66 39 67 63 68 64 69 72 70 65 71 67 72 73 73 66 74 68 75
REMARK SMILES IDX 69 76 70 77 71 78 48 79 49 80 57 81 50 82 52 83 58 84 51 85
REMARK SMILES IDX 53 86 54 87 55 88 56 89
REMARK H PARENT 78 42 46 53
REMARK Flexibility Score: inf
ROOT
ATOM      1  C   UNL     1       3.599   8.238   4.158  1.00  0.00     0.274 C 
ENDROOT
BRANCH   1   2
ATOM      2  O   UNL     1       2.759   7.303   4.861  1.00  0.00    -0.462 OA
BRANCH   2   3
ATOM      3  C   UNL     1       1.602   7.793   5.380  1.00  0.00     0.313 C 
ATOM      4  O   UNL     1       1.291   8.979   5.369  1.00  0.00    -0.252 OA
BRANCH   3   5
ATOM      5  C   UNL     1       0.730   6.738   6.049  1.00  0.00     0.126 C 
ATOM      6  C   UNL     1       0.896   6.821   7.566  1.00  0.00     0.025 C 
BRANCH   5   7
ATOM      7  C   UNL     1       0.872   5.315   5.529  1.00  0.00    -0.034 A 
ATOM      8  C   UNL     1       1.053   2.630   4.602  1.00  0.00    -0.018 A 
ATOM      9  C   UNL     1       2.111   3.234   5.300  1.00  0.00     0.009 A 
ATOM     10  C   UNL     1      -0.089   3.404   4.356  1.00  0.00     0.009 A 
ATOM     11  C   UNL     1       2.022   4.552   5.761  1.00  0.00     0.005 A 
ATOM     12  C   UNL     1      -0.180   4.724   4.813  1.00  0.00     0.005 A 
BRANCH   8  13
ATOM     13  C   UNL     1       1.128   1.219   4.179  1.00  0.00    -0.018 A 
ATOM     14  C   UNL     1       0.871  -0.526   2.469  1.00  0.00    -0.048 A 
ATOM     15  C   UNL     1       1.238  -1.490   3.418  1.00  0.00     0.004 A 
ATOM     16  C   UNL     1       0.810   0.821   2.867  1.00  0.00     0.012 A 
ATOM     17  C   UNL     1       1.555  -1.119   4.722  1.00  0.00     0.001 A 
ATOM     18  C   UNL     1       1.501   0.223   5.097  1.00  0.00     0.009 A 
BRANCH  14  19
ATOM     19  C   UNL     1       0.481  -0.967   1.077  1.00  0.00     0.032 C 
ATOM     20  C   UNL     1       1.063  -0.123  -0.049  1.00  0.00     0.009 C 
ENDBRANCH  14  19
ENDBRANCH   8  13
ENDBRANCH   5   7
ENDBRANCH   3   5
ENDBRANCH   2   3
ENDBRANCH   1   2
BRANCH   1  21
ATOM     21  C   UNL     1       3.455   8.073   2.645  1.00  0.00     0.275 C 
BRANCH  21  22
ATOM     22  O   UNL     1       2.150   8.488   2.204  1.00  0.00    -0.458 OA
BRANCH  22  23
ATOM     23  C   UNL     1       1.262   7.486   2.007  1.00  0.00     0.338 C 
ATOM     24  O   UNL     1       1.457   6.288   2.111  1.00  0.00    -0.246 OA
BRANCH  23  25
ATOM     25  C   UNL     1      -0.060   8.061   1.728  1.00  0.00     0.060 A 
ATOM     26  C   UNL     1      -1.041   7.986   2.720  1.00  0.00     0.016 A 
ATOM     27  C   UNL     1      -0.356   8.594   0.474  1.00  0.00     0.016 A 
ATOM     28  C   UNL     1      -2.334   8.429   2.457  1.00  0.00     0.010 A 
ATOM     29  C   UNL     1      -1.651   9.052   0.216  1.00  0.00     0.010 A 
ATOM     30  C   UNL     1      -2.652   8.957   1.200  1.00  0.00    -0.014 A 
BRANCH  30  31
ATOM     31  C   UNL     1      -4.040   9.386   0.903  1.00  0.00     0.031 A 
ATOM     32  C   UNL     1      -4.894   8.569  -0.025  1.00  0.00     0.074 A 
ATOM     33  C   UNL     1      -4.519  10.520   1.447  1.00  0.00     0.049 A 
ATOM     34  N   UNL     1      -6.101   8.814  -0.463  1.00  0.00    -0.248 NA
ATOM     35  C   UNL     1      -4.314   7.314  -0.532  1.00  0.00     0.031 C 
ATOM     36  C   UNL     1      -3.782  11.394   2.362  1.00  0.00     0.029 A 
ATOM     37  N   UNL     1      -5.731  11.144   1.292  1.00  0.00    -0.354 N 
ATOM     38  C   UNL     1      -6.408   7.775  -1.333  1.00  0.00     0.074 A 
ATOM     39  C   UNL     1      -5.264   6.890  -1.355  1.00  0.00     0.031 C 
ATOM     40  C   UNL     1      -4.552  12.449   2.675  1.00  0.00     0.029 A 
ATOM     41  C   UNL     1      -5.819  12.345   1.958  1.00  0.00     0.049 A 
ATOM     42  H   UNL     1      -6.466  10.769   0.756  1.00  0.00     0.167 HD
ATOM     43  C   UNL     1      -7.545   7.574  -2.040  1.00  0.00     0.034 A 
ATOM     44  C   UNL     1      -6.803  13.266   1.969  1.00  0.00     0.034 A 
ATOM     45  C   UNL     1      -8.701   8.427  -1.972  1.00  0.00     0.049 A 
ATOM     46  C   UNL     1      -8.054  13.010   1.172  1.00  0.00     0.074 A 
ATOM     47  C   UNL     1      -9.928   8.261  -2.591  1.00  0.00     0.029 A 
ATOM     48  N   UNL     1      -8.773   9.606  -1.249  1.00  0.00    -0.354 N 
ATOM     49  N   UNL     1      -8.377  11.960   0.458  1.00  0.00    -0.248 NA
ATOM     50  C   UNL     1      -9.086  14.057   1.201  1.00  0.00     0.031 C 
ATOM     51  C   UNL     1     -10.737   9.351  -2.254  1.00  0.00     0.029 A 
ATOM     52  C   UNL     1     -10.017  10.188  -1.417  1.00  0.00     0.049 A 
ATOM     53  H   UNL     1      -8.046   9.976  -0.697  1.00  0.00     0.167 HD
ATOM     54  C   UNL     1      -9.660  12.204  -0.021  1.00  0.00     0.074 A 
ATOM     55  C   UNL     1     -10.063  13.493   0.503  1.00  0.00     0.031 C 
ATOM     56  C   UNL     1     -10.427  11.441  -0.837  1.00  0.00     0.034 A 
BRANCH  43  57
ATOM     57  C   UNL     1      -7.617   6.363  -2.929  1.00  0.00     0.023 A 
ATOM     58  C   UNL     1      -7.844   5.094  -2.361  1.00  0.00     0.012 A 
ATOM     59  C   UNL     1      -7.542   6.492  -4.330  1.00  0.00     0.148 A 
ATOM     60  C   UNL     1      -7.979   3.968  -3.172  1.00  0.00     0.002 A 
ATOM     61  C   UNL     1      -7.712   5.371  -5.134  1.00  0.00     0.091 A 
ATOM     62  F   UNL     1      -7.302   7.705  -4.848  1.00  0.00    -0.205 F 
ATOM     63  C   UNL     1      -7.924   4.108  -4.557  1.00  0.00     0.022 A 
BRANCH  61  64
ATOM     64  S   UNL     1      -7.725   5.461  -6.928  1.00  0.00     0.127 S 
ATOM     65  O   UNL     1      -6.444   4.840  -7.264  1.00  0.00    -0.237 OA
ATOM     66  O   UNL     1      -8.899   4.657  -7.270  1.00  0.00    -0.237 OA
ATOM     67  O   UNL     1      -7.841   6.874  -7.258  1.00  0.00    -0.744 OA
ENDBRANCH  61  64
ENDBRANCH  43  57
BRANCH  44  68
ATOM     68  C   UNL     1      -6.663  14.499   2.795  1.00  0.00     0.023 A 
ATOM     69  C   UNL     1      -7.482  14.663   3.929  1.00  0.00     0.012 A 
ATOM     70  C   UNL     1      -5.723  15.497   2.477  1.00  0.00     0.148 A 
ATOM     71  C   UNL     1      -7.385  15.811   4.716  1.00  0.00     0.002 A 
ATOM     72  C   UNL     1      -5.594  16.613   3.296  1.00  0.00     0.091 A 
ATOM     73  F   UNL     1      -4.970  15.340   1.379  1.00  0.00    -0.205 F 
ATOM     74  C   UNL     1      -6.434  16.780   4.408  1.00  0.00     0.022 A 
BRANCH  72  75
ATOM     75  S   UNL     1      -4.304  17.836   3.033  1.00  0.00     0.127 S 
ATOM     76  O   UNL     1      -5.028  18.890   2.328  1.00  0.00    -0.237 OA
ATOM     77  O   UNL     1      -3.907  18.171   4.401  1.00  0.00    -0.237 OA
ATOM     78  O   UNL     1      -3.274  17.143   2.269  1.00  0.00    -0.744 OA
ENDBRANCH  72  75
ENDBRANCH  44  68
BRANCH  56  79
ATOM     79  C   UNL     1     -11.793  11.960  -1.197  1.00  0.00     0.023 A 
ATOM     80  C   UNL     1     -11.913  13.006  -2.132  1.00  0.00     0.012 A 
ATOM     81  C   UNL     1     -12.955  11.361  -0.673  1.00  0.00     0.148 A 
ATOM     82  C   UNL     1     -13.170  13.466  -2.522  1.00  0.00     0.002 A 
ATOM     83  C   UNL     1     -14.205  11.796  -1.098  1.00  0.00     0.091 A 
ATOM     84  F   UNL     1     -12.820  10.382   0.233  1.00  0.00    -0.205 F 
ATOM     85  C   UNL     1     -14.315  12.854  -2.015  1.00  0.00     0.022 A 
BRANCH  83  86
ATOM     86  S   UNL     1     -15.725  11.001  -0.565  1.00  0.00     0.127 S 
ATOM     87  O   UNL     1     -16.216  11.938   0.443  1.00  0.00    -0.237 OA
ATOM     88  O   UNL     1     -16.512  10.965  -1.798  1.00  0.00    -0.237 OA
ATOM     89  O   UNL     1     -15.331   9.689  -0.067  1.00  0.00    -0.744 OA
ENDBRANCH  83  86
ENDBRANCH  56  79
ENDBRANCH  30  31
ENDBRANCH  23  25
ENDBRANCH  22  23
ENDBRANCH  21  22
ENDBRANCH   1  21
TORSDOF 17
