REMARK SMILES [NH3+]CCOCC(=O)N[C@H](C(=O)OCCOC(=O)c1ccc(-c2c3nc(c(-c4cccc(S(=O)(=O)[O-])c4F)c4ccc([nH]4)c(-c4cccc(S(=O)(=O)[O-])c4F)c4nc(c(-c5cccc(S(=O)(=O)[O-])c5F)c5ccc2[nH]5)C=C4)C=C3)cc1)c1ccccc1
REMARK SMILES IDX 12 1 10 2 11 3 9 4 8 5 6 6 7 7 5 9 4 10 3 11 2 12 1 13 81 17
REMARK SMILES IDX 82 18 86 19 83 20 85 21 84 22 13 23 14 24 15 25 16 26 17 27
REMARK SMILES IDX 18 28 19 29 80 30 20 31 79 32 21 33 22 34 23 35 73 36 24 37
REMARK SMILES IDX 78 38 72 39 74 40 25 41 77 42 71 43 70 44 26 46 58 47 38 48
REMARK SMILES IDX 57 49 39 50 42 51 56 52 75 53 40 54 41 55 55 57 76 58 43 59
REMARK SMILES IDX 27 60 28 61 36 62 29 63 31 64 37 65 30 66 32 67 33 68 34 69
REMARK SMILES IDX 35 70 59 71 60 72 68 73 61 74 63 75 69 76 62 77 64 78 65 79
REMARK SMILES IDX 66 80 67 81 44 82 45 83 53 84 46 85 48 86 54 87 47 88 49 89
REMARK SMILES IDX 50 90 51 91 52 92
REMARK H PARENT 8 8 1 14 1 15 1 16 74 45 42 56
REMARK Flexibility Score: inf
ROOT
ATOM      1  O   UNL     1       2.498   1.692  -1.918  1.00  0.00    -0.460 OA
ENDROOT
BRANCH   1   2
ATOM      2  C   UNL     1       3.184   2.053  -3.047  1.00  0.00     0.333 C 
ATOM      3  O   UNL     1       4.181   1.473  -3.456  1.00  0.00    -0.249 OA
BRANCH   2   4
ATOM      4  C   UNL     1       2.617   3.358  -3.650  1.00  0.00     0.223 C 
BRANCH   4   5
ATOM      5  N   UNL     1       3.023   4.525  -2.856  1.00  0.00    -0.337 N 
ATOM      6  C   UNL     1       4.272   4.984  -2.559  1.00  0.00     0.246 C 
ATOM      7  O   UNL     1       4.374   6.115  -2.076  1.00  0.00    -0.272 OA
ATOM      8  H   UNL     1       2.282   5.056  -2.483  1.00  0.00     0.164 HD
BRANCH   6   9
ATOM      9  C   UNL     1       5.513   4.101  -2.756  1.00  0.00     0.260 C 
BRANCH   9  10
ATOM     10  O   UNL     1       5.696   3.081  -1.785  1.00  0.00    -0.366 OA
BRANCH  10  11
ATOM     11  C   UNL     1       5.703   3.501  -0.426  1.00  0.00     0.222 C 
BRANCH  11  12
ATOM     12  C   UNL     1       7.118   3.743   0.112  1.00  0.00     0.287 C 
BRANCH  12  13
ATOM     13  N   UNL     1       7.822   4.856  -0.527  1.00  0.00    -0.356 N 
ATOM     14  H   UNL     1       8.751   4.951  -0.116  1.00  0.00     0.344 HD
ATOM     15  H   UNL     1       7.297   5.718  -0.383  1.00  0.00     0.344 HD
ATOM     16  H   UNL     1       7.910   4.674  -1.527  1.00  0.00     0.344 HD
ENDBRANCH  12  13
ENDBRANCH  11  12
ENDBRANCH  10  11
ENDBRANCH   9  10
ENDBRANCH   6   9
ENDBRANCH   4   5
BRANCH   4  17
ATOM     17  C   UNL     1       2.843   3.531  -5.155  1.00  0.00    -0.014 A 
ATOM     18  C   UNL     1       2.362   2.555  -6.045  1.00  0.00     0.006 A 
ATOM     19  C   UNL     1       3.484   4.651  -5.716  1.00  0.00     0.006 A 
ATOM     20  C   UNL     1       2.613   2.635  -7.419  1.00  0.00     0.000 A 
ATOM     21  C   UNL     1       3.724   4.738  -7.091  1.00  0.00     0.000 A 
ATOM     22  C   UNL     1       3.310   3.718  -7.940  1.00  0.00     0.000 A 
ENDBRANCH   4  17
ENDBRANCH   2   4
ENDBRANCH   1   2
BRANCH   1  23
ATOM     23  C   UNL     1       3.142   0.703  -1.087  1.00  0.00     0.274 C 
BRANCH  23  24
ATOM     24  C   UNL     1       2.595  -0.706  -1.309  1.00  0.00     0.275 C 
BRANCH  24  25
ATOM     25  O   UNL     1       3.071  -1.222  -2.562  1.00  0.00    -0.458 OA
BRANCH  25  26
ATOM     26  C   UNL     1       2.123  -1.547  -3.469  1.00  0.00     0.338 C 
ATOM     27  O   UNL     1       0.914  -1.518  -3.322  1.00  0.00    -0.246 OA
BRANCH  26  28
ATOM     28  C   UNL     1       2.768  -1.847  -4.755  1.00  0.00     0.060 A 
ATOM     29  C   UNL     1       3.301  -0.782  -5.473  1.00  0.00     0.016 A 
ATOM     30  C   UNL     1       2.703  -3.113  -5.330  1.00  0.00     0.016 A 
ATOM     31  C   UNL     1       3.688  -0.938  -6.793  1.00  0.00     0.010 A 
ATOM     32  C   UNL     1       3.156  -3.290  -6.645  1.00  0.00     0.010 A 
ATOM     33  C   UNL     1       3.605  -2.191  -7.402  1.00  0.00    -0.014 A 
BRANCH  33  34
ATOM     34  C   UNL     1       3.857  -2.285  -8.861  1.00  0.00     0.031 A 
ATOM     35  C   UNL     1       2.724  -2.651  -9.778  1.00  0.00     0.074 A 
ATOM     36  C   UNL     1       5.050  -1.928  -9.378  1.00  0.00     0.049 A 
ATOM     37  N   UNL     1       2.748  -2.907 -11.058  1.00  0.00    -0.248 NA
ATOM     38  C   UNL     1       1.381  -2.730  -9.176  1.00  0.00     0.031 C 
ATOM     39  C   UNL     1       6.192  -1.437  -8.606  1.00  0.00     0.029 A 
ATOM     40  N   UNL     1       5.489  -1.897 -10.677  1.00  0.00    -0.354 N 
ATOM     41  C   UNL     1       1.448  -3.256 -11.398  1.00  0.00     0.074 A 
ATOM     42  C   UNL     1       0.648  -3.146 -10.199  1.00  0.00     0.031 C 
ATOM     43  C   UNL     1       7.186  -1.115  -9.448  1.00  0.00     0.029 A 
ATOM     44  C   UNL     1       6.790  -1.469 -10.807  1.00  0.00     0.049 A 
ATOM     45  H   UNL     1       4.928  -2.157 -11.443  1.00  0.00     0.167 HD
ATOM     46  C   UNL     1       0.966  -3.638 -12.603  1.00  0.00     0.034 A 
ATOM     47  C   UNL     1       7.588  -1.411 -11.892  1.00  0.00     0.034 A 
ATOM     48  C   UNL     1       1.754  -3.684 -13.803  1.00  0.00     0.049 A 
ATOM     49  C   UNL     1       7.044  -1.891 -13.210  1.00  0.00     0.074 A 
ATOM     50  C   UNL     1       1.377  -4.101 -15.066  1.00  0.00     0.029 A 
ATOM     51  N   UNL     1       3.077  -3.279 -13.889  1.00  0.00    -0.354 N 
ATOM     52  N   UNL     1       5.825  -2.268 -13.512  1.00  0.00    -0.248 NA
ATOM     53  C   UNL     1       7.990  -1.952 -14.334  1.00  0.00     0.031 C 
ATOM     54  C   UNL     1       2.478  -3.952 -15.918  1.00  0.00     0.029 A 
ATOM     55  C   UNL     1       3.535  -3.436 -15.185  1.00  0.00     0.049 A 
ATOM     56  H   UNL     1       3.612  -2.932 -13.139  1.00  0.00     0.167 HD
ATOM     57  C   UNL     1       5.856  -2.614 -14.857  1.00  0.00     0.074 A 
ATOM     58  C   UNL     1       7.205  -2.360 -15.323  1.00  0.00     0.031 C 
ATOM     59  C   UNL     1       4.869  -3.129 -15.632  1.00  0.00     0.034 A 
BRANCH  46  60
ATOM     60  C   UNL     1      -0.476  -4.051 -12.670  1.00  0.00     0.023 A 
ATOM     61  C   UNL     1      -1.488  -3.073 -12.718  1.00  0.00     0.012 A 
ATOM     62  C   UNL     1      -0.826  -5.415 -12.705  1.00  0.00     0.148 A 
ATOM     63  C   UNL     1      -2.830  -3.449 -12.779  1.00  0.00     0.002 A 
ATOM     64  C   UNL     1      -2.163  -5.781 -12.797  1.00  0.00     0.091 A 
ATOM     65  F   UNL     1       0.152  -6.329 -12.621  1.00  0.00    -0.205 F 
ATOM     66  C   UNL     1      -3.167  -4.800 -12.828  1.00  0.00     0.022 A 
BRANCH  64  67
ATOM     67  S   UNL     1      -2.680  -7.497 -12.916  1.00  0.00     0.127 S 
ATOM     68  O   UNL     1      -3.158  -7.757 -11.559  1.00  0.00    -0.237 OA
ATOM     69  O   UNL     1      -3.731  -7.437 -13.932  1.00  0.00    -0.237 OA
ATOM     70  O   UNL     1      -1.494  -8.240 -13.320  1.00  0.00    -0.744 OA
ENDBRANCH  64  67
ENDBRANCH  46  60
BRANCH  47  71
ATOM     71  C   UNL     1       8.985  -0.905 -11.769  1.00  0.00     0.023 A 
ATOM     72  C   UNL     1       9.353   0.288 -12.419  1.00  0.00     0.012 A 
ATOM     73  C   UNL     1       9.942  -1.576 -10.983  1.00  0.00     0.148 A 
ATOM     74  C   UNL     1      10.648   0.797 -12.295  1.00  0.00     0.002 A 
ATOM     75  C   UNL     1      11.208  -1.029 -10.808  1.00  0.00     0.091 A 
ATOM     76  F   UNL     1       9.596  -2.736 -10.406  1.00  0.00    -0.205 F 
ATOM     77  C   UNL     1      11.569   0.149 -11.475  1.00  0.00     0.022 A 
BRANCH  75  78
ATOM     78  S   UNL     1      12.379  -1.730  -9.639  1.00  0.00     0.127 S 
ATOM     79  O   UNL     1      13.237  -2.526 -10.512  1.00  0.00    -0.237 OA
ATOM     80  O   UNL     1      13.012  -0.536  -9.076  1.00  0.00    -0.237 OA
ATOM     81  O   UNL     1      11.564  -2.473  -8.686  1.00  0.00    -0.744 OA
ENDBRANCH  75  78
ENDBRANCH  47  71
BRANCH  59  82
ATOM     82  C   UNL     1       5.210  -3.454 -17.059  1.00  0.00     0.023 A 
ATOM     83  C   UNL     1       5.952  -4.618 -17.341  1.00  0.00     0.012 A 
ATOM     84  C   UNL     1       4.728  -2.663 -18.118  1.00  0.00     0.148 A 
ATOM     85  C   UNL     1       6.228  -4.978 -18.658  1.00  0.00     0.002 A 
ATOM     86  C   UNL     1       4.973  -3.050 -19.430  1.00  0.00     0.091 A 
ATOM     87  F   UNL     1       4.043  -1.547 -17.825  1.00  0.00    -0.205 F 
ATOM     88  C   UNL     1       5.728  -4.202 -19.702  1.00  0.00     0.022 A 
BRANCH  86  89
ATOM     89  S   UNL     1       4.292  -2.155 -20.831  1.00  0.00     0.127 S 
ATOM     90  O   UNL     1       5.453  -1.399 -21.295  1.00  0.00    -0.237 OA
ATOM     91  O   UNL     1       3.873  -3.237 -21.722  1.00  0.00    -0.237 OA
ATOM     92  O   UNL     1       3.195  -1.360 -20.296  1.00  0.00    -0.744 OA
ENDBRANCH  86  89
ENDBRANCH  59  82
ENDBRANCH  33  34
ENDBRANCH  26  28
ENDBRANCH  25  26
ENDBRANCH  24  25
ENDBRANCH  23  24
ENDBRANCH   1  23
TORSDOF 21
