REMARK SMILES COCC[C@H](NC(=O)c1ccc(Br)nc1)C(=O)OCCOC(=O)c1ccc(-c2c3nc(c(-c4cccc(S(=O)(=O)[O-])c4F)c4ccc([nH]4)c(-c4cccc(S(=O)(=O)[O-])c4F)c4nc(c(-c5cccc(S(=O)(=O)[O-])c5F)c5ccc2[nH]5)C=C4)C=C3)cc1
REMARK SMILES IDX 19 1 18 2 16 3 17 4 5 5 4 6 3 7 2 8 1 9 6 10 7 11 8 13 9 14
REMARK SMILES IDX 10 15 15 16 11 17 14 18 12 19 13 20 20 21 21 22 22 23 23 24
REMARK SMILES IDX 24 25 25 26 86 27 26 28 85 29 27 30 28 31 29 32 79 33 30 34
REMARK SMILES IDX 84 35 78 36 80 37 31 38 83 39 77 40 76 41 32 43 64 44 44 45
REMARK SMILES IDX 63 46 45 47 48 48 62 49 81 50 46 51 47 52 61 54 82 55 49 56
REMARK SMILES IDX 33 57 34 58 42 59 35 60 37 61 43 62 36 63 38 64 39 65 40 66
REMARK SMILES IDX 41 67 65 68 66 69 74 70 67 71 69 72 75 73 68 74 70 75 71 76
REMARK SMILES IDX 72 77 73 78 50 79 51 80 59 81 52 82 54 83 60 84 53 85 55 86
REMARK SMILES IDX 56 87 57 88 58 89
REMARK H PARENT 6 12 80 42 48 53
REMARK Flexibility Score: inf
ROOT
ATOM      1  C   UNL     1       0.029   1.381  -5.824  1.00  0.00     0.274 C 
ENDROOT
BRANCH   1   2
ATOM      2  O   UNL     1       0.459   0.434  -4.825  1.00  0.00    -0.461 OA
BRANCH   2   3
ATOM      3  C   UNL     1       1.189   0.900  -3.784  1.00  0.00     0.328 C 
ATOM      4  O   UNL     1       1.572   2.059  -3.665  1.00  0.00    -0.250 OA
BRANCH   3   5
ATOM      5  C   UNL     1       1.447  -0.177  -2.704  1.00  0.00     0.194 C 
BRANCH   5   6
ATOM      6  C   UNL     1       2.861  -0.053  -2.115  1.00  0.00     0.065 C 
BRANCH   6   7
ATOM      7  C   UNL     1       2.911   0.872  -0.893  1.00  0.00     0.162 C 
BRANCH   7   8
ATOM      8  O   UNL     1       2.713   0.137   0.315  1.00  0.00    -0.385 OA
ATOM      9  C   UNL     1       1.371   0.115   0.779  1.00  0.00     0.194 C 
ENDBRANCH   7   8
ENDBRANCH   6   7
ENDBRANCH   5   6
BRANCH   5  10
ATOM     10  N   UNL     1       1.036  -1.571  -2.933  1.00  0.00    -0.338 N 
ATOM     11  C   UNL     1       1.360  -2.479  -3.901  1.00  0.00     0.253 C 
ATOM     12  H   UNL     1       0.407  -1.916  -2.260  1.00  0.00     0.164 HD
ATOM     13  O   UNL     1       0.982  -3.643  -3.826  1.00  0.00    -0.269 OA
BRANCH  11  14
ATOM     14  C   UNL     1       2.070  -2.043  -5.103  1.00  0.00     0.058 A 
ATOM     15  C   UNL     1       3.364  -1.541  -5.082  1.00  0.00     0.018 A 
ATOM     16  C   UNL     1       1.390  -2.102  -6.312  1.00  0.00     0.126 A 
ATOM     17  C   UNL     1       3.903  -1.035  -6.263  1.00  0.00     0.037 A 
ATOM     18  N   UNL     1       1.894  -1.626  -7.475  1.00  0.00    -0.249 NA
ATOM     19  C   UNL     1       3.133  -1.088  -7.420  1.00  0.00     0.106 A 
ATOM     20  Br  UNL     1       3.837  -0.348  -9.018  1.00  0.00    -0.029 Br
ENDBRANCH  11  14
ENDBRANCH   5  10
ENDBRANCH   3   5
ENDBRANCH   2   3
ENDBRANCH   1   2
BRANCH   1  21
ATOM     21  C   UNL     1      -1.499   1.375  -5.919  1.00  0.00     0.275 C 
BRANCH  21  22
ATOM     22  O   UNL     1      -2.088   1.982  -4.752  1.00  0.00    -0.458 OA
BRANCH  22  23
ATOM     23  C   UNL     1      -2.268   1.143  -3.706  1.00  0.00     0.338 C 
ATOM     24  O   UNL     1      -2.047  -0.056  -3.671  1.00  0.00    -0.246 OA
BRANCH  23  25
ATOM     25  C   UNL     1      -2.609   1.910  -2.500  1.00  0.00     0.060 A 
ATOM     26  C   UNL     1      -1.745   1.794  -1.411  1.00  0.00     0.016 A 
ATOM     27  C   UNL     1      -3.791   2.641  -2.392  1.00  0.00     0.016 A 
ATOM     28  C   UNL     1      -2.075   2.359  -0.189  1.00  0.00     0.010 A 
ATOM     29  C   UNL     1      -4.113   3.234  -1.165  1.00  0.00     0.010 A 
ATOM     30  C   UNL     1      -3.270   3.072  -0.050  1.00  0.00    -0.014 A 
BRANCH  30  31
ATOM     31  C   UNL     1      -3.633   3.585   1.292  1.00  0.00     0.031 A 
ATOM     32  C   UNL     1      -4.764   2.958   2.055  1.00  0.00     0.074 A 
ATOM     33  C   UNL     1      -2.898   4.568   1.846  1.00  0.00     0.049 A 
ATOM     34  N   UNL     1      -5.223   3.260   3.241  1.00  0.00    -0.248 NA
ATOM     35  C   UNL     1      -5.474   1.847   1.400  1.00  0.00     0.031 C 
ATOM     36  C   UNL     1      -1.765   5.237   1.203  1.00  0.00     0.029 A 
ATOM     37  N   UNL     1      -2.989   5.171   3.074  1.00  0.00    -0.354 N 
ATOM     38  C   UNL     1      -6.303   2.413   3.457  1.00  0.00     0.074 A 
ATOM     39  C   UNL     1      -6.431   1.583   2.279  1.00  0.00     0.031 C 
ATOM     40  C   UNL     1      -1.260   6.151   2.046  1.00  0.00     0.029 A 
ATOM     41  C   UNL     1      -2.056   6.162   3.269  1.00  0.00     0.049 A 
ATOM     42  H   UNL     1      -3.657   4.918   3.751  1.00  0.00     0.167 HD
ATOM     43  C   UNL     1      -7.105   2.325   4.545  1.00  0.00     0.034 A 
ATOM     44  C   UNL     1      -1.874   6.997   4.311  1.00  0.00     0.034 A 
ATOM     45  C   UNL     1      -6.942   3.121   5.732  1.00  0.00     0.049 A 
ATOM     46  C   UNL     1      -2.771   6.865   5.511  1.00  0.00     0.074 A 
ATOM     47  C   UNL     1      -7.686   3.088   6.899  1.00  0.00     0.029 A 
ATOM     48  N   UNL     1      -5.965   4.089   5.908  1.00  0.00    -0.354 N 
ATOM     49  N   UNL     1      -3.737   6.006   5.728  1.00  0.00    -0.248 NA
ATOM     50  C   UNL     1      -2.534   7.799   6.620  1.00  0.00     0.031 C 
ATOM     51  C   UNL     1      -7.163   4.044   7.777  1.00  0.00     0.029 A 
ATOM     52  C   UNL     1      -6.085   4.661   7.163  1.00  0.00     0.049 A 
ATOM     53  H   UNL     1      -5.285   4.333   5.239  1.00  0.00     0.167 HD
ATOM     54  C   UNL     1      -4.210   6.280   7.005  1.00  0.00     0.074 A 
ATOM     55  C   UNL     1      -3.401   7.364   7.525  1.00  0.00     0.031 C 
ATOM     56  C   UNL     1      -5.237   5.705   7.680  1.00  0.00     0.034 A 
BRANCH  43  57
ATOM     57  C   UNL     1      -8.219   1.314   4.509  1.00  0.00     0.023 A 
ATOM     58  C   UNL     1      -7.923  -0.056   4.663  1.00  0.00     0.012 A 
ATOM     59  C   UNL     1      -9.560   1.720   4.367  1.00  0.00     0.148 A 
ATOM     60  C   UNL     1      -8.943  -1.007   4.650  1.00  0.00     0.002 A 
ATOM     61  C   UNL     1     -10.574   0.769   4.393  1.00  0.00     0.091 A 
ATOM     62  F   UNL     1      -9.818   3.024   4.192  1.00  0.00    -0.205 F 
ATOM     63  C   UNL     1     -10.267  -0.595   4.525  1.00  0.00     0.022 A 
BRANCH  61  64
ATOM     64  S   UNL     1     -12.313   1.212   4.308  1.00  0.00     0.127 S 
ATOM     65  O   UNL     1     -12.653   0.812   2.943  1.00  0.00    -0.237 OA
ATOM     66  O   UNL     1     -12.899   0.372   5.353  1.00  0.00    -0.237 OA
ATOM     67  O   UNL     1     -12.373   2.642   4.577  1.00  0.00    -0.744 OA
ENDBRANCH  61  64
ENDBRANCH  43  57
BRANCH  44  68
ATOM     68  C   UNL     1      -0.772   7.998   4.275  1.00  0.00     0.023 A 
ATOM     69  C   UNL     1       0.331   7.849   5.136  1.00  0.00     0.012 A 
ATOM     70  C   UNL     1      -0.791   9.073   3.365  1.00  0.00     0.148 A 
ATOM     71  C   UNL     1       1.384   8.764   5.108  1.00  0.00     0.002 A 
ATOM     72  C   UNL     1       0.288   9.946   3.300  1.00  0.00     0.091 A 
ATOM     73  F   UNL     1      -1.860   9.214   2.568  1.00  0.00    -0.205 F 
ATOM     74  C   UNL     1       1.370   9.803   4.182  1.00  0.00     0.022 A 
BRANCH  72  75
ATOM     75  S   UNL     1       0.409  11.218   2.037  1.00  0.00     0.127 S 
ATOM     76  O   UNL     1       0.078  12.423   2.792  1.00  0.00    -0.237 OA
ATOM     77  O   UNL     1       1.811  11.111   1.628  1.00  0.00    -0.237 OA
ATOM     78  O   UNL     1      -0.542  10.828   1.005  1.00  0.00    -0.744 OA
ENDBRANCH  72  75
ENDBRANCH  44  68
BRANCH  56  79
ATOM     79  C   UNL     1      -5.530   6.225   9.062  1.00  0.00     0.023 A 
ATOM     80  C   UNL     1      -6.146   7.483   9.215  1.00  0.00     0.012 A 
ATOM     81  C   UNL     1      -5.245   5.450  10.203  1.00  0.00     0.148 A 
ATOM     82  C   UNL     1      -6.443   7.977  10.484  1.00  0.00     0.002 A 
ATOM     83  C   UNL     1      -5.584   5.930  11.463  1.00  0.00     0.091 A 
ATOM     84  F   UNL     1      -4.637   4.266  10.040  1.00  0.00    -0.205 F 
ATOM     85  C   UNL     1      -6.172   7.197  11.606  1.00  0.00     0.022 A 
BRANCH  83  86
ATOM     86  S   UNL     1      -5.349   4.946  12.947  1.00  0.00     0.127 S 
ATOM     87  O   UNL     1      -4.099   5.491  13.473  1.00  0.00    -0.237 OA
ATOM     88  O   UNL     1      -6.537   5.274  13.736  1.00  0.00    -0.237 OA
ATOM     89  O   UNL     1      -5.297   3.562  12.494  1.00  0.00    -0.744 OA
ENDBRANCH  83  86
ENDBRANCH  56  79
ENDBRANCH  30  31
ENDBRANCH  23  25
ENDBRANCH  22  23
ENDBRANCH  21  22
ENDBRANCH   1  21
TORSDOF 19
