REMARK SMILES Cc1cccc(-n2nc(Br)c(C(=O)OCCOC(=O)c3ccc(-c4c5nc(c(-c6cccc(S(=O)(=O)[O-])c6F)c6ccc([nH]6)c(-c6cccc(S(=O)(=O)[O-])c6F)c6nc(c(-c7cccc(S(=O)(=O)[O-])c7F)c7ccc4[nH]7)C=C6)C=C5)cc3)n2)c1
REMARK SMILES IDX 16 1 15 2 14 3 12 4 13 5 11 6 7 7 8 8 83 9 9 10 10 11 6 12
REMARK SMILES IDX 1 13 2 14 3 15 84 16 4 17 5 18 17 19 18 20 19 21 20 22 21 23
REMARK SMILES IDX 82 24 22 25 81 26 23 27 24 28 25 29 75 30 26 31 80 32 74 33
REMARK SMILES IDX 76 34 27 35 79 36 73 37 72 38 28 40 60 41 40 42 59 43 41 44
REMARK SMILES IDX 44 45 58 46 77 47 42 48 43 49 57 51 78 52 45 53 29 54 30 55
REMARK SMILES IDX 38 56 31 57 33 58 39 59 32 60 34 61 35 62 36 63 37 64 61 65
REMARK SMILES IDX 62 66 70 67 63 68 65 69 71 70 64 71 66 72 67 73 68 74 69 75
REMARK SMILES IDX 46 76 47 77 55 78 48 79 50 80 56 81 49 82 51 83 52 84 53 85
REMARK SMILES IDX 54 86
REMARK H PARENT 76 39 44 50
REMARK Flexibility Score: inf
ROOT
ATOM      1  C   UNL     1      -3.958   5.889  -5.252  1.00  0.00     0.275 C 
ENDROOT
BRANCH   1   2
ATOM      2  C   UNL     1      -2.603   5.189  -4.991  1.00  0.00     0.275 C 
BRANCH   2   3
ATOM      3  O   UNL     1      -2.424   4.500  -3.757  1.00  0.00    -0.457 OA
BRANCH   3   4
ATOM      4  C   UNL     1      -3.312   3.512  -3.477  1.00  0.00     0.361 C 
ATOM      5  O   UNL     1      -4.223   3.186  -4.230  1.00  0.00    -0.244 OA
BRANCH   4   6
ATOM      6  C   UNL     1      -3.061   2.869  -2.200  1.00  0.00     0.205 A 
ATOM      7  N   UNL     1      -2.129   1.690  -0.725  1.00  0.00    -0.150 N 
ATOM      8  N   UNL     1      -3.441   1.612  -0.379  1.00  0.00    -0.140 NA
ATOM      9  N   UNL     1      -1.831   2.538  -1.751  1.00  0.00    -0.140 NA
ATOM     10  C   UNL     1      -4.012   2.392  -1.289  1.00  0.00     0.163 A 
ATOM     11  Br  UNL     1      -5.862   2.704  -1.342  1.00  0.00    -0.024 Br
BRANCH   7  12
ATOM     12  C   UNL     1      -1.205   0.702  -0.299  1.00  0.00     0.086 A 
ATOM     13  C   UNL     1       2.548   0.065  -0.132  1.00  0.00     0.044 C 
ATOM     14  C   UNL     1       1.060  -0.134  -0.075  1.00  0.00    -0.049 A 
ATOM     15  C   UNL     1       0.543  -1.387   0.285  1.00  0.00     0.003 A 
ATOM     16  C   UNL     1       0.177   0.905  -0.409  1.00  0.00     0.033 A 
ATOM     17  C   UNL     1      -0.832  -1.585   0.398  1.00  0.00     0.003 A 
ATOM     18  C   UNL     1      -1.705  -0.534   0.141  1.00  0.00     0.030 A 
ENDBRANCH   7  12
ENDBRANCH   4   6
ENDBRANCH   3   4
ENDBRANCH   2   3
ENDBRANCH   1   2
BRANCH   1  19
ATOM     19  O   UNL     1      -5.013   5.936  -4.247  1.00  0.00    -0.458 OA
BRANCH  19  20
ATOM     20  C   UNL     1      -5.041   6.410  -2.969  1.00  0.00     0.338 C 
ATOM     21  O   UNL     1      -6.056   6.503  -2.330  1.00  0.00    -0.246 OA
BRANCH  20  22
ATOM     22  C   UNL     1      -3.737   6.730  -2.376  1.00  0.00     0.060 A 
ATOM     23  C   UNL     1      -3.348   6.138  -1.162  1.00  0.00     0.016 A 
ATOM     24  C   UNL     1      -2.884   7.548  -3.098  1.00  0.00     0.016 A 
ATOM     25  C   UNL     1      -2.048   6.321  -0.698  1.00  0.00     0.010 A 
ATOM     26  C   UNL     1      -1.566   7.593  -2.732  1.00  0.00     0.010 A 
ATOM     27  C   UNL     1      -1.170   7.056  -1.492  1.00  0.00    -0.014 A 
BRANCH  27  28
ATOM     28  C   UNL     1       0.032   7.696  -0.980  1.00  0.00     0.031 A 
ATOM     29  C   UNL     1       1.318   7.019  -0.806  1.00  0.00     0.074 A 
ATOM     30  C   UNL     1      -0.128   9.036  -0.894  1.00  0.00     0.049 A 
ATOM     31  N   UNL     1       2.266   7.507  -0.086  1.00  0.00    -0.248 NA
ATOM     32  C   UNL     1       1.645   5.731  -1.405  1.00  0.00     0.031 C 
ATOM     33  C   UNL     1       0.837  10.112  -0.915  1.00  0.00     0.029 A 
ATOM     34  N   UNL     1      -1.359   9.684  -0.708  1.00  0.00    -0.354 N 
ATOM     35  C   UNL     1       3.404   6.776  -0.350  1.00  0.00     0.074 A 
ATOM     36  C   UNL     1       2.943   5.622  -1.090  1.00  0.00     0.031 C 
ATOM     37  C   UNL     1       0.216  11.244  -0.524  1.00  0.00     0.029 A 
ATOM     38  C   UNL     1      -1.111  10.875  -0.039  1.00  0.00     0.049 A 
ATOM     39  H   UNL     1      -2.239   9.354  -1.000  1.00  0.00     0.167 HD
ATOM     40  C   UNL     1       4.617   7.338  -0.072  1.00  0.00     0.034 A 
ATOM     41  C   UNL     1      -1.634  11.104   1.204  1.00  0.00     0.034 A 
ATOM     42  C   UNL     1       4.429   8.677   0.516  1.00  0.00     0.049 A 
ATOM     43  C   UNL     1      -0.518  11.228   2.226  1.00  0.00     0.074 A 
ATOM     44  C   UNL     1       4.387   9.935  -0.066  1.00  0.00     0.029 A 
ATOM     45  N   UNL     1       3.891   8.818   1.790  1.00  0.00    -0.354 N 
ATOM     46  N   UNL     1       0.728  10.930   1.982  1.00  0.00    -0.248 NA
ATOM     47  C   UNL     1      -0.729  11.636   3.611  1.00  0.00     0.031 C 
ATOM     48  C   UNL     1       3.714  10.810   0.828  1.00  0.00     0.029 A 
ATOM     49  C   UNL     1       3.381  10.100   1.968  1.00  0.00     0.049 A 
ATOM     50  H   UNL     1       3.874   8.109   2.473  1.00  0.00     0.167 HD
ATOM     51  C   UNL     1       1.443  10.950   3.142  1.00  0.00     0.074 A 
ATOM     52  C   UNL     1       0.505  11.475   4.121  1.00  0.00     0.031 C 
ATOM     53  C   UNL     1       2.718  10.464   3.219  1.00  0.00     0.034 A 
BRANCH  40  54
ATOM     54  C   UNL     1       5.942   6.882  -0.670  1.00  0.00     0.023 A 
ATOM     55  C   UNL     1       6.939   7.872  -0.846  1.00  0.00     0.012 A 
ATOM     56  C   UNL     1       6.273   5.585  -1.127  1.00  0.00     0.148 A 
ATOM     57  C   UNL     1       8.136   7.632  -1.527  1.00  0.00     0.002 A 
ATOM     58  C   UNL     1       7.451   5.353  -1.853  1.00  0.00     0.091 A 
ATOM     59  F   UNL     1       5.486   4.552  -0.806  1.00  0.00    -0.205 F 
ATOM     60  C   UNL     1       8.379   6.379  -2.062  1.00  0.00     0.022 A 
BRANCH  58  61
ATOM     61  S   UNL     1       7.829   3.773  -2.635  1.00  0.00     0.127 S 
ATOM     62  O   UNL     1       8.111   4.171  -4.017  1.00  0.00    -0.237 OA
ATOM     63  O   UNL     1       8.999   3.322  -1.885  1.00  0.00    -0.237 OA
ATOM     64  O   UNL     1       6.633   2.952  -2.486  1.00  0.00    -0.744 OA
ENDBRANCH  58  61
ENDBRANCH  40  54
BRANCH  41  65
ATOM     65  C   UNL     1      -2.936  10.382   1.464  1.00  0.00     0.023 A 
ATOM     66  C   UNL     1      -4.008  10.585   0.554  1.00  0.00     0.012 A 
ATOM     67  C   UNL     1      -2.985   9.251   2.297  1.00  0.00     0.148 A 
ATOM     68  C   UNL     1      -5.008   9.618   0.383  1.00  0.00     0.002 A 
ATOM     69  C   UNL     1      -3.972   8.283   2.104  1.00  0.00     0.091 A 
ATOM     70  F   UNL     1      -2.032   9.079   3.221  1.00  0.00    -0.205 F 
ATOM     71  C   UNL     1      -4.970   8.450   1.136  1.00  0.00     0.022 A 
BRANCH  69  72
ATOM     72  S   UNL     1      -3.833   6.707   2.958  1.00  0.00     0.127 S 
ATOM     73  O   UNL     1      -4.683   5.824   2.160  1.00  0.00    -0.237 OA
ATOM     74  O   UNL     1      -2.413   6.396   2.865  1.00  0.00    -0.237 OA
ATOM     75  O   UNL     1      -4.353   7.034   4.282  1.00  0.00    -0.744 OA
ENDBRANCH  69  72
ENDBRANCH  41  65
BRANCH  53  76
ATOM     76  C   UNL     1       3.464  10.283   4.513  1.00  0.00     0.023 A 
ATOM     77  C   UNL     1       2.807   9.965   5.715  1.00  0.00     0.012 A 
ATOM     78  C   UNL     1       4.879  10.271   4.520  1.00  0.00     0.148 A 
ATOM     79  C   UNL     1       3.518   9.725   6.893  1.00  0.00     0.002 A 
ATOM     80  C   UNL     1       5.580   9.911   5.663  1.00  0.00     0.091 A 
ATOM     81  F   UNL     1       5.555  10.625   3.415  1.00  0.00    -0.205 F 
ATOM     82  C   UNL     1       4.906   9.674   6.863  1.00  0.00     0.022 A 
BRANCH  80  83
ATOM     83  S   UNL     1       7.342   9.575   5.575  1.00  0.00     0.127 S 
ATOM     84  O   UNL     1       7.919  10.889   5.850  1.00  0.00    -0.237 OA
ATOM     85  O   UNL     1       7.533   8.591   6.643  1.00  0.00    -0.237 OA
ATOM     86  O   UNL     1       7.554   9.045   4.234  1.00  0.00    -0.744 OA
ENDBRANCH  80  83
ENDBRANCH  53  76
ENDBRANCH  27  28
ENDBRANCH  20  22
ENDBRANCH  19  20
ENDBRANCH   1  19
TORSDOF 15
