REMARK SMILES CCCCCCCNC(=O)Oc1cccc(-c2ccc([C@@H](C)C(=O)OCCOC(=O)c3ccc(-c4c5nc(c(-c6cccc(S(=O)(=O)[O-])c6F)c6ccc([nH]6)c(-c6cccc(S(=O)(=O)[O-])c6F)c6nc(c(-c7cccc(S(=O)(=O)[O-])c7F)c7ccc4[nH]7)C=C6)C=C5)cc3)cc2F)c1
REMARK SMILES IDX 21 1 22 2 20 3 17 4 18 5 95 6 19 7 94 8 96 9 16 10 12 11
REMARK SMILES IDX 13 12 97 13 14 14 15 15 11 16 9 17 8 18 10 20 7 21 6 22 5 23
REMARK SMILES IDX 4 24 3 25 2 26 1 27 23 28 24 29 25 30 26 31 27 32 28 33
REMARK SMILES IDX 29 34 30 35 31 36 32 37 93 38 33 39 92 40 34 41 35 42 36 43
REMARK SMILES IDX 86 44 37 45 91 46 85 47 87 48 38 49 90 50 84 51 83 52 39 54
REMARK SMILES IDX 71 55 51 56 70 57 52 58 55 59 69 60 88 61 53 62 54 63 68 65
REMARK SMILES IDX 89 66 56 67 40 68 41 69 49 70 42 71 44 72 50 73 43 74 45 75
REMARK SMILES IDX 46 76 47 77 48 78 72 79 73 80 81 81 74 82 76 83 82 84 75 85
REMARK SMILES IDX 77 86 78 87 79 88 80 89 57 90 58 91 66 92 59 93 61 94 67 95
REMARK SMILES IDX 60 96 62 97 63 98 64 99 65 100
REMARK H PARENT 8 19 87 53 55 64
REMARK Flexibility Score: inf
ROOT
ATOM      1  C   UNL     1     -10.673   8.499   6.726  1.00  0.00     0.126 C 
ATOM      2  C   UNL     1     -11.490   8.728   7.996  1.00  0.00     0.025 C 
ENDROOT
BRANCH   1   3
ATOM      3  C   UNL     1      -9.333   7.840   7.017  1.00  0.00    -0.031 A 
ATOM      4  C   UNL     1      -6.850   6.545   7.556  1.00  0.00     0.018 A 
ATOM      5  C   UNL     1      -7.157   7.799   8.112  1.00  0.00     0.012 A 
ATOM      6  C   UNL     1      -7.807   5.969   6.712  1.00  0.00     0.131 A 
ATOM      7  C   UNL     1      -8.380   8.431   7.856  1.00  0.00     0.005 A 
ATOM      8  C   UNL     1      -9.026   6.596   6.444  1.00  0.00     0.044 A 
ATOM      9  F   UNL     1      -7.588   4.763   6.163  1.00  0.00    -0.206 F 
BRANCH   4  10
ATOM     10  C   UNL     1      -5.586   5.865   7.890  1.00  0.00    -0.012 A 
ATOM     11  C   UNL     1      -3.563   4.685   7.255  1.00  0.00     0.133 A 
ATOM     12  C   UNL     1      -3.193   4.537   8.590  1.00  0.00     0.047 A 
ATOM     13  C   UNL     1      -4.749   5.329   6.897  1.00  0.00     0.056 A 
ATOM     14  C   UNL     1      -4.010   5.063   9.584  1.00  0.00     0.004 A 
ATOM     15  C   UNL     1      -5.194   5.719   9.236  1.00  0.00     0.009 A 
BRANCH  11  16
ATOM     16  O   UNL     1      -2.753   4.038   6.307  1.00  0.00    -0.410 OA
BRANCH  16  17
ATOM     17  C   UNL     1      -2.261   4.780   5.243  1.00  0.00     0.412 C 
ATOM     18  N   UNL     1      -1.497   4.036   4.384  1.00  0.00    -0.321 N 
ATOM     19  H   UNL     1      -1.150   4.500   3.589  1.00  0.00     0.167 HD
ATOM     20  O   UNL     1      -2.433   5.978   5.059  1.00  0.00    -0.224 OA
BRANCH  18  21
ATOM     21  C   UNL     1      -1.146   2.636   4.524  1.00  0.00     0.119 C 
BRANCH  21  22
ATOM     22  C   UNL     1      -1.630   1.791   3.347  1.00  0.00     0.021 C 
BRANCH  22  23
ATOM     23  C   UNL     1      -1.013   2.155   1.991  1.00  0.00     0.002 C 
BRANCH  23  24
ATOM     24  C   UNL     1       0.515   2.064   1.915  1.00  0.00     0.000 C 
BRANCH  24  25
ATOM     25  C   UNL     1       1.107   0.678   2.193  1.00  0.00    -0.000 C 
BRANCH  25  26
ATOM     26  C   UNL     1       0.655  -0.432   1.240  1.00  0.00    -0.003 C 
ATOM     27  C   UNL     1       1.026  -0.171  -0.212  1.00  0.00     0.004 C 
ENDBRANCH  25  26
ENDBRANCH  24  25
ENDBRANCH  23  24
ENDBRANCH  22  23
ENDBRANCH  21  22
ENDBRANCH  18  21
ENDBRANCH  16  17
ENDBRANCH  11  16
ENDBRANCH   4  10
ENDBRANCH   1   3
BRANCH   1  28
ATOM     28  C   UNL     1     -10.634   9.780   5.902  1.00  0.00     0.313 C 
ATOM     29  O   UNL     1     -11.592  10.147   5.228  1.00  0.00    -0.252 OA
BRANCH  28  30
ATOM     30  O   UNL     1      -9.478  10.482   6.028  1.00  0.00    -0.462 OA
BRANCH  30  31
ATOM     31  C   UNL     1      -9.326  11.643   5.189  1.00  0.00     0.274 C 
BRANCH  31  32
ATOM     32  C   UNL     1      -8.435  11.338   3.983  1.00  0.00     0.275 C 
BRANCH  32  33
ATOM     33  O   UNL     1      -9.103  10.480   3.043  1.00  0.00    -0.458 OA
BRANCH  33  34
ATOM     34  C   UNL     1      -8.871   9.158   3.207  1.00  0.00     0.338 C 
ATOM     35  O   UNL     1      -8.147   8.629   4.031  1.00  0.00    -0.246 OA
BRANCH  34  36
ATOM     36  C   UNL     1      -9.725   8.397   2.288  1.00  0.00     0.060 A 
ATOM     37  C   UNL     1     -10.760   7.622   2.818  1.00  0.00     0.016 A 
ATOM     38  C   UNL     1      -9.450   8.387   0.921  1.00  0.00     0.016 A 
ATOM     39  C   UNL     1     -11.522   6.812   1.980  1.00  0.00     0.010 A 
ATOM     40  C   UNL     1     -10.221   7.584   0.082  1.00  0.00     0.010 A 
ATOM     41  C   UNL     1     -11.249   6.780   0.608  1.00  0.00    -0.014 A 
BRANCH  41  42
ATOM     42  C   UNL     1     -11.996   5.877  -0.295  1.00  0.00     0.031 A 
ATOM     43  C   UNL     1     -11.301   4.679  -0.874  1.00  0.00     0.074 A 
ATOM     44  C   UNL     1     -13.260   6.175  -0.645  1.00  0.00     0.049 A 
ATOM     45  N   UNL     1     -11.694   3.876  -1.825  1.00  0.00    -0.248 NA
ATOM     46  C   UNL     1      -9.979   4.351  -0.313  1.00  0.00     0.031 C 
ATOM     47  C   UNL     1     -14.035   7.304  -0.130  1.00  0.00     0.029 A 
ATOM     48  N   UNL     1     -14.099   5.577  -1.552  1.00  0.00    -0.354 N 
ATOM     49  C   UNL     1     -10.650   2.981  -2.018  1.00  0.00     0.074 A 
ATOM     50  C   UNL     1      -9.609   3.332  -1.077  1.00  0.00     0.031 C 
ATOM     51  C   UNL     1     -15.222   7.341  -0.757  1.00  0.00     0.029 A 
ATOM     52  C   UNL     1     -15.271   6.269  -1.747  1.00  0.00     0.049 A 
ATOM     53  H   UNL     1     -13.882   4.736  -2.016  1.00  0.00     0.167 HD
ATOM     54  C   UNL     1     -10.573   1.956  -2.899  1.00  0.00     0.034 A 
ATOM     55  C   UNL     1     -16.252   6.083  -2.652  1.00  0.00     0.034 A 
ATOM     56  C   UNL     1     -11.632   1.593  -3.800  1.00  0.00     0.049 A 
ATOM     57  C   UNL     1     -16.138   4.941  -3.626  1.00  0.00     0.074 A 
ATOM     58  C   UNL     1     -11.674   0.545  -4.702  1.00  0.00     0.029 A 
ATOM     59  N   UNL     1     -12.838   2.269  -3.914  1.00  0.00    -0.354 N 
ATOM     60  N   UNL     1     -15.184   4.048  -3.740  1.00  0.00    -0.248 NA
ATOM     61  C   UNL     1     -17.243   4.764  -4.580  1.00  0.00     0.031 C 
ATOM     62  C   UNL     1     -12.901   0.595  -5.370  1.00  0.00     0.029 A 
ATOM     63  C   UNL     1     -13.630   1.664  -4.872  1.00  0.00     0.049 A 
ATOM     64  H   UNL     1     -13.092   3.063  -3.390  1.00  0.00     0.167 HD
ATOM     65  C   UNL     1     -15.589   3.183  -4.750  1.00  0.00     0.074 A 
ATOM     66  C   UNL     1     -16.881   3.653  -5.209  1.00  0.00     0.031 C 
ATOM     67  C   UNL     1     -14.945   2.106  -5.261  1.00  0.00     0.034 A 
BRANCH  54  68
ATOM     68  C   UNL     1      -9.312   1.136  -2.913  1.00  0.00     0.023 A 
ATOM     69  C   UNL     1      -9.070   0.214  -1.875  1.00  0.00     0.012 A 
ATOM     70  C   UNL     1      -8.397   1.234  -3.979  1.00  0.00     0.148 A 
ATOM     71  C   UNL     1      -7.923  -0.580  -1.885  1.00  0.00     0.002 A 
ATOM     72  C   UNL     1      -7.275   0.413  -4.001  1.00  0.00     0.091 A 
ATOM     73  F   UNL     1      -8.632   2.134  -4.944  1.00  0.00    -0.205 F 
ATOM     74  C   UNL     1      -7.032  -0.488  -2.951  1.00  0.00     0.022 A 
BRANCH  72  75
ATOM     75  S   UNL     1      -6.108   0.409  -5.367  1.00  0.00     0.127 S 
ATOM     76  O   UNL     1      -4.966   1.109  -4.782  1.00  0.00    -0.237 OA
ATOM     77  O   UNL     1      -5.896  -1.021  -5.591  1.00  0.00    -0.237 OA
ATOM     78  O   UNL     1      -6.774   1.100  -6.463  1.00  0.00    -0.744 OA
ENDBRANCH  72  75
ENDBRANCH  54  68
BRANCH  55  79
ATOM     79  C   UNL     1     -17.437   6.986  -2.655  1.00  0.00     0.023 A 
ATOM     80  C   UNL     1     -18.684   6.487  -2.234  1.00  0.00     0.012 A 
ATOM     81  C   UNL     1     -17.331   8.340  -3.030  1.00  0.00     0.148 A 
ATOM     82  C   UNL     1     -19.808   7.313  -2.206  1.00  0.00     0.002 A 
ATOM     83  C   UNL     1     -18.442   9.171  -2.949  1.00  0.00     0.091 A 
ATOM     84  F   UNL     1     -16.140   8.793  -3.447  1.00  0.00    -0.205 F 
ATOM     85  C   UNL     1     -19.686   8.656  -2.551  1.00  0.00     0.022 A 
BRANCH  83  86
ATOM     86  S   UNL     1     -18.344  10.940  -3.252  1.00  0.00     0.127 S 
ATOM     87  O   UNL     1     -18.988  11.057  -4.557  1.00  0.00    -0.237 OA
ATOM     88  O   UNL     1     -19.115  11.484  -2.133  1.00  0.00    -0.237 OA
ATOM     89  O   UNL     1     -16.924  11.263  -3.211  1.00  0.00    -0.744 OA
ENDBRANCH  83  86
ENDBRANCH  55  79
BRANCH  67  90
ATOM     90  C   UNL     1     -15.636   1.319  -6.341  1.00  0.00     0.023 A 
ATOM     91  C   UNL     1     -15.667   1.817  -7.657  1.00  0.00     0.012 A 
ATOM     92  C   UNL     1     -16.147   0.033  -6.072  1.00  0.00     0.148 A 
ATOM     93  C   UNL     1     -16.209   1.053  -8.689  1.00  0.00     0.002 A 
ATOM     94  C   UNL     1     -16.647  -0.740  -7.112  1.00  0.00     0.091 A 
ATOM     95  F   UNL     1     -16.121  -0.412  -4.807  1.00  0.00    -0.205 F 
ATOM     96  C   UNL     1     -16.686  -0.229  -8.420  1.00  0.00     0.022 A 
BRANCH  94  97
ATOM     97  S   UNL     1     -17.193  -2.435  -6.877  1.00  0.00     0.127 S 
ATOM     98  O   UNL     1     -18.640  -2.308  -7.047  1.00  0.00    -0.237 OA
ATOM     99  O   UNL     1     -16.510  -3.134  -7.966  1.00  0.00    -0.237 OA
ATOM    100  O   UNL     1     -16.753  -2.819  -5.543  1.00  0.00    -0.744 OA
ENDBRANCH  94  97
ENDBRANCH  67  90
ENDBRANCH  41  42
ENDBRANCH  34  36
ENDBRANCH  33  34
ENDBRANCH  32  33
ENDBRANCH  31  32
ENDBRANCH  30  31
ENDBRANCH  28  30
ENDBRANCH   1  28
TORSDOF 24
