REMARK SMILES C[NH+](C)CC(C)(C)CNc1cccc(F)c1C(=O)OCCOC(=O)c1ccc(-c2c3nc(c(-c4cccc(S(=O)(=O)[O-])c4F)c4ccc([nH]4)c(-c4cccc(S(=O)(=O)[O-])c4F)c4nc(c(-c5cccc(S(=O)(=O)[O-])c5F)c5ccc2[nH]5)C=C4)C=C3)cc1
REMARK SMILES IDX 20 1 19 2 17 3 18 4 16 5 10 6 11 7 12 8 14 9 13 10 15 11
REMARK SMILES IDX 9 12 8 14 5 15 6 16 7 17 4 18 2 19 1 20 3 21 21 23 22 24
REMARK SMILES IDX 23 25 24 26 25 27 26 28 87 29 27 30 86 31 28 32 29 33 30 34
REMARK SMILES IDX 80 35 31 36 85 37 79 38 81 39 32 40 84 41 78 42 77 43 33 45
REMARK SMILES IDX 65 46 45 47 64 48 46 49 49 50 63 51 82 52 47 53 48 54 62 56
REMARK SMILES IDX 83 57 50 58 34 59 35 60 43 61 36 62 38 63 44 64 37 65 39 66
REMARK SMILES IDX 40 67 41 68 42 69 66 70 67 71 75 72 68 73 70 74 76 75 69 76
REMARK SMILES IDX 71 77 72 78 73 79 74 80 51 81 52 82 60 83 53 84 55 85 61 86
REMARK SMILES IDX 54 87 56 88 57 89 58 90 59 91
REMARK H PARENT 9 13 2 22 81 44 49 55
REMARK Flexibility Score: inf
ROOT
ATOM      1  C   UNL     1      -0.307  -6.755  -3.163  1.00  0.00     0.275 C 
ENDROOT
BRANCH   1   2
ATOM      2  O   UNL     1      -1.450  -6.003  -2.700  1.00  0.00    -0.458 OA
BRANCH   2   3
ATOM      3  C   UNL     1      -1.145  -4.807  -2.125  1.00  0.00     0.343 C 
ATOM      4  O   UNL     1      -0.024  -4.346  -2.073  1.00  0.00    -0.246 OA
BRANCH   3   5
ATOM      5  C   UNL     1      -2.333  -4.157  -1.513  1.00  0.00     0.118 A 
ATOM      6  C   UNL     1      -2.524  -2.754  -1.558  1.00  0.00     0.052 A 
ATOM      7  C   UNL     1      -3.669  -2.221  -0.934  1.00  0.00     0.027 A 
ATOM      8  C   UNL     1      -4.566  -3.030  -0.235  1.00  0.00     0.005 A 
ATOM      9  C   UNL     1      -3.223  -4.952  -0.781  1.00  0.00     0.139 A 
ATOM     10  C   UNL     1      -4.335  -4.397  -0.150  1.00  0.00     0.040 A 
ATOM     11  F   UNL     1      -3.023  -6.271  -0.637  1.00  0.00    -0.206 F 
BRANCH   6  12
ATOM     12  N   UNL     1      -1.782  -1.925  -2.390  1.00  0.00    -0.383 N 
ATOM     13  H   UNL     1      -1.697  -2.192  -3.334  1.00  0.00     0.160 HD
BRANCH  12  14
ATOM     14  C   UNL     1      -1.117  -0.690  -1.980  1.00  0.00     0.125 C 
BRANCH  14  15
ATOM     15  C   UNL     1       0.429  -0.772  -1.907  1.00  0.00     0.031 C 
ATOM     16  C   UNL     1       0.954   0.681  -1.952  1.00  0.00     0.019 C 
ATOM     17  C   UNL     1       1.016  -1.453  -3.166  1.00  0.00     0.019 C 
BRANCH  15  18
ATOM     18  C   UNL     1       0.991  -1.558  -0.686  1.00  0.00     0.269 C 
BRANCH  18  19
ATOM     19  N   UNL     1       0.703  -1.229   0.713  1.00  0.00    -0.339 N 
ATOM     20  C   UNL     1       1.115   0.091   1.141  1.00  0.00     0.332 C 
ATOM     21  C   UNL     1      -0.626  -1.589   1.166  1.00  0.00     0.332 C 
ATOM     22  H   UNL     1       1.329  -1.861   1.210  1.00  0.00     0.347 HD
ENDBRANCH  18  19
ENDBRANCH  15  18
ENDBRANCH  14  15
ENDBRANCH  12  14
ENDBRANCH   6  12
ENDBRANCH   3   5
ENDBRANCH   2   3
ENDBRANCH   1   2
BRANCH   1  23
ATOM     23  C   UNL     1      -0.279  -6.862  -4.688  1.00  0.00     0.275 C 
BRANCH  23  24
ATOM     24  O   UNL     1      -0.066  -5.580  -5.315  1.00  0.00    -0.458 OA
BRANCH  24  25
ATOM     25  C   UNL     1      -1.164  -5.023  -5.880  1.00  0.00     0.338 C 
ATOM     26  O   UNL     1      -2.282  -5.510  -5.946  1.00  0.00    -0.246 OA
BRANCH  25  27
ATOM     27  C   UNL     1      -0.896  -3.616  -6.240  1.00  0.00     0.060 A 
ATOM     28  C   UNL     1      -1.578  -2.668  -5.489  1.00  0.00     0.016 A 
ATOM     29  C   UNL     1      -0.091  -3.205  -7.303  1.00  0.00     0.016 A 
ATOM     30  C   UNL     1      -1.396  -1.304  -5.726  1.00  0.00     0.010 A 
ATOM     31  C   UNL     1       0.066  -1.827  -7.568  1.00  0.00     0.010 A 
ATOM     32  C   UNL     1      -0.560  -0.863  -6.760  1.00  0.00    -0.014 A 
BRANCH  32  33
ATOM     33  C   UNL     1      -0.480   0.605  -7.012  1.00  0.00     0.031 A 
ATOM     34  C   UNL     1      -1.588   1.262  -7.779  1.00  0.00     0.074 A 
ATOM     35  C   UNL     1       0.480   1.378  -6.465  1.00  0.00     0.049 A 
ATOM     36  N   UNL     1      -1.708   2.511  -8.140  1.00  0.00    -0.248 NA
ATOM     37  C   UNL     1      -2.702   0.399  -8.202  1.00  0.00     0.031 C 
ATOM     38  C   UNL     1       1.584   0.887  -5.653  1.00  0.00     0.029 A 
ATOM     39  N   UNL     1       0.661   2.745  -6.465  1.00  0.00    -0.354 N 
ATOM     40  C   UNL     1      -2.853   2.565  -8.921  1.00  0.00     0.074 A 
ATOM     41  C   UNL     1      -3.444   1.244  -8.902  1.00  0.00     0.031 C 
ATOM     42  C   UNL     1       2.256   1.929  -5.136  1.00  0.00     0.029 A 
ATOM     43  C   UNL     1       1.722   3.170  -5.691  1.00  0.00     0.049 A 
ATOM     44  H   UNL     1       0.085   3.362  -6.971  1.00  0.00     0.167 HD
ATOM     45  C   UNL     1      -3.330   3.607  -9.638  1.00  0.00     0.034 A 
ATOM     46  C   UNL     1       2.239   4.404  -5.492  1.00  0.00     0.034 A 
ATOM     47  C   UNL     1      -2.735   4.915  -9.661  1.00  0.00     0.049 A 
ATOM     48  C   UNL     1       1.682   5.553  -6.294  1.00  0.00     0.074 A 
ATOM     49  C   UNL     1      -3.108   6.012 -10.415  1.00  0.00     0.029 A 
ATOM     50  N   UNL     1      -1.639   5.303  -8.905  1.00  0.00    -0.354 N 
ATOM     51  N   UNL     1       0.633   5.578  -7.081  1.00  0.00    -0.248 NA
ATOM     52  C   UNL     1       2.407   6.832  -6.224  1.00  0.00     0.031 C 
ATOM     53  C   UNL     1      -2.219   7.054 -10.140  1.00  0.00     0.029 A 
ATOM     54  C   UNL     1      -1.324   6.623  -9.174  1.00  0.00     0.049 A 
ATOM     55  H   UNL     1      -1.157   4.725  -8.271  1.00  0.00     0.167 HD
ATOM     56  C   UNL     1       0.586   6.861  -7.615  1.00  0.00     0.074 A 
ATOM     57  C   UNL     1       1.675   7.605  -7.017  1.00  0.00     0.031 C 
ATOM     58  C   UNL     1      -0.259   7.365  -8.549  1.00  0.00     0.034 A 
BRANCH  45  59
ATOM     59  C   UNL     1      -4.503   3.341 -10.537  1.00  0.00     0.023 A 
ATOM     60  C   UNL     1      -5.798   3.192 -10.004  1.00  0.00     0.012 A 
ATOM     61  C   UNL     1      -4.311   3.274 -11.931  1.00  0.00     0.148 A 
ATOM     62  C   UNL     1      -6.882   2.956 -10.849  1.00  0.00     0.002 A 
ATOM     63  C   UNL     1      -5.402   3.093 -12.768  1.00  0.00     0.091 A 
ATOM     64  F   UNL     1      -3.063   3.386 -12.409  1.00  0.00    -0.205 F 
ATOM     65  C   UNL     1      -6.686   2.919 -12.229  1.00  0.00     0.022 A 
BRANCH  63  66
ATOM     66  S   UNL     1      -5.262   3.118 -14.557  1.00  0.00     0.127 S 
ATOM     67  O   UNL     1      -5.627   1.744 -14.901  1.00  0.00    -0.237 OA
ATOM     68  O   UNL     1      -6.258   4.125 -14.924  1.00  0.00    -0.237 OA
ATOM     69  O   UNL     1      -3.884   3.484 -14.852  1.00  0.00    -0.744 OA
ENDBRANCH  63  66
ENDBRANCH  45  59
BRANCH  46  70
ATOM     70  C   UNL     1       3.378   4.625  -4.543  1.00  0.00     0.023 A 
ATOM     71  C   UNL     1       3.219   5.492  -3.441  1.00  0.00     0.012 A 
ATOM     72  C   UNL     1       4.618   3.979  -4.715  1.00  0.00     0.148 A 
ATOM     73  C   UNL     1       4.265   5.707  -2.538  1.00  0.00     0.002 A 
ATOM     74  C   UNL     1       5.622   4.125  -3.764  1.00  0.00     0.091 A 
ATOM     75  F   UNL     1       4.794   3.220  -5.805  1.00  0.00    -0.205 F 
ATOM     76  C   UNL     1       5.458   5.005  -2.685  1.00  0.00     0.022 A 
BRANCH  74  77
ATOM     77  S   UNL     1       7.105   3.112  -3.784  1.00  0.00     0.127 S 
ATOM     78  O   UNL     1       8.131   4.087  -4.144  1.00  0.00    -0.237 OA
ATOM     79  O   UNL     1       7.163   2.635  -2.401  1.00  0.00    -0.237 OA
ATOM     80  O   UNL     1       6.850   2.067  -4.766  1.00  0.00    -0.744 OA
ENDBRANCH  74  77
ENDBRANCH  46  70
BRANCH  58  81
ATOM     81  C   UNL     1      -0.063   8.794  -8.984  1.00  0.00     0.023 A 
ATOM     82  C   UNL     1       1.034   9.139  -9.799  1.00  0.00     0.012 A 
ATOM     83  C   UNL     1      -1.027   9.773  -8.673  1.00  0.00     0.148 A 
ATOM     84  C   UNL     1       1.181  10.442 -10.276  1.00  0.00     0.002 A 
ATOM     85  C   UNL     1      -0.903  11.054  -9.195  1.00  0.00     0.091 A 
ATOM     86  F   UNL     1      -2.054   9.428  -7.882  1.00  0.00    -0.205 F 
ATOM     87  C   UNL     1       0.206  11.394  -9.986  1.00  0.00     0.022 A 
BRANCH  85  88
ATOM     88  S   UNL     1      -2.163  12.314  -8.964  1.00  0.00     0.127 S 
ATOM     89  O   UNL     1      -1.483  13.253  -8.072  1.00  0.00    -0.237 OA
ATOM     90  O   UNL     1      -2.364  12.804 -10.327  1.00  0.00    -0.237 OA
ATOM     91  O   UNL     1      -3.314  11.632  -8.388  1.00  0.00    -0.744 OA
ENDBRANCH  85  88
ENDBRANCH  58  81
ENDBRANCH  32  33
ENDBRANCH  25  27
ENDBRANCH  24  25
ENDBRANCH  23  24
ENDBRANCH   1  23
TORSDOF 19
