REMARK SMILES O=C(OCCOC(=O)c1cccc2c1cc(Br)c1ccccc12)c1ccc(-c2c3nc(c(-c4cccc(S(=O)(=O)[O-])c4F)c4ccc([nH]4)c(-c4cccc(S(=O)(=O)[O-])c4F)c4nc(c(-c5cccc(S(=O)(=O)[O-])c5F)c5ccc2[nH]5)C=C4)C=C3)cc1
REMARK SMILES IDX 3 1 2 2 1 3 24 4 25 5 86 6 26 7 85 8 27 9 28 10 29 11 79 12
REMARK SMILES IDX 30 13 84 14 78 15 80 16 31 17 83 18 77 19 76 20 32 22 64 23
REMARK SMILES IDX 44 24 63 25 45 26 48 27 62 28 81 29 46 30 47 31 61 33 82 34
REMARK SMILES IDX 49 35 33 36 34 37 42 38 35 39 37 40 43 41 36 42 38 43 39 44
REMARK SMILES IDX 40 45 41 46 65 47 66 48 74 49 67 50 69 51 75 52 68 53 70 54
REMARK SMILES IDX 71 55 72 56 73 57 50 58 51 59 59 60 52 61 54 62 60 63 53 64
REMARK SMILES IDX 55 65 56 66 57 67 58 68 4 69 5 70 6 71 7 72 8 73 9 74 10 75
REMARK SMILES IDX 14 76 11 77 13 78 15 79 12 80 23 81 16 82 18 83 22 84 17 85
REMARK SMILES IDX 19 86 21 87 20 88
REMARK H PARENT 80 21 48 32
REMARK Flexibility Score: inf
ROOT
ATOM      1  O   UNL     1       3.210   0.594  -0.838  1.00  0.00    -0.458 OA
ENDROOT
BRANCH   1   2
ATOM      2  C   UNL     1       3.354  -0.731  -1.112  1.00  0.00     0.338 C 
ATOM      3  O   UNL     1       2.793  -1.243  -2.074  1.00  0.00    -0.246 OA
BRANCH   2   4
ATOM      4  C   UNL     1       3.939  -1.599  -0.057  1.00  0.00     0.060 A 
ATOM      5  C   UNL     1       3.113  -2.602   0.460  1.00  0.00     0.016 A 
ATOM      6  C   UNL     1       5.252  -1.492   0.408  1.00  0.00     0.016 A 
ATOM      7  C   UNL     1       3.546  -3.395   1.524  1.00  0.00     0.010 A 
ATOM      8  C   UNL     1       5.694  -2.293   1.465  1.00  0.00     0.010 A 
ATOM      9  C   UNL     1       4.838  -3.236   2.046  1.00  0.00    -0.014 A 
BRANCH   9  10
ATOM     10  C   UNL     1       5.364  -4.216   3.022  1.00  0.00     0.031 A 
ATOM     11  C   UNL     1       5.611  -3.879   4.462  1.00  0.00     0.074 A 
ATOM     12  C   UNL     1       5.674  -5.438   2.551  1.00  0.00     0.049 A 
ATOM     13  N   UNL     1       5.901  -4.689   5.447  1.00  0.00    -0.248 NA
ATOM     14  C   UNL     1       5.513  -2.468   4.863  1.00  0.00     0.031 C 
ATOM     15  C   UNL     1       5.559  -5.843   1.147  1.00  0.00     0.029 A 
ATOM     16  N   UNL     1       6.176  -6.544   3.181  1.00  0.00    -0.354 N 
ATOM     17  C   UNL     1       5.957  -3.903   6.590  1.00  0.00     0.074 A 
ATOM     18  C   UNL     1       5.713  -2.539   6.176  1.00  0.00     0.031 C 
ATOM     19  C   UNL     1       6.005  -7.099   1.017  1.00  0.00     0.029 A 
ATOM     20  C   UNL     1       6.442  -7.582   2.322  1.00  0.00     0.049 A 
ATOM     21  H   UNL     1       6.330  -6.591   4.152  1.00  0.00     0.167 HD
ATOM     22  C   UNL     1       6.171  -4.301   7.865  1.00  0.00     0.034 A 
ATOM     23  C   UNL     1       6.990  -8.789   2.553  1.00  0.00     0.034 A 
ATOM     24  C   UNL     1       6.520  -5.646   8.239  1.00  0.00     0.049 A 
ATOM     25  C   UNL     1       7.325  -9.176   3.958  1.00  0.00     0.074 A 
ATOM     26  C   UNL     1       6.727  -6.156   9.509  1.00  0.00     0.029 A 
ATOM     27  N   UNL     1       6.778  -6.673   7.346  1.00  0.00    -0.354 N 
ATOM     28  N   UNL     1       7.149  -8.484   5.058  1.00  0.00    -0.248 NA
ATOM     29  C   UNL     1       7.900 -10.510   4.168  1.00  0.00     0.031 C 
ATOM     30  C   UNL     1       7.150  -7.482   9.380  1.00  0.00     0.029 A 
ATOM     31  C   UNL     1       7.186  -7.802   8.032  1.00  0.00     0.049 A 
ATOM     32  H   UNL     1       6.684  -6.609   6.368  1.00  0.00     0.167 HD
ATOM     33  C   UNL     1       7.570  -9.303   6.094  1.00  0.00     0.074 A 
ATOM     34  C   UNL     1       8.007 -10.548   5.492  1.00  0.00     0.031 C 
ATOM     35  C   UNL     1       7.595  -9.041   7.422  1.00  0.00     0.034 A 
BRANCH  22  36
ATOM     36  C   UNL     1       5.972  -3.313   8.980  1.00  0.00     0.023 A 
ATOM     37  C   UNL     1       4.669  -3.145   9.492  1.00  0.00     0.012 A 
ATOM     38  C   UNL     1       7.060  -2.707   9.637  1.00  0.00     0.148 A 
ATOM     39  C   UNL     1       4.451  -2.399  10.650  1.00  0.00     0.002 A 
ATOM     40  C   UNL     1       6.836  -1.976  10.799  1.00  0.00     0.091 A 
ATOM     41  F   UNL     1       8.287  -2.883   9.130  1.00  0.00    -0.205 F 
ATOM     42  C   UNL     1       5.534  -1.825  11.308  1.00  0.00     0.022 A 
BRANCH  40  43
ATOM     43  S   UNL     1       8.160  -1.222  11.752  1.00  0.00     0.127 S 
ATOM     44  O   UNL     1       7.795   0.193  11.693  1.00  0.00    -0.237 OA
ATOM     45  O   UNL     1       7.986  -1.844  13.064  1.00  0.00    -0.237 OA
ATOM     46  O   UNL     1       9.397  -1.564  11.063  1.00  0.00    -0.744 OA
ENDBRANCH  40  43
ENDBRANCH  22  36
BRANCH  23  47
ATOM     47  C   UNL     1       7.186  -9.701   1.399  1.00  0.00     0.023 A 
ATOM     48  C   UNL     1       6.272 -10.747   1.181  1.00  0.00     0.012 A 
ATOM     49  C   UNL     1       8.175  -9.428   0.433  1.00  0.00     0.148 A 
ATOM     50  C   UNL     1       6.335 -11.504   0.010  1.00  0.00     0.002 A 
ATOM     51  C   UNL     1       8.203 -10.155  -0.750  1.00  0.00     0.091 A 
ATOM     52  F   UNL     1       9.035  -8.427   0.671  1.00  0.00    -0.205 F 
ATOM     53  C   UNL     1       7.287 -11.198  -0.961  1.00  0.00     0.022 A 
BRANCH  51  54
ATOM     54  S   UNL     1       9.302  -9.734  -2.108  1.00  0.00     0.127 S 
ATOM     55  O   UNL     1      10.261 -10.835  -2.067  1.00  0.00    -0.237 OA
ATOM     56  O   UNL     1       8.391  -9.753  -3.254  1.00  0.00    -0.237 OA
ATOM     57  O   UNL     1       9.835  -8.417  -1.789  1.00  0.00    -0.744 OA
ENDBRANCH  51  54
ENDBRANCH  23  47
BRANCH  35  58
ATOM     58  C   UNL     1       8.119 -10.104   8.342  1.00  0.00     0.023 A 
ATOM     59  C   UNL     1       9.510 -10.248   8.501  1.00  0.00     0.012 A 
ATOM     60  C   UNL     1       7.240 -10.843   9.156  1.00  0.00     0.148 A 
ATOM     61  C   UNL     1      10.021 -11.115   9.465  1.00  0.00     0.002 A 
ATOM     62  C   UNL     1       7.756 -11.678  10.138  1.00  0.00     0.091 A 
ATOM     63  F   UNL     1       5.921 -10.682   8.978  1.00  0.00    -0.205 F 
ATOM     64  C   UNL     1       9.146 -11.818  10.291  1.00  0.00     0.022 A 
BRANCH  62  65
ATOM     65  S   UNL     1       6.715 -12.562  11.303  1.00  0.00     0.127 S 
ATOM     66  O   UNL     1       7.043 -13.955  10.998  1.00  0.00    -0.237 OA
ATOM     67  O   UNL     1       7.220 -12.083  12.589  1.00  0.00    -0.237 OA
ATOM     68  O   UNL     1       5.345 -12.174  11.000  1.00  0.00    -0.744 OA
ENDBRANCH  62  65
ENDBRANCH  35  58
ENDBRANCH   9  10
ENDBRANCH   2   4
ENDBRANCH   1   2
BRANCH   1  69
ATOM     69  C   UNL     1       4.242   1.403  -0.251  1.00  0.00     0.275 C 
BRANCH  69  70
ATOM     70  C   UNL     1       4.014   1.740   1.224  1.00  0.00     0.275 C 
BRANCH  70  71
ATOM     71  O   UNL     1       3.496   0.644   1.989  1.00  0.00    -0.458 OA
BRANCH  71  72
ATOM     72  C   UNL     1       2.147   0.655   2.180  1.00  0.00     0.338 C 
ATOM     73  O   UNL     1       1.362   1.485   1.767  1.00  0.00    -0.246 OA
BRANCH  72  74
ATOM     74  C   UNL     1       1.761  -0.540   2.972  1.00  0.00     0.067 A 
ATOM     75  C   UNL     1       2.430  -0.739   4.183  1.00  0.00     0.016 A 
ATOM     76  C   UNL     1       0.759  -1.447   2.518  1.00  0.00    -0.002 A 
ATOM     77  C   UNL     1       2.132  -1.850   4.951  1.00  0.00     0.002 A 
ATOM     78  C   UNL     1       0.462  -2.603   3.291  1.00  0.00    -0.010 A 
ATOM     79  C   UNL     1       0.079  -1.276   1.298  1.00  0.00     0.026 A 
ATOM     80  C   UNL     1       1.179  -2.765   4.505  1.00  0.00     0.009 A 
ATOM     81  C   UNL     1      -0.512  -3.563   2.820  1.00  0.00    -0.009 A 
ATOM     82  C   UNL     1      -0.849  -2.209   0.831  1.00  0.00     0.026 A 
ATOM     83  C   UNL     1      -1.167  -3.363   1.574  1.00  0.00    -0.004 A 
ATOM     84  C   UNL     1      -0.857  -4.736   3.546  1.00  0.00     0.009 A 
ATOM     85  Br  UNL     1      -1.621  -1.829  -0.874  1.00  0.00    -0.050 Br
ATOM     86  C   UNL     1      -2.107  -4.329   1.128  1.00  0.00     0.010 A 
ATOM     87  C   UNL     1      -1.792  -5.666   3.088  1.00  0.00     0.001 A 
ATOM     88  C   UNL     1      -2.418  -5.463   1.874  1.00  0.00     0.001 A 
ENDBRANCH  72  74
ENDBRANCH  71  72
ENDBRANCH  70  71
ENDBRANCH  69  70
ENDBRANCH   1  69
TORSDOF 14
