REMARK SMILES COc1cccc(NC(=O)NC2(C(=O)OCCOC(=O)c3ccc(-c4c5nc(c(-c6cccc(S(=O)(=O)[O-])c6F)c6ccc([nH]6)c(-c6cccc(S(=O)(=O)[O-])c6F)c6nc(c(-c7cccc(S(=O)(=O)[O-])c7F)c7ccc4[nH]7)C=C6)C=C5)cc3)CCCCC2)c1
REMARK SMILES IDX 16 1 15 2 13 3 14 4 12 5 84 6 88 7 85 8 87 9 86 10 11 11
REMARK SMILES IDX 8 12 9 13 10 15 7 17 3 18 4 19 89 20 5 21 6 22 2 23 1 24
REMARK SMILES IDX 17 25 18 26 19 27 20 28 21 29 22 30 83 31 23 32 82 33 24 34
REMARK SMILES IDX 25 35 26 36 76 37 27 38 81 39 75 40 77 41 28 42 80 43 74 44
REMARK SMILES IDX 73 45 29 47 61 48 41 49 60 50 42 51 45 52 59 53 78 54 43 55
REMARK SMILES IDX 44 56 58 58 79 59 46 60 30 61 31 62 39 63 32 64 34 65 40 66
REMARK SMILES IDX 33 67 35 68 36 69 37 70 38 71 62 72 63 73 71 74 64 75 66 76
REMARK SMILES IDX 72 77 65 78 67 79 68 80 69 81 70 82 47 83 48 84 56 85 49 86
REMARK SMILES IDX 51 87 57 88 50 89 52 90 53 91 54 92 55 93
REMARK H PARENT 8 14 11 16 77 46 45 57
REMARK Flexibility Score: inf
ROOT
ATOM      1  C   UNL     1      -0.034   5.651  -5.717  1.00  0.00     0.274 C 
ENDROOT
BRANCH   1   2
ATOM      2  O   UNL     1       0.139   5.729  -4.286  1.00  0.00    -0.460 OA
BRANCH   2   3
ATOM      3  C   UNL     1       1.404   5.492  -3.849  1.00  0.00     0.332 C 
ATOM      4  O   UNL     1       2.325   5.234  -4.617  1.00  0.00    -0.249 OA
BRANCH   3   5
ATOM      5  C   UNL     1       1.580   5.664  -2.314  1.00  0.00     0.139 C 
ATOM      6  C   UNL     1       0.728   4.748  -1.424  1.00  0.00     0.040 C 
ATOM      7  C   UNL     1       1.272   7.150  -1.954  1.00  0.00     0.040 C 
ATOM      8  C   UNL     1      -0.749   5.113  -1.319  1.00  0.00     0.003 C 
ATOM      9  C   UNL     1      -0.210   7.508  -1.834  1.00  0.00     0.003 C 
ATOM     10  C   UNL     1      -0.954   6.559  -0.908  1.00  0.00     0.000 C 
BRANCH   5  11
ATOM     11  N   UNL     1       3.048   5.476  -2.051  1.00  0.00    -0.322 N 
ATOM     12  N   UNL     1       3.759   3.190  -1.999  1.00  0.00    -0.308 N 
ATOM     13  C   UNL     1       3.969   4.512  -1.972  1.00  0.00     0.320 C 
ATOM     14  H   UNL     1       4.527   2.675  -1.661  1.00  0.00     0.171 HD
ATOM     15  O   UNL     1       5.117   4.896  -1.716  1.00  0.00    -0.248 OA
ATOM     16  H   UNL     1       3.468   6.350  -1.881  1.00  0.00     0.166 HD
BRANCH  12  17
ATOM     17  C   UNL     1       2.701   2.378  -2.396  1.00  0.00     0.046 A 
ATOM     18  C   UNL     1       1.074   0.706  -1.756  1.00  0.00     0.120 A 
ATOM     19  C   UNL     1       0.459   0.846  -3.003  1.00  0.00     0.046 A 
ATOM     20  C   UNL     1       2.220   1.450  -1.469  1.00  0.00     0.072 A 
ATOM     21  C   UNL     1       1.011   1.683  -3.972  1.00  0.00     0.006 A 
ATOM     22  C   UNL     1       2.149   2.432  -3.671  1.00  0.00     0.026 A 
BRANCH  18  23
ATOM     23  O   UNL     1       0.448  -0.155  -0.895  1.00  0.00    -0.497 OA
ATOM     24  C   UNL     1       1.085  -0.368   0.359  1.00  0.00     0.278 C 
ENDBRANCH  18  23
ENDBRANCH  12  17
ENDBRANCH   5  11
ENDBRANCH   3   5
ENDBRANCH   2   3
ENDBRANCH   1   2
BRANCH   1  25
ATOM     25  C   UNL     1       0.313   6.965  -6.432  1.00  0.00     0.275 C 
BRANCH  25  26
ATOM     26  O   UNL     1       1.734   7.204  -6.458  1.00  0.00    -0.458 OA
BRANCH  26  27
ATOM     27  C   UNL     1       2.174   8.287  -5.778  1.00  0.00     0.338 C 
ATOM     28  O   UNL     1       1.489   9.112  -5.189  1.00  0.00    -0.246 OA
BRANCH  27  29
ATOM     29  C   UNL     1       3.647   8.317  -5.755  1.00  0.00     0.060 A 
ATOM     30  C   UNL     1       4.311   7.656  -4.721  1.00  0.00     0.016 A 
ATOM     31  C   UNL     1       4.366   9.103  -6.654  1.00  0.00     0.016 A 
ATOM     32  C   UNL     1       5.688   7.784  -4.559  1.00  0.00     0.010 A 
ATOM     33  C   UNL     1       5.755   9.216  -6.508  1.00  0.00     0.010 A 
ATOM     34  C   UNL     1       6.422   8.579  -5.445  1.00  0.00    -0.014 A 
BRANCH  34  35
ATOM     35  C   UNL     1       7.871   8.800  -5.206  1.00  0.00     0.031 A 
ATOM     36  C   UNL     1       8.350  10.147  -4.739  1.00  0.00     0.074 A 
ATOM     37  C   UNL     1       8.752   7.797  -5.383  1.00  0.00     0.049 A 
ATOM     38  N   UNL     1       9.573  10.573  -4.557  1.00  0.00    -0.248 NA
ATOM     39  C   UNL     1       7.314  11.149  -4.439  1.00  0.00     0.031 C 
ATOM     40  C   UNL     1       8.408   6.434  -5.789  1.00  0.00     0.029 A 
ATOM     41  N   UNL     1      10.118   7.772  -5.250  1.00  0.00    -0.354 N 
ATOM     42  C   UNL     1       9.458  11.903  -4.171  1.00  0.00     0.074 A 
ATOM     43  C   UNL     1       8.045  12.214  -4.139  1.00  0.00     0.031 C 
ATOM     44  C   UNL     1       9.533   5.705  -5.871  1.00  0.00     0.029 A 
ATOM     45  C   UNL     1      10.679   6.557  -5.567  1.00  0.00     0.049 A 
ATOM     46  H   UNL     1      10.646   8.550  -4.956  1.00  0.00     0.167 HD
ATOM     47  C   UNL     1      10.439  12.782  -3.857  1.00  0.00     0.034 A 
ATOM     48  C   UNL     1      11.972   6.179  -5.623  1.00  0.00     0.034 A 
ATOM     49  C   UNL     1      11.839  12.457  -3.833  1.00  0.00     0.049 A 
ATOM     50  C   UNL     1      13.043   7.181  -5.286  1.00  0.00     0.074 A 
ATOM     51  C   UNL     1      12.908  13.274  -3.506  1.00  0.00     0.029 A 
ATOM     52  N   UNL     1      12.366  11.211  -4.139  1.00  0.00    -0.354 N 
ATOM     53  N   UNL     1      12.915   8.418  -4.870  1.00  0.00    -0.248 NA
ATOM     54  C   UNL     1      14.437   6.732  -5.413  1.00  0.00     0.031 C 
ATOM     55  C   UNL     1      14.083  12.521  -3.619  1.00  0.00     0.029 A 
ATOM     56  C   UNL     1      13.744  11.236  -4.012  1.00  0.00     0.049 A 
ATOM     57  H   UNL     1      11.837  10.425  -4.406  1.00  0.00     0.167 HD
ATOM     58  C   UNL     1      14.208   8.888  -4.665  1.00  0.00     0.074 A 
ATOM     59  C   UNL     1      15.104   7.794  -4.979  1.00  0.00     0.031 C 
ATOM     60  C   UNL     1      14.617  10.120  -4.275  1.00  0.00     0.034 A 
BRANCH  47  61
ATOM     61  C   UNL     1      10.023  14.180  -3.486  1.00  0.00     0.023 A 
ATOM     62  C   UNL     1       9.489  14.428  -2.206  1.00  0.00     0.012 A 
ATOM     63  C   UNL     1      10.186  15.248  -4.388  1.00  0.00     0.148 A 
ATOM     64  C   UNL     1       9.099  15.716  -1.839  1.00  0.00     0.002 A 
ATOM     65  C   UNL     1       9.825  16.535  -4.003  1.00  0.00     0.091 A 
ATOM     66  F   UNL     1      10.665  14.988  -5.613  1.00  0.00    -0.205 F 
ATOM     67  C   UNL     1       9.275  16.770  -2.733  1.00  0.00     0.022 A 
BRANCH  65  68
ATOM     68  S   UNL     1      10.076  17.955  -5.075  1.00  0.00     0.127 S 
ATOM     69  O   UNL     1       8.747  18.127  -5.658  1.00  0.00    -0.237 OA
ATOM     70  O   UNL     1      10.466  19.002  -4.129  1.00  0.00    -0.237 OA
ATOM     71  O   UNL     1      11.130  17.563  -6.002  1.00  0.00    -0.744 OA
ENDBRANCH  65  68
ENDBRANCH  47  61
BRANCH  48  72
ATOM     72  C   UNL     1      12.320   4.773  -5.974  1.00  0.00     0.023 A 
ATOM     73  C   UNL     1      12.852   3.929  -4.981  1.00  0.00     0.012 A 
ATOM     74  C   UNL     1      12.094   4.255  -7.265  1.00  0.00     0.148 A 
ATOM     75  C   UNL     1      13.168   2.600  -5.271  1.00  0.00     0.002 A 
ATOM     76  C   UNL     1      12.360   2.917  -7.532  1.00  0.00     0.091 A 
ATOM     77  F   UNL     1      11.615   5.080  -8.208  1.00  0.00    -0.205 F 
ATOM     78  C   UNL     1      12.909   2.091  -6.540  1.00  0.00     0.022 A 
BRANCH  76  79
ATOM     79  S   UNL     1      11.931   2.156  -9.103  1.00  0.00     0.127 S 
ATOM     80  O   UNL     1      13.226   2.105  -9.776  1.00  0.00    -0.237 OA
ATOM     81  O   UNL     1      11.403   0.856  -8.684  1.00  0.00    -0.237 OA
ATOM     82  O   UNL     1      10.935   3.037  -9.698  1.00  0.00    -0.744 OA
ENDBRANCH  76  79
ENDBRANCH  48  72
BRANCH  60  83
ATOM     83  C   UNL     1      16.099  10.355  -4.155  1.00  0.00     0.023 A 
ATOM     84  C   UNL     1      16.864  10.539  -5.323  1.00  0.00     0.012 A 
ATOM     85  C   UNL     1      16.718  10.471  -2.895  1.00  0.00     0.148 A 
ATOM     86  C   UNL     1      18.228  10.814  -5.240  1.00  0.00     0.002 A 
ATOM     87  C   UNL     1      18.071  10.783  -2.820  1.00  0.00     0.091 A 
ATOM     88  F   UNL     1      15.978  10.270  -1.795  1.00  0.00    -0.205 F 
ATOM     89  C   UNL     1      18.829  10.948  -3.991  1.00  0.00     0.022 A 
BRANCH  87  90
ATOM     90  S   UNL     1      18.899  11.056  -1.249  1.00  0.00     0.127 S 
ATOM     91  O   UNL     1      19.578   9.778  -1.042  1.00  0.00    -0.237 OA
ATOM     92  O   UNL     1      19.791  12.177  -1.550  1.00  0.00    -0.237 OA
ATOM     93  O   UNL     1      17.843  11.372  -0.297  1.00  0.00    -0.744 OA
ENDBRANCH  87  90
ENDBRANCH  60  83
ENDBRANCH  34  35
ENDBRANCH  27  29
ENDBRANCH  26  27
ENDBRANCH  25  26
ENDBRANCH   1  25
TORSDOF 17
