REMARK SMILES Cc1ncc(C(=O)OCCOC(=O)c2ccc(-c3c4nc(c(-c5cccc(S(=O)(=O)[O-])c5F)c5ccc([nH]5)c(-c5cccc(S(=O)(=O)[O-])c5F)c5nc(c(-c6cccc(S(=O)(=O)[O-])c6F)c6ccc3[nH]6)C=C5)C=C4)cc2)cc1C#N
REMARK SMILES IDX 10 1 9 2 8 3 6 4 7 5 5 6 1 7 2 8 3 9 78 10 4 11 77 12 79 13
REMARK SMILES IDX 80 14 11 15 12 16 13 17 14 18 15 19 76 20 16 21 75 22 17 23
REMARK SMILES IDX 18 24 19 25 69 26 20 27 74 28 68 29 70 30 21 31 73 32 67 33
REMARK SMILES IDX 66 34 22 36 54 37 34 38 53 39 35 40 38 41 52 42 71 43 36 44
REMARK SMILES IDX 37 45 51 47 72 48 39 49 23 50 24 51 32 52 25 53 27 54 33 55
REMARK SMILES IDX 26 56 28 57 29 58 30 59 31 60 55 61 56 62 64 63 57 64 59 65
REMARK SMILES IDX 65 66 58 67 60 68 61 69 62 70 63 71 40 72 41 73 49 74 42 75
REMARK SMILES IDX 44 76 50 77 43 78 45 79 46 80 47 81 48 82
REMARK H PARENT 70 35 38 46
REMARK Flexibility Score: inf
ROOT
ATOM      1  C   UNL     1      -0.562   0.939  -8.158  1.00  0.00     0.275 C 
ENDROOT
BRANCH   1   2
ATOM      2  C   UNL     1      -1.416   1.744  -7.175  1.00  0.00     0.275 C 
BRANCH   2   3
ATOM      3  O   UNL     1      -0.836   1.746  -5.851  1.00  0.00    -0.458 OA
BRANCH   3   4
ATOM      4  C   UNL     1      -1.408   0.902  -4.960  1.00  0.00     0.339 C 
ATOM      5  O   UNL     1      -2.401   0.218  -5.141  1.00  0.00    -0.246 OA
BRANCH   4   6
ATOM      6  C   UNL     1      -0.642   0.855  -3.703  1.00  0.00     0.079 A 
ATOM      7  C   UNL     1       1.186   0.386   0.117  1.00  0.00     0.068 C 
ATOM      8  C   UNL     1       0.568   0.613  -1.233  1.00  0.00     0.055 A 
ATOM      9  N   UNL     1       0.090  -0.499  -1.837  1.00  0.00    -0.259 NA
ATOM     10  C   UNL     1       0.481   1.875  -1.829  1.00  0.00     0.074 A 
ATOM     11  C   UNL     1      -0.515  -0.354  -3.038  1.00  0.00     0.127 A 
ATOM     12  C   UNL     1      -0.124   1.992  -3.090  1.00  0.00     0.038 A 
BRANCH  10  13
ATOM     13  C   UNL     1       0.939   3.051  -1.159  1.00  0.00     0.101 C 
ATOM     14  N   UNL     1       1.282   4.017  -0.611  1.00  0.00    -0.192 NA
ENDBRANCH  10  13
ENDBRANCH   4   6
ENDBRANCH   3   4
ENDBRANCH   2   3
ENDBRANCH   1   2
BRANCH   1  15
ATOM     15  O   UNL     1      -0.654  -0.471  -7.889  1.00  0.00    -0.458 OA
BRANCH  15  16
ATOM     16  C   UNL     1       0.329  -0.962  -7.103  1.00  0.00     0.338 C 
ATOM     17  O   UNL     1       1.268  -0.348  -6.623  1.00  0.00    -0.246 OA
BRANCH  16  18
ATOM     18  C   UNL     1       0.074  -2.373  -6.795  1.00  0.00     0.060 A 
ATOM     19  C   UNL     1      -0.813  -2.671  -5.765  1.00  0.00     0.016 A 
ATOM     20  C   UNL     1       0.850  -3.375  -7.372  1.00  0.00     0.016 A 
ATOM     21  C   UNL     1      -0.817  -3.939  -5.199  1.00  0.00     0.010 A 
ATOM     22  C   UNL     1       0.745  -4.682  -6.886  1.00  0.00     0.010 A 
ATOM     23  C   UNL     1      -0.046  -4.966  -5.758  1.00  0.00    -0.014 A 
BRANCH  23  24
ATOM     24  C   UNL     1      -0.065  -6.322  -5.149  1.00  0.00     0.031 A 
ATOM     25  C   UNL     1       1.206  -6.948  -4.638  1.00  0.00     0.074 A 
ATOM     26  C   UNL     1      -1.233  -6.989  -5.045  1.00  0.00     0.049 A 
ATOM     27  N   UNL     1       1.395  -8.155  -4.171  1.00  0.00    -0.248 NA
ATOM     28  C   UNL     1       2.424  -6.120  -4.658  1.00  0.00     0.031 C 
ATOM     29  C   UNL     1      -2.538  -6.483  -5.480  1.00  0.00     0.029 A 
ATOM     30  N   UNL     1      -1.514  -8.236  -4.546  1.00  0.00    -0.354 N 
ATOM     31  C   UNL     1       2.753  -8.248  -3.892  1.00  0.00     0.074 A 
ATOM     32  C   UNL     1       3.347  -6.978  -4.243  1.00  0.00     0.031 C 
ATOM     33  C   UNL     1      -3.479  -7.399  -5.211  1.00  0.00     0.029 A 
ATOM     34  C   UNL     1      -2.839  -8.585  -4.656  1.00  0.00     0.049 A 
ATOM     35  H   UNL     1      -0.832  -8.824  -4.147  1.00  0.00     0.167 HD
ATOM     36  C   UNL     1       3.438  -9.295  -3.377  1.00  0.00     0.034 A 
ATOM     37  C   UNL     1      -3.472  -9.741  -4.380  1.00  0.00     0.034 A 
ATOM     38  C   UNL     1       2.836 -10.537  -2.980  1.00  0.00     0.049 A 
ATOM     39  C   UNL     1      -2.683 -10.896  -3.841  1.00  0.00     0.074 A 
ATOM     40  C   UNL     1       3.448 -11.639  -2.410  1.00  0.00     0.029 A 
ATOM     41  N   UNL     1       1.491 -10.844  -3.108  1.00  0.00    -0.354 N 
ATOM     42  N   UNL     1      -1.408 -10.950  -3.548  1.00  0.00    -0.248 NA
ATOM     43  C   UNL     1      -3.416 -12.144  -3.584  1.00  0.00     0.031 C 
ATOM     44  C   UNL     1       2.478 -12.626  -2.221  1.00  0.00     0.029 A 
ATOM     45  C   UNL     1       1.256 -12.125  -2.642  1.00  0.00     0.049 A 
ATOM     46  H   UNL     1       0.806 -10.241  -3.477  1.00  0.00     0.167 HD
ATOM     47  C   UNL     1      -1.185 -12.228  -3.053  1.00  0.00     0.074 A 
ATOM     48  C   UNL     1      -2.461 -12.914  -3.075  1.00  0.00     0.031 C 
ATOM     49  C   UNL     1      -0.024 -12.782  -2.631  1.00  0.00     0.034 A 
BRANCH  36  50
ATOM     50  C   UNL     1       4.922  -9.152  -3.179  1.00  0.00     0.023 A 
ATOM     51  C   UNL     1       5.412  -8.423  -2.079  1.00  0.00     0.012 A 
ATOM     52  C   UNL     1       5.824  -9.843  -4.013  1.00  0.00     0.148 A 
ATOM     53  C   UNL     1       6.780  -8.382  -1.811  1.00  0.00     0.002 A 
ATOM     54  C   UNL     1       7.182  -9.820  -3.724  1.00  0.00     0.091 A 
ATOM     55  F   UNL     1       5.331 -10.524  -5.058  1.00  0.00    -0.205 F 
ATOM     56  C   UNL     1       7.662  -9.090  -2.624  1.00  0.00     0.022 A 
BRANCH  54  57
ATOM     57  S   UNL     1       8.398 -10.729  -4.685  1.00  0.00     0.127 S 
ATOM     58  O   UNL     1       9.221  -9.644  -5.219  1.00  0.00    -0.237 OA
ATOM     59  O   UNL     1       9.052 -11.543  -3.661  1.00  0.00    -0.237 OA
ATOM     60  O   UNL     1       7.649 -11.480  -5.682  1.00  0.00    -0.744 OA
ENDBRANCH  54  57
ENDBRANCH  36  50
BRANCH  37  61
ATOM     61  C   UNL     1      -4.940  -9.835  -4.603  1.00  0.00     0.023 A 
ATOM     62  C   UNL     1      -5.808  -9.813  -3.495  1.00  0.00     0.012 A 
ATOM     63  C   UNL     1      -5.478  -9.856  -5.905  1.00  0.00     0.148 A 
ATOM     64  C   UNL     1      -7.190  -9.811  -3.682  1.00  0.00     0.002 A 
ATOM     65  C   UNL     1      -6.854  -9.819  -6.084  1.00  0.00     0.091 A 
ATOM     66  F   UNL     1      -4.627  -9.870  -6.940  1.00  0.00    -0.205 F 
ATOM     67  C   UNL     1      -7.713  -9.803  -4.973  1.00  0.00     0.022 A 
BRANCH  65  68
ATOM     68  S   UNL     1      -7.621  -9.724  -7.705  1.00  0.00     0.127 S 
ATOM     69  O   UNL     1      -8.389 -10.967  -7.745  1.00  0.00    -0.237 OA
ATOM     70  O   UNL     1      -8.424  -8.507  -7.584  1.00  0.00    -0.237 OA
ATOM     71  O   UNL     1      -6.526  -9.637  -8.660  1.00  0.00    -0.744 OA
ENDBRANCH  65  68
ENDBRANCH  37  61
BRANCH  49  72
ATOM     72  C   UNL     1      -0.054 -14.198  -2.130  1.00  0.00     0.023 A 
ATOM     73  C   UNL     1      -0.097 -15.259  -3.053  1.00  0.00     0.012 A 
ATOM     74  C   UNL     1       0.105 -14.471  -0.757  1.00  0.00     0.148 A 
ATOM     75  C   UNL     1       0.020 -16.577  -2.615  1.00  0.00     0.002 A 
ATOM     76  C   UNL     1       0.252 -15.784  -0.332  1.00  0.00     0.091 A 
ATOM     77  F   UNL     1       0.142 -13.438   0.098  1.00  0.00    -0.205 F 
ATOM     78  C   UNL     1       0.208 -16.838  -1.259  1.00  0.00     0.022 A 
BRANCH  76  79
ATOM     79  S   UNL     1       0.557 -16.219   1.384  1.00  0.00     0.127 S 
ATOM     80  O   UNL     1      -0.646 -16.984   1.713  1.00  0.00    -0.237 OA
ATOM     81  O   UNL     1       1.780 -17.015   1.288  1.00  0.00    -0.237 OA
ATOM     82  O   UNL     1       0.701 -14.961   2.104  1.00  0.00    -0.744 OA
ENDBRANCH  76  79
ENDBRANCH  49  72
ENDBRANCH  23  24
ENDBRANCH  16  18
ENDBRANCH  15  16
ENDBRANCH   1  15
TORSDOF 15
