REMARK SMILES O=C(OCCOC(=O)c1cc(Cl)c2c(c1)[C@H]1C=CC[C@H]1[C@H](c1ccc(S(=O)(=O)N3CCOCC3)cc1)N2)c1ccc(-c2c3nc(c(-c4cccc(S(=O)(=O)[O-])c4F)c4ccc([nH]4)c(-c4cccc(S(=O)(=O)[O-])c4F)c4nc(c(-c5cccc(S(=O)(=O)[O-])c5F)c5ccc2[nH]5)C=C4)C=C3)cc1
REMARK SMILES IDX 4 1 3 2 2 3 1 4 38 5 39 6 100 7 40 8 99 9 41 10 42 11 43 12
REMARK SMILES IDX 93 13 44 14 98 15 92 16 94 17 45 18 97 19 91 20 90 21 46 23
REMARK SMILES IDX 78 24 58 25 77 26 59 27 62 28 76 29 95 30 60 31 61 32 75 34
REMARK SMILES IDX 96 35 63 36 47 37 48 38 56 39 49 40 51 41 57 42 50 43 52 44
REMARK SMILES IDX 53 45 54 46 55 47 79 48 80 49 88 50 81 51 83 52 89 53 82 54
REMARK SMILES IDX 84 55 85 56 86 57 87 58 64 59 65 60 73 61 66 62 68 63 74 64
REMARK SMILES IDX 67 65 69 66 70 67 71 68 72 69 5 70 6 71 7 72 8 73 9 74 10 75
REMARK SMILES IDX 15 76 11 77 14 78 12 79 13 80 16 81 37 82 17 83 20 84 21 85
REMARK SMILES IDX 18 87 19 88 22 89 23 90 36 91 24 92 35 93 25 94 26 95 27 96
REMARK SMILES IDX 28 97 29 98 30 99 34 100 31 101 33 102 32 103
REMARK H PARENT 94 22 62 33 37 86
REMARK Flexibility Score: inf
ROOT
ATOM      1  C   UNL     1       4.258   1.725   0.103  1.00  0.00     0.275 C 
ENDROOT
BRANCH   1   2
ATOM      2  O   UNL     1       3.411   0.951  -0.757  1.00  0.00    -0.458 OA
BRANCH   2   3
ATOM      3  C   UNL     1       3.492  -0.372  -1.030  1.00  0.00     0.338 C 
ATOM      4  O   UNL     1       2.958  -0.799  -2.054  1.00  0.00    -0.246 OA
BRANCH   3   5
ATOM      5  C   UNL     1       4.029  -1.371  -0.052  1.00  0.00     0.060 A 
ATOM      6  C   UNL     1       5.115  -1.208   0.811  1.00  0.00     0.016 A 
ATOM      7  C   UNL     1       3.364  -2.605  -0.032  1.00  0.00     0.016 A 
ATOM      8  C   UNL     1       5.478  -2.216   1.714  1.00  0.00     0.010 A 
ATOM      9  C   UNL     1       3.696  -3.603   0.886  1.00  0.00     0.010 A 
ATOM     10  C   UNL     1       4.771  -3.418   1.758  1.00  0.00    -0.014 A 
BRANCH  10  11
ATOM     11  C   UNL     1       5.256  -4.550   2.576  1.00  0.00     0.031 A 
ATOM     12  C   UNL     1       5.970  -5.670   1.884  1.00  0.00     0.074 A 
ATOM     13  C   UNL     1       5.083  -4.585   3.909  1.00  0.00     0.049 A 
ATOM     14  N   UNL     1       6.563  -6.704   2.413  1.00  0.00    -0.248 NA
ATOM     15  C   UNL     1       6.070  -5.601   0.415  1.00  0.00     0.031 C 
ATOM     16  C   UNL     1       4.465  -3.533   4.707  1.00  0.00     0.029 A 
ATOM     17  N   UNL     1       5.385  -5.561   4.826  1.00  0.00    -0.354 N 
ATOM     18  C   UNL     1       7.163  -7.366   1.355  1.00  0.00     0.074 A 
ATOM     19  C   UNL     1       6.782  -6.683   0.142  1.00  0.00     0.031 C 
ATOM     20  C   UNL     1       4.347  -3.958   5.977  1.00  0.00     0.029 A 
ATOM     21  C   UNL     1       4.890  -5.304   6.083  1.00  0.00     0.049 A 
ATOM     22  H   UNL     1       5.905  -6.368   4.605  1.00  0.00     0.167 HD
ATOM     23  C   UNL     1       8.027  -8.401   1.404  1.00  0.00     0.034 A 
ATOM     24  C   UNL     1       4.877  -6.061   7.196  1.00  0.00     0.034 A 
ATOM     25  C   UNL     1       8.402  -9.069   2.613  1.00  0.00     0.049 A 
ATOM     26  C   UNL     1       5.686  -7.325   7.203  1.00  0.00     0.074 A 
ATOM     27  C   UNL     1       9.327 -10.081   2.784  1.00  0.00     0.029 A 
ATOM     28  N   UNL     1       7.846  -8.808   3.855  1.00  0.00    -0.354 N 
ATOM     29  N   UNL     1       6.390  -7.841   6.225  1.00  0.00    -0.248 NA
ATOM     30  C   UNL     1       5.791  -8.056   8.473  1.00  0.00     0.031 C 
ATOM     31  C   UNL     1       9.309 -10.452   4.131  1.00  0.00     0.029 A 
ATOM     32  C   UNL     1       8.385  -9.660   4.798  1.00  0.00     0.049 A 
ATOM     33  H   UNL     1       7.168  -8.118   4.038  1.00  0.00     0.167 HD
ATOM     34  C   UNL     1       7.092  -8.901   6.779  1.00  0.00     0.074 A 
ATOM     35  C   UNL     1       6.689  -8.988   8.169  1.00  0.00     0.031 C 
ATOM     36  C   UNL     1       8.012  -9.701   6.190  1.00  0.00     0.034 A 
BRANCH  23  37
ATOM     37  C   UNL     1       8.680  -8.797   0.116  1.00  0.00     0.023 A 
ATOM     38  C   UNL     1       9.730  -8.000  -0.386  1.00  0.00     0.012 A 
ATOM     39  C   UNL     1       8.271  -9.941  -0.588  1.00  0.00     0.148 A 
ATOM     40  C   UNL     1      10.351  -8.325  -1.589  1.00  0.00     0.002 A 
ATOM     41  C   UNL     1       8.912 -10.273  -1.774  1.00  0.00     0.091 A 
ATOM     42  F   UNL     1       7.254 -10.662  -0.096  1.00  0.00    -0.205 F 
ATOM     43  C   UNL     1       9.946  -9.465  -2.279  1.00  0.00     0.022 A 
BRANCH  41  44
ATOM     44  S   UNL     1       8.484 -11.730  -2.730  1.00  0.00     0.127 S 
ATOM     45  O   UNL     1       7.995 -11.133  -3.973  1.00  0.00    -0.237 OA
ATOM     46  O   UNL     1       9.775 -12.408  -2.843  1.00  0.00    -0.237 OA
ATOM     47  O   UNL     1       7.480 -12.443  -1.953  1.00  0.00    -0.744 OA
ENDBRANCH  41  44
ENDBRANCH  23  37
BRANCH  24  48
ATOM     48  C   UNL     1       4.161  -5.578   8.409  1.00  0.00     0.023 A 
ATOM     49  C   UNL     1       4.877  -4.910   9.419  1.00  0.00     0.012 A 
ATOM     50  C   UNL     1       2.762  -5.716   8.528  1.00  0.00     0.148 A 
ATOM     51  C   UNL     1       4.215  -4.394  10.534  1.00  0.00     0.002 A 
ATOM     52  C   UNL     1       2.107  -5.191   9.638  1.00  0.00     0.091 A 
ATOM     53  F   UNL     1       2.102  -6.344   7.545  1.00  0.00    -0.205 F 
ATOM     54  C   UNL     1       2.833  -4.531  10.643  1.00  0.00     0.022 A 
BRANCH  52  55
ATOM     55  S   UNL     1       0.326  -5.282   9.864  1.00  0.00     0.127 S 
ATOM     56  O   UNL     1       0.223  -6.043  11.108  1.00  0.00    -0.237 OA
ATOM     57  O   UNL     1      -0.035  -3.870   9.978  1.00  0.00    -0.237 OA
ATOM     58  O   UNL     1      -0.191  -5.954   8.681  1.00  0.00    -0.744 OA
ENDBRANCH  52  55
ENDBRANCH  24  48
BRANCH  36  59
ATOM     59  C   UNL     1       8.715 -10.726   7.029  1.00  0.00     0.023 A 
ATOM     60  C   UNL     1       8.093 -11.961   7.279  1.00  0.00     0.012 A 
ATOM     61  C   UNL     1      10.067 -10.533   7.379  1.00  0.00     0.148 A 
ATOM     62  C   UNL     1       8.816 -13.003   7.857  1.00  0.00     0.002 A 
ATOM     63  C   UNL     1      10.791 -11.588   7.915  1.00  0.00     0.091 A 
ATOM     64  F   UNL     1      10.627  -9.341   7.128  1.00  0.00    -0.205 F 
ATOM     65  C   UNL     1      10.166 -12.823   8.157  1.00  0.00     0.022 A 
BRANCH  63  66
ATOM     66  S   UNL     1      12.555 -11.488   8.235  1.00  0.00     0.127 S 
ATOM     67  O   UNL     1      12.607 -11.694   9.682  1.00  0.00    -0.237 OA
ATOM     68  O   UNL     1      13.074 -12.600   7.440  1.00  0.00    -0.237 OA
ATOM     69  O   UNL     1      12.975 -10.167   7.787  1.00  0.00    -0.744 OA
ENDBRANCH  63  66
ENDBRANCH  36  59
ENDBRANCH  10  11
ENDBRANCH   3   5
ENDBRANCH   2   3
ENDBRANCH   1   2
BRANCH   1  70
ATOM     70  C   UNL     1       3.715   1.920   1.520  1.00  0.00     0.275 C 
BRANCH  70  71
ATOM     71  O   UNL     1       3.157   0.735   2.101  1.00  0.00    -0.458 OA
BRANCH  71  72
ATOM     72  C   UNL     1       1.818   0.577   1.929  1.00  0.00     0.338 C 
ATOM     73  O   UNL     1       1.060   1.322   1.335  1.00  0.00    -0.246 OA
BRANCH  72  74
ATOM     74  C   UNL     1       1.417  -0.717   2.508  1.00  0.00     0.062 A 
ATOM     75  C   UNL     1       1.643  -0.981   3.853  1.00  0.00     0.038 A 
ATOM     76  C   UNL     1       0.748  -1.650   1.711  1.00  0.00     0.022 A 
ATOM     77  C   UNL     1       1.288  -2.228   4.362  1.00  0.00     0.065 A 
ATOM     78  C   UNL     1       0.440  -2.926   2.218  1.00  0.00    -0.015 A 
ATOM     79  Cl  UNL     1       1.366  -2.447   6.075  1.00  0.00    -0.082 Cl
ATOM     80  C   UNL     1       0.819  -3.260   3.525  1.00  0.00     0.057 A 
ATOM     81  C   UNL     1      -0.409  -3.879   1.417  1.00  0.00     0.049 C 
ATOM     82  N   UNL     1       0.644  -4.546   4.003  1.00  0.00    -0.376 N 
ATOM     83  C   UNL     1       0.178  -4.405   0.137  1.00  0.00    -0.023 C 
ATOM     84  C   UNL     1      -0.822  -5.179   2.151  1.00  0.00     0.031 C 
ATOM     85  C   UNL     1       0.298  -5.654   3.123  1.00  0.00     0.114 C 
ATOM     86  H   UNL     1       0.756  -4.718   4.966  1.00  0.00     0.161 HD
ATOM     87  C   UNL     1      -0.222  -5.657  -0.103  1.00  0.00    -0.030 C 
ATOM     88  C   UNL     1      -1.142  -6.125   0.974  1.00  0.00     0.034 C 
BRANCH  85  89
ATOM     89  C   UNL     1      -0.150  -6.855   3.959  1.00  0.00    -0.025 A 
ATOM     90  C   UNL     1      -0.567  -6.761   5.301  1.00  0.00     0.007 A 
ATOM     91  C   UNL     1      -0.210  -8.114   3.358  1.00  0.00     0.007 A 
ATOM     92  C   UNL     1      -1.121  -7.860   5.975  1.00  0.00     0.022 A 
ATOM     93  C   UNL     1      -0.837  -9.180   3.996  1.00  0.00     0.022 A 
ATOM     94  C   UNL     1      -1.307  -9.060   5.297  1.00  0.00     0.082 A 
BRANCH  94  95
ATOM     95  S   UNL     1      -2.182 -10.384   6.095  1.00  0.00     0.243 S 
ATOM     96  O   UNL     1      -1.317 -10.943   7.107  1.00  0.00    -0.207 OA
ATOM     97  O   UNL     1      -3.510  -9.887   6.407  1.00  0.00    -0.207 OA
BRANCH  95  98
ATOM     98  N   UNL     1      -2.380 -11.564   4.911  1.00  0.00    -0.193 NA
ATOM     99  C   UNL     1      -1.332 -12.563   4.620  1.00  0.00     0.131 C 
ATOM    100  C   UNL     1      -3.583 -11.637   4.069  1.00  0.00     0.131 C 
ATOM    101  C   UNL     1      -1.090 -12.705   3.107  1.00  0.00     0.177 C 
ATOM    102  C   UNL     1      -3.191 -11.725   2.594  1.00  0.00     0.177 C 
ATOM    103  O   UNL     1      -2.308 -12.831   2.356  1.00  0.00    -0.379 OA
ENDBRANCH  95  98
ENDBRANCH  94  95
ENDBRANCH  85  89
ENDBRANCH  72  74
ENDBRANCH  71  72
ENDBRANCH  70  71
ENDBRANCH   1  70
TORSDOF 17
