REMARK SMILES O=C(Cc1cccn1-c1ccccc1F)OCCOC(=O)c1ccc(-c2c3nc(c(-c4cccc(S(=O)(=O)[O-])c4F)c4ccc([nH]4)c(-c4cccc(S(=O)(=O)[O-])c4F)c4nc(c(-c5cccc(S(=O)(=O)[O-])c5F)c5ccc2[nH]5)C=C4)C=C3)cc1
REMARK SMILES IDX 18 1 17 2 16 3 2 4 1 5 3 6 4 7 5 8 8 9 6 10 7 11 9 12 10 13
REMARK SMILES IDX 14 14 11 15 13 16 15 17 12 18 19 19 20 20 21 21 22 22 23 23
REMARK SMILES IDX 84 24 24 25 83 26 25 27 26 28 27 29 77 30 28 31 82 32 76 33
REMARK SMILES IDX 78 34 29 35 81 36 75 37 74 38 30 40 62 41 42 42 61 43 43 44
REMARK SMILES IDX 46 45 60 46 79 47 44 48 45 49 59 51 80 52 47 53 31 54 32 55
REMARK SMILES IDX 40 56 33 57 35 58 41 59 34 60 36 61 37 62 38 63 39 64 63 65
REMARK SMILES IDX 64 66 72 67 65 68 67 69 73 70 66 71 68 72 69 73 70 74 71 75
REMARK SMILES IDX 48 76 49 77 57 78 50 79 52 80 58 81 51 82 53 83 54 84 55 85
REMARK SMILES IDX 56 86
REMARK H PARENT 78 39 46 50
REMARK Flexibility Score: inf
ROOT
ATOM      1  C   UNL     1       4.337  -0.896  -2.253  1.00  0.00     0.275 C 
ENDROOT
BRANCH   1   2
ATOM      2  C   UNL     1       4.329  -1.335  -0.809  1.00  0.00     0.274 C 
BRANCH   2   3
ATOM      3  O   UNL     1       2.992  -1.446  -0.268  1.00  0.00    -0.462 OA
BRANCH   3   4
ATOM      4  C   UNL     1       2.387  -0.578   0.585  1.00  0.00     0.311 C 
ATOM      5  O   UNL     1       1.286  -0.858   1.065  1.00  0.00    -0.252 OA
BRANCH   4   6
ATOM      6  C   UNL     1       3.068   0.719   0.947  1.00  0.00     0.177 C 
BRANCH   6   7
ATOM      7  C   UNL     1       3.975   0.755   2.147  1.00  0.00     0.034 A 
ATOM      8  C   UNL     1       4.489   1.920   2.706  1.00  0.00     0.024 A 
ATOM      9  N   UNL     1       4.579  -0.310   2.801  1.00  0.00    -0.318 N 
ATOM     10  C   UNL     1       5.453   1.562   3.668  1.00  0.00     0.020 A 
ATOM     11  C   UNL     1       5.511   0.189   3.684  1.00  0.00     0.091 A 
BRANCH   9  12
ATOM     12  C   UNL     1       4.348  -1.684   2.622  1.00  0.00     0.081 A 
ATOM     13  C   UNL     1       3.135  -2.240   3.030  1.00  0.00     0.030 A 
ATOM     14  C   UNL     1       5.281  -2.449   1.924  1.00  0.00     0.147 A 
ATOM     15  C   UNL     1       2.831  -3.551   2.663  1.00  0.00     0.002 A 
ATOM     16  C   UNL     1       4.962  -3.747   1.534  1.00  0.00     0.041 A 
ATOM     17  F   UNL     1       6.419  -1.903   1.471  1.00  0.00    -0.205 F 
ATOM     18  C   UNL     1       3.729  -4.293   1.891  1.00  0.00     0.003 A 
ENDBRANCH   9  12
ENDBRANCH   6   7
ENDBRANCH   4   6
ENDBRANCH   3   4
ENDBRANCH   2   3
ENDBRANCH   1   2
BRANCH   1  19
ATOM     19  O   UNL     1       4.099   0.493  -2.266  1.00  0.00    -0.458 OA
BRANCH  19  20
ATOM     20  C   UNL     1       2.806   0.887  -2.233  1.00  0.00     0.338 C 
ATOM     21  O   UNL     1       1.820   0.198  -2.142  1.00  0.00    -0.246 OA
BRANCH  20  22
ATOM     22  C   UNL     1       2.818   2.334  -2.484  1.00  0.00     0.060 A 
ATOM     23  C   UNL     1       1.597   2.822  -2.941  1.00  0.00     0.016 A 
ATOM     24  C   UNL     1       4.052   2.877  -2.858  1.00  0.00     0.016 A 
ATOM     25  C   UNL     1       1.633   3.628  -4.047  1.00  0.00     0.010 A 
ATOM     26  C   UNL     1       4.090   3.541  -4.047  1.00  0.00     0.010 A 
ATOM     27  C   UNL     1       2.878   3.899  -4.632  1.00  0.00    -0.014 A 
BRANCH  27  28
ATOM     28  C   UNL     1       2.902   4.816  -5.758  1.00  0.00     0.031 A 
ATOM     29  C   UNL     1       2.943   6.248  -5.164  1.00  0.00     0.074 A 
ATOM     30  C   UNL     1       2.770   4.217  -6.985  1.00  0.00     0.049 A 
ATOM     31  N   UNL     1       2.271   7.301  -5.506  1.00  0.00    -0.248 NA
ATOM     32  C   UNL     1       3.695   6.513  -3.893  1.00  0.00     0.031 C 
ATOM     33  C   UNL     1       2.803   2.752  -7.261  1.00  0.00     0.029 A 
ATOM     34  N   UNL     1       2.573   4.700  -8.255  1.00  0.00    -0.354 N 
ATOM     35  C   UNL     1       2.730   8.368  -4.694  1.00  0.00     0.074 A 
ATOM     36  C   UNL     1       3.436   7.788  -3.604  1.00  0.00     0.031 C 
ATOM     37  C   UNL     1       2.526   2.490  -8.563  1.00  0.00     0.029 A 
ATOM     38  C   UNL     1       2.307   3.739  -9.269  1.00  0.00     0.049 A 
ATOM     39  H   UNL     1       2.613   5.663  -8.453  1.00  0.00     0.167 HD
ATOM     40  C   UNL     1       2.667   9.673  -5.085  1.00  0.00     0.034 A 
ATOM     41  C   UNL     1       1.888   3.970 -10.558  1.00  0.00     0.034 A 
ATOM     42  C   UNL     1       2.117   9.725  -6.401  1.00  0.00     0.049 A 
ATOM     43  C   UNL     1       1.926   5.434 -10.682  1.00  0.00     0.074 A 
ATOM     44  C   UNL     1       0.844   9.506  -6.859  1.00  0.00     0.029 A 
ATOM     45  N   UNL     1       3.025   9.537  -7.421  1.00  0.00    -0.354 N 
ATOM     46  N   UNL     1       3.016   6.141 -10.723  1.00  0.00    -0.248 NA
ATOM     47  C   UNL     1       0.664   6.176 -10.587  1.00  0.00     0.031 C 
ATOM     48  C   UNL     1       1.064   8.713  -8.002  1.00  0.00     0.029 A 
ATOM     49  C   UNL     1       2.421   8.736  -8.355  1.00  0.00     0.049 A 
ATOM     50  H   UNL     1       3.936   9.908  -7.470  1.00  0.00     0.167 HD
ATOM     51  C   UNL     1       2.578   7.364 -10.281  1.00  0.00     0.074 A 
ATOM     52  C   UNL     1       1.155   7.410 -10.548  1.00  0.00     0.031 C 
ATOM     53  C   UNL     1       3.248   8.006  -9.285  1.00  0.00     0.034 A 
BRANCH  40  54
ATOM     54  C   UNL     1       3.257  10.950  -4.556  1.00  0.00     0.023 A 
ATOM     55  C   UNL     1       2.626  12.135  -5.029  1.00  0.00     0.012 A 
ATOM     56  C   UNL     1       4.493  11.090  -3.903  1.00  0.00     0.148 A 
ATOM     57  C   UNL     1       3.240  13.382  -4.973  1.00  0.00     0.002 A 
ATOM     58  C   UNL     1       5.084  12.354  -3.804  1.00  0.00     0.091 A 
ATOM     59  F   UNL     1       5.128  10.002  -3.454  1.00  0.00    -0.205 F 
ATOM     60  C   UNL     1       4.479  13.487  -4.371  1.00  0.00     0.022 A 
BRANCH  58  61
ATOM     61  S   UNL     1       6.656  12.647  -2.983  1.00  0.00     0.127 S 
ATOM     62  O   UNL     1       7.532  12.961  -4.110  1.00  0.00    -0.237 OA
ATOM     63  O   UNL     1       6.335  13.792  -2.128  1.00  0.00    -0.237 OA
ATOM     64  O   UNL     1       6.958  11.425  -2.252  1.00  0.00    -0.744 OA
ENDBRANCH  58  61
ENDBRANCH  40  54
BRANCH  41  65
ATOM     65  C   UNL     1       1.302   3.217 -11.741  1.00  0.00     0.023 A 
ATOM     66  C   UNL     1       1.250   1.822 -11.859  1.00  0.00     0.012 A 
ATOM     67  C   UNL     1       0.645   3.947 -12.787  1.00  0.00     0.148 A 
ATOM     68  C   UNL     1       0.505   1.204 -12.893  1.00  0.00     0.002 A 
ATOM     69  C   UNL     1      -0.198   3.344 -13.714  1.00  0.00     0.091 A 
ATOM     70  F   UNL     1       0.859   5.261 -12.915  1.00  0.00    -0.205 F 
ATOM     71  C   UNL     1      -0.260   1.959 -13.784  1.00  0.00     0.022 A 
BRANCH  69  72
ATOM     72  S   UNL     1      -1.344   4.306 -14.730  1.00  0.00     0.127 S 
ATOM     73  O   UNL     1      -1.077   3.796 -16.073  1.00  0.00    -0.237 OA
ATOM     74  O   UNL     1      -2.635   3.907 -14.167  1.00  0.00    -0.237 OA
ATOM     75  O   UNL     1      -1.002   5.707 -14.523  1.00  0.00    -0.744 OA
ENDBRANCH  69  72
ENDBRANCH  41  65
BRANCH  53  76
ATOM     76  C   UNL     1       4.728   7.621  -9.129  1.00  0.00     0.023 A 
ATOM     77  C   UNL     1       5.545   7.763 -10.268  1.00  0.00     0.012 A 
ATOM     78  C   UNL     1       5.339   7.045  -7.986  1.00  0.00     0.148 A 
ATOM     79  C   UNL     1       6.881   7.345 -10.285  1.00  0.00     0.002 A 
ATOM     80  C   UNL     1       6.670   6.600  -8.007  1.00  0.00     0.091 A 
ATOM     81  F   UNL     1       4.632   6.944  -6.866  1.00  0.00    -0.205 F 
ATOM     82  C   UNL     1       7.443   6.759  -9.159  1.00  0.00     0.022 A 
BRANCH  80  83
ATOM     83  S   UNL     1       7.472   5.740  -6.631  1.00  0.00     0.127 S 
ATOM     84  O   UNL     1       8.083   4.582  -7.290  1.00  0.00    -0.237 OA
ATOM     85  O   UNL     1       8.433   6.733  -6.161  1.00  0.00    -0.237 OA
ATOM     86  O   UNL     1       6.414   5.391  -5.691  1.00  0.00    -0.744 OA
ENDBRANCH  80  83
ENDBRANCH  53  76
ENDBRANCH  27  28
ENDBRANCH  20  22
ENDBRANCH  19  20
ENDBRANCH   1  19
TORSDOF 16
