REMARK SMILES CCc1ccnc(C(=O)c2[nH]c3ccc(OC(F)(F)F)cc3c2CC(=O)OCCOC(=O)c2ccc(-c3c4nc(c(-c5cccc(S(=O)(=O)[O-])c5F)c5ccc([nH]5)c(-c5cccc(S(=O)(=O)[O-])c5F)c5nc(c(-c6cccc(S(=O)(=O)[O-])c6F)c6ccc3[nH]6)C=C5)C=C4)cc2)c1
REMARK SMILES IDX 28 1 27 2 25 3 26 4 24 5 23 6 10 7 11 8 12 9 22 11 13 12
REMARK SMILES IDX 21 13 14 14 15 15 8 16 9 17 7 18 3 19 4 20 96 21 5 22 6 23
REMARK SMILES IDX 2 24 1 25 16 26 17 27 18 28 19 29 20 30 29 31 30 32 31 33
REMARK SMILES IDX 32 34 33 35 34 36 95 37 35 38 94 39 36 40 37 41 38 42 88 43
REMARK SMILES IDX 39 44 93 45 87 46 89 47 40 48 92 49 86 50 85 51 41 53 73 54
REMARK SMILES IDX 53 55 72 56 54 57 57 58 71 59 90 60 55 61 56 62 70 64 91 65
REMARK SMILES IDX 58 66 42 67 43 68 51 69 44 70 46 71 52 72 45 73 47 74 48 75
REMARK SMILES IDX 49 76 50 77 74 78 75 79 83 80 76 81 78 82 84 83 77 84 79 85
REMARK SMILES IDX 80 86 81 87 82 88 59 89 60 90 68 91 61 92 63 93 69 94 62 95
REMARK SMILES IDX 64 96 65 97 66 98 67 99
REMARK H PARENT 11 10 89 52 57 63
REMARK Flexibility Score: inf
ROOT
ATOM      1  C   UNL     1       6.115  -4.871  -7.396  1.00  0.00     0.274 C 
ENDROOT
BRANCH   1   2
ATOM      2  O   UNL     1       5.640  -3.709  -6.682  1.00  0.00    -0.462 OA
BRANCH   2   3
ATOM      3  C   UNL     1       4.599  -3.040  -7.239  1.00  0.00     0.310 C 
ATOM      4  O   UNL     1       4.171  -3.251  -8.370  1.00  0.00    -0.252 OA
BRANCH   3   5
ATOM      5  C   UNL     1       3.884  -2.103  -6.287  1.00  0.00     0.161 C 
BRANCH   5   6
ATOM      6  C   UNL     1       4.709  -1.368  -5.279  1.00  0.00     0.000 A 
ATOM      7  C   UNL     1       4.892  -1.676  -3.932  1.00  0.00     0.093 A 
ATOM      8  N   UNL     1       5.732  -0.724  -3.410  1.00  0.00    -0.352 N 
ATOM      9  C   UNL     1       5.944   0.285  -4.308  1.00  0.00     0.046 A 
ATOM     10  H   UNL     1       6.129  -0.762  -2.510  1.00  0.00     0.167 HD
ATOM     11  C   UNL     1       5.379  -0.116  -5.513  1.00  0.00     0.008 A 
ATOM     12  C   UNL     1       6.598   1.506  -4.138  1.00  0.00     0.030 A 
ATOM     13  C   UNL     1       5.527   0.737  -6.629  1.00  0.00     0.057 A 
ATOM     14  C   UNL     1       6.701   2.347  -5.249  1.00  0.00     0.049 A 
ATOM     15  C   UNL     1       6.190   1.969  -6.491  1.00  0.00     0.130 A 
BRANCH   7  16
ATOM     16  C   UNL     1       4.426  -2.751  -3.068  1.00  0.00     0.227 C 
ATOM     17  O   UNL     1       5.239  -3.493  -2.518  1.00  0.00    -0.285 OA
BRANCH  16  18
ATOM     18  C   UNL     1       2.991  -2.747  -2.594  1.00  0.00     0.113 A 
ATOM     19  C   UNL     1       1.074  -1.526  -1.790  1.00  0.00    -0.044 A 
ATOM     20  C   UNL     1       0.611  -2.713  -1.223  1.00  0.00     0.024 A 
ATOM     21  C   UNL     1       2.276  -1.550  -2.512  1.00  0.00     0.036 A 
ATOM     22  C   UNL     1       1.369  -3.861  -1.377  1.00  0.00     0.112 A 
ATOM     23  N   UNL     1       2.545  -3.902  -2.037  1.00  0.00    -0.253 NA
BRANCH  19  24
ATOM     24  C   UNL     1       0.359  -0.226  -1.522  1.00  0.00     0.032 C 
ATOM     25  C   UNL     1       0.765   0.353  -0.171  1.00  0.00     0.009 C 
ENDBRANCH  19  24
ENDBRANCH  16  18
ENDBRANCH   7  16
BRANCH  15  26
ATOM     26  O   UNL     1       6.262   2.703  -7.644  1.00  0.00    -0.406 OA
BRANCH  26  27
ATOM     27  C   UNL     1       6.877   3.978  -7.572  1.00  0.00     0.573 C 
ATOM     28  F   UNL     1       6.206   4.798  -6.735  1.00  0.00    -0.132 F 
ATOM     29  F   UNL     1       8.164   3.884  -7.172  1.00  0.00    -0.132 F 
ATOM     30  F   UNL     1       6.867   4.538  -8.803  1.00  0.00    -0.132 F 
ENDBRANCH  26  27
ENDBRANCH  15  26
ENDBRANCH   5   6
ENDBRANCH   3   5
ENDBRANCH   2   3
ENDBRANCH   1   2
BRANCH   1  31
ATOM     31  C   UNL     1       5.717  -6.163  -6.672  1.00  0.00     0.275 C 
BRANCH  31  32
ATOM     32  O   UNL     1       4.289  -6.367  -6.678  1.00  0.00    -0.458 OA
BRANCH  32  33
ATOM     33  C   UNL     1       3.657  -5.792  -5.638  1.00  0.00     0.338 C 
ATOM     34  O   UNL     1       4.172  -5.112  -4.752  1.00  0.00    -0.246 OA
BRANCH  33  35
ATOM     35  C   UNL     1       2.210  -5.957  -5.695  1.00  0.00     0.060 A 
ATOM     36  C   UNL     1       1.451  -4.939  -6.276  1.00  0.00     0.016 A 
ATOM     37  C   UNL     1       1.603  -6.983  -4.971  1.00  0.00     0.016 A 
ATOM     38  C   UNL     1       0.078  -4.903  -6.065  1.00  0.00     0.010 A 
ATOM     39  C   UNL     1       0.215  -6.985  -4.826  1.00  0.00     0.010 A 
ATOM     40  C   UNL     1      -0.553  -5.928  -5.343  1.00  0.00    -0.014 A 
BRANCH  40  41
ATOM     41  C   UNL     1      -2.026  -5.909  -5.178  1.00  0.00     0.031 A 
ATOM     42  C   UNL     1      -2.657  -5.714  -3.831  1.00  0.00     0.074 A 
ATOM     43  C   UNL     1      -2.792  -6.083  -6.270  1.00  0.00     0.049 A 
ATOM     44  N   UNL     1      -3.925  -5.694  -3.510  1.00  0.00    -0.248 NA
ATOM     45  C   UNL     1      -1.749  -5.511  -2.692  1.00  0.00     0.031 C 
ATOM     46  C   UNL     1      -2.283  -6.296  -7.626  1.00  0.00     0.029 A 
ATOM     47  N   UNL     1      -4.154  -6.128  -6.411  1.00  0.00    -0.354 N 
ATOM     48  C   UNL     1      -3.969  -5.497  -2.136  1.00  0.00     0.074 A 
ATOM     49  C   UNL     1      -2.599  -5.408  -1.677  1.00  0.00     0.031 C 
ATOM     50  C   UNL     1      -3.318  -6.454  -8.462  1.00  0.00     0.029 A 
ATOM     51  C   UNL     1      -4.558  -6.403  -7.695  1.00  0.00     0.049 A 
ATOM     52  H   UNL     1      -4.781  -5.979  -5.667  1.00  0.00     0.167 HD
ATOM     53  C   UNL     1      -5.054  -5.383  -1.334  1.00  0.00     0.034 A 
ATOM     54  C   UNL     1      -5.787  -6.620  -8.198  1.00  0.00     0.034 A 
ATOM     55  C   UNL     1      -6.413  -5.464  -1.799  1.00  0.00     0.049 A 
ATOM     56  C   UNL     1      -6.971  -6.526  -7.282  1.00  0.00     0.074 A 
ATOM     57  C   UNL     1      -7.583  -5.323  -1.073  1.00  0.00     0.029 A 
ATOM     58  N   UNL     1      -6.785  -5.721  -3.110  1.00  0.00    -0.354 N 
ATOM     59  N   UNL     1      -7.001  -6.224  -6.007  1.00  0.00    -0.248 NA
ATOM     60  C   UNL     1      -8.290  -6.784  -7.874  1.00  0.00     0.031 C 
ATOM     61  C   UNL     1      -8.663  -5.505  -1.945  1.00  0.00     0.029 A 
ATOM     62  C   UNL     1      -8.165  -5.757  -3.214  1.00  0.00     0.049 A 
ATOM     63  H   UNL     1      -6.159  -5.857  -3.858  1.00  0.00     0.167 HD
ATOM     64  C   UNL     1      -8.340  -6.244  -5.643  1.00  0.00     0.074 A 
ATOM     65  C   UNL     1      -9.093  -6.561  -6.841  1.00  0.00     0.031 C 
ATOM     66  C   UNL     1      -8.896  -6.039  -4.423  1.00  0.00     0.034 A 
BRANCH  53  67
ATOM     67  C   UNL     1      -4.817  -5.109   0.126  1.00  0.00     0.023 A 
ATOM     68  C   UNL     1      -4.516  -3.795   0.535  1.00  0.00     0.012 A 
ATOM     69  C   UNL     1      -4.944  -6.123   1.094  1.00  0.00     0.148 A 
ATOM     70  C   UNL     1      -4.330  -3.496   1.885  1.00  0.00     0.002 A 
ATOM     71  C   UNL     1      -4.781  -5.812   2.441  1.00  0.00     0.091 A 
ATOM     72  F   UNL     1      -5.197  -7.374   0.684  1.00  0.00    -0.205 F 
ATOM     73  C   UNL     1      -4.471  -4.501   2.837  1.00  0.00     0.022 A 
BRANCH  71  74
ATOM     74  S   UNL     1      -4.995  -7.042   3.734  1.00  0.00     0.127 S 
ATOM     75  O   UNL     1      -3.612  -7.435   3.998  1.00  0.00    -0.237 OA
ATOM     76  O   UNL     1      -5.623  -6.268   4.806  1.00  0.00    -0.237 OA
ATOM     77  O   UNL     1      -5.850  -8.069   3.156  1.00  0.00    -0.744 OA
ENDBRANCH  71  74
ENDBRANCH  53  67
BRANCH  54  78
ATOM     78  C   UNL     1      -5.930  -6.910  -9.649  1.00  0.00     0.023 A 
ATOM     79  C   UNL     1      -6.460  -5.925 -10.502  1.00  0.00     0.012 A 
ATOM     80  C   UNL     1      -5.439  -8.110 -10.203  1.00  0.00     0.148 A 
ATOM     81  C   UNL     1      -6.498  -6.130 -11.881  1.00  0.00     0.002 A 
ATOM     82  C   UNL     1      -5.426  -8.282 -11.581  1.00  0.00     0.091 A 
ATOM     83  F   UNL     1      -4.961  -9.048  -9.372  1.00  0.00    -0.205 F 
ATOM     84  C   UNL     1      -5.965  -7.298 -12.423  1.00  0.00     0.022 A 
BRANCH  82  85
ATOM     85  S   UNL     1      -4.606  -9.688 -12.343  1.00  0.00     0.127 S 
ATOM     86  O   UNL     1      -5.722 -10.598 -12.576  1.00  0.00    -0.237 OA
ATOM     87  O   UNL     1      -4.029  -9.098 -13.552  1.00  0.00    -0.237 OA
ATOM     88  O   UNL     1      -3.615 -10.121 -11.366  1.00  0.00    -0.744 OA
ENDBRANCH  82  85
ENDBRANCH  54  78
BRANCH  66  89
ATOM     89  C   UNL     1     -10.390  -6.165  -4.321  1.00  0.00     0.023 A 
ATOM     90  C   UNL     1     -10.969  -7.449  -4.289  1.00  0.00     0.012 A 
ATOM     91  C   UNL     1     -11.211  -5.030  -4.194  1.00  0.00     0.148 A 
ATOM     92  C   UNL     1     -12.348  -7.600  -4.152  1.00  0.00     0.002 A 
ATOM     93  C   UNL     1     -12.582  -5.189  -4.023  1.00  0.00     0.091 A 
ATOM     94  F   UNL     1     -10.644  -3.816  -4.255  1.00  0.00    -0.205 F 
ATOM     95  C   UNL     1     -13.152  -6.472  -4.008  1.00  0.00     0.022 A 
BRANCH  93  96
ATOM     96  S   UNL     1     -13.664  -3.782  -3.752  1.00  0.00     0.127 S 
ATOM     97  O   UNL     1     -14.150  -3.511  -5.103  1.00  0.00    -0.237 OA
ATOM     98  O   UNL     1     -14.672  -4.323  -2.838  1.00  0.00    -0.237 OA
ATOM     99  O   UNL     1     -12.818  -2.752  -3.162  1.00  0.00    -0.744 OA
ENDBRANCH  93  96
ENDBRANCH  66  89
ENDBRANCH  40  41
ENDBRANCH  33  35
ENDBRANCH  32  33
ENDBRANCH  31  32
ENDBRANCH   1  31
TORSDOF 20
