REMARK SMILES O=C(OCCOC(=O)c1ccc(-c2ccn(C(F)F)c(=O)c2)cc1O)c1ccc(-c2c3nc(c(-c4cccc(S(=O)(=O)[O-])c4F)c4ccc([nH]4)c(-c4cccc(S(=O)(=O)[O-])c4F)c4nc(c(-c5cccc(S(=O)(=O)[O-])c5F)c5ccc2[nH]5)C=C4)C=C3)cc1
REMARK SMILES IDX 4 1 3 2 2 3 1 4 26 5 27 6 88 7 28 8 87 9 29 10 30 11 31 12
REMARK SMILES IDX 81 13 32 14 86 15 80 16 82 17 33 18 85 19 79 20 78 21 34 23
REMARK SMILES IDX 66 24 46 25 65 26 47 27 50 28 64 29 83 30 48 31 49 32 63 34
REMARK SMILES IDX 84 35 51 36 35 37 36 38 44 39 37 40 39 41 45 42 38 43 40 44
REMARK SMILES IDX 41 45 42 46 43 47 67 48 68 49 76 50 69 51 71 52 77 53 70 54
REMARK SMILES IDX 72 55 73 56 74 57 75 58 52 59 53 60 61 61 54 62 56 63 62 64
REMARK SMILES IDX 55 65 57 66 58 67 59 68 60 69 5 70 6 71 7 72 8 73 9 74 10 75
REMARK SMILES IDX 24 76 11 77 23 78 12 79 25 80 13 82 14 83 22 84 15 85 20 86
REMARK SMILES IDX 16 87 21 88 17 89 18 90 19 91
REMARK H PARENT 82 22 50 33 25 81
REMARK Flexibility Score: inf
ROOT
ATOM      1  C   UNL     1       4.218  -0.034  -1.322  1.00  0.00     0.275 C 
ENDROOT
BRANCH   1   2
ATOM      2  O   UNL     1       3.165  -0.803  -0.713  1.00  0.00    -0.458 OA
BRANCH   2   3
ATOM      3  C   UNL     1       2.946  -1.085   0.594  1.00  0.00     0.338 C 
ATOM      4  O   UNL     1       2.098  -1.930   0.881  1.00  0.00    -0.246 OA
BRANCH   3   5
ATOM      5  C   UNL     1       3.564  -0.311   1.714  1.00  0.00     0.060 A 
ATOM      6  C   UNL     1       2.755  -0.111   2.844  1.00  0.00     0.016 A 
ATOM      7  C   UNL     1       4.864   0.198   1.745  1.00  0.00     0.016 A 
ATOM      8  C   UNL     1       3.187   0.684   3.909  1.00  0.00     0.010 A 
ATOM      9  C   UNL     1       5.303   0.993   2.812  1.00  0.00     0.010 A 
ATOM     10  C   UNL     1       4.457   1.272   3.888  1.00  0.00    -0.014 A 
BRANCH  10  11
ATOM     11  C   UNL     1       4.944   2.030   5.063  1.00  0.00     0.031 A 
ATOM     12  C   UNL     1       5.137   3.516   5.038  1.00  0.00     0.074 A 
ATOM     13  C   UNL     1       5.244   1.337   6.176  1.00  0.00     0.049 A 
ATOM     14  N   UNL     1       5.266   4.337   6.047  1.00  0.00    -0.248 NA
ATOM     15  C   UNL     1       5.182   4.178   3.726  1.00  0.00     0.031 C 
ATOM     16  C   UNL     1       5.187  -0.121   6.290  1.00  0.00     0.029 A 
ATOM     17  N   UNL     1       5.668   1.757   7.407  1.00  0.00    -0.354 N 
ATOM     18  C   UNL     1       5.348   5.610   5.501  1.00  0.00     0.074 A 
ATOM     19  C   UNL     1       5.293   5.458   4.065  1.00  0.00     0.031 C 
ATOM     20  C   UNL     1       5.558  -0.476   7.527  1.00  0.00     0.029 A 
ATOM     21  C   UNL     1       5.885   0.727   8.288  1.00  0.00     0.049 A 
ATOM     22  H   UNL     1       5.805   2.704   7.638  1.00  0.00     0.167 HD
ATOM     23  C   UNL     1       5.451   6.793   6.148  1.00  0.00     0.034 A 
ATOM     24  C   UNL     1       6.295   0.744   9.569  1.00  0.00     0.034 A 
ATOM     25  C   UNL     1       5.651   6.915   7.566  1.00  0.00     0.049 A 
ATOM     26  C   UNL     1       6.524   2.063  10.242  1.00  0.00     0.074 A 
ATOM     27  C   UNL     1       5.729   8.067   8.327  1.00  0.00     0.029 A 
ATOM     28  N   UNL     1       5.898   5.850   8.418  1.00  0.00    -0.354 N 
ATOM     29  N   UNL     1       6.325   3.268   9.764  1.00  0.00    -0.248 NA
ATOM     30  C   UNL     1       7.014   2.034  11.626  1.00  0.00     0.031 C 
ATOM     31  C   UNL     1       6.090   7.702   9.628  1.00  0.00     0.029 A 
ATOM     32  C   UNL     1       6.206   6.321   9.681  1.00  0.00     0.049 A 
ATOM     33  H   UNL     1       5.860   4.900   8.163  1.00  0.00     0.167 HD
ATOM     34  C   UNL     1       6.645   4.144  10.793  1.00  0.00     0.074 A 
ATOM     35  C   UNL     1       7.053   3.330  11.921  1.00  0.00     0.031 C 
ATOM     36  C   UNL     1       6.604   5.498  10.796  1.00  0.00     0.034 A 
BRANCH  23  37
ATOM     37  C   UNL     1       5.323   8.059   5.351  1.00  0.00     0.023 A 
ATOM     38  C   UNL     1       4.031   8.548   5.067  1.00  0.00     0.012 A 
ATOM     39  C   UNL     1       6.449   8.824   4.997  1.00  0.00     0.148 A 
ATOM     40  C   UNL     1       3.861   9.784   4.444  1.00  0.00     0.002 A 
ATOM     41  C   UNL     1       6.272  10.062   4.388  1.00  0.00     0.091 A 
ATOM     42  F   UNL     1       7.664   8.330   5.269  1.00  0.00    -0.205 F 
ATOM     43  C   UNL     1       4.980  10.543   4.112  1.00  0.00     0.022 A 
BRANCH  41  44
ATOM     44  S   UNL     1       7.641  11.134   3.939  1.00  0.00     0.127 S 
ATOM     45  O   UNL     1       7.510  11.175   2.483  1.00  0.00    -0.237 OA
ATOM     46  O   UNL     1       7.289  12.379   4.620  1.00  0.00    -0.237 OA
ATOM     47  O   UNL     1       8.844  10.478   4.432  1.00  0.00    -0.744 OA
ENDBRANCH  41  44
ENDBRANCH  23  37
BRANCH  24  48
ATOM     48  C   UNL     1       6.427  -0.554  10.279  1.00  0.00     0.023 A 
ATOM     49  C   UNL     1       5.397  -0.971  11.141  1.00  0.00     0.012 A 
ATOM     50  C   UNL     1       7.471  -1.446   9.960  1.00  0.00     0.148 A 
ATOM     51  C   UNL     1       5.397  -2.265  11.663  1.00  0.00     0.002 A 
ATOM     52  C   UNL     1       7.442  -2.745  10.449  1.00  0.00     0.091 A 
ATOM     53  F   UNL     1       8.436  -1.018   9.132  1.00  0.00    -0.205 F 
ATOM     54  C   UNL     1       6.407  -3.155  11.306  1.00  0.00     0.022 A 
BRANCH  52  55
ATOM     55  S   UNL     1       8.622  -3.999   9.937  1.00  0.00     0.127 S 
ATOM     56  O   UNL     1       9.325  -4.276  11.187  1.00  0.00    -0.237 OA
ATOM     57  O   UNL     1       7.741  -5.071   9.473  1.00  0.00    -0.237 OA
ATOM     58  O   UNL     1       9.427  -3.384   8.890  1.00  0.00    -0.744 OA
ENDBRANCH  52  55
ENDBRANCH  24  48
BRANCH  36  59
ATOM     59  C   UNL     1       7.043   6.219  12.038  1.00  0.00     0.023 A 
ATOM     60  C   UNL     1       8.419   6.399  12.274  1.00  0.00     0.012 A 
ATOM     61  C   UNL     1       6.101   6.859  12.866  1.00  0.00     0.148 A 
ATOM     62  C   UNL     1       8.853   7.213  13.319  1.00  0.00     0.002 A 
ATOM     63  C   UNL     1       6.540   7.699  13.880  1.00  0.00     0.091 A 
ATOM     64  F   UNL     1       4.798   6.668  12.614  1.00  0.00    -0.205 F 
ATOM     65  C   UNL     1       7.916   7.874  14.111  1.00  0.00     0.022 A 
BRANCH  63  66
ATOM     66  S   UNL     1       5.416   8.668  14.891  1.00  0.00     0.127 S 
ATOM     67  O   UNL     1       5.668   8.123  16.224  1.00  0.00    -0.237 OA
ATOM     68  O   UNL     1       5.911  10.028  14.682  1.00  0.00    -0.237 OA
ATOM     69  O   UNL     1       4.080   8.419  14.366  1.00  0.00    -0.744 OA
ENDBRANCH  63  66
ENDBRANCH  36  59
ENDBRANCH  10  11
ENDBRANCH   3   5
ENDBRANCH   2   3
ENDBRANCH   1   2
BRANCH   1  70
ATOM     70  C   UNL     1       3.926   1.459  -1.462  1.00  0.00     0.275 C 
BRANCH  70  71
ATOM     71  O   UNL     1       3.418   2.049  -0.260  1.00  0.00    -0.458 OA
BRANCH  71  72
ATOM     72  C   UNL     1       2.082   2.290  -0.245  1.00  0.00     0.342 C 
ATOM     73  O   UNL     1       1.281   2.016  -1.126  1.00  0.00    -0.246 OA
BRANCH  72  74
ATOM     74  C   UNL     1       1.672   2.794   1.080  1.00  0.00     0.101 A 
ATOM     75  C   UNL     1       0.645   2.109   1.742  1.00  0.00     0.020 A 
ATOM     76  C   UNL     1       2.256   3.910   1.680  1.00  0.00     0.130 A 
ATOM     77  C   UNL     1       0.256   2.497   3.028  1.00  0.00     0.010 A 
ATOM     78  C   UNL     1       1.857   4.306   2.962  1.00  0.00     0.055 A 
ATOM     79  C   UNL     1       0.871   3.589   3.657  1.00  0.00    -0.014 A 
BRANCH  76  80
ATOM     80  O   UNL     1       3.200   4.636   1.010  1.00  0.00    -0.507 OA
ATOM     81  H   UNL     1       3.471   4.375   0.152  1.00  0.00     0.293 HD
ENDBRANCH  76  80
BRANCH  79  82
ATOM     82  C   UNL     1       0.462   4.017   5.013  1.00  0.00    -0.011 A 
ATOM     83  C   UNL     1      -0.006   5.364   5.288  1.00  0.00     0.027 A 
ATOM     84  C   UNL     1       0.524   3.139   6.031  1.00  0.00     0.080 A 
ATOM     85  C   UNL     1      -0.366   5.726   6.525  1.00  0.00     0.095 A 
ATOM     86  C   UNL     1       0.071   3.510   7.403  1.00  0.00     0.255 A 
ATOM     87  N   UNL     1      -0.324   4.826   7.572  1.00  0.00    -0.258 N 
ATOM     88  O   UNL     1       0.039   2.634   8.262  1.00  0.00    -0.269 OA
BRANCH  87  89
ATOM     89  C   UNL     1      -0.766   5.216   8.888  1.00  0.00     0.451 C 
ATOM     90  F   UNL     1      -1.931   4.590   9.198  1.00  0.00    -0.185 F 
ATOM     91  F   UNL     1       0.142   4.903   9.839  1.00  0.00    -0.185 F 
ENDBRANCH  87  89
ENDBRANCH  79  82
ENDBRANCH  72  74
ENDBRANCH  71  72
ENDBRANCH  70  71
ENDBRANCH   1  70
TORSDOF 17
