REMARK SMILES Nc1nonc1C(=O)N1[C@@H]2CC[C@H]1C[C@H](CC(=O)OCCOC(=O)c1ccc(-c3c4nc(c(-c5cccc(S(=O)(=O)[O-])c5F)c5ccc([nH]5)c(-c5cccc(S(=O)(=O)[O-])c5F)c5nc(c(-c6cccc(S(=O)(=O)[O-])c6F)c6ccc3[nH]6)C=C5)C=C4)cc1)C2
REMARK SMILES IDX 20 1 19 2 17 3 18 4 16 5 15 6 9 7 10 8 13 9 11 10 88 11
REMARK SMILES IDX 12 12 14 13 7 14 8 15 6 16 2 17 3 18 4 19 5 20 1 21 21 24
REMARK SMILES IDX 22 25 23 26 24 27 25 28 26 29 87 30 27 31 86 32 28 33 29 34
REMARK SMILES IDX 30 35 80 36 31 37 85 38 79 39 81 40 32 41 84 42 78 43 77 44
REMARK SMILES IDX 33 46 65 47 45 48 64 49 46 50 49 51 63 52 82 53 47 54 48 55
REMARK SMILES IDX 62 57 83 58 50 59 34 60 35 61 43 62 36 63 38 64 44 65 37 66
REMARK SMILES IDX 39 67 40 68 41 69 42 70 66 71 67 72 75 73 68 74 70 75 76 76
REMARK SMILES IDX 69 77 71 78 72 79 73 80 74 81 51 82 52 83 60 84 53 85 55 86
REMARK SMILES IDX 61 87 54 88 56 89 57 90 58 91 59 92
REMARK H PARENT 1 22 1 23 81 45 49 56
REMARK Flexibility Score: inf
ROOT
ATOM      1  C   UNL     1       7.243   0.412   0.309  1.00  0.00     0.274 C 
ENDROOT
BRANCH   1   2
ATOM      2  O   UNL     1       6.004  -0.153  -0.156  1.00  0.00    -0.462 OA
BRANCH   2   3
ATOM      3  C   UNL     1       5.744  -0.018  -1.478  1.00  0.00     0.306 C 
ATOM      4  O   UNL     1       6.416   0.635  -2.264  1.00  0.00    -0.252 OA
BRANCH   3   5
ATOM      5  C   UNL     1       4.456  -0.695  -1.888  1.00  0.00     0.126 C 
BRANCH   5   6
ATOM      6  C   UNL     1       4.125  -2.062  -1.244  1.00  0.00     0.004 C 
ATOM      7  N   UNL     1       1.569  -2.700  -0.210  1.00  0.00    -0.331 N 
ATOM      8  C   UNL     1       2.021  -3.576  -1.275  1.00  0.00     0.086 C 
ATOM      9  C   UNL     1       2.624  -2.747   0.787  1.00  0.00     0.086 C 
ATOM     10  C   UNL     1       2.695  -4.754  -0.561  1.00  0.00     0.027 C 
ATOM     11  C   UNL     1       3.011  -2.746  -2.091  1.00  0.00     0.029 C 
ATOM     12  C   UNL     1       2.979  -4.238   0.850  1.00  0.00     0.027 C 
ATOM     13  C   UNL     1       3.815  -1.925   0.277  1.00  0.00     0.029 C 
BRANCH   7  14
ATOM     14  C   UNL     1       0.226  -2.702   0.162  1.00  0.00     0.280 C 
ATOM     15  O   UNL     1      -0.423  -3.748   0.173  1.00  0.00    -0.267 OA
BRANCH  14  16
ATOM     16  C   UNL     1      -0.375  -1.393   0.440  1.00  0.00     0.216 A 
ATOM     17  C   UNL     1       0.115  -0.072   0.255  1.00  0.00     0.201 A 
ATOM     18  N   UNL     1      -0.812   0.809   0.618  1.00  0.00    -0.032 NA
ATOM     19  O   UNL     1      -1.907   0.049   0.993  1.00  0.00    -0.242 OA
ATOM     20  N   UNL     1      -1.636  -1.306   0.895  1.00  0.00    -0.042 NA
BRANCH  17  21
ATOM     21  N   UNL     1       1.310   0.283  -0.238  1.00  0.00    -0.379 N 
ATOM     22  H   UNL     1       1.544   1.236  -0.323  1.00  0.00     0.158 HD
ATOM     23  H   UNL     1       1.953  -0.408  -0.516  1.00  0.00     0.158 HD
ENDBRANCH  17  21
ENDBRANCH  14  16
ENDBRANCH   7  14
ENDBRANCH   5   6
ENDBRANCH   3   5
ENDBRANCH   2   3
ENDBRANCH   1   2
BRANCH   1  24
ATOM     24  C   UNL     1       8.314  -0.673   0.430  1.00  0.00     0.275 C 
BRANCH  24  25
ATOM     25  O   UNL     1       8.677  -1.184  -0.864  1.00  0.00    -0.458 OA
BRANCH  25  26
ATOM     26  C   UNL     1       8.081  -2.343  -1.229  1.00  0.00     0.338 C 
ATOM     27  O   UNL     1       7.319  -3.025  -0.567  1.00  0.00    -0.246 OA
BRANCH  26  28
ATOM     28  C   UNL     1       8.395  -2.613  -2.640  1.00  0.00     0.060 A 
ATOM     29  C   UNL     1       7.405  -2.402  -3.604  1.00  0.00     0.016 A 
ATOM     30  C   UNL     1       9.646  -3.107  -3.003  1.00  0.00     0.016 A 
ATOM     31  C   UNL     1       7.665  -2.671  -4.945  1.00  0.00     0.010 A 
ATOM     32  C   UNL     1       9.909  -3.370  -4.349  1.00  0.00     0.010 A 
ATOM     33  C   UNL     1       8.921  -3.155  -5.327  1.00  0.00    -0.014 A 
BRANCH  33  34
ATOM     34  C   UNL     1       9.211  -3.446  -6.750  1.00  0.00     0.031 A 
ATOM     35  C   UNL     1       9.348  -4.867  -7.208  1.00  0.00     0.074 A 
ATOM     36  C   UNL     1       9.399  -2.429  -7.611  1.00  0.00     0.049 A 
ATOM     37  N   UNL     1       9.731  -5.326  -8.369  1.00  0.00    -0.248 NA
ATOM     38  C   UNL     1       9.015  -5.911  -6.225  1.00  0.00     0.031 C 
ATOM     39  C   UNL     1       9.285  -1.008  -7.277  1.00  0.00     0.029 A 
ATOM     40  N   UNL     1       9.764  -2.434  -8.934  1.00  0.00    -0.354 N 
ATOM     41  C   UNL     1       9.729  -6.709  -8.248  1.00  0.00     0.074 A 
ATOM     42  C   UNL     1       9.303  -7.016  -6.899  1.00  0.00     0.031 C 
ATOM     43  C   UNL     1       9.608  -0.278  -8.356  1.00  0.00     0.029 A 
ATOM     44  C   UNL     1       9.991  -1.176  -9.441  1.00  0.00     0.049 A 
ATOM     45  H   UNL     1       9.854  -3.257  -9.467  1.00  0.00     0.167 HD
ATOM     46  C   UNL     1      10.044  -7.638  -9.182  1.00  0.00     0.034 A 
ATOM     47  C   UNL     1      10.491  -0.792 -10.632  1.00  0.00     0.034 A 
ATOM     48  C   UNL     1      10.439  -7.324 -10.529  1.00  0.00     0.049 A 
ATOM     49  C   UNL     1      10.854  -1.844 -11.645  1.00  0.00     0.074 A 
ATOM     50  C   UNL     1      10.734  -8.193 -11.564  1.00  0.00     0.029 A 
ATOM     51  N   UNL     1      10.603  -6.040 -11.026  1.00  0.00    -0.354 N 
ATOM     52  N   UNL     1      10.750  -3.148 -11.552  1.00  0.00    -0.248 NA
ATOM     53  C   UNL     1      11.381  -1.374 -12.934  1.00  0.00     0.031 C 
ATOM     54  C   UNL     1      11.093  -7.434 -12.683  1.00  0.00     0.029 A 
ATOM     55  C   UNL     1      11.005  -6.091 -12.350  1.00  0.00     0.049 A 
ATOM     56  H   UNL     1      10.455  -5.213 -10.513  1.00  0.00     0.167 HD
ATOM     57  C   UNL     1      11.175  -3.653 -12.775  1.00  0.00     0.074 A 
ATOM     58  C   UNL     1      11.514  -2.512 -13.602  1.00  0.00     0.031 C 
ATOM     59  C   UNL     1      11.291  -4.944 -13.173  1.00  0.00     0.034 A 
BRANCH  46  60
ATOM     60  C   UNL     1       9.947  -9.086  -8.785  1.00  0.00     0.023 A 
ATOM     61  C   UNL     1       8.678  -9.686  -8.651  1.00  0.00     0.012 A 
ATOM     62  C   UNL     1      11.104  -9.863  -8.590  1.00  0.00     0.148 A 
ATOM     63  C   UNL     1       8.563 -11.031  -8.301  1.00  0.00     0.002 A 
ATOM     64  C   UNL     1      10.982 -11.213  -8.278  1.00  0.00     0.091 A 
ATOM     65  F   UNL     1      12.301  -9.268  -8.695  1.00  0.00    -0.205 F 
ATOM     66  C   UNL     1       9.714 -11.796  -8.125  1.00  0.00     0.022 A 
BRANCH  64  67
ATOM     67  S   UNL     1      12.406 -12.293  -8.098  1.00  0.00     0.127 S 
ATOM     68  O   UNL     1      12.462 -12.468  -6.648  1.00  0.00    -0.237 OA
ATOM     69  O   UNL     1      11.988 -13.484  -8.839  1.00  0.00    -0.237 OA
ATOM     70  O   UNL     1      13.527 -11.577  -8.689  1.00  0.00    -0.744 OA
ENDBRANCH  64  67
ENDBRANCH  46  60
BRANCH  47  71
ATOM     71  C   UNL     1      10.658   0.658 -10.931  1.00  0.00     0.023 A 
ATOM     72  C   UNL     1       9.819   1.270 -11.880  1.00  0.00     0.012 A 
ATOM     73  C   UNL     1      11.611   1.441 -10.248  1.00  0.00     0.148 A 
ATOM     74  C   UNL     1       9.939   2.632 -12.160  1.00  0.00     0.002 A 
ATOM     75  C   UNL     1      11.687   2.807 -10.491  1.00  0.00     0.091 A 
ATOM     76  F   UNL     1      12.415   0.835  -9.363  1.00  0.00    -0.205 F 
ATOM     77  C   UNL     1      10.862   3.402 -11.458  1.00  0.00     0.022 A 
BRANCH  75  78
ATOM     78  S   UNL     1      12.752   3.893  -9.535  1.00  0.00     0.127 S 
ATOM     79  O   UNL     1      13.810   4.196 -10.495  1.00  0.00    -0.237 OA
ATOM     80  O   UNL     1      11.856   5.011  -9.234  1.00  0.00    -0.237 OA
ATOM     81  O   UNL     1      13.154   3.119  -8.369  1.00  0.00    -0.744 OA
ENDBRANCH  75  78
ENDBRANCH  47  71
BRANCH  59  82
ATOM     82  C   UNL     1      11.787  -5.201 -14.572  1.00  0.00     0.023 A 
ATOM     83  C   UNL     1      13.153  -5.026 -14.867  1.00  0.00     0.012 A 
ATOM     84  C   UNL     1      10.919  -5.694 -15.566  1.00  0.00     0.148 A 
ATOM     85  C   UNL     1      13.644  -5.316 -16.140  1.00  0.00     0.002 A 
ATOM     86  C   UNL     1      11.425  -6.023 -16.818  1.00  0.00     0.091 A 
ATOM     87  F   UNL     1       9.619  -5.834 -15.268  1.00  0.00    -0.205 F 
ATOM     88  C   UNL     1      12.784  -5.826 -17.110  1.00  0.00     0.022 A 
BRANCH  86  89
ATOM     89  S   UNL     1      10.410  -6.769 -18.099  1.00  0.00     0.127 S 
ATOM     90  O   UNL     1      10.259  -5.663 -19.042  1.00  0.00    -0.237 OA
ATOM     91  O   UNL     1      11.261  -7.862 -18.573  1.00  0.00    -0.237 OA
ATOM     92  O   UNL     1       9.185  -7.202 -17.440  1.00  0.00    -0.744 OA
ENDBRANCH  86  89
ENDBRANCH  59  82
ENDBRANCH  33  34
ENDBRANCH  26  28
ENDBRANCH  25  26
ENDBRANCH  24  25
ENDBRANCH   1  24
TORSDOF 18
