REMARK SMILES O=C(Cc1ccccc1C(=O)OCCOC(=O)c1ccc(-c2c3nc(c(-c4cccc(S(=O)(=O)[O-])c4F)c4ccc([nH]4)c(-c4cccc(S(=O)(=O)[O-])c4F)c4nc(c(-c5cccc(S(=O)(=O)[O-])c5F)c5ccc2[nH]5)C=C4)C=C3)cc1)Nc1cccc(OC[C@@H]2CCCO2)c1
REMARK SMILES IDX 12 1 10 2 11 3 9 4 4 5 5 6 6 7 8 8 7 9 3 10 2 11 1 12 81 13
REMARK SMILES IDX 82 15 83 16 94 17 84 18 86 19 85 20 87 21 88 22 89 23 90 24
REMARK SMILES IDX 93 25 91 26 92 27 13 28 14 29 15 30 16 31 17 32 18 33 19 34
REMARK SMILES IDX 80 35 20 36 79 37 21 38 22 39 23 40 73 41 24 42 78 43 72 44
REMARK SMILES IDX 74 45 25 46 77 47 71 48 70 49 26 51 58 52 38 53 57 54 39 55
REMARK SMILES IDX 42 56 56 57 75 58 40 59 41 60 55 62 76 63 43 64 27 65 28 66
REMARK SMILES IDX 36 67 29 68 31 69 37 70 30 71 32 72 33 73 34 74 35 75 59 76
REMARK SMILES IDX 60 77 68 78 61 79 63 80 69 81 62 82 64 83 65 84 66 85 67 86
REMARK SMILES IDX 44 87 45 88 53 89 46 90 48 91 54 92 47 93 49 94 50 95 51 96
REMARK SMILES IDX 52 97
REMARK H PARENT 81 14 74 50 42 61
REMARK Flexibility Score: inf
ROOT
ATOM      1  O   UNL     1       4.632   2.295   2.423  1.00  0.00    -0.458 OA
ENDROOT
BRANCH   1   2
ATOM      2  C   UNL     1       5.594   1.351   2.266  1.00  0.00     0.338 C 
ATOM      3  O   UNL     1       6.795   1.551   2.172  1.00  0.00    -0.246 OA
BRANCH   2   4
ATOM      4  C   UNL     1       5.001  -0.018   2.298  1.00  0.00     0.063 A 
ATOM      5  C   UNL     1       3.789  -0.342   1.661  1.00  0.00    -0.024 A 
ATOM      6  C   UNL     1       3.259  -1.637   1.835  1.00  0.00     0.005 A 
ATOM      7  C   UNL     1       3.953  -2.608   2.557  1.00  0.00     0.000 A 
ATOM      8  C   UNL     1       5.712  -1.020   2.979  1.00  0.00     0.016 A 
ATOM      9  C   UNL     1       5.184  -2.302   3.123  1.00  0.00     0.001 A 
BRANCH   5  10
ATOM     10  C   UNL     1       3.077   0.683   0.814  1.00  0.00     0.136 C 
BRANCH  10  11
ATOM     11  C   UNL     1       2.236   0.129  -0.303  1.00  0.00     0.228 C 
ATOM     12  O   UNL     1       1.045   0.423  -0.377  1.00  0.00    -0.274 OA
ATOM     13  N   UNL     1       2.926  -0.698  -1.186  1.00  0.00    -0.326 N 
ATOM     14  H   UNL     1       3.872  -0.901  -1.006  1.00  0.00     0.169 HD
BRANCH  13  15
ATOM     15  C   UNL     1       2.318  -1.251  -2.326  1.00  0.00     0.044 A 
ATOM     16  C   UNL     1       2.660  -2.538  -2.732  1.00  0.00     0.026 A 
ATOM     17  C   UNL     1       1.320  -0.548  -3.001  1.00  0.00     0.072 A 
ATOM     18  C   UNL     1       1.905  -3.157  -3.730  1.00  0.00     0.006 A 
ATOM     19  C   UNL     1       0.520  -1.174  -3.943  1.00  0.00     0.121 A 
ATOM     20  C   UNL     1       0.824  -2.486  -4.312  1.00  0.00     0.046 A 
BRANCH  19  21
ATOM     21  O   UNL     1      -0.595  -0.628  -4.511  1.00  0.00    -0.491 OA
BRANCH  21  22
ATOM     22  C   UNL     1      -1.022   0.673  -4.081  1.00  0.00     0.261 C 
BRANCH  22  23
ATOM     23  C   UNL     1      -1.559   0.762  -2.645  1.00  0.00     0.156 C 
ATOM     24  C   UNL     1      -2.419  -0.398  -2.186  1.00  0.00     0.038 C 
ATOM     25  O   UNL     1      -2.377   1.938  -2.474  1.00  0.00    -0.375 OA
ATOM     26  C   UNL     1      -3.121   0.217  -0.999  1.00  0.00     0.031 C 
ATOM     27  C   UNL     1      -3.332   1.653  -1.439  1.00  0.00     0.161 C 
ENDBRANCH  22  23
ENDBRANCH  21  22
ENDBRANCH  19  21
ENDBRANCH  13  15
ENDBRANCH  10  11
ENDBRANCH   5  10
ENDBRANCH   2   4
ENDBRANCH   1   2
BRANCH   1  28
ATOM     28  C   UNL     1       5.044   3.678   2.395  1.00  0.00     0.275 C 
BRANCH  28  29
ATOM     29  C   UNL     1       4.672   4.381   3.700  1.00  0.00     0.275 C 
BRANCH  29  30
ATOM     30  O   UNL     1       5.412   3.804   4.789  1.00  0.00    -0.458 OA
BRANCH  30  31
ATOM     31  C   UNL     1       4.708   2.936   5.552  1.00  0.00     0.338 C 
ATOM     32  O   UNL     1       3.514   2.693   5.492  1.00  0.00    -0.246 OA
BRANCH  31  33
ATOM     33  C   UNL     1       5.627   2.157   6.389  1.00  0.00     0.060 A 
ATOM     34  C   UNL     1       6.199   1.034   5.807  1.00  0.00     0.016 A 
ATOM     35  C   UNL     1       5.775   2.390   7.752  1.00  0.00     0.016 A 
ATOM     36  C   UNL     1       6.813   0.069   6.592  1.00  0.00     0.010 A 
ATOM     37  C   UNL     1       6.499   1.471   8.527  1.00  0.00     0.010 A 
ATOM     38  C   UNL     1       6.983   0.272   7.968  1.00  0.00    -0.014 A 
BRANCH  38  39
ATOM     39  C   UNL     1       7.624  -0.799   8.790  1.00  0.00     0.031 A 
ATOM     40  C   UNL     1       6.912  -1.389   9.983  1.00  0.00     0.074 A 
ATOM     41  C   UNL     1       8.835  -1.284   8.441  1.00  0.00     0.049 A 
ATOM     42  N   UNL     1       7.346  -2.268  10.853  1.00  0.00    -0.248 NA
ATOM     43  C   UNL     1       5.541  -0.922  10.248  1.00  0.00     0.031 C 
ATOM     44  C   UNL     1       9.642  -0.816   7.311  1.00  0.00     0.029 A 
ATOM     45  N   UNL     1       9.600  -2.284   8.993  1.00  0.00    -0.354 N 
ATOM     46  C   UNL     1       6.340  -2.397  11.805  1.00  0.00     0.074 A 
ATOM     47  C   UNL     1       5.270  -1.509  11.405  1.00  0.00     0.031 C 
ATOM     48  C   UNL     1      10.757  -1.553   7.224  1.00  0.00     0.029 A 
ATOM     49  C   UNL     1      10.799  -2.481   8.347  1.00  0.00     0.049 A 
ATOM     50  H   UNL     1       9.316  -2.809   9.776  1.00  0.00     0.167 HD
ATOM     51  C   UNL     1       6.303  -3.187  12.906  1.00  0.00     0.034 A 
ATOM     52  C   UNL     1      11.840  -3.284   8.640  1.00  0.00     0.034 A 
ATOM     53  C   UNL     1       7.338  -4.122  13.268  1.00  0.00     0.049 A 
ATOM     54  C   UNL     1      11.765  -4.160   9.856  1.00  0.00     0.074 A 
ATOM     55  C   UNL     1       7.367  -5.001  14.338  1.00  0.00     0.029 A 
ATOM     56  N   UNL     1       8.523  -4.306  12.572  1.00  0.00    -0.354 N 
ATOM     57  N   UNL     1      10.783  -4.303  10.712  1.00  0.00    -0.248 NA
ATOM     58  C   UNL     1      12.938  -4.999  10.138  1.00  0.00     0.031 C 
ATOM     59  C   UNL     1       8.583  -5.693  14.305  1.00  0.00     0.029 A 
ATOM     60  C   UNL     1       9.294  -5.276  13.192  1.00  0.00     0.049 A 
ATOM     61  H   UNL     1       8.779  -3.818  11.755  1.00  0.00     0.167 HD
ATOM     62  C   UNL     1      11.210  -5.261  11.623  1.00  0.00     0.074 A 
ATOM     63  C   UNL     1      12.523  -5.693  11.188  1.00  0.00     0.031 C 
ATOM     64  C   UNL     1      10.584  -5.724  12.733  1.00  0.00     0.034 A 
BRANCH  51  65
ATOM     65  C   UNL     1       5.096  -3.084  13.808  1.00  0.00     0.023 A 
ATOM     66  C   UNL     1       3.850  -3.591  13.388  1.00  0.00     0.012 A 
ATOM     67  C   UNL     1       5.214  -2.530  15.099  1.00  0.00     0.148 A 
ATOM     68  C   UNL     1       2.733  -3.513  14.221  1.00  0.00     0.002 A 
ATOM     69  C   UNL     1       4.109  -2.502  15.943  1.00  0.00     0.091 A 
ATOM     70  F   UNL     1       6.402  -2.037  15.477  1.00  0.00    -0.205 F 
ATOM     71  C   UNL     1       2.865  -2.980  15.500  1.00  0.00     0.022 A 
BRANCH  69  72
ATOM     72  S   UNL     1       4.197  -1.915  17.639  1.00  0.00     0.127 S 
ATOM     73  O   UNL     1       3.421  -0.678  17.563  1.00  0.00    -0.237 OA
ATOM     74  O   UNL     1       3.545  -2.999  18.373  1.00  0.00    -0.237 OA
ATOM     75  O   UNL     1       5.613  -1.746  17.934  1.00  0.00    -0.744 OA
ENDBRANCH  69  72
ENDBRANCH  51  65
BRANCH  52  76
ATOM     76  C   UNL     1      13.048  -3.290   7.764  1.00  0.00     0.023 A 
ATOM     77  C   UNL     1      13.368  -4.442   7.021  1.00  0.00     0.012 A 
ATOM     78  C   UNL     1      13.867  -2.149   7.646  1.00  0.00     0.148 A 
ATOM     79  C   UNL     1      14.496  -4.468   6.199  1.00  0.00     0.002 A 
ATOM     80  C   UNL     1      14.947  -2.158   6.774  1.00  0.00     0.091 A 
ATOM     81  F   UNL     1      13.560  -1.069   8.378  1.00  0.00    -0.205 F 
ATOM     82  C   UNL     1      15.276  -3.322   6.064  1.00  0.00     0.022 A 
BRANCH  80  83
ATOM     83  S   UNL     1      15.911  -0.683   6.426  1.00  0.00     0.127 S 
ATOM     84  O   UNL     1      17.184  -1.000   7.068  1.00  0.00    -0.237 OA
ATOM     85  O   UNL     1      15.941  -0.681   4.963  1.00  0.00    -0.237 OA
ATOM     86  O   UNL     1      15.164   0.422   7.011  1.00  0.00    -0.744 OA
ENDBRANCH  80  83
ENDBRANCH  52  76
BRANCH  64  87
ATOM     87  C   UNL     1      11.302  -6.780  13.534  1.00  0.00     0.023 A 
ATOM     88  C   UNL     1      12.465  -6.447  14.257  1.00  0.00     0.012 A 
ATOM     89  C   UNL     1      10.816  -8.101  13.581  1.00  0.00     0.148 A 
ATOM     90  C   UNL     1      13.165  -7.424  14.965  1.00  0.00     0.002 A 
ATOM     91  C   UNL     1      11.487  -9.057  14.334  1.00  0.00     0.091 A 
ATOM     92  F   UNL     1       9.719  -8.406  12.872  1.00  0.00    -0.205 F 
ATOM     93  C   UNL     1      12.671  -8.725  15.011  1.00  0.00     0.022 A 
BRANCH  91  94
ATOM     94  S   UNL     1      10.869 -10.732  14.526  1.00  0.00     0.127 S 
ATOM     95  O   UNL     1      11.772 -11.485  13.658  1.00  0.00    -0.237 OA
ATOM     96  O   UNL     1      11.059 -10.972  15.957  1.00  0.00    -0.237 OA
ATOM     97  O   UNL     1       9.476 -10.694  14.102  1.00  0.00    -0.744 OA
ENDBRANCH  91  94
ENDBRANCH  64  87
ENDBRANCH  38  39
ENDBRANCH  31  33
ENDBRANCH  30  31
ENDBRANCH  29  30
ENDBRANCH  28  29
ENDBRANCH   1  28
TORSDOF 20
