REMARK SMILES C[C@@H]1CC[N@@H+]1[C@@H]1CCC[C@@H]1C(=O)OCCOC(=O)c1ccc(-c2c3nc(c(-c4cccc(S(=O)(=O)[O-])c4F)c4ccc([nH]4)c(-c4cccc(S(=O)(=O)[O-])c4F)c4nc(c(-c5cccc(S(=O)(=O)[O-])c5F)c5ccc2[nH]5)C=C4)C=C3)cc1
REMARK SMILES IDX 15 1 14 2 13 3 11 4 12 5 10 6 6 7 7 8 8 9 9 10 5 11 1 12
REMARK SMILES IDX 2 13 3 14 4 15 16 17 17 18 18 19 19 20 20 21 81 22 21 23
REMARK SMILES IDX 80 24 22 25 23 26 24 27 74 28 25 29 79 30 73 31 75 32 26 33
REMARK SMILES IDX 78 34 72 35 71 36 27 38 59 39 39 40 58 41 40 42 43 43 57 44
REMARK SMILES IDX 76 45 41 46 42 47 56 49 77 50 44 51 28 52 29 53 37 54 30 55
REMARK SMILES IDX 32 56 38 57 31 58 33 59 34 60 35 61 36 62 60 63 61 64 69 65
REMARK SMILES IDX 62 66 64 67 70 68 63 69 65 70 66 71 67 72 68 73 45 74 46 75
REMARK SMILES IDX 54 76 47 77 49 78 55 79 48 80 50 81 51 82 52 83 53 84
REMARK H PARENT 5 16 75 37 43 48
REMARK Flexibility Score: inf
ROOT
ATOM      1  C   UNL     1       1.187   1.355  -2.969  1.00  0.00     0.275 C 
ENDROOT
BRANCH   1   2
ATOM      2  C   UNL     1       2.097   1.571  -1.735  1.00  0.00     0.274 C 
BRANCH   2   3
ATOM      3  O   UNL     1       2.938   0.460  -1.364  1.00  0.00    -0.462 OA
BRANCH   3   4
ATOM      4  C   UNL     1       2.240  -0.502  -0.692  1.00  0.00     0.315 C 
ATOM      5  O   UNL     1       1.022  -0.440  -0.589  1.00  0.00    -0.252 OA
BRANCH   4   6
ATOM      6  C   UNL     1       3.095  -1.668  -0.237  1.00  0.00     0.157 C 
ATOM      7  C   UNL     1       2.452  -2.599   0.842  1.00  0.00     0.198 C 
ATOM      8  C   UNL     1       3.290  -2.395   2.110  1.00  0.00     0.066 C 
ATOM      9  C   UNL     1       4.688  -2.158   1.558  1.00  0.00     0.007 C 
ATOM     10  C   UNL     1       4.462  -1.264   0.343  1.00  0.00     0.022 C 
BRANCH   7  11
ATOM     11  N   UNL     1       0.995  -2.725   0.887  1.00  0.00    -0.329 N 
ATOM     12  C   UNL     1       0.498  -0.413   2.084  1.00  0.00     0.075 C 
ATOM     13  C   UNL     1       0.123  -1.830   1.698  1.00  0.00     0.186 C 
ATOM     14  C   UNL     1       0.145  -2.869   2.827  1.00  0.00     0.126 C 
ATOM     15  C   UNL     1       0.553  -3.860   1.738  1.00  0.00     0.268 C 
ATOM     16  H   UNL     1       0.890  -2.653  -0.125  1.00  0.00     0.348 HD
ENDBRANCH   7  11
ENDBRANCH   4   6
ENDBRANCH   3   4
ENDBRANCH   2   3
ENDBRANCH   1   2
BRANCH   1  17
ATOM     17  O   UNL     1       0.628   0.033  -3.094  1.00  0.00    -0.458 OA
BRANCH  17  18
ATOM     18  C   UNL     1       1.440  -0.858  -3.716  1.00  0.00     0.338 C 
ATOM     19  O   UNL     1       2.449  -0.562  -4.342  1.00  0.00    -0.246 OA
BRANCH  18  20
ATOM     20  C   UNL     1       1.088  -2.275  -3.413  1.00  0.00     0.060 A 
ATOM     21  C   UNL     1       2.149  -3.192  -3.435  1.00  0.00     0.016 A 
ATOM     22  C   UNL     1      -0.198  -2.734  -3.108  1.00  0.00     0.016 A 
ATOM     23  C   UNL     1       1.937  -4.548  -3.176  1.00  0.00     0.010 A 
ATOM     24  C   UNL     1      -0.418  -4.109  -2.880  1.00  0.00     0.010 A 
ATOM     25  C   UNL     1       0.646  -5.028  -2.933  1.00  0.00    -0.014 A 
BRANCH  25  26
ATOM     26  C   UNL     1       0.443  -6.503  -2.876  1.00  0.00     0.031 A 
ATOM     27  C   UNL     1       0.338  -7.274  -4.159  1.00  0.00     0.074 A 
ATOM     28  C   UNL     1       0.433  -7.184  -1.715  1.00  0.00     0.049 A 
ATOM     29  N   UNL     1       0.344  -8.568  -4.343  1.00  0.00    -0.248 NA
ATOM     30  C   UNL     1       0.251  -6.483  -5.396  1.00  0.00     0.031 C 
ATOM     31  C   UNL     1       0.582  -6.582  -0.401  1.00  0.00     0.029 A 
ATOM     32  N   UNL     1       0.285  -8.525  -1.450  1.00  0.00    -0.354 N 
ATOM     33  C   UNL     1       0.296  -8.752  -5.717  1.00  0.00     0.074 A 
ATOM     34  C   UNL     1       0.228  -7.435  -6.318  1.00  0.00     0.031 C 
ATOM     35  C   UNL     1       0.450  -7.530   0.543  1.00  0.00     0.029 A 
ATOM     36  C   UNL     1       0.239  -8.822  -0.107  1.00  0.00     0.049 A 
ATOM     37  H   UNL     1       0.219  -9.209  -2.155  1.00  0.00     0.167 HD
ATOM     38  C   UNL     1       0.334  -9.909  -6.418  1.00  0.00     0.034 A 
ATOM     39  C   UNL     1       0.057  -9.999   0.527  1.00  0.00     0.034 A 
ATOM     40  C   UNL     1       0.357 -11.222  -5.834  1.00  0.00     0.049 A 
ATOM     41  C   UNL     1      -0.010 -11.271  -0.281  1.00  0.00     0.074 A 
ATOM     42  C   UNL     1       0.410 -12.447  -6.476  1.00  0.00     0.029 A 
ATOM     43  N   UNL     1       0.288 -11.489  -4.476  1.00  0.00    -0.354 N 
ATOM     44  N   UNL     1       0.124 -11.434  -1.575  1.00  0.00    -0.248 NA
ATOM     45  C   UNL     1      -0.194 -12.527   0.464  1.00  0.00     0.031 C 
ATOM     46  C   UNL     1       0.340 -13.455  -5.507  1.00  0.00     0.029 A 
ATOM     47  C   UNL     1       0.268 -12.858  -4.260  1.00  0.00     0.049 A 
ATOM     48  H   UNL     1       0.258 -10.806  -3.767  1.00  0.00     0.167 HD
ATOM     49  C   UNL     1       0.088 -12.807  -1.794  1.00  0.00     0.074 A 
ATOM     50  C   UNL     1      -0.063 -13.433  -0.496  1.00  0.00     0.031 C 
ATOM     51  C   UNL     1       0.165 -13.485  -2.966  1.00  0.00     0.034 A 
BRANCH  38  52
ATOM     52  C   UNL     1       0.378  -9.790  -7.914  1.00  0.00     0.023 A 
ATOM     53  C   UNL     1       1.583  -9.409  -8.539  1.00  0.00     0.012 A 
ATOM     54  C   UNL     1      -0.753 -10.078  -8.699  1.00  0.00     0.148 A 
ATOM     55  C   UNL     1       1.654  -9.290  -9.925  1.00  0.00     0.002 A 
ATOM     56  C   UNL     1      -0.665  -9.990 -10.082  1.00  0.00     0.091 A 
ATOM     57  F   UNL     1      -1.894 -10.409  -8.079  1.00  0.00    -0.205 F 
ATOM     58  C   UNL     1       0.533  -9.588 -10.697  1.00  0.00     0.022 A 
BRANCH  56  59
ATOM     59  S   UNL     1      -2.037 -10.407 -11.162  1.00  0.00     0.127 S 
ATOM     60  O   UNL     1      -2.455  -9.087 -11.630  1.00  0.00    -0.237 OA
ATOM     61  O   UNL     1      -1.389 -11.238 -12.177  1.00  0.00    -0.237 OA
ATOM     62  O   UNL     1      -3.002 -11.111 -10.329  1.00  0.00    -0.744 OA
ENDBRANCH  56  59
ENDBRANCH  38  52
BRANCH  39  63
ATOM     63  C   UNL     1      -0.018 -10.052   2.016  1.00  0.00     0.023 A 
ATOM     64  C   UNL     1       1.023 -10.657   2.747  1.00  0.00     0.012 A 
ATOM     65  C   UNL     1      -1.129  -9.530   2.708  1.00  0.00     0.148 A 
ATOM     66  C   UNL     1       0.942 -10.776   4.136  1.00  0.00     0.002 A 
ATOM     67  C   UNL     1      -1.182  -9.611   4.096  1.00  0.00     0.091 A 
ATOM     68  F   UNL     1      -2.119  -8.977   1.994  1.00  0.00    -0.205 F 
ATOM     69  C   UNL     1      -0.155 -10.248   4.810  1.00  0.00     0.022 A 
BRANCH  67  70
ATOM     70  S   UNL     1      -2.506  -8.871   5.058  1.00  0.00     0.127 S 
ATOM     71  O   UNL     1      -3.219 -10.051   5.543  1.00  0.00    -0.237 OA
ATOM     72  O   UNL     1      -1.761  -8.137   6.082  1.00  0.00    -0.237 OA
ATOM     73  O   UNL     1      -3.242  -8.025   4.129  1.00  0.00    -0.744 OA
ENDBRANCH  67  70
ENDBRANCH  39  63
BRANCH  51  74
ATOM     74  C   UNL     1       0.108 -14.992  -2.911  1.00  0.00     0.023 A 
ATOM     75  C   UNL     1      -1.105 -15.634  -2.591  1.00  0.00     0.012 A 
ATOM     76  C   UNL     1       1.236 -15.774  -3.231  1.00  0.00     0.148 A 
ATOM     77  C   UNL     1      -1.185 -17.027  -2.553  1.00  0.00     0.002 A 
ATOM     78  C   UNL     1       1.136 -17.162  -3.239  1.00  0.00     0.091 A 
ATOM     79  F   UNL     1       2.390 -15.152  -3.512  1.00  0.00    -0.205 F 
ATOM     80  C   UNL     1      -0.069 -17.790  -2.888  1.00  0.00     0.022 A 
BRANCH  78  81
ATOM     81  S   UNL     1       2.499 -18.215  -3.751  1.00  0.00     0.127 S 
ATOM     82  O   UNL     1       3.029 -18.667  -2.466  1.00  0.00    -0.237 OA
ATOM     83  O   UNL     1       1.822 -19.254  -4.529  1.00  0.00    -0.237 OA
ATOM     84  O   UNL     1       3.383 -17.362  -4.535  1.00  0.00    -0.744 OA
ENDBRANCH  78  81
ENDBRANCH  51  74
ENDBRANCH  25  26
ENDBRANCH  18  20
ENDBRANCH  17  18
ENDBRANCH   1  17
TORSDOF 15
