REMARK SMILES CC(C)c1ccc(C(=O)OCCOC(=O)c2ccc(-c3c4nc(c(-c5cccc(S(=O)(=O)[O-])c5F)c5ccc([nH]5)c(-c5cccc(S(=O)(=O)[O-])c5F)c5nc(c(-c6cccc(S(=O)(=O)[O-])c6F)c6ccc3[nH]6)C=C5)C=C4)cc2)cc1S(=O)(=O)Nc1cccc(Cl)c1
REMARK SMILES IDX 11 1 10 2 8 3 9 4 7 5 4 6 5 7 80 8 6 9 79 10 2 11 1 12 3 13
REMARK SMILES IDX 81 14 82 15 83 16 84 17 85 19 86 20 91 21 87 22 89 23 88 24
REMARK SMILES IDX 90 25 12 26 13 27 14 28 15 29 16 30 17 31 78 32 18 33 77 34
REMARK SMILES IDX 19 35 20 36 21 37 71 38 22 39 76 40 70 41 72 42 23 43 75 44
REMARK SMILES IDX 69 45 68 46 24 48 56 49 36 50 55 51 37 52 40 53 54 54 73 55
REMARK SMILES IDX 38 56 39 57 53 59 74 60 41 61 25 62 26 63 34 64 27 65 29 66
REMARK SMILES IDX 35 67 28 68 30 69 31 70 32 71 33 72 57 73 58 74 66 75 59 76
REMARK SMILES IDX 61 77 67 78 60 79 62 80 63 81 64 82 65 83 42 84 43 85 51 86
REMARK SMILES IDX 44 87 46 88 52 89 45 90 47 91 48 92 49 93 50 94
REMARK H PARENT 84 18 72 47 40 58
REMARK Flexibility Score: inf
ROOT
ATOM      1  C   UNL     1      -7.284  -1.972   1.520  1.00  0.00     0.275 C 
ENDROOT
BRANCH   1   2
ATOM      2  O   UNL     1      -5.850  -1.964   1.636  1.00  0.00    -0.458 OA
BRANCH   2   3
ATOM      3  C   UNL     1      -5.173  -2.052   0.467  1.00  0.00     0.338 C 
ATOM      4  O   UNL     1      -5.612  -2.311  -0.638  1.00  0.00    -0.246 OA
BRANCH   3   5
ATOM      5  C   UNL     1      -3.805  -1.572   0.713  1.00  0.00     0.061 A 
ATOM      6  C   UNL     1      -1.260  -0.476   1.223  1.00  0.00    -0.025 A 
ATOM      7  C   UNL     1      -2.384   0.345   1.005  1.00  0.00     0.006 A 
ATOM      8  C   UNL     1      -1.433  -1.885   1.159  1.00  0.00     0.092 A 
ATOM      9  C   UNL     1      -3.625  -0.199   0.721  1.00  0.00     0.016 A 
ATOM     10  C   UNL     1      -2.722  -2.421   0.913  1.00  0.00     0.038 A 
BRANCH   6  11
ATOM     11  C   UNL     1       0.047   0.251   1.446  1.00  0.00     0.014 C 
ATOM     12  C   UNL     1       0.486   0.972   0.165  1.00  0.00     0.012 C 
ATOM     13  C   UNL     1       0.056   1.212   2.637  1.00  0.00     0.012 C 
ENDBRANCH   6  11
BRANCH   8  14
ATOM     14  S   UNL     1      -0.161  -3.116   1.524  1.00  0.00     0.262 S 
ATOM     15  O   UNL     1       0.196  -2.959   2.914  1.00  0.00    -0.201 OA
ATOM     16  O   UNL     1      -0.691  -4.386   1.054  1.00  0.00    -0.201 OA
BRANCH  14  17
ATOM     17  N   UNL     1       1.156  -2.877   0.512  1.00  0.00    -0.280 N 
ATOM     18  H   UNL     1       1.139  -3.353  -0.349  1.00  0.00     0.180 HD
BRANCH  17  19
ATOM     19  C   UNL     1       2.298  -2.060   0.765  1.00  0.00     0.050 A 
ATOM     20  C   UNL     1       2.945  -1.522  -0.352  1.00  0.00     0.027 A 
ATOM     21  C   UNL     1       2.772  -1.743   2.041  1.00  0.00     0.047 A 
ATOM     22  C   UNL     1       3.956  -0.569  -0.196  1.00  0.00     0.004 A 
ATOM     23  C   UNL     1       3.753  -0.761   2.193  1.00  0.00     0.043 A 
ATOM     24  C   UNL     1       4.335  -0.161   1.081  1.00  0.00     0.020 A 
ATOM     25  Cl  UNL     1       4.192  -0.234   3.772  1.00  0.00    -0.084 Cl
ENDBRANCH  17  19
ENDBRANCH  14  17
ENDBRANCH   8  14
ENDBRANCH   3   5
ENDBRANCH   2   3
ENDBRANCH   1   2
BRANCH   1  26
ATOM     26  C   UNL     1      -7.870  -1.068   2.602  1.00  0.00     0.275 C 
BRANCH  26  27
ATOM     27  O   UNL     1      -7.400   0.287   2.426  1.00  0.00    -0.458 OA
BRANCH  27  28
ATOM     28  C   UNL     1      -6.749   0.810   3.494  1.00  0.00     0.338 C 
ATOM     29  O   UNL     1      -6.517   0.251   4.555  1.00  0.00    -0.246 OA
BRANCH  28  30
ATOM     30  C   UNL     1      -6.331   2.204   3.248  1.00  0.00     0.060 A 
ATOM     31  C   UNL     1      -5.548   2.521   2.146  1.00  0.00     0.016 A 
ATOM     32  C   UNL     1      -6.565   3.172   4.222  1.00  0.00     0.016 A 
ATOM     33  C   UNL     1      -4.850   3.728   2.106  1.00  0.00     0.010 A 
ATOM     34  C   UNL     1      -5.997   4.446   4.090  1.00  0.00     0.010 A 
ATOM     35  C   UNL     1      -5.077   4.728   3.064  1.00  0.00    -0.014 A 
BRANCH  35  36
ATOM     36  C   UNL     1      -4.359   6.043   3.001  1.00  0.00     0.031 A 
ATOM     37  C   UNL     1      -3.680   6.615   4.229  1.00  0.00     0.074 A 
ATOM     38  C   UNL     1      -4.323   6.754   1.853  1.00  0.00     0.049 A 
ATOM     39  N   UNL     1      -3.204   7.819   4.425  1.00  0.00    -0.248 NA
ATOM     40  C   UNL     1      -3.542   5.729   5.397  1.00  0.00     0.031 C 
ATOM     41  C   UNL     1      -4.930   6.349   0.583  1.00  0.00     0.029 A 
ATOM     42  N   UNL     1      -3.758   7.975   1.564  1.00  0.00    -0.354 N 
ATOM     43  C   UNL     1      -2.809   7.867   5.758  1.00  0.00     0.074 A 
ATOM     44  C   UNL     1      -3.084   6.563   6.322  1.00  0.00     0.031 C 
ATOM     45  C   UNL     1      -4.663   7.268  -0.354  1.00  0.00     0.029 A 
ATOM     46  C   UNL     1      -3.971   8.388   0.268  1.00  0.00     0.049 A 
ATOM     47  H   UNL     1      -3.250   8.503   2.222  1.00  0.00     0.167 HD
ATOM     48  C   UNL     1      -2.261   8.896   6.451  1.00  0.00     0.034 A 
ATOM     49  C   UNL     1      -3.700   9.554  -0.352  1.00  0.00     0.034 A 
ATOM     50  C   UNL     1      -1.887  10.157   5.866  1.00  0.00     0.049 A 
ATOM     51  C   UNL     1      -3.060  10.665   0.426  1.00  0.00     0.074 A 
ATOM     52  C   UNL     1      -1.265  11.236   6.473  1.00  0.00     0.029 A 
ATOM     53  N   UNL     1      -2.078  10.505   4.538  1.00  0.00    -0.354 N 
ATOM     54  N   UNL     1      -2.666  10.673   1.676  1.00  0.00    -0.248 NA
ATOM     55  C   UNL     1      -2.824  11.926  -0.290  1.00  0.00     0.031 C 
ATOM     56  C   UNL     1      -1.090  12.239   5.514  1.00  0.00     0.029 A 
ATOM     57  C   UNL     1      -1.588  11.780   4.306  1.00  0.00     0.049 A 
ATOM     58  H   UNL     1      -2.501   9.930   3.860  1.00  0.00     0.167 HD
ATOM     59  C   UNL     1      -2.127  11.934   1.894  1.00  0.00     0.074 A 
ATOM     60  C   UNL     1      -2.211  12.650   0.637  1.00  0.00     0.031 C 
ATOM     61  C   UNL     1      -1.631  12.462   3.039  1.00  0.00     0.034 A 
BRANCH  48  62
ATOM     62  C   UNL     1      -1.999   8.700   7.924  1.00  0.00     0.023 A 
ATOM     63  C   UNL     1      -0.925   7.893   8.348  1.00  0.00     0.012 A 
ATOM     64  C   UNL     1      -2.774   9.378   8.888  1.00  0.00     0.148 A 
ATOM     65  C   UNL     1      -0.646   7.738   9.707  1.00  0.00     0.002 A 
ATOM     66  C   UNL     1      -2.464   9.252  10.238  1.00  0.00     0.091 A 
ATOM     67  F   UNL     1      -3.805  10.127   8.469  1.00  0.00    -0.205 F 
ATOM     68  C   UNL     1      -1.408   8.424  10.649  1.00  0.00     0.022 A 
BRANCH  66  69
ATOM     69  S   UNL     1      -3.337  10.162  11.519  1.00  0.00     0.127 S 
ATOM     70  O   UNL     1      -4.162   9.113  12.117  1.00  0.00    -0.237 OA
ATOM     71  O   UNL     1      -2.242  10.634  12.367  1.00  0.00    -0.237 OA
ATOM     72  O   UNL     1      -4.066  11.219  10.831  1.00  0.00    -0.744 OA
ENDBRANCH  66  69
ENDBRANCH  48  62
BRANCH  49  73
ATOM     73  C   UNL     1      -4.043   9.720  -1.794  1.00  0.00     0.023 A 
ATOM     74  C   UNL     1      -3.009   9.811  -2.745  1.00  0.00     0.012 A 
ATOM     75  C   UNL     1      -5.382   9.722  -2.234  1.00  0.00     0.148 A 
ATOM     76  C   UNL     1      -3.302   9.911  -4.106  1.00  0.00     0.002 A 
ATOM     77  C   UNL     1      -5.665   9.752  -3.594  1.00  0.00     0.091 A 
ATOM     78  F   UNL     1      -6.355   9.663  -1.314  1.00  0.00    -0.205 F 
ATOM     79  C   UNL     1      -4.627   9.864  -4.532  1.00  0.00     0.022 A 
BRANCH  77  80
ATOM     80  S   UNL     1      -7.331   9.521  -4.225  1.00  0.00     0.127 S 
ATOM     81  O   UNL     1      -7.695  10.879  -4.616  1.00  0.00    -0.237 OA
ATOM     82  O   UNL     1      -7.111   8.595  -5.337  1.00  0.00    -0.237 OA
ATOM     83  O   UNL     1      -8.087   8.949  -3.118  1.00  0.00    -0.744 OA
ENDBRANCH  77  80
ENDBRANCH  49  73
BRANCH  61  84
ATOM     84  C   UNL     1      -1.118  13.875   2.983  1.00  0.00     0.023 A 
ATOM     85  C   UNL     1      -2.032  14.945   2.920  1.00  0.00     0.012 A 
ATOM     86  C   UNL     1       0.262  14.145   3.049  1.00  0.00     0.148 A 
ATOM     87  C   UNL     1      -1.579  16.263   2.892  1.00  0.00     0.002 A 
ATOM     88  C   UNL     1       0.705  15.462   3.064  1.00  0.00     0.091 A 
ATOM     89  F   UNL     1       1.116  13.111   3.085  1.00  0.00    -0.205 F 
ATOM     90  C   UNL     1      -0.212  16.521   2.975  1.00  0.00     0.022 A 
BRANCH  88  91
ATOM     91  S   UNL     1       2.440  15.888   3.252  1.00  0.00     0.127 S 
ATOM     92  O   UNL     1       2.797  16.294   1.895  1.00  0.00    -0.237 OA
ATOM     93  O   UNL     1       2.390  16.981   4.223  1.00  0.00    -0.237 OA
ATOM     94  O   UNL     1       3.096  14.681   3.739  1.00  0.00    -0.744 OA
ENDBRANCH  88  91
ENDBRANCH  61  84
ENDBRANCH  35  36
ENDBRANCH  28  30
ENDBRANCH  27  28
ENDBRANCH  26  27
ENDBRANCH   1  26
TORSDOF 18
