REMARK SMILES [NH3+][C@@H](CCCCC(=O)OCCOC(=O)c1ccc(-c2c3nc(c(-c4cccc(S(=O)(=O)[O-])c4F)c4ccc([nH]4)c(-c4cccc(S(=O)(=O)[O-])c4F)c4nc(c(-c5cccc(S(=O)(=O)[O-])c5F)c5ccc2[nH]5)C=C4)C=C3)cc1)c1ccc(-c2ccccc2)cc1
REMARK SMILES IDX 9 1 7 2 8 3 6 4 5 5 4 6 3 7 2 8 1 9 78 13 79 14 89 15 80 16
REMARK SMILES IDX 88 17 81 18 82 19 83 20 87 21 84 22 86 23 85 24 10 25 11 26
REMARK SMILES IDX 12 27 13 28 14 29 15 30 16 31 77 32 17 33 76 34 18 35 19 36
REMARK SMILES IDX 20 37 70 38 21 39 75 40 69 41 71 42 22 43 74 44 68 45 67 46
REMARK SMILES IDX 23 48 55 49 35 50 54 51 36 52 39 53 53 54 72 55 37 56 38 57
REMARK SMILES IDX 52 59 73 60 40 61 24 62 25 63 33 64 26 65 28 66 34 67 27 68
REMARK SMILES IDX 29 69 30 70 31 71 32 72 56 73 57 74 65 75 58 76 60 77 66 78
REMARK SMILES IDX 59 79 61 80 62 81 63 82 64 83 41 84 42 85 50 86 43 87 45 88
REMARK SMILES IDX 51 89 44 90 46 91 47 92 48 93 49 94
REMARK H PARENT 1 10 1 11 1 12 71 47 39 58
REMARK Flexibility Score: inf
ROOT
ATOM      1  O   UNL     1       0.488   5.600   1.587  1.00  0.00    -0.462 OA
ENDROOT
BRANCH   1   2
ATOM      2  C   UNL     1      -0.527   5.069   2.312  1.00  0.00     0.305 C 
ATOM      3  O   UNL     1      -1.165   5.673   3.168  1.00  0.00    -0.252 OA
BRANCH   2   4
ATOM      4  C   UNL     1      -0.768   3.608   2.039  1.00  0.00     0.123 C 
BRANCH   4   5
ATOM      5  C   UNL     1      -0.361   3.054   0.674  1.00  0.00     0.012 C 
BRANCH   5   6
ATOM      6  C   UNL     1       1.002   2.358   0.660  1.00  0.00     0.007 C 
BRANCH   6   7
ATOM      7  C   UNL     1       1.205   1.175   1.631  1.00  0.00     0.070 C 
BRANCH   7   8
ATOM      8  C   UNL     1       0.477  -0.170   1.344  1.00  0.00     0.211 C 
BRANCH   8   9
ATOM      9  N   UNL     1       0.901  -0.662   0.023  1.00  0.00    -0.351 N 
ATOM     10  H   UNL     1       1.918  -0.626  -0.043  1.00  0.00     0.345 HD
ATOM     11  H   UNL     1       0.492  -0.077  -0.705  1.00  0.00     0.345 HD
ATOM     12  H   UNL     1       0.587  -1.625  -0.098  1.00  0.00     0.345 HD
ENDBRANCH   8   9
BRANCH   8  13
ATOM     13  C   UNL     1      -1.038  -0.195   1.516  1.00  0.00     0.009 A 
ATOM     14  C   UNL     1      -1.671   0.493   2.561  1.00  0.00     0.010 A 
ATOM     15  C   UNL     1      -1.861  -0.954   0.665  1.00  0.00     0.010 A 
ATOM     16  C   UNL     1      -3.068   0.573   2.640  1.00  0.00     0.009 A 
ATOM     17  C   UNL     1      -3.257  -0.897   0.757  1.00  0.00     0.009 A 
ATOM     18  C   UNL     1      -3.879  -0.089   1.713  1.00  0.00    -0.018 A 
BRANCH  18  19
ATOM     19  C   UNL     1      -5.333   0.102   1.714  1.00  0.00    -0.018 A 
ATOM     20  C   UNL     1      -5.940   0.880   0.713  1.00  0.00     0.009 A 
ATOM     21  C   UNL     1      -6.144  -0.446   2.718  1.00  0.00     0.009 A 
ATOM     22  C   UNL     1      -7.316   1.115   0.722  1.00  0.00     0.001 A 
ATOM     23  C   UNL     1      -7.523  -0.216   2.723  1.00  0.00     0.001 A 
ATOM     24  C   UNL     1      -8.107   0.567   1.728  1.00  0.00     0.000 A 
ENDBRANCH  18  19
ENDBRANCH   8  13
ENDBRANCH   7   8
ENDBRANCH   6   7
ENDBRANCH   5   6
ENDBRANCH   4   5
ENDBRANCH   2   4
ENDBRANCH   1   2
BRANCH   1  25
ATOM     25  C   UNL     1       0.728   7.000   1.818  1.00  0.00     0.274 C 
BRANCH  25  26
ATOM     26  C   UNL     1       0.002   7.882   0.799  1.00  0.00     0.275 C 
BRANCH  26  27
ATOM     27  O   UNL     1      -1.430   7.766   0.892  1.00  0.00    -0.458 OA
BRANCH  27  28
ATOM     28  C   UNL     1      -1.991   6.875   0.040  1.00  0.00     0.338 C 
ATOM     29  O   UNL     1      -1.418   6.182  -0.783  1.00  0.00    -0.246 OA
BRANCH  28  30
ATOM     30  C   UNL     1      -3.437   6.777   0.289  1.00  0.00     0.060 A 
ATOM     31  C   UNL     1      -3.933   5.629   0.912  1.00  0.00     0.016 A 
ATOM     32  C   UNL     1      -4.308   7.748  -0.203  1.00  0.00     0.016 A 
ATOM     33  C   UNL     1      -5.307   5.433   1.029  1.00  0.00     0.010 A 
ATOM     34  C   UNL     1      -5.687   7.560  -0.065  1.00  0.00     0.010 A 
ATOM     35  C   UNL     1      -6.198   6.393   0.534  1.00  0.00    -0.014 A 
BRANCH  35  36
ATOM     36  C   UNL     1      -7.665   6.172   0.609  1.00  0.00     0.031 A 
ATOM     37  C   UNL     1      -8.457   5.970  -0.653  1.00  0.00     0.074 A 
ATOM     38  C   UNL     1      -8.290   6.194   1.801  1.00  0.00     0.049 A 
ATOM     39  N   UNL     1      -9.753   5.920  -0.816  1.00  0.00    -0.248 NA
ATOM     40  C   UNL     1      -7.688   5.813  -1.899  1.00  0.00     0.031 C 
ATOM     41  C   UNL     1      -7.631   6.369   3.096  1.00  0.00     0.029 A 
ATOM     42  N   UNL     1      -9.623   6.099   2.114  1.00  0.00    -0.354 N 
ATOM     43  C   UNL     1      -9.960   5.791  -2.184  1.00  0.00     0.074 A 
ATOM     44  C   UNL     1      -8.654   5.755  -2.807  1.00  0.00     0.031 C 
ATOM     45  C   UNL     1      -8.563   6.386   4.062  1.00  0.00     0.029 A 
ATOM     46  C   UNL     1      -9.885   6.273   3.453  1.00  0.00     0.049 A 
ATOM     47  H   UNL     1     -10.324   5.923   1.445  1.00  0.00     0.167 HD
ATOM     48  C   UNL     1     -11.132   5.702  -2.858  1.00  0.00     0.034 A 
ATOM     49  C   UNL     1     -11.057   6.368   4.111  1.00  0.00     0.034 A 
ATOM     50  C   UNL     1     -12.425   5.679  -2.229  1.00  0.00     0.049 A 
ATOM     51  C   UNL     1     -12.342   6.255   3.338  1.00  0.00     0.074 A 
ATOM     52  C   UNL     1     -13.668   5.539  -2.824  1.00  0.00     0.029 A 
ATOM     53  N   UNL     1     -12.646   5.793  -0.866  1.00  0.00    -0.354 N 
ATOM     54  N   UNL     1     -12.519   6.051   2.055  1.00  0.00    -0.248 NA
ATOM     55  C   UNL     1     -13.591   6.366   4.106  1.00  0.00     0.031 C 
ATOM     56  C   UNL     1     -14.640   5.574  -1.818  1.00  0.00     0.029 A 
ATOM     57  C   UNL     1     -14.002   5.727  -0.598  1.00  0.00     0.049 A 
ATOM     58  H   UNL     1     -11.941   5.905  -0.187  1.00  0.00     0.167 HD
ATOM     59  C   UNL     1     -13.894   5.984   1.865  1.00  0.00     0.074 A 
ATOM     60  C   UNL     1     -14.505   6.145   3.170  1.00  0.00     0.031 C 
ATOM     61  C   UNL     1     -14.591   5.828   0.713  1.00  0.00     0.034 A 
BRANCH  48  62
ATOM     62  C   UNL     1     -11.072   5.591  -4.358  1.00  0.00     0.023 A 
ATOM     63  C   UNL     1     -10.704   4.367  -4.950  1.00  0.00     0.012 A 
ATOM     64  C   UNL     1     -11.441   6.674  -5.179  1.00  0.00     0.148 A 
ATOM     65  C   UNL     1     -10.681   4.229  -6.338  1.00  0.00     0.002 A 
ATOM     66  C   UNL     1     -11.452   6.519  -6.561  1.00  0.00     0.091 A 
ATOM     67  F   UNL     1     -11.764   7.838  -4.597  1.00  0.00    -0.205 F 
ATOM     68  C   UNL     1     -11.065   5.300  -7.142  1.00  0.00     0.022 A 
BRANCH  66  69
ATOM     69  S   UNL     1     -11.998   7.819  -7.674  1.00  0.00     0.127 S 
ATOM     70  O   UNL     1     -10.728   8.289  -8.225  1.00  0.00    -0.237 OA
ATOM     71  O   UNL     1     -12.839   7.086  -8.621  1.00  0.00    -0.237 OA
ATOM     72  O   UNL     1     -12.717   8.777  -6.845  1.00  0.00    -0.744 OA
ENDBRANCH  66  69
ENDBRANCH  48  62
BRANCH  49  73
ATOM     73  C   UNL     1     -11.063   6.551   5.590  1.00  0.00     0.023 A 
ATOM     74  C   UNL     1     -11.491   5.492   6.413  1.00  0.00     0.012 A 
ATOM     75  C   UNL     1     -10.614   7.746   6.185  1.00  0.00     0.148 A 
ATOM     76  C   UNL     1     -11.490   5.626   7.802  1.00  0.00     0.002 A 
ATOM     77  C   UNL     1     -10.563   7.853   7.571  1.00  0.00     0.091 A 
ATOM     78  F   UNL     1     -10.236   8.754   5.386  1.00  0.00    -0.205 F 
ATOM     79  C   UNL     1     -11.014   6.800   8.381  1.00  0.00     0.022 A 
BRANCH  77  80
ATOM     80  S   UNL     1      -9.837   9.277   8.390  1.00  0.00     0.127 S 
ATOM     81  O   UNL     1     -11.022  10.014   8.819  1.00  0.00    -0.237 OA
ATOM     82  O   UNL     1      -9.074   8.655   9.473  1.00  0.00    -0.237 OA
ATOM     83  O   UNL     1      -9.012   9.925   7.378  1.00  0.00    -0.744 OA
ENDBRANCH  77  80
ENDBRANCH  49  73
BRANCH  61  84
ATOM     84  C   UNL     1     -16.093   5.793   0.806  1.00  0.00     0.023 A 
ATOM     85  C   UNL     1     -16.802   6.992   1.015  1.00  0.00     0.012 A 
ATOM     86  C   UNL     1     -16.802   4.592   0.613  1.00  0.00     0.148 A 
ATOM     87  C   UNL     1     -18.196   6.991   1.055  1.00  0.00     0.002 A 
ATOM     88  C   UNL     1     -18.192   4.606   0.614  1.00  0.00     0.091 A 
ATOM     89  F   UNL     1     -16.107   3.458   0.439  1.00  0.00    -0.205 F 
ATOM     90  C   UNL     1     -18.890   5.802   0.843  1.00  0.00     0.022 A 
BRANCH  88  91
ATOM     91  S   UNL     1     -19.162   3.135   0.262  1.00  0.00     0.127 S 
ATOM     92  O   UNL     1     -19.594   2.735   1.600  1.00  0.00    -0.237 OA
ATOM     93  O   UNL     1     -20.228   3.657  -0.593  1.00  0.00    -0.237 OA
ATOM     94  O   UNL     1     -18.253   2.213  -0.408  1.00  0.00    -0.744 OA
ENDBRANCH  88  91
ENDBRANCH  61  84
ENDBRANCH  35  36
ENDBRANCH  28  30
ENDBRANCH  27  28
ENDBRANCH  26  27
ENDBRANCH  25  26
ENDBRANCH   1  25
TORSDOF 21
