REMARK SMILES O=C(OCCOC(=O)[C@H]1CCCC[C@H]1C(=O)N1CCN(S(=O)(=O)c2ccc(F)cc2)CC1)c1ccc(-c2c3nc(c(-c4cccc(S(=O)(=O)[O-])c4F)c4ccc([nH]4)c(-c4cccc(S(=O)(=O)[O-])c4F)c4nc(c(-c5cccc(S(=O)(=O)[O-])c5F)c5ccc2[nH]5)C=C4)C=C3)cc1
REMARK SMILES IDX 4 1 3 2 2 3 1 4 33 5 34 6 95 7 35 8 94 9 36 10 37 11 38 12
REMARK SMILES IDX 88 13 39 14 93 15 87 16 89 17 40 18 92 19 86 20 85 21 41 23
REMARK SMILES IDX 73 24 53 25 72 26 54 27 57 28 71 29 90 30 55 31 56 32 70 34
REMARK SMILES IDX 91 35 58 36 42 37 43 38 51 39 44 40 46 41 52 42 45 43 47 44
REMARK SMILES IDX 48 45 49 46 50 47 74 48 75 49 83 50 76 51 78 52 84 53 77 54
REMARK SMILES IDX 79 55 80 56 81 57 82 58 59 59 60 60 68 61 61 62 63 63 69 64
REMARK SMILES IDX 62 65 64 66 65 67 66 68 67 69 5 70 6 71 7 72 8 73 9 74 10 75
REMARK SMILES IDX 14 76 11 77 13 78 12 79 15 80 16 81 17 82 18 83 32 84 19 85
REMARK SMILES IDX 31 86 20 87 21 88 22 89 23 90 24 91 25 92 30 93 26 94 29 95
REMARK SMILES IDX 27 96 28 97
REMARK H PARENT 89 22 57 33
REMARK Flexibility Score: inf
ROOT
ATOM      1  C   UNL     1       1.674  -0.435  -4.666  1.00  0.00     0.275 C 
ENDROOT
BRANCH   1   2
ATOM      2  O   UNL     1       1.877   0.412  -3.518  1.00  0.00    -0.458 OA
BRANCH   2   3
ATOM      3  C   UNL     1       1.018   0.663  -2.495  1.00  0.00     0.338 C 
ATOM      4  O   UNL     1       0.999   1.769  -1.963  1.00  0.00    -0.246 OA
BRANCH   3   5
ATOM      5  C   UNL     1       0.284  -0.454  -1.836  1.00  0.00     0.060 A 
ATOM      6  C   UNL     1      -0.559  -1.333  -2.506  1.00  0.00     0.016 A 
ATOM      7  C   UNL     1       0.417  -0.595  -0.440  1.00  0.00     0.016 A 
ATOM      8  C   UNL     1      -1.100  -2.435  -1.823  1.00  0.00     0.010 A 
ATOM      9  C   UNL     1      -0.187  -1.663   0.259  1.00  0.00     0.010 A 
ATOM     10  C   UNL     1      -0.904  -2.641  -0.432  1.00  0.00    -0.014 A 
BRANCH  10  11
ATOM     11  C   UNL     1      -1.492  -3.880   0.193  1.00  0.00     0.031 A 
ATOM     12  C   UNL     1      -2.941  -4.156  -0.092  1.00  0.00     0.074 A 
ATOM     13  C   UNL     1      -0.774  -4.828   0.846  1.00  0.00     0.049 A 
ATOM     14  N   UNL     1      -3.610  -5.272  -0.007  1.00  0.00    -0.248 NA
ATOM     15  C   UNL     1      -3.733  -3.005  -0.561  1.00  0.00     0.031 C 
ATOM     16  C   UNL     1       0.612  -4.715   1.286  1.00  0.00     0.029 A 
ATOM     17  N   UNL     1      -1.080  -6.145   1.149  1.00  0.00    -0.354 N 
ATOM     18  C   UNL     1      -4.908  -4.945  -0.369  1.00  0.00     0.074 A 
ATOM     19  C   UNL     1      -4.903  -3.566  -0.806  1.00  0.00     0.031 C 
ATOM     20  C   UNL     1       1.109  -5.937   1.541  1.00  0.00     0.029 A 
ATOM     21  C   UNL     1       0.035  -6.916   1.452  1.00  0.00     0.049 A 
ATOM     22  H   UNL     1      -1.998  -6.500   1.149  1.00  0.00     0.167 HD
ATOM     23  C   UNL     1      -6.036  -5.677  -0.238  1.00  0.00     0.034 A 
ATOM     24  C   UNL     1       0.169  -8.252   1.627  1.00  0.00     0.034 A 
ATOM     25  C   UNL     1      -6.085  -6.962   0.390  1.00  0.00     0.049 A 
ATOM     26  C   UNL     1      -1.095  -9.069   1.736  1.00  0.00     0.074 A 
ATOM     27  C   UNL     1      -7.192  -7.671   0.815  1.00  0.00     0.029 A 
ATOM     28  N   UNL     1      -4.970  -7.708   0.733  1.00  0.00    -0.354 N 
ATOM     29  N   UNL     1      -2.322  -8.737   1.424  1.00  0.00    -0.248 NA
ATOM     30  C   UNL     1      -0.965 -10.424   2.300  1.00  0.00     0.031 C 
ATOM     31  C   UNL     1      -6.744  -8.838   1.440  1.00  0.00     0.029 A 
ATOM     32  C   UNL     1      -5.361  -8.878   1.354  1.00  0.00     0.049 A 
ATOM     33  H   UNL     1      -4.037  -7.443   0.561  1.00  0.00     0.167 HD
ATOM     34  C   UNL     1      -3.114  -9.818   1.794  1.00  0.00     0.074 A 
ATOM     35  C   UNL     1      -2.221 -10.850   2.277  1.00  0.00     0.031 C 
ATOM     36  C   UNL     1      -4.465  -9.918   1.789  1.00  0.00     0.034 A 
BRANCH  23  37
ATOM     37  C   UNL     1      -7.306  -4.978  -0.620  1.00  0.00     0.023 A 
ATOM     38  C   UNL     1      -7.642  -4.821  -1.978  1.00  0.00     0.012 A 
ATOM     39  C   UNL     1      -8.087  -4.358   0.374  1.00  0.00     0.148 A 
ATOM     40  C   UNL     1      -8.719  -4.014  -2.344  1.00  0.00     0.002 A 
ATOM     41  C   UNL     1      -9.177  -3.586   0.003  1.00  0.00     0.091 A 
ATOM     42  F   UNL     1      -7.707  -4.479   1.654  1.00  0.00    -0.205 F 
ATOM     43  C   UNL     1      -9.486  -3.400  -1.355  1.00  0.00     0.022 A 
BRANCH  41  44
ATOM     44  S   UNL     1     -10.231  -2.777   1.207  1.00  0.00     0.127 S 
ATOM     45  O   UNL     1      -9.860  -1.374   1.026  1.00  0.00    -0.237 OA
ATOM     46  O   UNL     1     -11.567  -3.124   0.724  1.00  0.00    -0.237 OA
ATOM     47  O   UNL     1      -9.883  -3.355   2.497  1.00  0.00    -0.744 OA
ENDBRANCH  41  44
ENDBRANCH  23  37
BRANCH  24  48
ATOM     48  C   UNL     1       1.501  -8.945   1.716  1.00  0.00     0.023 A 
ATOM     49  C   UNL     1       1.786  -9.979   0.792  1.00  0.00     0.012 A 
ATOM     50  C   UNL     1       2.467  -8.650   2.696  1.00  0.00     0.148 A 
ATOM     51  C   UNL     1       2.979 -10.707   0.856  1.00  0.00     0.002 A 
ATOM     52  C   UNL     1       3.687  -9.326   2.706  1.00  0.00     0.091 A 
ATOM     53  F   UNL     1       2.171  -7.732   3.626  1.00  0.00    -0.205 F 
ATOM     54  C   UNL     1       3.938 -10.368   1.802  1.00  0.00     0.022 A 
BRANCH  52  55
ATOM     55  S   UNL     1       5.035  -8.861   3.802  1.00  0.00     0.127 S 
ATOM     56  O   UNL     1       5.038  -9.965   4.757  1.00  0.00    -0.237 OA
ATOM     57  O   UNL     1       6.175  -8.837   2.885  1.00  0.00    -0.237 OA
ATOM     58  O   UNL     1       4.661  -7.559   4.337  1.00  0.00    -0.744 OA
ENDBRANCH  52  55
ENDBRANCH  24  48
BRANCH  36  59
ATOM     59  C   UNL     1      -5.093 -11.176   2.318  1.00  0.00     0.023 A 
ATOM     60  C   UNL     1      -5.117 -11.421   3.705  1.00  0.00     0.012 A 
ATOM     61  C   UNL     1      -5.798 -12.031   1.449  1.00  0.00     0.148 A 
ATOM     62  C   UNL     1      -5.828 -12.505   4.218  1.00  0.00     0.002 A 
ATOM     63  C   UNL     1      -6.545 -13.078   1.972  1.00  0.00     0.091 A 
ATOM     64  F   UNL     1      -5.738 -11.791   0.131  1.00  0.00    -0.205 F 
ATOM     65  C   UNL     1      -6.556 -13.321   3.355  1.00  0.00     0.022 A 
BRANCH  63  66
ATOM     66  S   UNL     1      -7.602 -14.099   0.940  1.00  0.00     0.127 S 
ATOM     67  O   UNL     1      -6.838 -15.344   0.873  1.00  0.00    -0.237 OA
ATOM     68  O   UNL     1      -8.830 -14.177   1.732  1.00  0.00    -0.237 OA
ATOM     69  O   UNL     1      -7.743 -13.381  -0.320  1.00  0.00    -0.744 OA
ENDBRANCH  63  66
ENDBRANCH  36  59
ENDBRANCH  10  11
ENDBRANCH   3   5
ENDBRANCH   2   3
ENDBRANCH   1   2
BRANCH   1  70
ATOM     70  C   UNL     1       2.733  -1.532  -4.800  1.00  0.00     0.274 C 
BRANCH  70  71
ATOM     71  O   UNL     1       2.698  -2.520  -3.756  1.00  0.00    -0.462 OA
BRANCH  71  72
ATOM     72  C   UNL     1       3.379  -2.245  -2.608  1.00  0.00     0.309 C 
ATOM     73  O   UNL     1       4.001  -1.203  -2.445  1.00  0.00    -0.252 OA
BRANCH  72  74
ATOM     74  C   UNL     1       3.231  -3.330  -1.535  1.00  0.00     0.111 C 
ATOM     75  C   UNL     1       1.813  -3.867  -1.673  1.00  0.00     0.016 C 
ATOM     76  C   UNL     1       4.167  -4.533  -1.301  1.00  0.00     0.093 C 
ATOM     77  C   UNL     1       1.562  -5.054  -2.582  1.00  0.00     0.001 C 
ATOM     78  C   UNL     1       3.967  -5.669  -2.315  1.00  0.00     0.014 C 
ATOM     79  C   UNL     1       2.530  -6.181  -2.298  1.00  0.00     0.001 C 
BRANCH  76  80
ATOM     80  C   UNL     1       5.648  -4.321  -0.972  1.00  0.00     0.226 C 
ATOM     81  O   UNL     1       6.098  -4.489   0.157  1.00  0.00    -0.275 OA
ATOM     82  N   UNL     1       6.465  -4.001  -2.017  1.00  0.00    -0.340 N 
ATOM     83  C   UNL     1       7.405  -4.916  -2.652  1.00  0.00     0.136 C 
ATOM     84  C   UNL     1       6.504  -2.658  -2.512  1.00  0.00     0.136 C 
ATOM     85  C   UNL     1       7.247  -4.890  -4.199  1.00  0.00     0.124 C 
ATOM     86  C   UNL     1       6.038  -2.754  -3.957  1.00  0.00     0.124 C 
ATOM     87  N   UNL     1       7.016  -3.504  -4.787  1.00  0.00    -0.194 NA
BRANCH  87  88
ATOM     88  S   UNL     1       8.391  -2.646  -5.299  1.00  0.00     0.243 S 
ATOM     89  O   UNL     1       9.087  -2.123  -4.148  1.00  0.00    -0.207 OA
ATOM     90  O   UNL     1       9.080  -3.479  -6.265  1.00  0.00    -0.207 OA
BRANCH  88  91
ATOM     91  C   UNL     1       7.708  -1.242  -6.187  1.00  0.00     0.082 A 
ATOM     92  C   UNL     1       7.157  -0.157  -5.484  1.00  0.00     0.025 A 
ATOM     93  C   UNL     1       7.759  -1.216  -7.584  1.00  0.00     0.025 A 
ATOM     94  C   UNL     1       6.549   0.890  -6.180  1.00  0.00     0.040 A 
ATOM     95  C   UNL     1       7.207  -0.133  -8.273  1.00  0.00     0.040 A 
ATOM     96  C   UNL     1       6.586   0.895  -7.568  1.00  0.00     0.123 A 
ATOM     97  F   UNL     1       6.024   1.910  -8.239  1.00  0.00    -0.207 F 
ENDBRANCH  88  91
ENDBRANCH  87  88
ENDBRANCH  76  80
ENDBRANCH  72  74
ENDBRANCH  71  72
ENDBRANCH  70  71
ENDBRANCH   1  70
TORSDOF 17
