REMARK SMILES CC(C)OC(=O)c1c(NC(=O)[C@H]2[C@@H](C(=O)OCCOC(=O)c3ccc(-c4c5nc(c(-c6cccc(S(=O)(=O)[O-])c6F)c6ccc([nH]6)c(-c6cccc(S(=O)(=O)[O-])c6F)c6nc(c(-c7cccc(S(=O)(=O)[O-])c7F)c7ccc4[nH]7)C=C6)C=C5)cc3)[C@@H]3C=C[C@H]2CC3)sc2c1CCC2
REMARK SMILES IDX 17 1 16 2 14 3 15 4 13 5 12 6 88 7 85 8 87 9 89 10 86 11
REMARK SMILES IDX 90 12 10 13 9 14 11 16 8 17 7 18 93 19 91 20 92 21 94 22
REMARK SMILES IDX 96 23 95 24 5 25 6 26 4 27 2 28 1 29 3 30 18 31 19 32 20 33
REMARK SMILES IDX 21 34 22 35 23 36 84 37 24 38 83 39 25 40 26 41 27 42 77 43
REMARK SMILES IDX 28 44 82 45 76 46 78 47 29 48 81 49 75 50 74 51 30 53 62 54
REMARK SMILES IDX 42 55 61 56 43 57 46 58 60 59 79 60 44 61 45 62 59 64 80 65
REMARK SMILES IDX 47 66 31 67 32 68 40 69 33 70 35 71 41 72 34 73 36 74 37 75
REMARK SMILES IDX 38 76 39 77 63 78 64 79 72 80 65 81 67 82 73 83 66 84 68 85
REMARK SMILES IDX 69 86 70 87 71 88 48 89 49 90 57 91 50 92 52 93 58 94 51 95
REMARK SMILES IDX 53 96 54 97 55 98 56 99
REMARK H PARENT 9 15 78 52 46 63
REMARK Flexibility Score: inf
ROOT
ATOM      1  C   UNL     1      -8.367   7.114  -1.203  1.00  0.00     0.274 C 
ENDROOT
BRANCH   1   2
ATOM      2  O   UNL     1      -7.631   6.174  -0.378  1.00  0.00    -0.462 OA
BRANCH   2   3
ATOM      3  C   UNL     1      -7.672   4.890  -0.826  1.00  0.00     0.310 C 
ATOM      4  O   UNL     1      -8.172   4.601  -1.906  1.00  0.00    -0.252 OA
BRANCH   3   5
ATOM      5  C   UNL     1      -6.860   3.893  -0.027  1.00  0.00     0.119 C 
ATOM      6  C   UNL     1      -6.773   2.486  -0.670  1.00  0.00     0.100 C 
ATOM      7  C   UNL     1      -6.147   1.512   0.385  1.00  0.00     0.025 C 
ATOM      8  C   UNL     1      -6.823   3.758   1.538  1.00  0.00     0.026 C 
ATOM      9  C   UNL     1      -5.018   2.205   1.166  1.00  0.00    -0.027 C 
ATOM     10  C   UNL     1      -7.237   1.220   1.429  1.00  0.00     0.009 C 
ATOM     11  C   UNL     1      -5.369   3.348   1.791  1.00  0.00    -0.027 C 
ATOM     12  C   UNL     1      -7.533   2.528   2.202  1.00  0.00     0.009 C 
BRANCH   6  13
ATOM     13  C   UNL     1      -7.865   1.766  -1.536  1.00  0.00     0.229 C 
ATOM     14  N   UNL     1      -9.182   2.070  -1.753  1.00  0.00    -0.317 N 
ATOM     15  H   UNL     1      -9.599   1.540  -2.470  1.00  0.00     0.170 HD
ATOM     16  O   UNL     1      -7.460   0.784  -2.188  1.00  0.00    -0.274 OA
BRANCH  14  17
ATOM     17  C   UNL     1     -10.039   2.975  -1.161  1.00  0.00     0.110 A 
ATOM     18  C   UNL     1     -10.919   3.894  -1.749  1.00  0.00     0.098 A 
ATOM     19  C   UNL     1     -11.290   4.863  -0.755  1.00  0.00    -0.017 A 
ATOM     20  S   UNL     1     -10.162   3.010   0.527  1.00  0.00    -0.122 S 
ATOM     21  C   UNL     1     -10.786   4.546   0.474  1.00  0.00     0.011 A 
ATOM     22  C   UNL     1     -11.962   6.189  -0.704  1.00  0.00     0.038 C 
ATOM     23  C   UNL     1     -10.873   5.609   1.494  1.00  0.00     0.047 C 
ATOM     24  C   UNL     1     -11.444   6.787   0.650  1.00  0.00     0.010 C 
BRANCH  18  25
ATOM     25  C   UNL     1     -11.200   3.919  -3.182  1.00  0.00     0.341 C 
ATOM     26  O   UNL     1     -11.075   2.939  -3.890  1.00  0.00    -0.246 OA
BRANCH  25  27
ATOM     27  O   UNL     1     -11.696   5.129  -3.583  1.00  0.00    -0.459 OA
BRANCH  27  28
ATOM     28  C   UNL     1     -12.322   5.256  -4.878  1.00  0.00     0.170 C 
ATOM     29  C   UNL     1     -11.408   4.949  -6.058  1.00  0.00     0.052 C 
ATOM     30  C   UNL     1     -13.628   4.472  -4.907  1.00  0.00     0.052 C 
ENDBRANCH  27  28
ENDBRANCH  25  27
ENDBRANCH  18  25
ENDBRANCH  14  17
ENDBRANCH   6  13
ENDBRANCH   3   5
ENDBRANCH   2   3
ENDBRANCH   1   2
BRANCH   1  31
ATOM     31  C   UNL     1      -7.720   7.612  -2.504  1.00  0.00     0.275 C 
BRANCH  31  32
ATOM     32  O   UNL     1      -7.687   6.636  -3.547  1.00  0.00    -0.458 OA
BRANCH  32  33
ATOM     33  C   UNL     1      -6.572   5.866  -3.534  1.00  0.00     0.338 C 
ATOM     34  O   UNL     1      -5.691   5.903  -2.687  1.00  0.00    -0.246 OA
BRANCH  33  35
ATOM     35  C   UNL     1      -6.489   5.033  -4.745  1.00  0.00     0.060 A 
ATOM     36  C   UNL     1      -5.346   4.241  -4.851  1.00  0.00     0.016 A 
ATOM     37  C   UNL     1      -7.350   5.215  -5.836  1.00  0.00     0.016 A 
ATOM     38  C   UNL     1      -4.928   3.853  -6.104  1.00  0.00     0.010 A 
ATOM     39  C   UNL     1      -6.948   4.788  -7.091  1.00  0.00     0.010 A 
ATOM     40  C   UNL     1      -5.681   4.225  -7.225  1.00  0.00    -0.014 A 
BRANCH  40  41
ATOM     41  C   UNL     1      -5.016   4.089  -8.512  1.00  0.00     0.031 A 
ATOM     42  C   UNL     1      -4.575   2.720  -8.863  1.00  0.00     0.074 A 
ATOM     43  C   UNL     1      -4.757   5.138  -9.318  1.00  0.00     0.049 A 
ATOM     44  N   UNL     1      -3.363   2.288  -8.996  1.00  0.00    -0.248 NA
ATOM     45  C   UNL     1      -5.611   1.686  -8.964  1.00  0.00     0.031 C 
ATOM     46  C   UNL     1      -5.312   6.493  -9.247  1.00  0.00     0.029 A 
ATOM     47  N   UNL     1      -4.022   5.162 -10.466  1.00  0.00    -0.354 N 
ATOM     48  C   UNL     1      -3.487   0.962  -9.393  1.00  0.00     0.074 A 
ATOM     49  C   UNL     1      -4.875   0.606  -9.223  1.00  0.00     0.031 C 
ATOM     50  C   UNL     1      -5.119   7.107 -10.435  1.00  0.00     0.029 A 
ATOM     51  C   UNL     1      -4.312   6.245 -11.281  1.00  0.00     0.049 A 
ATOM     52  H   UNL     1      -3.352   4.477 -10.694  1.00  0.00     0.167 HD
ATOM     53  C   UNL     1      -2.486   0.300 -10.030  1.00  0.00     0.034 A 
ATOM     54  C   UNL     1      -3.998   6.370 -12.590  1.00  0.00     0.034 A 
ATOM     55  C   UNL     1      -1.211   0.942  -9.886  1.00  0.00     0.049 A 
ATOM     56  C   UNL     1      -2.877   5.448 -12.880  1.00  0.00     0.074 A 
ATOM     57  C   UNL     1      -0.395   1.277  -8.825  1.00  0.00     0.029 A 
ATOM     58  N   UNL     1      -0.723   1.631 -10.969  1.00  0.00    -0.354 N 
ATOM     59  N   UNL     1      -1.663   5.613 -12.432  1.00  0.00    -0.248 NA
ATOM     60  C   UNL     1      -3.182   4.117 -13.381  1.00  0.00     0.031 C 
ATOM     61  C   UNL     1       0.252   2.484  -9.218  1.00  0.00     0.029 A 
ATOM     62  C   UNL     1      -0.202   2.806 -10.499  1.00  0.00     0.049 A 
ATOM     63  H   UNL     1      -0.745   1.335 -11.908  1.00  0.00     0.167 HD
ATOM     64  C   UNL     1      -1.201   4.325 -12.191  1.00  0.00     0.074 A 
ATOM     65  C   UNL     1      -2.121   3.453 -12.915  1.00  0.00     0.031 C 
ATOM     66  C   UNL     1      -0.297   4.070 -11.198  1.00  0.00     0.034 A 
BRANCH  53  67
ATOM     67  C   UNL     1      -2.723  -0.771 -11.059  1.00  0.00     0.023 A 
ATOM     68  C   UNL     1      -1.637  -1.591 -11.429  1.00  0.00     0.012 A 
ATOM     69  C   UNL     1      -3.886  -0.832 -11.861  1.00  0.00     0.148 A 
ATOM     70  C   UNL     1      -1.700  -2.417 -12.556  1.00  0.00     0.002 A 
ATOM     71  C   UNL     1      -3.973  -1.717 -12.927  1.00  0.00     0.091 A 
ATOM     72  F   UNL     1      -4.866   0.061 -11.685  1.00  0.00    -0.205 F 
ATOM     73  C   UNL     1      -2.874  -2.492 -13.297  1.00  0.00     0.022 A 
BRANCH  71  74
ATOM     74  S   UNL     1      -5.497  -1.885 -13.861  1.00  0.00     0.127 S 
ATOM     75  O   UNL     1      -5.233  -1.029 -15.012  1.00  0.00    -0.237 OA
ATOM     76  O   UNL     1      -5.524  -3.320 -14.148  1.00  0.00    -0.237 OA
ATOM     77  O   UNL     1      -6.546  -1.444 -12.949  1.00  0.00    -0.744 OA
ENDBRANCH  71  74
ENDBRANCH  53  67
BRANCH  54  78
ATOM     78  C   UNL     1      -4.770   7.045 -13.656  1.00  0.00     0.023 A 
ATOM     79  C   UNL     1      -4.125   7.435 -14.844  1.00  0.00     0.012 A 
ATOM     80  C   UNL     1      -6.184   7.088 -13.618  1.00  0.00     0.148 A 
ATOM     81  C   UNL     1      -4.863   7.833 -15.965  1.00  0.00     0.002 A 
ATOM     82  C   UNL     1      -6.912   7.502 -14.728  1.00  0.00     0.091 A 
ATOM     83  F   UNL     1      -6.819   6.633 -12.530  1.00  0.00    -0.205 F 
ATOM     84  C   UNL     1      -6.255   7.865 -15.909  1.00  0.00     0.022 A 
BRANCH  82  85
ATOM     85  S   UNL     1      -8.709   7.567 -14.715  1.00  0.00     0.127 S 
ATOM     86  O   UNL     1      -8.973   8.856 -15.357  1.00  0.00    -0.237 OA
ATOM     87  O   UNL     1      -9.062   6.400 -15.518  1.00  0.00    -0.237 OA
ATOM     88  O   UNL     1      -9.097   7.515 -13.311  1.00  0.00    -0.744 OA
ENDBRANCH  82  85
ENDBRANCH  54  78
BRANCH  66  89
ATOM     89  C   UNL     1       0.405   5.241 -10.554  1.00  0.00     0.023 A 
ATOM     90  C   UNL     1      -0.311   6.240  -9.862  1.00  0.00     0.012 A 
ATOM     91  C   UNL     1       1.810   5.244 -10.484  1.00  0.00     0.148 A 
ATOM     92  C   UNL     1       0.355   7.238  -9.148  1.00  0.00     0.002 A 
ATOM     93  C   UNL     1       2.469   6.213  -9.734  1.00  0.00     0.091 A 
ATOM     94  F   UNL     1       2.483   4.282 -11.134  1.00  0.00    -0.205 F 
ATOM     95  C   UNL     1       1.745   7.218  -9.073  1.00  0.00     0.022 A 
BRANCH  93  96
ATOM     96  S   UNL     1       4.247   6.164  -9.487  1.00  0.00     0.127 S 
ATOM     97  O   UNL     1       4.717   7.175 -10.432  1.00  0.00    -0.237 OA
ATOM     98  O   UNL     1       4.385   6.536  -8.077  1.00  0.00    -0.237 OA
ATOM     99  O   UNL     1       4.650   4.793  -9.777  1.00  0.00    -0.744 OA
ENDBRANCH  93  96
ENDBRANCH  66  89
ENDBRANCH  40  41
ENDBRANCH  33  35
ENDBRANCH  32  33
ENDBRANCH  31  32
ENDBRANCH   1  31
TORSDOF 19
