REMARK SMILES C[C@@H](C(=O)OCCOC(=O)c1ccc(-c2c3nc(c(-c4cccc(S(=O)(=O)[O-])c4F)c4ccc([nH]4)c(-c4cccc(S(=O)(=O)[O-])c4F)c4nc(c(-c5cccc(S(=O)(=O)[O-])c5F)c5ccc2[nH]5)C=C4)C=C3)cc1)c1ccc(C[C@H]2CCCC2=O)cc1[N+](=O)[O-]
REMARK SMILES IDX 6 1 5 2 3 3 4 4 2 5 1 6 74 7 75 8 86 9 76 10 85 11 77 12
REMARK SMILES IDX 87 13 88 14 89 15 78 16 79 17 80 18 83 19 81 20 82 21 84 22
REMARK SMILES IDX 7 23 8 24 9 25 10 26 11 27 12 28 73 29 13 30 72 31 14 32
REMARK SMILES IDX 15 33 16 34 66 35 17 36 71 37 65 38 67 39 18 40 70 41 64 42
REMARK SMILES IDX 63 43 19 45 51 46 31 47 50 48 32 49 35 50 49 51 68 52 33 53
REMARK SMILES IDX 34 54 48 56 69 57 36 58 20 59 21 60 29 61 22 62 24 63 30 64
REMARK SMILES IDX 23 65 25 66 26 67 27 68 28 69 52 70 53 71 61 72 54 73 56 74
REMARK SMILES IDX 62 75 55 76 57 77 58 78 59 79 60 80 37 81 38 82 46 83 39 84
REMARK SMILES IDX 41 85 47 86 40 87 42 88 43 89 44 90 45 91
REMARK H PARENT 67 44 35 55
REMARK Flexibility Score: inf
ROOT
ATOM      1  C   UNL     1       2.249   2.754   2.578  1.00  0.00     0.274 C 
ENDROOT
BRANCH   1   2
ATOM      2  O   UNL     1       1.890   1.622   1.752  1.00  0.00    -0.462 OA
BRANCH   2   3
ATOM      3  C   UNL     1       1.271   0.577   2.371  1.00  0.00     0.313 C 
ATOM      4  O   UNL     1       0.983   0.555   3.563  1.00  0.00    -0.252 OA
BRANCH   3   5
ATOM      5  C   UNL     1       0.974  -0.608   1.418  1.00  0.00     0.133 C 
ATOM      6  C   UNL     1       1.504  -0.400  -0.002  1.00  0.00     0.025 C 
BRANCH   5   7
ATOM      7  C   UNL     1      -0.524  -0.911   1.411  1.00  0.00     0.044 A 
ATOM      8  C   UNL     1      -1.353   0.156   1.071  1.00  0.00     0.012 A 
ATOM      9  C   UNL     1      -1.173  -2.108   1.783  1.00  0.00     0.273 A 
ATOM     10  C   UNL     1      -2.717   0.112   1.319  1.00  0.00     0.004 A 
ATOM     11  C   UNL     1      -2.562  -2.117   2.101  1.00  0.00     0.089 A 
ATOM     12  C   UNL     1      -3.325  -0.959   1.961  1.00  0.00    -0.040 A 
BRANCH   9  13
ATOM     13  N   UNL     1      -0.486  -3.413   1.725  1.00  0.00     0.063 N 
ATOM     14  O   UNL     1      -1.132  -4.422   2.047  1.00  0.00    -0.258 OA
ATOM     15  O   UNL     1       0.676  -3.454   1.298  1.00  0.00    -0.258 OA
ENDBRANCH   9  13
BRANCH  12  16
ATOM     16  C   UNL     1      -4.772  -0.813   2.371  1.00  0.00     0.047 C 
BRANCH  16  17
ATOM     17  C   UNL     1      -5.113  -0.053   3.674  1.00  0.00     0.060 C 
ATOM     18  C   UNL     1      -5.203  -0.934   4.932  1.00  0.00     0.012 C 
ATOM     19  C   UNL     1      -4.178   1.047   4.161  1.00  0.00     0.136 C 
ATOM     20  C   UNL     1      -4.068  -0.492   5.853  1.00  0.00     0.009 C 
ATOM     21  C   UNL     1      -3.961   1.000   5.641  1.00  0.00     0.076 C 
ATOM     22  O   UNL     1      -3.664   1.904   3.479  1.00  0.00    -0.299 OA
ENDBRANCH  16  17
ENDBRANCH  12  16
ENDBRANCH   5   7
ENDBRANCH   3   5
ENDBRANCH   2   3
ENDBRANCH   1   2
BRANCH   1  23
ATOM     23  C   UNL     1       1.920   4.062   1.853  1.00  0.00     0.275 C 
BRANCH  23  24
ATOM     24  O   UNL     1       0.499   4.310   1.912  1.00  0.00    -0.458 OA
BRANCH  24  25
ATOM     25  C   UNL     1      -0.108   4.676   0.755  1.00  0.00     0.338 C 
ATOM     26  O   UNL     1       0.423   4.817  -0.335  1.00  0.00    -0.246 OA
BRANCH  25  27
ATOM     27  C   UNL     1      -1.570   4.783   0.960  1.00  0.00     0.060 A 
ATOM     28  C   UNL     1      -2.233   3.628   1.325  1.00  0.00     0.016 A 
ATOM     29  C   UNL     1      -2.322   5.925   0.654  1.00  0.00     0.016 A 
ATOM     30  C   UNL     1      -3.622   3.589   1.292  1.00  0.00     0.010 A 
ATOM     31  C   UNL     1      -3.739   5.899   0.742  1.00  0.00     0.010 A 
ATOM     32  C   UNL     1      -4.405   4.712   1.062  1.00  0.00    -0.014 A 
BRANCH  32  33
ATOM     33  C   UNL     1      -5.875   4.451   1.117  1.00  0.00     0.031 A 
ATOM     34  C   UNL     1      -6.612   4.139  -0.150  1.00  0.00     0.074 A 
ATOM     35  C   UNL     1      -6.478   4.154   2.293  1.00  0.00     0.049 A 
ATOM     36  N   UNL     1      -7.876   3.848  -0.314  1.00  0.00    -0.248 NA
ATOM     37  C   UNL     1      -5.823   4.125  -1.391  1.00  0.00     0.031 C 
ATOM     38  C   UNL     1      -5.822   4.197   3.597  1.00  0.00     0.029 A 
ATOM     39  N   UNL     1      -7.736   3.665   2.579  1.00  0.00    -0.354 N 
ATOM     40  C   UNL     1      -8.066   3.781  -1.685  1.00  0.00     0.074 A 
ATOM     41  C   UNL     1      -6.763   3.908  -2.301  1.00  0.00     0.031 C 
ATOM     42  C   UNL     1      -6.635   3.657   4.520  1.00  0.00     0.029 A 
ATOM     43  C   UNL     1      -7.915   3.316   3.905  1.00  0.00     0.049 A 
ATOM     44  H   UNL     1      -8.443   3.572   1.900  1.00  0.00     0.167 HD
ATOM     45  C   UNL     1      -9.239   3.717  -2.357  1.00  0.00     0.034 A 
ATOM     46  C   UNL     1      -8.989   2.799   4.545  1.00  0.00     0.034 A 
ATOM     47  C   UNL     1     -10.522   3.557  -1.727  1.00  0.00     0.049 A 
ATOM     48  C   UNL     1     -10.283   2.677   3.776  1.00  0.00     0.074 A 
ATOM     49  C   UNL     1     -11.781   3.637  -2.294  1.00  0.00     0.029 A 
ATOM     50  N   UNL     1     -10.707   3.273  -0.383  1.00  0.00    -0.354 N 
ATOM     51  N   UNL     1     -10.494   2.789   2.487  1.00  0.00    -0.248 NA
ATOM     52  C   UNL     1     -11.503   2.416   4.560  1.00  0.00     0.031 C 
ATOM     53  C   UNL     1     -12.729   3.427  -1.285  1.00  0.00     0.029 A 
ATOM     54  C   UNL     1     -12.058   3.168  -0.102  1.00  0.00     0.049 A 
ATOM     55  H   UNL     1      -9.983   3.161   0.275  1.00  0.00     0.167 HD
ATOM     56  C   UNL     1     -11.868   2.664   2.314  1.00  0.00     0.074 A 
ATOM     57  C   UNL     1     -12.431   2.369   3.614  1.00  0.00     0.031 C 
ATOM     58  C   UNL     1     -12.605   2.844   1.190  1.00  0.00     0.034 A 
BRANCH  45  59
ATOM     59  C   UNL     1      -9.187   4.013  -3.828  1.00  0.00     0.023 A 
ATOM     60  C   UNL     1      -8.732   3.063  -4.758  1.00  0.00     0.012 A 
ATOM     61  C   UNL     1      -9.592   5.289  -4.275  1.00  0.00     0.148 A 
ATOM     62  C   UNL     1      -8.644   3.394  -6.112  1.00  0.00     0.002 A 
ATOM     63  C   UNL     1      -9.548   5.594  -5.626  1.00  0.00     0.091 A 
ATOM     64  F   UNL     1      -9.993   6.186  -3.362  1.00  0.00    -0.205 F 
ATOM     65  C   UNL     1      -9.059   4.653  -6.545  1.00  0.00     0.022 A 
BRANCH  63  66
ATOM     66  S   UNL     1     -10.127   7.162  -6.278  1.00  0.00     0.127 S 
ATOM     67  O   UNL     1      -8.880   7.765  -6.748  1.00  0.00    -0.237 OA
ATOM     68  O   UNL     1     -11.036   6.732  -7.340  1.00  0.00    -0.237 OA
ATOM     69  O   UNL     1     -10.770   7.851  -5.168  1.00  0.00    -0.744 OA
ENDBRANCH  63  66
ENDBRANCH  45  59
BRANCH  46  70
ATOM     70  C   UNL     1      -8.944   2.394   5.991  1.00  0.00     0.023 A 
ATOM     71  C   UNL     1      -9.307   1.079   6.359  1.00  0.00     0.012 A 
ATOM     72  C   UNL     1      -8.585   3.293   7.012  1.00  0.00     0.148 A 
ATOM     73  C   UNL     1      -9.336   0.685   7.702  1.00  0.00     0.002 A 
ATOM     74  C   UNL     1      -8.515   2.865   8.334  1.00  0.00     0.091 A 
ATOM     75  F   UNL     1      -8.334   4.569   6.685  1.00  0.00    -0.205 F 
ATOM     76  C   UNL     1      -8.918   1.572   8.688  1.00  0.00     0.022 A 
BRANCH  74  77
ATOM     77  S   UNL     1      -7.772   3.894   9.605  1.00  0.00     0.127 S 
ATOM     78  O   UNL     1      -8.943   4.484  10.245  1.00  0.00    -0.237 OA
ATOM     79  O   UNL     1      -7.052   2.911  10.416  1.00  0.00    -0.237 OA
ATOM     80  O   UNL     1      -6.901   4.809   8.878  1.00  0.00    -0.744 OA
ENDBRANCH  74  77
ENDBRANCH  46  70
BRANCH  58  81
ATOM     81  C   UNL     1     -14.103   2.749   1.310  1.00  0.00     0.023 A 
ATOM     82  C   UNL     1     -14.818   3.776   1.960  1.00  0.00     0.012 A 
ATOM     83  C   UNL     1     -14.809   1.691   0.706  1.00  0.00     0.148 A 
ATOM     84  C   UNL     1     -16.210   3.736   2.031  1.00  0.00     0.002 A 
ATOM     85  C   UNL     1     -16.198   1.683   0.740  1.00  0.00     0.091 A 
ATOM     86  F   UNL     1     -14.108   0.716   0.110  1.00  0.00    -0.205 F 
ATOM     87  C   UNL     1     -16.900   2.698   1.411  1.00  0.00     0.022 A 
BRANCH  85  88
ATOM     88  S   UNL     1     -17.174   0.435  -0.106  1.00  0.00     0.127 S 
ATOM     89  O   UNL     1     -17.726  -0.322   1.016  1.00  0.00    -0.237 OA
ATOM     90  O   UNL     1     -18.149   1.247  -0.834  1.00  0.00    -0.237 OA
ATOM     91  O   UNL     1     -16.242  -0.297  -0.953  1.00  0.00    -0.744 OA
ENDBRANCH  85  88
ENDBRANCH  58  81
ENDBRANCH  32  33
ENDBRANCH  25  27
ENDBRANCH  24  25
ENDBRANCH  23  24
ENDBRANCH   1  23
TORSDOF 18
