REMARK SMILES Cc1cc(Cl)cc2c1O[C@H](C(F)(F)F)C(C(=O)OCCOC(=O)c1ccc(-c3c4nc(c(-c5cccc(S(=O)(=O)[O-])c5F)c5ccc([nH]5)c(-c5cccc(S(=O)(=O)[O-])c5F)c5nc(c(-c6cccc(S(=O)(=O)[O-])c6F)c6ccc3[nH]6)C=C5)C=C4)cc1)=C2
REMARK SMILES IDX 20 1 19 2 18 3 16 4 17 5 15 6 1 7 2 8 3 9 8 10 4 11 7 12
REMARK SMILES IDX 9 13 5 14 6 15 87 16 10 17 11 18 12 19 13 20 14 21 21 22
REMARK SMILES IDX 22 23 23 24 24 25 25 26 86 27 26 28 85 29 27 30 28 31 29 32
REMARK SMILES IDX 79 33 30 34 84 35 78 36 80 37 31 38 83 39 77 40 76 41 32 43
REMARK SMILES IDX 64 44 44 45 63 46 45 47 48 48 62 49 81 50 46 51 47 52 61 54
REMARK SMILES IDX 82 55 49 56 33 57 34 58 42 59 35 60 37 61 43 62 36 63 38 64
REMARK SMILES IDX 39 65 40 66 41 67 65 68 66 69 74 70 67 71 69 72 75 73 68 74
REMARK SMILES IDX 70 75 71 76 72 77 73 78 50 79 51 80 59 81 52 82 54 83 60 84
REMARK SMILES IDX 53 85 55 86 56 87 57 88 58 89
REMARK H PARENT 80 42 48 53
REMARK Flexibility Score: inf
ROOT
ATOM      1  C   UNL     1      -4.207   1.634   7.369  1.00  0.00     0.275 C 
ENDROOT
BRANCH   1   2
ATOM      2  C   UNL     1      -4.618   0.862   6.115  1.00  0.00     0.275 C 
BRANCH   2   3
ATOM      3  O   UNL     1      -3.528   0.761   5.172  1.00  0.00    -0.459 OA
BRANCH   3   4
ATOM      4  C   UNL     1      -3.607   1.586   4.103  1.00  0.00     0.338 C 
ATOM      5  O   UNL     1      -4.517   2.362   3.849  1.00  0.00    -0.246 OA
BRANCH   4   6
ATOM      6  C   UNL     1      -2.423   1.440   3.238  1.00  0.00     0.087 C 
ATOM      7  C   UNL     1       1.072  -0.212  -0.184  1.00  0.00     0.048 C 
ATOM      8  C   UNL     1       0.655   1.100   0.414  1.00  0.00    -0.007 A 
ATOM      9  C   UNL     1       1.250   2.278  -0.074  1.00  0.00     0.027 A 
ATOM     10  C   UNL     1      -0.346   1.194   1.393  1.00  0.00     0.131 A 
ATOM     11  C   UNL     1       0.878   3.522   0.430  1.00  0.00     0.042 A 
ATOM     12  C   UNL     1      -0.717   2.448   1.886  1.00  0.00     0.019 A 
ATOM     13  O   UNL     1      -0.912   0.030   1.840  1.00  0.00    -0.475 OA
ATOM     14  Cl  UNL     1       1.614   4.949  -0.182  1.00  0.00    -0.084 Cl
ATOM     15  C   UNL     1      -0.097   3.613   1.415  1.00  0.00     0.032 A 
ATOM     16  C   UNL     1      -1.780   2.550   2.864  1.00  0.00     0.027 C 
ATOM     17  C   UNL     1      -2.093   0.086   2.690  1.00  0.00     0.316 C 
BRANCH  17  18
ATOM     18  C   UNL     1      -3.285  -0.508   1.923  1.00  0.00     0.430 C 
ATOM     19  F   UNL     1      -2.981  -1.724   1.407  1.00  0.00    -0.167 F 
ATOM     20  F   UNL     1      -4.356  -0.696   2.733  1.00  0.00    -0.167 F 
ATOM     21  F   UNL     1      -3.684   0.278   0.898  1.00  0.00    -0.167 F 
ENDBRANCH  17  18
ENDBRANCH   4   6
ENDBRANCH   3   4
ENDBRANCH   2   3
ENDBRANCH   1   2
BRANCH   1  22
ATOM     22  O   UNL     1      -3.963   3.016   7.054  1.00  0.00    -0.458 OA
BRANCH  22  23
ATOM     23  C   UNL     1      -2.657   3.348   6.949  1.00  0.00     0.338 C 
ATOM     24  O   UNL     1      -1.695   2.619   7.125  1.00  0.00    -0.246 OA
BRANCH  23  25
ATOM     25  C   UNL     1      -2.508   4.731   6.475  1.00  0.00     0.060 A 
ATOM     26  C   UNL     1      -2.815   5.006   5.149  1.00  0.00     0.016 A 
ATOM     27  C   UNL     1      -1.825   5.670   7.242  1.00  0.00     0.016 A 
ATOM     28  C   UNL     1      -2.255   6.116   4.525  1.00  0.00     0.010 A 
ATOM     29  C   UNL     1      -1.415   6.870   6.650  1.00  0.00     0.010 A 
ATOM     30  C   UNL     1      -1.554   7.077   5.265  1.00  0.00    -0.014 A 
BRANCH  30  31
ATOM     31  C   UNL     1      -0.934   8.261   4.596  1.00  0.00     0.031 A 
ATOM     32  C   UNL     1       0.519   8.598   4.844  1.00  0.00     0.074 A 
ATOM     33  C   UNL     1      -1.658   9.044   3.768  1.00  0.00     0.049 A 
ATOM     34  N   UNL     1       1.172   9.698   4.569  1.00  0.00    -0.248 NA
ATOM     35  C   UNL     1       1.341   7.571   5.507  1.00  0.00     0.031 C 
ATOM     36  C   UNL     1      -3.055   8.820   3.387  1.00  0.00     0.029 A 
ATOM     37  N   UNL     1      -1.322  10.199   3.102  1.00  0.00    -0.354 N 
ATOM     38  C   UNL     1       2.448   9.530   5.099  1.00  0.00     0.074 A 
ATOM     39  C   UNL     1       2.481   8.219   5.709  1.00  0.00     0.031 C 
ATOM     40  C   UNL     1      -3.443   9.777   2.534  1.00  0.00     0.029 A 
ATOM     41  C   UNL     1      -2.371  10.753   2.403  1.00  0.00     0.049 A 
ATOM     42  H   UNL     1      -0.419  10.592   3.123  1.00  0.00     0.167 HD
ATOM     43  C   UNL     1       3.498  10.386   5.072  1.00  0.00     0.034 A 
ATOM     44  C   UNL     1      -2.492  11.941   1.780  1.00  0.00     0.034 A 
ATOM     45  C   UNL     1       3.482  11.653   4.389  1.00  0.00     0.049 A 
ATOM     46  C   UNL     1      -1.327  12.889   1.793  1.00  0.00     0.074 A 
ATOM     47  C   UNL     1       4.503  12.580   4.275  1.00  0.00     0.029 A 
ATOM     48  N   UNL     1       2.400  12.165   3.689  1.00  0.00    -0.354 N 
ATOM     49  N   UNL     1      -0.129  12.715   2.295  1.00  0.00    -0.248 NA
ATOM     50  C   UNL     1      -1.529  14.195   1.152  1.00  0.00     0.031 C 
ATOM     51  C   UNL     1       4.029  13.665   3.531  1.00  0.00     0.029 A 
ATOM     52  C   UNL     1       2.723  13.400   3.152  1.00  0.00     0.049 A 
ATOM     53  H   UNL     1       1.529  11.717   3.589  1.00  0.00     0.167 HD
ATOM     54  C   UNL     1       0.572  13.882   2.019  1.00  0.00     0.074 A 
ATOM     55  C   UNL     1      -0.326  14.740   1.271  1.00  0.00     0.031 C 
ATOM     56  C   UNL     1       1.834  14.225   2.374  1.00  0.00     0.034 A 
BRANCH  43  57
ATOM     57  C   UNL     1       4.770   9.985   5.779  1.00  0.00     0.023 A 
ATOM     58  C   UNL     1       5.590   8.975   5.239  1.00  0.00     0.012 A 
ATOM     59  C   UNL     1       5.199  10.677   6.932  1.00  0.00     0.148 A 
ATOM     60  C   UNL     1       6.801   8.641   5.846  1.00  0.00     0.002 A 
ATOM     61  C   UNL     1       6.431  10.373   7.502  1.00  0.00     0.091 A 
ATOM     62  F   UNL     1       4.400  11.624   7.442  1.00  0.00    -0.205 F 
ATOM     63  C   UNL     1       7.227   9.348   6.968  1.00  0.00     0.022 A 
BRANCH  61  64
ATOM     64  S   UNL     1       7.113  11.285   8.893  1.00  0.00     0.127 S 
ATOM     65  O   UNL     1       7.121  10.263   9.940  1.00  0.00    -0.237 OA
ATOM     66  O   UNL     1       8.437  11.657   8.395  1.00  0.00    -0.237 OA
ATOM     67  O   UNL     1       6.210  12.403   9.126  1.00  0.00    -0.744 OA
ENDBRANCH  61  64
ENDBRANCH  43  57
BRANCH  44  68
ATOM     68  C   UNL     1      -3.773  12.294   1.098  1.00  0.00     0.023 A 
ATOM     69  C   UNL     1      -3.797  12.412  -0.304  1.00  0.00     0.012 A 
ATOM     70  C   UNL     1      -4.974  12.455   1.820  1.00  0.00     0.148 A 
ATOM     71  C   UNL     1      -4.988  12.696  -0.974  1.00  0.00     0.002 A 
ATOM     72  C   UNL     1      -6.168  12.668   1.142  1.00  0.00     0.091 A 
ATOM     73  F   UNL     1      -4.930  12.359   3.157  1.00  0.00    -0.205 F 
ATOM     74  C   UNL     1      -6.175  12.807  -0.254  1.00  0.00     0.022 A 
BRANCH  72  75
ATOM     75  S   UNL     1      -7.763  12.668   1.970  1.00  0.00     0.127 S 
ATOM     76  O   UNL     1      -8.182  14.058   1.812  1.00  0.00    -0.237 OA
ATOM     77  O   UNL     1      -8.516  11.702   1.169  1.00  0.00    -0.237 OA
ATOM     78  O   UNL     1      -7.500  12.240   3.337  1.00  0.00    -0.744 OA
ENDBRANCH  72  75
ENDBRANCH  44  68
BRANCH  56  79
ATOM     79  C   UNL     1       2.333  15.584   1.954  1.00  0.00     0.023 A 
ATOM     80  C   UNL     1       1.818  16.737   2.579  1.00  0.00     0.012 A 
ATOM     81  C   UNL     1       3.368  15.714   1.007  1.00  0.00     0.148 A 
ATOM     82  C   UNL     1       2.302  18.001   2.245  1.00  0.00     0.002 A 
ATOM     83  C   UNL     1       3.884  16.972   0.720  1.00  0.00     0.091 A 
ATOM     84  F   UNL     1       3.834  14.606   0.412  1.00  0.00    -0.205 F 
ATOM     85  C   UNL     1       3.342  18.117   1.327  1.00  0.00     0.022 A 
BRANCH  83  86
ATOM     86  S   UNL     1       5.294  17.215  -0.367  1.00  0.00     0.127 S 
ATOM     87  O   UNL     1       4.674  17.870  -1.517  1.00  0.00    -0.237 OA
ATOM     88  O   UNL     1       6.157  18.081   0.437  1.00  0.00    -0.237 OA
ATOM     89  O   UNL     1       5.837  15.888  -0.625  1.00  0.00    -0.744 OA
ENDBRANCH  83  86
ENDBRANCH  56  79
ENDBRANCH  30  31
ENDBRANCH  23  25
ENDBRANCH  22  23
ENDBRANCH   1  22
TORSDOF 15
