REMARK SMILES Cn1ccc(C(=O)N[C@H]2CCCCC[C@H]2C(=O)OCCOC(=O)c2ccc(-c3c4nc(c(-c5cccc(S(=O)(=O)[O-])c5F)c5ccc([nH]5)c(-c5cccc(S(=O)(=O)[O-])c5F)c5nc(c(-c6cccc(S(=O)(=O)[O-])c6F)c6ccc3[nH]6)C=C5)C=C4)cc2)cc1=O
REMARK SMILES IDX 19 1 18 2 16 3 17 4 15 5 9 6 8 7 6 8 7 9 5 11 1 12 2 13 3 14
REMARK SMILES IDX 88 15 4 16 87 17 89 18 10 19 11 20 14 22 13 23 12 24 20 26
REMARK SMILES IDX 21 27 22 28 23 29 24 30 25 31 86 32 26 33 85 34 27 35 28 36
REMARK SMILES IDX 29 37 79 38 30 39 84 40 78 41 80 42 31 43 83 44 77 45 76 46
REMARK SMILES IDX 32 48 64 49 44 50 63 51 45 52 48 53 62 54 81 55 46 56 47 57
REMARK SMILES IDX 61 59 82 60 49 61 33 62 34 63 42 64 35 65 37 66 43 67 36 68
REMARK SMILES IDX 38 69 39 70 40 71 41 72 65 73 66 74 74 75 67 76 69 77 75 78
REMARK SMILES IDX 68 79 70 80 71 81 72 82 73 83 50 84 51 85 59 86 52 87 54 88
REMARK SMILES IDX 60 89 53 90 55 91 56 92 57 93 58 94
REMARK H PARENT 8 10 80 47 48 58
REMARK Flexibility Score: 90.00
ROOT
ATOM      1  C   UNL     1      -2.767   3.944  -0.875  1.00  0.00     0.274 C 
ENDROOT
BRANCH   1   2
ATOM      2  O   UNL     1      -1.441   4.054  -0.317  1.00  0.00    -0.462 OA
BRANCH   2   3
ATOM      3  C   UNL     1      -0.914   2.922   0.205  1.00  0.00     0.311 C 
ATOM      4  O   UNL     1      -1.491   1.839   0.213  1.00  0.00    -0.252 OA
BRANCH   3   5
ATOM      5  C   UNL     1       0.461   3.097   0.843  1.00  0.00     0.121 C 
BRANCH   5   6
ATOM      6  C   UNL     1       1.282   4.389   0.588  1.00  0.00     0.096 C 
BRANCH   6   7
ATOM      7  N   UNL     1       1.256   4.841  -0.819  1.00  0.00    -0.348 N 
ATOM      8  C   UNL     1       1.950   5.798  -1.510  1.00  0.00     0.251 C 
ATOM      9  O   UNL     1       1.878   5.879  -2.733  1.00  0.00    -0.269 OA
ATOM     10  H   UNL     1       0.605   4.354  -1.374  1.00  0.00     0.164 HD
BRANCH   8  11
ATOM     11  C   UNL     1       2.652   6.861  -0.758  1.00  0.00     0.046 A 
ATOM     12  C   UNL     1       3.704   9.714   2.127  1.00  0.00     0.153 C 
ATOM     13  N   UNL     1       3.429   8.775   1.056  1.00  0.00    -0.319 N 
ATOM     14  C   UNL     1       2.474   9.095   0.110  1.00  0.00     0.089 A 
ATOM     15  C   UNL     1       4.149   7.577   1.018  1.00  0.00     0.251 A 
ATOM     16  C   UNL     1       2.096   8.195  -0.801  1.00  0.00     0.032 A 
ATOM     17  C   UNL     1       3.706   6.571   0.016  1.00  0.00     0.085 A 
ATOM     18  O   UNL     1       5.053   7.288   1.798  1.00  0.00    -0.269 OA
ENDBRANCH   8  11
ENDBRANCH   6   7
BRANCH   6  19
ATOM     19  C   UNL     1       1.096   5.473   1.666  1.00  0.00     0.026 C 
BRANCH  19  20
ATOM     20  C   UNL     1      -0.312   5.733   2.169  1.00  0.00     0.002 CG0
ATOM     21  G   UNL     1      -0.680   4.862   3.362  1.00  0.00     0.000 G0
ENDBRANCH  19  20
ENDBRANCH   6  19
ENDBRANCH   5   6
BRANCH   5  22
ATOM     22  C   UNL     1       0.358   2.708   2.333  1.00  0.00     0.017 C 
BRANCH  22  23
ATOM     23  C   UNL     1      -0.790   3.365   3.108  1.00  0.00     0.001 C 
BRANCH  23  24
ATOM     24  C   UNL     1      -0.680   4.862   3.362  1.00  0.00     0.000 CG0
ATOM     25  G   UNL     1      -0.312   5.733   2.169  1.00  0.00     0.000 G0
ENDBRANCH  23  24
ENDBRANCH  22  23
ENDBRANCH   5  22
ENDBRANCH   3   5
ENDBRANCH   2   3
ENDBRANCH   1   2
BRANCH   1  26
ATOM     26  C   UNL     1      -2.749   3.824  -2.404  1.00  0.00     0.275 C 
BRANCH  26  27
ATOM     27  O   UNL     1      -2.229   2.560  -2.853  1.00  0.00    -0.458 OA
BRANCH  27  28
ATOM     28  C   UNL     1      -0.881   2.512  -2.953  1.00  0.00     0.338 C 
ATOM     29  O   UNL     1      -0.098   3.417  -2.719  1.00  0.00    -0.246 OA
BRANCH  28  30
ATOM     30  C   UNL     1      -0.422   1.142  -3.193  1.00  0.00     0.060 A 
ATOM     31  C   UNL     1       0.403   0.569  -2.221  1.00  0.00     0.016 A 
ATOM     32  C   UNL     1      -0.716   0.462  -4.373  1.00  0.00     0.016 A 
ATOM     33  C   UNL     1       0.937  -0.694  -2.412  1.00  0.00     0.010 A 
ATOM     34  C   UNL     1      -0.184  -0.816  -4.562  1.00  0.00     0.010 A 
ATOM     35  C   UNL     1       0.640  -1.398  -3.582  1.00  0.00    -0.014 A 
BRANCH  35  36
ATOM     36  C   UNL     1       1.183  -2.759  -3.761  1.00  0.00     0.031 A 
ATOM     37  C   UNL     1       2.274  -3.006  -4.756  1.00  0.00     0.074 A 
ATOM     38  C   UNL     1       0.666  -3.763  -3.029  1.00  0.00     0.049 A 
ATOM     39  N   UNL     1       2.791  -4.140  -5.141  1.00  0.00    -0.248 NA
ATOM     40  C   UNL     1       2.859  -1.821  -5.406  1.00  0.00     0.031 C 
ATOM     41  C   UNL     1      -0.384  -3.613  -2.018  1.00  0.00     0.029 A 
ATOM     42  N   UNL     1       0.932  -5.107  -3.040  1.00  0.00    -0.354 N 
ATOM     43  C   UNL     1       3.725  -3.817  -6.116  1.00  0.00     0.074 A 
ATOM     44  C   UNL     1       3.717  -2.376  -6.253  1.00  0.00     0.031 C 
ATOM     45  C   UNL     1      -0.694  -4.822  -1.527  1.00  0.00     0.029 A 
ATOM     46  C   UNL     1       0.097  -5.831  -2.223  1.00  0.00     0.049 A 
ATOM     47  H   UNL     1       1.649  -5.513  -3.579  1.00  0.00     0.167 HD
ATOM     48  C   UNL     1       4.517  -4.654  -6.827  1.00  0.00     0.034 A 
ATOM     49  C   UNL     1      -0.045  -7.163  -2.086  1.00  0.00     0.034 A 
ATOM     50  C   UNL     1       4.535  -6.081  -6.649  1.00  0.00     0.049 A 
ATOM     51  C   UNL     1       0.839  -8.066  -2.900  1.00  0.00     0.074 A 
ATOM     52  C   UNL     1       5.334  -7.016  -7.282  1.00  0.00     0.029 A 
ATOM     53  N   UNL     1       3.711  -6.780  -5.779  1.00  0.00    -0.354 N 
ATOM     54  N   UNL     1       1.782  -7.745  -3.752  1.00  0.00    -0.248 NA
ATOM     55  C   UNL     1       0.654  -9.512  -2.722  1.00  0.00     0.031 C 
ATOM     56  C   UNL     1       4.979  -8.284  -6.807  1.00  0.00     0.029 A 
ATOM     57  C   UNL     1       3.971  -8.136  -5.867  1.00  0.00     0.049 A 
ATOM     58  H   UNL     1       3.040  -6.371  -5.186  1.00  0.00     0.167 HD
ATOM     59  C   UNL     1       2.316  -8.946  -4.200  1.00  0.00     0.074 A 
ATOM     60  C   UNL     1       1.610 -10.001  -3.499  1.00  0.00     0.031 C 
ATOM     61  C   UNL     1       3.284  -9.162  -5.125  1.00  0.00     0.034 A 
BRANCH  48  62
ATOM     62  C   UNL     1       5.439  -4.049  -7.850  1.00  0.00     0.023 A 
ATOM     63  C   UNL     1       6.609  -3.385  -7.432  1.00  0.00     0.012 A 
ATOM     64  C   UNL     1       5.178  -4.193  -9.227  1.00  0.00     0.148 A 
ATOM     65  C   UNL     1       7.496  -2.856  -8.369  1.00  0.00     0.002 A 
ATOM     66  C   UNL     1       6.085  -3.694 -10.155  1.00  0.00     0.091 A 
ATOM     67  F   UNL     1       4.046  -4.805  -9.603  1.00  0.00    -0.205 F 
ATOM     68  C   UNL     1       7.240  -3.019  -9.728  1.00  0.00     0.022 A 
BRANCH  66  69
ATOM     69  S   UNL     1       5.878  -3.913 -11.927  1.00  0.00     0.127 S 
ATOM     70  O   UNL     1       5.568  -2.551 -12.358  1.00  0.00    -0.237 OA
ATOM     71  O   UNL     1       7.199  -4.394 -12.334  1.00  0.00    -0.237 OA
ATOM     72  O   UNL     1       4.803  -4.880 -12.090  1.00  0.00    -0.744 OA
ENDBRANCH  66  69
ENDBRANCH  48  62
BRANCH  49  73
ATOM     73  C   UNL     1      -1.058  -7.708  -1.140  1.00  0.00     0.023 A 
ATOM     74  C   UNL     1      -0.632  -8.366   0.028  1.00  0.00     0.012 A 
ATOM     75  C   UNL     1      -2.438  -7.540  -1.369  1.00  0.00     0.148 A 
ATOM     76  C   UNL     1      -1.562  -8.866   0.941  1.00  0.00     0.002 A 
ATOM     77  C   UNL     1      -3.358  -7.989  -0.428  1.00  0.00     0.091 A 
ATOM     78  F   UNL     1      -2.828  -6.932  -2.499  1.00  0.00    -0.205 F 
ATOM     79  C   UNL     1      -2.922  -8.666   0.720  1.00  0.00     0.022 A 
BRANCH  77  80
ATOM     80  S   UNL     1      -5.115  -7.643  -0.573  1.00  0.00     0.127 S 
ATOM     81  O   UNL     1      -5.636  -8.924  -1.041  1.00  0.00    -0.237 OA
ATOM     82  O   UNL     1      -5.476  -7.297   0.803  1.00  0.00    -0.237 OA
ATOM     83  O   UNL     1      -5.213  -6.532  -1.510  1.00  0.00    -0.744 OA
ENDBRANCH  77  80
ENDBRANCH  49  73
BRANCH  61  84
ATOM     84  C   UNL     1       3.643 -10.593  -5.423  1.00  0.00     0.023 A 
ATOM     85  C   UNL     1       2.765 -11.380  -6.194  1.00  0.00     0.012 A 
ATOM     86  C   UNL     1       4.872 -11.133  -5.000  1.00  0.00     0.148 A 
ATOM     87  C   UNL     1       3.094 -12.696  -6.515  1.00  0.00     0.002 A 
ATOM     88  C   UNL     1       5.213 -12.430  -5.362  1.00  0.00     0.091 A 
ATOM     89  F   UNL     1       5.682 -10.372  -4.249  1.00  0.00    -0.205 F 
ATOM     90  C   UNL     1       4.321 -13.216  -6.110  1.00  0.00     0.022 A 
BRANCH  88  91
ATOM     91  S   UNL     1       6.809 -13.149  -4.962  1.00  0.00     0.127 S 
ATOM     92  O   UNL     1       6.460 -14.062  -3.875  1.00  0.00    -0.237 OA
ATOM     93  O   UNL     1       7.180 -13.806  -6.215  1.00  0.00    -0.237 OA
ATOM     94  O   UNL     1       7.668 -12.032  -4.592  1.00  0.00    -0.744 OA
ENDBRANCH  88  91
ENDBRANCH  61  84
ENDBRANCH  35  36
ENDBRANCH  28  30
ENDBRANCH  27  28
ENDBRANCH  26  27
ENDBRANCH   1  26
TORSDOF 16
