REMARK SMILES CSC[C@H](C(=O)OCCOC(=O)c1ccc(-c2c3nc(c(-c4cccc(S(=O)(=O)[O-])c4F)c4ccc([nH]4)c(-c4cccc(S(=O)(=O)[O-])c4F)c4nc(c(-c5cccc(S(=O)(=O)[O-])c5F)c5ccc2[nH]5)C=C4)C=C3)cc1)c1ccccc1
REMARK SMILES IDX 9 1 8 2 7 3 5 4 6 5 4 6 3 7 2 8 1 9 76 10 77 11 81 12 78 13
REMARK SMILES IDX 80 14 79 15 10 16 11 17 12 18 13 19 14 20 75 21 15 22 74 23
REMARK SMILES IDX 16 24 17 25 18 26 68 27 19 28 73 29 67 30 69 31 20 32 72 33
REMARK SMILES IDX 66 34 65 35 21 37 53 38 33 39 52 40 34 41 37 42 51 43 70 44
REMARK SMILES IDX 35 45 36 46 50 48 71 49 38 50 22 51 23 52 31 53 24 54 26 55
REMARK SMILES IDX 32 56 25 57 27 58 28 59 29 60 30 61 54 62 55 63 63 64 56 65
REMARK SMILES IDX 58 66 64 67 57 68 59 69 60 70 61 71 62 72 39 73 40 74 48 75
REMARK SMILES IDX 41 76 43 77 49 78 42 79 44 80 45 81 46 82 47 83
REMARK H PARENT 69 36 37 47
REMARK Flexibility Score: inf
ROOT
ATOM      1  C   UNL     1       0.756   3.819   0.887  1.00  0.00     0.275 C 
ENDROOT
BRANCH   1   2
ATOM      2  C   UNL     1       1.928   2.849   1.061  1.00  0.00     0.274 C 
BRANCH   2   3
ATOM      3  O   UNL     1       1.391   1.617   1.558  1.00  0.00    -0.462 OA
BRANCH   3   4
ATOM      4  C   UNL     1       2.107   0.920   2.482  1.00  0.00     0.314 C 
ATOM      5  O   UNL     1       3.266   1.157   2.788  1.00  0.00    -0.252 OA
BRANCH   4   6
ATOM      6  C   UNL     1       1.210  -0.171   3.072  1.00  0.00     0.139 C 
BRANCH   6   7
ATOM      7  C   UNL     1       1.361  -1.465   2.247  1.00  0.00     0.089 C 
BRANCH   7   8
ATOM      8  S   UNL     1       1.274  -1.362   0.412  1.00  0.00    -0.164 SA
ATOM      9  C   UNL     1      -0.418  -0.748   0.199  1.00  0.00     0.085 C 
ENDBRANCH   7   8
ENDBRANCH   6   7
BRANCH   6  10
ATOM     10  C   UNL     1       1.393  -0.359   4.590  1.00  0.00    -0.033 A 
ATOM     11  C   UNL     1       1.203  -1.605   5.215  1.00  0.00     0.004 A 
ATOM     12  C   UNL     1       1.657   0.745   5.424  1.00  0.00     0.004 A 
ATOM     13  C   UNL     1       1.310  -1.748   6.603  1.00  0.00     0.000 A 
ATOM     14  C   UNL     1       1.767   0.601   6.811  1.00  0.00     0.000 A 
ATOM     15  C   UNL     1       1.595  -0.646   7.401  1.00  0.00     0.000 A 
ENDBRANCH   6  10
ENDBRANCH   4   6
ENDBRANCH   3   4
ENDBRANCH   2   3
ENDBRANCH   1   2
BRANCH   1  16
ATOM     16  O   UNL     1       0.141   4.085   2.164  1.00  0.00    -0.458 OA
BRANCH  16  17
ATOM     17  C   UNL     1      -0.865   3.244   2.519  1.00  0.00     0.338 C 
ATOM     18  O   UNL     1      -1.361   2.362   1.839  1.00  0.00    -0.246 OA
BRANCH  17  19
ATOM     19  C   UNL     1      -1.211   3.455   3.939  1.00  0.00     0.060 A 
ATOM     20  C   UNL     1      -1.456   2.331   4.737  1.00  0.00     0.016 A 
ATOM     21  C   UNL     1      -1.324   4.739   4.477  1.00  0.00     0.016 A 
ATOM     22  C   UNL     1      -1.802   2.486   6.078  1.00  0.00     0.010 A 
ATOM     23  C   UNL     1      -1.693   4.895   5.815  1.00  0.00     0.010 A 
ATOM     24  C   UNL     1      -1.942   3.770   6.618  1.00  0.00    -0.014 A 
BRANCH  24  25
ATOM     25  C   UNL     1      -2.418   3.939   8.009  1.00  0.00     0.031 A 
ATOM     26  C   UNL     1      -3.880   4.156   8.267  1.00  0.00     0.074 A 
ATOM     27  C   UNL     1      -1.539   3.923   9.027  1.00  0.00     0.049 A 
ATOM     28  N   UNL     1      -4.498   4.334   9.404  1.00  0.00    -0.248 NA
ATOM     29  C   UNL     1      -4.762   4.176   7.088  1.00  0.00     0.031 C 
ATOM     30  C   UNL     1      -0.097   3.730   8.890  1.00  0.00     0.029 A 
ATOM     31  N   UNL     1      -1.731   4.099  10.373  1.00  0.00    -0.354 N 
ATOM     32  C   UNL     1      -5.839   4.501   9.082  1.00  0.00     0.074 A 
ATOM     33  C   UNL     1      -5.944   4.412   7.641  1.00  0.00     0.031 C 
ATOM     34  C   UNL     1       0.473   3.829  10.103  1.00  0.00     0.029 A 
ATOM     35  C   UNL     1      -0.562   4.110  11.096  1.00  0.00     0.049 A 
ATOM     36  H   UNL     1      -2.620   4.206  10.782  1.00  0.00     0.167 HD
ATOM     37  C   UNL     1      -6.889   4.698   9.914  1.00  0.00     0.034 A 
ATOM     38  C   UNL     1      -0.353   4.341  12.407  1.00  0.00     0.034 A 
ATOM     39  C   UNL     1      -6.779   4.789  11.345  1.00  0.00     0.049 A 
ATOM     40  C   UNL     1      -1.537   4.588  13.306  1.00  0.00     0.074 A 
ATOM     41  C   UNL     1      -7.789   4.947  12.277  1.00  0.00     0.029 A 
ATOM     42  N   UNL     1      -5.586   4.750  12.050  1.00  0.00    -0.354 N 
ATOM     43  N   UNL     1      -2.814   4.600  13.006  1.00  0.00    -0.248 NA
ATOM     44  C   UNL     1      -1.254   4.818  14.731  1.00  0.00     0.031 C 
ATOM     45  C   UNL     1      -7.204   5.030  13.545  1.00  0.00     0.029 A 
ATOM     46  C   UNL     1      -5.831   4.898  13.405  1.00  0.00     0.049 A 
ATOM     47  H   UNL     1      -4.695   4.635  11.647  1.00  0.00     0.167 HD
ATOM     48  C   UNL     1      -3.487   4.804  14.206  1.00  0.00     0.074 A 
ATOM     49  C   UNL     1      -2.477   4.890  15.241  1.00  0.00     0.031 C 
ATOM     50  C   UNL     1      -4.819   4.926  14.430  1.00  0.00     0.034 A 
BRANCH  37  51
ATOM     51  C   UNL     1      -8.256   4.802   9.295  1.00  0.00     0.023 A 
ATOM     52  C   UNL     1      -8.888   3.639   8.810  1.00  0.00     0.012 A 
ATOM     53  C   UNL     1      -8.934   6.035   9.237  1.00  0.00     0.148 A 
ATOM     54  C   UNL     1     -10.165   3.705   8.254  1.00  0.00     0.002 A 
ATOM     55  C   UNL     1     -10.221   6.086   8.715  1.00  0.00     0.091 A 
ATOM     56  F   UNL     1      -8.305   7.133   9.679  1.00  0.00    -0.205 F 
ATOM     57  C   UNL     1     -10.834   4.925   8.215  1.00  0.00     0.022 A 
BRANCH  55  58
ATOM     58  S   UNL     1     -11.190   7.598   8.681  1.00  0.00     0.127 S 
ATOM     59  O   UNL     1     -11.173   7.927   7.257  1.00  0.00    -0.237 OA
ATOM     60  O   UNL     1     -12.487   7.145   9.186  1.00  0.00    -0.237 OA
ATOM     61  O   UNL     1     -10.496   8.538   9.550  1.00  0.00    -0.744 OA
ENDBRANCH  55  58
ENDBRANCH  37  51
BRANCH  38  62
ATOM     62  C   UNL     1       1.031   4.313  12.957  1.00  0.00     0.023 A 
ATOM     63  C   UNL     1       1.415   3.268  13.818  1.00  0.00     0.012 A 
ATOM     64  C   UNL     1       1.971   5.306  12.619  1.00  0.00     0.148 A 
ATOM     65  C   UNL     1       2.701   3.227  14.357  1.00  0.00     0.002 A 
ATOM     66  C   UNL     1       3.267   5.231  13.117  1.00  0.00     0.091 A 
ATOM     67  F   UNL     1       1.581   6.304  11.814  1.00  0.00    -0.205 F 
ATOM     68  C   UNL     1       3.630   4.201  13.999  1.00  0.00     0.022 A 
BRANCH  66  69
ATOM     69  S   UNL     1       4.558   6.373  12.612  1.00  0.00     0.127 S 
ATOM     70  O   UNL     1       4.723   7.188  13.812  1.00  0.00    -0.237 OA
ATOM     71  O   UNL     1       5.670   5.465  12.325  1.00  0.00    -0.237 OA
ATOM     72  O   UNL     1       4.032   7.063  11.442  1.00  0.00    -0.744 OA
ENDBRANCH  66  69
ENDBRANCH  38  62
BRANCH  50  73
ATOM     73  C   UNL     1      -5.275   5.133  15.851  1.00  0.00     0.023 A 
ATOM     74  C   UNL     1      -5.074   6.381  16.474  1.00  0.00     0.012 A 
ATOM     75  C   UNL     1      -5.973   4.121  16.539  1.00  0.00     0.148 A 
ATOM     76  C   UNL     1      -5.535   6.608  17.770  1.00  0.00     0.002 A 
ATOM     77  C   UNL     1      -6.472   4.371  17.812  1.00  0.00     0.091 A 
ATOM     78  F   UNL     1      -6.138   2.934  15.937  1.00  0.00    -0.205 F 
ATOM     79  C   UNL     1      -6.245   5.609  18.433  1.00  0.00     0.022 A 
BRANCH  77  80
ATOM     80  S   UNL     1      -7.479   3.176  18.700  1.00  0.00     0.127 S 
ATOM     81  O   UNL     1      -6.538   2.679  19.701  1.00  0.00    -0.237 OA
ATOM     82  O   UNL     1      -8.555   4.011  19.235  1.00  0.00    -0.237 OA
ATOM     83  O   UNL     1      -7.912   2.203  17.706  1.00  0.00    -0.744 OA
ENDBRANCH  77  80
ENDBRANCH  50  73
ENDBRANCH  24  25
ENDBRANCH  17  19
ENDBRANCH  16  17
ENDBRANCH   1  16
TORSDOF 17
