REMARK SMILES Cc1ccc(C(=O)OCCOC(=O)c2ccc(-c3c4nc(c(-c5cccc(S(=O)(=O)[O-])c5F)c5ccc([nH]5)c(-c5cccc(S(=O)(=O)[O-])c5F)c5nc(c(-c6cccc(S(=O)(=O)[O-])c6F)c6ccc3[nH]6)C=C5)C=C4)cc2)cc1CNC(=O)C[N@@H+]1CCC[C@]2(CCOC2)C1
REMARK SMILES IDX 9 1 8 2 6 3 7 4 5 5 1 6 2 7 3 8 78 9 4 10 77 11 79 12 80 13
REMARK SMILES IDX 81 14 82 16 83 17 84 18 85 19 93 20 86 22 88 23 87 24 89 25
REMARK SMILES IDX 92 26 90 27 91 28 10 29 11 30 12 31 13 32 14 33 15 34 76 35
REMARK SMILES IDX 16 36 75 37 17 38 18 39 19 40 69 41 20 42 74 43 68 44 70 45
REMARK SMILES IDX 21 46 73 47 67 48 66 49 22 51 54 52 34 53 53 54 35 55 38 56
REMARK SMILES IDX 52 57 71 58 36 59 37 60 51 62 72 63 39 64 23 65 24 66 32 67
REMARK SMILES IDX 25 68 27 69 33 70 26 71 28 72 29 73 30 74 31 75 55 76 56 77
REMARK SMILES IDX 64 78 57 79 59 80 65 81 58 82 60 83 61 84 62 85 63 86 40 87
REMARK SMILES IDX 41 88 49 89 42 90 44 91 50 92 43 93 45 94 46 95 47 96 48 97
REMARK H PARENT 80 15 84 21 70 50 38 61
REMARK Flexibility Score: inf
ROOT
ATOM      1  C   UNL     1      -4.643   1.952  -2.225  1.00  0.00     0.275 C 
ENDROOT
BRANCH   1   2
ATOM      2  O   UNL     1      -3.366   1.535  -1.745  1.00  0.00    -0.458 OA
BRANCH   2   3
ATOM      3  C   UNL     1      -2.544   0.843  -2.566  1.00  0.00     0.338 C 
ATOM      4  O   UNL     1      -2.771   0.494  -3.697  1.00  0.00    -0.246 OA
BRANCH   3   5
ATOM      5  C   UNL     1      -1.288   0.569  -1.827  1.00  0.00     0.060 A 
ATOM      6  C   UNL     1       2.581  -0.137  -0.045  1.00  0.00     0.044 C 
ATOM      7  C   UNL     1       1.240   0.180  -0.648  1.00  0.00    -0.046 A 
ATOM      8  C   UNL     1       0.537  -0.885  -1.248  1.00  0.00     0.004 A 
ATOM      9  C   UNL     1       0.640   1.452  -0.611  1.00  0.00    -0.025 A 
ATOM     10  C   UNL     1      -0.691  -0.683  -1.883  1.00  0.00     0.016 A 
ATOM     11  C   UNL     1      -0.657   1.602  -1.142  1.00  0.00     0.021 A 
BRANCH   9  12
ATOM     12  C   UNL     1       1.331   2.727  -0.177  1.00  0.00     0.152 C 
BRANCH  12  13
ATOM     13  N   UNL     1       1.376   3.606  -1.343  1.00  0.00    -0.347 N 
ATOM     14  C   UNL     1       0.618   4.718  -1.572  1.00  0.00     0.275 C 
ATOM     15  H   UNL     1       2.027   3.369  -2.042  1.00  0.00     0.164 HD
ATOM     16  O   UNL     1       0.448   5.099  -2.734  1.00  0.00    -0.268 OA
BRANCH  14  17
ATOM     17  C   UNL     1       0.091   5.513  -0.387  1.00  0.00     0.363 C 
BRANCH  17  18
ATOM     18  N   UNL     1      -1.078   4.898   0.257  1.00  0.00    -0.327 N 
ATOM     19  C   UNL     1      -2.337   5.076  -0.471  1.00  0.00     0.262 C 
ATOM     20  C   UNL     1      -1.235   5.364   1.645  1.00  0.00     0.272 C 
ATOM     21  H   UNL     1      -0.878   3.898   0.249  1.00  0.00     0.348 HD
ATOM     22  C   UNL     1      -2.880   6.506  -0.436  1.00  0.00     0.062 C 
ATOM     23  C   UNL     1      -1.747   6.813   1.834  1.00  0.00     0.045 C 
ATOM     24  C   UNL     1      -3.005   7.044   0.988  1.00  0.00     0.021 C 
ATOM     25  C   UNL     1      -0.649   7.879   1.676  1.00  0.00     0.043 C 
ATOM     26  C   UNL     1      -2.047   7.013   3.313  1.00  0.00     0.173 C 
ATOM     27  C   UNL     1      -0.023   7.991   3.066  1.00  0.00     0.161 C 
ATOM     28  O   UNL     1      -0.736   7.064   3.880  1.00  0.00    -0.381 OA
ENDBRANCH  17  18
ENDBRANCH  14  17
ENDBRANCH  12  13
ENDBRANCH   9  12
ENDBRANCH   3   5
ENDBRANCH   2   3
ENDBRANCH   1   2
BRANCH   1  29
ATOM     29  C   UNL     1      -5.538   0.974  -3.016  1.00  0.00     0.275 C 
BRANCH  29  30
ATOM     30  O   UNL     1      -5.420  -0.480  -2.985  1.00  0.00    -0.458 OA
BRANCH  30  31
ATOM     31  C   UNL     1      -5.017  -1.375  -2.057  1.00  0.00     0.338 C 
ATOM     32  O   UNL     1      -4.919  -2.571  -2.300  1.00  0.00    -0.246 OA
BRANCH  31  33
ATOM     33  C   UNL     1      -4.704  -0.862  -0.725  1.00  0.00     0.060 A 
ATOM     34  C   UNL     1      -3.523  -1.257  -0.072  1.00  0.00     0.016 A 
ATOM     35  C   UNL     1      -5.578   0.053  -0.155  1.00  0.00     0.016 A 
ATOM     36  C   UNL     1      -3.189  -0.689   1.155  1.00  0.00     0.010 A 
ATOM     37  C   UNL     1      -5.185   0.720   0.980  1.00  0.00     0.010 A 
ATOM     38  C   UNL     1      -4.053   0.267   1.691  1.00  0.00    -0.014 A 
BRANCH  38  39
ATOM     39  C   UNL     1      -4.267   0.399   3.131  1.00  0.00     0.031 A 
ATOM     40  C   UNL     1      -3.758   1.492   3.969  1.00  0.00     0.074 A 
ATOM     41  C   UNL     1      -5.335  -0.353   3.487  1.00  0.00     0.049 A 
ATOM     42  N   UNL     1      -4.015   1.589   5.227  1.00  0.00    -0.248 NA
ATOM     43  C   UNL     1      -2.895   2.558   3.485  1.00  0.00     0.031 C 
ATOM     44  C   UNL     1      -6.340  -0.126   4.503  1.00  0.00     0.029 A 
ATOM     45  N   UNL     1      -5.705  -1.582   2.920  1.00  0.00    -0.354 N 
ATOM     46  C   UNL     1      -3.644   2.853   5.641  1.00  0.00     0.074 A 
ATOM     47  C   UNL     1      -2.853   3.371   4.554  1.00  0.00     0.031 C 
ATOM     48  C   UNL     1      -7.030  -1.270   4.676  1.00  0.00     0.029 A 
ATOM     49  C   UNL     1      -6.333  -2.308   3.924  1.00  0.00     0.049 A 
ATOM     50  H   UNL     1      -5.550  -1.873   1.992  1.00  0.00     0.167 HD
ATOM     51  C   UNL     1      -4.210   3.347   6.782  1.00  0.00     0.034 A 
ATOM     52  C   UNL     1      -5.749  -3.435   4.432  1.00  0.00     0.034 A 
ATOM     53  C   UNL     1      -4.990   2.286   7.445  1.00  0.00     0.049 A 
ATOM     54  C   UNL     1      -5.419  -3.263   5.902  1.00  0.00     0.074 A 
ATOM     55  C   UNL     1      -6.338   1.965   7.428  1.00  0.00     0.029 A 
ATOM     56  N   UNL     1      -4.334   1.181   7.976  1.00  0.00    -0.354 N 
ATOM     57  N   UNL     1      -5.483  -2.124   6.536  1.00  0.00    -0.248 NA
ATOM     58  C   UNL     1      -4.971  -4.347   6.769  1.00  0.00     0.031 C 
ATOM     59  C   UNL     1      -6.473   0.615   7.848  1.00  0.00     0.029 A 
ATOM     60  C   UNL     1      -5.213   0.118   8.138  1.00  0.00     0.049 A 
ATOM     61  H   UNL     1      -3.377   1.156   8.207  1.00  0.00     0.167 HD
ATOM     62  C   UNL     1      -4.976  -2.259   7.794  1.00  0.00     0.074 A 
ATOM     63  C   UNL     1      -4.747  -3.689   7.921  1.00  0.00     0.031 C 
ATOM     64  C   UNL     1      -4.719  -1.179   8.593  1.00  0.00     0.034 A 
BRANCH  51  65
ATOM     65  C   UNL     1      -4.383   4.825   7.144  1.00  0.00     0.023 A 
ATOM     66  C   UNL     1      -5.513   5.128   7.945  1.00  0.00     0.012 A 
ATOM     67  C   UNL     1      -3.615   5.943   6.732  1.00  0.00     0.148 A 
ATOM     68  C   UNL     1      -5.937   6.428   8.224  1.00  0.00     0.002 A 
ATOM     69  C   UNL     1      -4.047   7.259   7.005  1.00  0.00     0.091 A 
ATOM     70  F   UNL     1      -2.462   5.745   6.085  1.00  0.00    -0.205 F 
ATOM     71  C   UNL     1      -5.217   7.496   7.732  1.00  0.00     0.022 A 
BRANCH  69  72
ATOM     72  S   UNL     1      -3.187   8.745   6.443  1.00  0.00     0.127 S 
ATOM     73  O   UNL     1      -3.888   9.042   5.192  1.00  0.00    -0.237 OA
ATOM     74  O   UNL     1      -3.449   9.712   7.511  1.00  0.00    -0.237 OA
ATOM     75  O   UNL     1      -1.787   8.373   6.321  1.00  0.00    -0.744 OA
ENDBRANCH  69  72
ENDBRANCH  51  65
BRANCH  52  76
ATOM     76  C   UNL     1      -4.906  -4.190   3.435  1.00  0.00     0.023 A 
ATOM     77  C   UNL     1      -5.548  -4.645   2.253  1.00  0.00     0.012 A 
ATOM     78  C   UNL     1      -3.498  -4.138   3.441  1.00  0.00     0.148 A 
ATOM     79  C   UNL     1      -4.823  -4.935   1.092  1.00  0.00     0.002 A 
ATOM     80  C   UNL     1      -2.781  -4.432   2.275  1.00  0.00     0.091 A 
ATOM     81  F   UNL     1      -2.869  -3.731   4.551  1.00  0.00    -0.205 F 
ATOM     82  C   UNL     1      -3.440  -4.810   1.097  1.00  0.00     0.022 A 
BRANCH  80  83
ATOM     83  S   UNL     1      -0.999  -4.176   2.214  1.00  0.00     0.127 S 
ATOM     84  O   UNL     1      -0.718  -4.117   0.777  1.00  0.00    -0.237 OA
ATOM     85  O   UNL     1      -0.809  -2.906   2.900  1.00  0.00    -0.237 OA
ATOM     86  O   UNL     1      -0.498  -5.371   2.885  1.00  0.00    -0.744 OA
ENDBRANCH  80  83
ENDBRANCH  52  76
BRANCH  64  87
ATOM     87  C   UNL     1      -3.923  -1.244   9.872  1.00  0.00     0.023 A 
ATOM     88  C   UNL     1      -2.918  -2.207  10.074  1.00  0.00     0.012 A 
ATOM     89  C   UNL     1      -4.034  -0.212  10.833  1.00  0.00     0.148 A 
ATOM     90  C   UNL     1      -2.097  -2.183  11.205  1.00  0.00     0.002 A 
ATOM     91  C   UNL     1      -3.133  -0.121  11.887  1.00  0.00     0.091 A 
ATOM     92  F   UNL     1      -5.017   0.697  10.731  1.00  0.00    -0.205 F 
ATOM     93  C   UNL     1      -2.185  -1.123  12.098  1.00  0.00     0.022 A 
BRANCH  91  94
ATOM     94  S   UNL     1      -3.054   1.382  12.869  1.00  0.00     0.127 S 
ATOM     95  O   UNL     1      -4.094   1.155  13.869  1.00  0.00    -0.237 OA
ATOM     96  O   UNL     1      -1.688   1.353  13.394  1.00  0.00    -0.237 OA
ATOM     97  O   UNL     1      -3.299   2.450  11.907  1.00  0.00    -0.744 OA
ENDBRANCH  91  94
ENDBRANCH  64  87
ENDBRANCH  38  39
ENDBRANCH  31  33
ENDBRANCH  30  31
ENDBRANCH  29  30
ENDBRANCH   1  29
TORSDOF 18
