REMARK SMILES O=C(OCCOC(=O)[C@@H]1CS[C@@H](c2cc(Br)ccc2O)[NH2+]1)c1ccc(-c2c3nc(c(-c4cccc(S(=O)(=O)[O-])c4F)c4ccc([nH]4)c(-c4cccc(S(=O)(=O)[O-])c4F)c4nc(c(-c5cccc(S(=O)(=O)[O-])c5F)c5ccc2[nH]5)C=C4)C=C3)cc1
REMARK SMILES IDX 4 1 3 2 2 3 1 4 22 5 23 6 84 7 24 8 83 9 25 10 26 11 27 12
REMARK SMILES IDX 77 13 28 14 82 15 76 16 78 17 29 18 81 19 75 20 74 21 30 23
REMARK SMILES IDX 62 24 42 25 61 26 43 27 46 28 60 29 79 30 44 31 45 32 59 34
REMARK SMILES IDX 80 35 47 36 31 37 32 38 40 39 33 40 35 41 41 42 34 43 36 44
REMARK SMILES IDX 37 45 38 46 39 47 63 48 64 49 72 50 65 51 67 52 73 53 66 54
REMARK SMILES IDX 68 55 69 56 70 57 71 58 48 59 49 60 57 61 50 62 52 63 58 64
REMARK SMILES IDX 51 65 53 66 54 67 55 68 56 69 5 70 6 71 7 72 8 73 9 74 10 75
REMARK SMILES IDX 21 76 11 77 12 78 13 81 14 82 19 83 15 84 18 85 16 86 17 87
REMARK SMILES IDX 20 88
REMARK H PARENT 78 22 46 33 21 79 21 80 20 89
REMARK Flexibility Score: inf
ROOT
ATOM      1  C   UNL     1       2.331  -1.889  -4.002  1.00  0.00     0.275 C 
ENDROOT
BRANCH   1   2
ATOM      2  O   UNL     1       3.324  -2.860  -3.615  1.00  0.00    -0.458 OA
BRANCH   2   3
ATOM      3  C   UNL     1       4.379  -2.719  -2.772  1.00  0.00     0.338 C 
ATOM      4  O   UNL     1       5.309  -3.520  -2.854  1.00  0.00    -0.246 OA
BRANCH   3   5
ATOM      5  C   UNL     1       4.368  -1.784  -1.601  1.00  0.00     0.060 A 
ATOM      6  C   UNL     1       3.721  -0.548  -1.547  1.00  0.00     0.016 A 
ATOM      7  C   UNL     1       5.027  -2.232  -0.438  1.00  0.00     0.016 A 
ATOM      8  C   UNL     1       3.623   0.162  -0.348  1.00  0.00     0.010 A 
ATOM      9  C   UNL     1       4.928  -1.528   0.769  1.00  0.00     0.010 A 
ATOM     10  C   UNL     1       4.210  -0.329   0.819  1.00  0.00    -0.014 A 
BRANCH  10  11
ATOM     11  C   UNL     1       4.204   0.526   2.024  1.00  0.00     0.031 A 
ATOM     12  C   UNL     1       5.439   1.327   2.314  1.00  0.00     0.074 A 
ATOM     13  C   UNL     1       3.100   0.647   2.787  1.00  0.00     0.049 A 
ATOM     14  N   UNL     1       5.640   2.229   3.234  1.00  0.00    -0.248 NA
ATOM     15  C   UNL     1       6.598   1.095   1.432  1.00  0.00     0.031 C 
ATOM     16  C   UNL     1       1.836  -0.060   2.572  1.00  0.00     0.029 A 
ATOM     17  N   UNL     1       2.864   1.413   3.901  1.00  0.00    -0.354 N 
ATOM     18  C   UNL     1       6.946   2.661   3.052  1.00  0.00     0.074 A 
ATOM     19  C   UNL     1       7.500   1.914   1.948  1.00  0.00     0.031 C 
ATOM     20  C   UNL     1       0.965   0.290   3.537  1.00  0.00     0.029 A 
ATOM     21  C   UNL     1       1.608   1.240   4.440  1.00  0.00     0.049 A 
ATOM     22  H   UNL     1       3.531   2.030   4.280  1.00  0.00     0.167 HD
ATOM     23  C   UNL     1       7.620   3.612   3.735  1.00  0.00     0.034 A 
ATOM     24  C   UNL     1       1.054   1.791   5.538  1.00  0.00     0.034 A 
ATOM     25  C   UNL     1       7.064   4.348   4.832  1.00  0.00     0.049 A 
ATOM     26  C   UNL     1       1.857   2.809   6.314  1.00  0.00     0.074 A 
ATOM     27  C   UNL     1       7.654   5.344   5.585  1.00  0.00     0.029 A 
ATOM     28  N   UNL     1       5.794   4.145   5.350  1.00  0.00    -0.354 N 
ATOM     29  N   UNL     1       3.044   3.302   6.049  1.00  0.00    -0.248 NA
ATOM     30  C   UNL     1       1.231   3.377   7.518  1.00  0.00     0.031 C 
ATOM     31  C   UNL     1       6.753   5.716   6.588  1.00  0.00     0.029 A 
ATOM     32  C   UNL     1       5.588   4.982   6.429  1.00  0.00     0.049 A 
ATOM     33  H   UNL     1       5.137   3.500   5.000  1.00  0.00     0.167 HD
ATOM     34  C   UNL     1       3.287   4.263   7.024  1.00  0.00     0.074 A 
ATOM     35  C   UNL     1       2.114   4.301   7.872  1.00  0.00     0.031 C 
ATOM     36  C   UNL     1       4.384   5.036   7.216  1.00  0.00     0.034 A 
BRANCH  23  37
ATOM     37  C   UNL     1       9.033   3.894   3.315  1.00  0.00     0.023 A 
ATOM     38  C   UNL     1       9.288   4.594   2.118  1.00  0.00     0.012 A 
ATOM     39  C   UNL     1      10.109   3.483   4.122  1.00  0.00     0.148 A 
ATOM     40  C   UNL     1      10.597   4.855   1.717  1.00  0.00     0.002 A 
ATOM     41  C   UNL     1      11.408   3.786   3.740  1.00  0.00     0.091 A 
ATOM     42  F   UNL     1       9.840   2.795   5.241  1.00  0.00    -0.205 F 
ATOM     43  C   UNL     1      11.655   4.460   2.532  1.00  0.00     0.022 A 
BRANCH  41  44
ATOM     44  S   UNL     1      12.835   3.381   4.750  1.00  0.00     0.127 S 
ATOM     45  O   UNL     1      13.553   2.446   3.884  1.00  0.00    -0.237 OA
ATOM     46  O   UNL     1      13.475   4.686   4.905  1.00  0.00    -0.237 OA
ATOM     47  O   UNL     1      12.310   2.804   5.979  1.00  0.00    -0.744 OA
ENDBRANCH  41  44
ENDBRANCH  23  37
BRANCH  24  48
ATOM     48  C   UNL     1      -0.327   1.429   5.981  1.00  0.00     0.023 A 
ATOM     49  C   UNL     1      -1.341   2.410   5.988  1.00  0.00     0.012 A 
ATOM     50  C   UNL     1      -0.627   0.139   6.459  1.00  0.00     0.148 A 
ATOM     51  C   UNL     1      -2.602   2.131   6.519  1.00  0.00     0.002 A 
ATOM     52  C   UNL     1      -1.899  -0.144   6.947  1.00  0.00     0.091 A 
ATOM     53  F   UNL     1       0.335  -0.794   6.418  1.00  0.00    -0.205 F 
ATOM     54  C   UNL     1      -2.880   0.857   7.002  1.00  0.00     0.022 A 
BRANCH  52  55
ATOM     55  S   UNL     1      -2.376  -1.778   7.513  1.00  0.00     0.127 S 
ATOM     56  O   UNL     1      -3.042  -1.489   8.781  1.00  0.00    -0.237 OA
ATOM     57  O   UNL     1      -3.264  -2.208   6.433  1.00  0.00    -0.237 OA
ATOM     58  O   UNL     1      -1.139  -2.535   7.636  1.00  0.00    -0.744 OA
ENDBRANCH  52  55
ENDBRANCH  24  48
BRANCH  36  59
ATOM     59  C   UNL     1       4.356   6.023   8.353  1.00  0.00     0.023 A 
ATOM     60  C   UNL     1       4.447   5.569   9.683  1.00  0.00     0.012 A 
ATOM     61  C   UNL     1       4.343   7.407   8.091  1.00  0.00     0.148 A 
ATOM     62  C   UNL     1       4.494   6.479  10.738  1.00  0.00     0.002 A 
ATOM     63  C   UNL     1       4.449   8.307   9.142  1.00  0.00     0.091 A 
ATOM     64  F   UNL     1       4.241   7.815   6.817  1.00  0.00    -0.205 F 
ATOM     65  C   UNL     1       4.510   7.845  10.467  1.00  0.00     0.022 A 
BRANCH  63  66
ATOM     66  S   UNL     1       4.592  10.078   8.880  1.00  0.00     0.127 S 
ATOM     67  O   UNL     1       3.295  10.554   9.357  1.00  0.00    -0.237 OA
ATOM     68  O   UNL     1       5.725  10.427   9.737  1.00  0.00    -0.237 OA
ATOM     69  O   UNL     1       4.836  10.255   7.454  1.00  0.00    -0.744 OA
ENDBRANCH  63  66
ENDBRANCH  36  59
ENDBRANCH  10  11
ENDBRANCH   3   5
ENDBRANCH   2   3
ENDBRANCH   1   2
BRANCH   1  70
ATOM     70  C   UNL     1       1.031  -1.987  -3.196  1.00  0.00     0.274 C 
BRANCH  70  71
ATOM     71  O   UNL     1       1.302  -2.169  -1.800  1.00  0.00    -0.458 OA
BRANCH  71  72
ATOM     72  C   UNL     1       1.056  -3.408  -1.268  1.00  0.00     0.365 C 
ATOM     73  O   UNL     1       0.424  -4.295  -1.835  1.00  0.00    -0.245 OA
BRANCH  72  74
ATOM     74  C   UNL     1       1.813  -3.552   0.055  1.00  0.00     0.304 C 
ATOM     75  C   UNL     1       2.740  -4.756   0.013  1.00  0.00     0.153 C 
ATOM     76  N   UNL     1       0.949  -3.570   1.240  1.00  0.00    -0.319 N 
ATOM     77  S   UNL     1       1.927  -6.040   0.980  1.00  0.00    -0.087 SA
ATOM     78  C   UNL     1       0.584  -4.954   1.565  1.00  0.00     0.278 C 
ATOM     79  H   UNL     1       0.104  -3.031   1.052  1.00  0.00     0.348 HD
ATOM     80  H   UNL     1       1.449  -3.158   2.028  1.00  0.00     0.348 HD
BRANCH  78  81
ATOM     81  C   UNL     1       0.236  -5.084   3.042  1.00  0.00     0.063 A 
ATOM     82  C   UNL     1       1.079  -5.695   3.995  1.00  0.00     0.030 A 
ATOM     83  C   UNL     1      -0.957  -4.516   3.522  1.00  0.00     0.125 A 
ATOM     84  C   UNL     1       0.714  -5.769   5.345  1.00  0.00     0.018 A 
ATOM     85  C   UNL     1      -1.317  -4.586   4.868  1.00  0.00     0.048 A 
ATOM     86  Br  UNL     1       1.853  -6.632   6.585  1.00  0.00    -0.051 Br
ATOM     87  C   UNL     1      -0.482  -5.217   5.783  1.00  0.00     0.019 A 
BRANCH  83  88
ATOM     88  O   UNL     1      -1.788  -3.849   2.662  1.00  0.00    -0.507 OA
ATOM     89  H   UNL     1      -1.570  -3.787   1.753  1.00  0.00     0.293 HD
ENDBRANCH  83  88
ENDBRANCH  78  81
ENDBRANCH  72  74
ENDBRANCH  71  72
ENDBRANCH  70  71
ENDBRANCH   1  70
TORSDOF 16
