REMARK SMILES NS(=O)(=O)c1ccc(C#Cc2cc(Cl)cc3c2O[C@H](C(F)(F)F)C(C(=O)OCCOC(=O)c2ccc(-c4c5nc(c(-c6cccc(S(=O)(=O)[O-])c6F)c6ccc([nH]6)c(-c6cccc(S(=O)(=O)[O-])c6F)c6nc(c(-c7cccc(S(=O)(=O)[O-])c7F)c7ccc4[nH]7)C=C6)C=C5)cc2)=C3)cc1
REMARK SMILES IDX 28 1 27 2 25 3 26 4 24 5 11 6 12 7 17 8 13 9 16 10 18 11
REMARK SMILES IDX 14 12 15 13 96 14 19 15 10 16 9 17 8 18 5 19 6 20 98 21 7 22
REMARK SMILES IDX 97 23 2 24 3 25 4 26 1 27 20 30 21 31 22 32 23 33 29 34
REMARK SMILES IDX 30 35 31 36 32 37 33 38 34 39 95 40 35 41 94 42 36 43 37 44
REMARK SMILES IDX 38 45 88 46 39 47 93 48 87 49 89 50 40 51 92 52 86 53 85 54
REMARK SMILES IDX 41 56 73 57 53 58 72 59 54 60 57 61 71 62 90 63 55 64 56 65
REMARK SMILES IDX 70 67 91 68 58 69 42 70 43 71 51 72 44 73 46 74 52 75 45 76
REMARK SMILES IDX 47 77 48 78 49 79 50 80 74 81 75 82 83 83 76 84 78 85 84 86
REMARK SMILES IDX 77 87 79 88 80 89 81 90 82 91 59 92 60 93 68 94 61 95 63 96
REMARK SMILES IDX 69 97 62 98 64 99 65 100 66 101 67 102
REMARK H PARENT 1 28 1 29 89 55 57 66
REMARK Flexibility Score: inf
ROOT
ATOM      1  C   UNL     1       1.036  13.930  -0.708  1.00  0.00     0.275 C 
ENDROOT
BRANCH   1   2
ATOM      2  O   UNL     1       1.290  12.721  -1.455  1.00  0.00    -0.459 OA
BRANCH   2   3
ATOM      3  C   UNL     1       0.565  12.568  -2.589  1.00  0.00     0.338 C 
ATOM      4  O   UNL     1      -0.298  13.324  -3.003  1.00  0.00    -0.246 OA
BRANCH   3   5
ATOM      5  C   UNL     1       0.963  11.336  -3.297  1.00  0.00     0.087 C 
ATOM      6  C   UNL     1       1.686   7.784  -5.382  1.00  0.00     0.069 A 
ATOM      7  C   UNL     1       1.828   7.815  -6.774  1.00  0.00     0.041 A 
ATOM      8  C   UNL     1       1.498   8.966  -4.657  1.00  0.00     0.143 A 
ATOM      9  C   UNL     1       1.802   9.033  -7.443  1.00  0.00     0.043 A 
ATOM     10  C   UNL     1       1.456  10.178  -5.343  1.00  0.00     0.020 A 
ATOM     11  O   UNL     1       1.372   8.877  -3.295  1.00  0.00    -0.474 OA
ATOM     12  Cl  UNL     1       1.962   9.072  -9.153  1.00  0.00    -0.084 Cl
ATOM     13  C   UNL     1       1.623  10.216  -6.734  1.00  0.00     0.032 A 
ATOM     14  C   UNL     1       1.194  11.400  -4.613  1.00  0.00     0.027 C 
ATOM     15  C   UNL     1       0.952  10.044  -2.538  1.00  0.00     0.316 C 
BRANCH   6  16
ATOM     16  C   UNL     1       1.677   6.519  -4.721  1.00  0.00    -0.058 C 
ATOM     17  C   UNL     1       1.599   5.458  -4.170  1.00  0.00    -0.062 C 
BRANCH  17  18
ATOM     18  C   UNL     1       1.420   4.187  -3.554  1.00  0.00     0.025 A 
ATOM     19  C   UNL     1       0.916   1.697  -2.442  1.00  0.00     0.082 A 
ATOM     20  C   UNL     1       0.545   2.851  -1.744  1.00  0.00     0.023 A 
ATOM     21  C   UNL     1       1.558   1.780  -3.681  1.00  0.00     0.023 A 
ATOM     22  C   UNL     1       0.801   4.102  -2.304  1.00  0.00     0.018 A 
ATOM     23  C   UNL     1       1.808   3.033  -4.237  1.00  0.00     0.018 A 
BRANCH  19  24
ATOM     24  S   UNL     1       0.532   0.115  -1.764  1.00  0.00     0.238 S 
ATOM     25  O   UNL     1       1.230  -0.912  -2.502  1.00  0.00    -0.207 OA
ATOM     26  O   UNL     1      -0.885   0.053  -1.495  1.00  0.00    -0.207 OA
BRANCH  24  27
ATOM     27  N   UNL     1       1.289   0.164  -0.265  1.00  0.00    -0.225 NA
ATOM     28  H   UNL     1       1.130  -0.716   0.226  1.00  0.00     0.137 HD
ATOM     29  H   UNL     1       0.905   0.933   0.285  1.00  0.00     0.137 HD
ENDBRANCH  24  27
ENDBRANCH  19  24
ENDBRANCH  17  18
ENDBRANCH   6  16
BRANCH  15  30
ATOM     30  C   UNL     1      -0.433   9.769  -1.929  1.00  0.00     0.430 C 
ATOM     31  F   UNL     1      -0.455   8.588  -1.265  1.00  0.00    -0.167 F 
ATOM     32  F   UNL     1      -0.778  10.720  -1.025  1.00  0.00    -0.167 F 
ATOM     33  F   UNL     1      -1.408   9.727  -2.864  1.00  0.00    -0.167 F 
ENDBRANCH  15  30
ENDBRANCH   3   5
ENDBRANCH   2   3
ENDBRANCH   1   2
BRANCH   1  34
ATOM     34  C   UNL     1       2.167  14.946  -0.882  1.00  0.00     0.275 C 
BRANCH  34  35
ATOM     35  O   UNL     1       2.167  15.489  -2.214  1.00  0.00    -0.458 OA
BRANCH  35  36
ATOM     36  C   UNL     1       3.027  14.894  -3.071  1.00  0.00     0.338 C 
ATOM     37  O   UNL     1       3.811  13.993  -2.827  1.00  0.00    -0.246 OA
BRANCH  36  38
ATOM     38  C   UNL     1       2.796  15.411  -4.424  1.00  0.00     0.060 A 
ATOM     39  C   UNL     1       3.640  16.345  -5.009  1.00  0.00     0.016 A 
ATOM     40  C   UNL     1       1.782  14.826  -5.171  1.00  0.00     0.016 A 
ATOM     41  C   UNL     1       3.439  16.688  -6.352  1.00  0.00     0.010 A 
ATOM     42  C   UNL     1       1.697  15.034  -6.539  1.00  0.00     0.010 A 
ATOM     43  C   UNL     1       2.490  16.008  -7.145  1.00  0.00    -0.014 A 
BRANCH  43  44
ATOM     44  C   UNL     1       2.303  16.307  -8.592  1.00  0.00     0.031 A 
ATOM     45  C   UNL     1       0.933  16.649  -9.141  1.00  0.00     0.074 A 
ATOM     46  C   UNL     1       3.354  16.210  -9.431  1.00  0.00     0.049 A 
ATOM     47  N   UNL     1       0.587  16.912 -10.376  1.00  0.00    -0.248 NA
ATOM     48  C   UNL     1      -0.202  16.662  -8.200  1.00  0.00     0.031 C 
ATOM     49  C   UNL     1       4.702  15.776  -9.056  1.00  0.00     0.029 A 
ATOM     50  N   UNL     1       3.457  16.470 -10.775  1.00  0.00    -0.354 N 
ATOM     51  C   UNL     1      -0.795  17.073 -10.361  1.00  0.00     0.074 A 
ATOM     52  C   UNL     1      -1.237  16.831  -9.010  1.00  0.00     0.031 C 
ATOM     53  C   UNL     1       5.508  15.859 -10.124  1.00  0.00     0.029 A 
ATOM     54  C   UNL     1       4.729  16.308 -11.272  1.00  0.00     0.049 A 
ATOM     55  H   UNL     1       2.692  16.746 -11.331  1.00  0.00     0.167 HD
ATOM     56  C   UNL     1      -1.620  17.439 -11.369  1.00  0.00     0.034 A 
ATOM     57  C   UNL     1       5.221  16.509 -12.510  1.00  0.00     0.034 A 
ATOM     58  C   UNL     1      -1.171  17.769 -12.691  1.00  0.00     0.049 A 
ATOM     59  C   UNL     1       4.303  16.999 -13.591  1.00  0.00     0.074 A 
ATOM     60  C   UNL     1      -1.915  18.251 -13.753  1.00  0.00     0.029 A 
ATOM     61  N   UNL     1       0.138  17.663 -13.129  1.00  0.00    -0.354 N 
ATOM     62  N   UNL     1       3.021  17.261 -13.520  1.00  0.00    -0.248 NA
ATOM     63  C   UNL     1       4.898  17.250 -14.911  1.00  0.00     0.031 C 
ATOM     64  C   UNL     1      -1.055  18.429 -14.839  1.00  0.00     0.029 A 
ATOM     65  C   UNL     1       0.226  18.077 -14.444  1.00  0.00     0.049 A 
ATOM     66  H   UNL     1       0.893  17.342 -12.584  1.00  0.00     0.167 HD
ATOM     67  C   UNL     1       2.659  17.728 -14.776  1.00  0.00     0.074 A 
ATOM     68  C   UNL     1       3.860  17.727 -15.586  1.00  0.00     0.031 C 
ATOM     69  C   UNL     1       1.438  18.113 -15.219  1.00  0.00     0.034 A 
BRANCH  56  70
ATOM     70  C   UNL     1      -3.087  17.599 -11.068  1.00  0.00     0.023 A 
ATOM     71  C   UNL     1      -3.522  18.729 -10.347  1.00  0.00     0.012 A 
ATOM     72  C   UNL     1      -4.038  16.700 -11.589  1.00  0.00     0.148 A 
ATOM     73  C   UNL     1      -4.881  18.957 -10.137  1.00  0.00     0.002 A 
ATOM     74  C   UNL     1      -5.393  16.953 -11.406  1.00  0.00     0.091 A 
ATOM     75  F   UNL     1      -3.600  15.628 -12.263  1.00  0.00    -0.205 F 
ATOM     76  C   UNL     1      -5.815  18.078 -10.677  1.00  0.00     0.022 A 
BRANCH  74  77
ATOM     77  S   UNL     1      -6.684  15.918 -12.107  1.00  0.00     0.127 S 
ATOM     78  O   UNL     1      -7.349  15.421 -10.903  1.00  0.00    -0.237 OA
ATOM     79  O   UNL     1      -7.464  16.885 -12.879  1.00  0.00    -0.237 OA
ATOM     80  O   UNL     1      -6.004  14.903 -12.899  1.00  0.00    -0.744 OA
ENDBRANCH  74  77
ENDBRANCH  56  70
BRANCH  57  81
ATOM     81  C   UNL     1       6.679  16.330 -12.749  1.00  0.00     0.023 A 
ATOM     82  C   UNL     1       7.503  17.468 -12.851  1.00  0.00     0.012 A 
ATOM     83  C   UNL     1       7.261  15.049 -12.782  1.00  0.00     0.148 A 
ATOM     84  C   UNL     1       8.884  17.333 -12.987  1.00  0.00     0.002 A 
ATOM     85  C   UNL     1       8.642  14.922 -12.879  1.00  0.00     0.091 A 
ATOM     86  F   UNL     1       6.454  13.985 -12.679  1.00  0.00    -0.205 F 
ATOM     87  C   UNL     1       9.454  16.062 -12.989  1.00  0.00     0.022 A 
BRANCH  85  88
ATOM     88  S   UNL     1       9.479  13.336 -12.789  1.00  0.00     0.127 S 
ATOM     89  O   UNL     1      10.103  13.253 -14.107  1.00  0.00    -0.237 OA
ATOM     90  O   UNL     1      10.408  13.553 -11.680  1.00  0.00    -0.237 OA
ATOM     91  O   UNL     1       8.439  12.351 -12.526  1.00  0.00    -0.744 OA
ENDBRANCH  85  88
ENDBRANCH  57  81
BRANCH  69  92
ATOM     92  C   UNL     1       1.323  18.599 -16.635  1.00  0.00     0.023 A 
ATOM     93  C   UNL     1       1.300  17.668 -17.690  1.00  0.00     0.012 A 
ATOM     94  C   UNL     1       1.110  19.965 -16.902  1.00  0.00     0.148 A 
ATOM     95  C   UNL     1       1.078  18.094 -18.998  1.00  0.00     0.002 A 
ATOM     96  C   UNL     1       0.854  20.377 -18.203  1.00  0.00     0.091 A 
ATOM     97  F   UNL     1       1.143  20.829 -15.877  1.00  0.00    -0.205 F 
ATOM     98  C   UNL     1       0.843  19.444 -19.253  1.00  0.00     0.022 A 
BRANCH  96  99
ATOM     99  S   UNL     1       0.468  22.081 -18.618  1.00  0.00     0.127 S 
ATOM    100  O   UNL     1       1.642  22.469 -19.399  1.00  0.00    -0.237 OA
ATOM    101  O   UNL     1      -0.763  21.939 -19.395  1.00  0.00    -0.237 OA
ATOM    102  O   UNL     1       0.309  22.781 -17.350  1.00  0.00    -0.744 OA
ENDBRANCH  96  99
ENDBRANCH  69  92
ENDBRANCH  43  44
ENDBRANCH  36  38
ENDBRANCH  35  36
ENDBRANCH  34  35
ENDBRANCH   1  34
TORSDOF 19
