REMARK SMILES CC(C)CCn1nc(C(=O)OCCOC(=O)c2ccc(-c3c4nc(c(-c5cccc(S(=O)(=O)[O-])c5F)c5ccc([nH]5)c(-c5cccc(S(=O)(=O)[O-])c5F)c5nc(c(-c6cccc(S(=O)(=O)[O-])c6F)c6ccc3[nH]6)C=C5)C=C4)cc2)c2c1CCN(C(=O)[C@@H]1CCc3nn(C)c(=O)n3C1)C2
REMARK SMILES IDX 12 1 11 2 9 3 10 4 8 5 6 6 7 7 81 8 80 9 82 10 98 11 83 12
REMARK SMILES IDX 84 13 5 14 4 15 2 16 1 17 3 18 85 19 86 20 87 21 88 22 97 23
REMARK SMILES IDX 89 24 96 25 90 26 94 27 91 28 92 29 95 30 93 31 13 32 14 33
REMARK SMILES IDX 15 34 16 35 17 36 18 37 79 38 19 39 78 40 20 41 21 42 22 43
REMARK SMILES IDX 72 44 23 45 77 46 71 47 73 48 24 49 76 50 70 51 69 52 25 54
REMARK SMILES IDX 57 55 37 56 56 57 38 58 41 59 55 60 74 61 39 62 40 63 54 65
REMARK SMILES IDX 75 66 42 67 26 68 27 69 35 70 28 71 30 72 36 73 29 74 31 75
REMARK SMILES IDX 32 76 33 77 34 78 58 79 59 80 67 81 60 82 62 83 68 84 61 85
REMARK SMILES IDX 63 86 64 87 65 88 66 89 43 90 44 91 52 92 45 93 47 94 53 95
REMARK SMILES IDX 46 96 48 97 49 98 50 99 51 100
REMARK H PARENT 73 53 41 64
REMARK Flexibility Score: inf
ROOT
ATOM      1  C   UNL     1       0.023   3.322   8.221  1.00  0.00     0.275 C 
ENDROOT
BRANCH   1   2
ATOM      2  O   UNL     1      -0.258   2.279   7.279  1.00  0.00    -0.457 OA
BRANCH   2   3
ATOM      3  C   UNL     1      -0.986   2.617   6.163  1.00  0.00     0.359 C 
ATOM      4  O   UNL     1      -1.610   3.657   6.048  1.00  0.00    -0.244 OA
BRANCH   3   5
ATOM      5  C   UNL     1      -0.896   1.556   5.139  1.00  0.00     0.175 A 
ATOM      6  N   UNL     1      -1.101   0.527   3.268  1.00  0.00    -0.268 N 
ATOM      7  N   UNL     1      -1.431   1.673   3.901  1.00  0.00    -0.165 NA
ATOM      8  C   UNL     1      -0.558  -0.387   4.121  1.00  0.00     0.046 A 
ATOM      9  C   UNL     1      -0.278   0.285   5.291  1.00  0.00     0.028 A 
ATOM     10  C   UNL     1      -0.285  -1.830   3.914  1.00  0.00     0.078 C 
ATOM     11  C   UNL     1       0.442  -0.308   6.458  1.00  0.00     0.159 C 
ATOM     12  C   UNL     1      -0.067  -2.460   5.315  1.00  0.00     0.126 C 
ATOM     13  N   UNL     1       0.880  -1.677   6.121  1.00  0.00    -0.338 N 
BRANCH   6  14
ATOM     14  C   UNL     1      -1.482   0.334   1.880  1.00  0.00     0.145 C 
BRANCH  14  15
ATOM     15  C   UNL     1      -0.939   1.367   0.881  1.00  0.00     0.027 C 
BRANCH  15  16
ATOM     16  C   UNL     1       0.588   1.373   0.661  1.00  0.00    -0.016 C 
ATOM     17  C   UNL     1       1.112   0.048   0.105  1.00  0.00     0.007 C 
ATOM     18  C   UNL     1       0.965   2.502  -0.308  1.00  0.00     0.007 C 
ENDBRANCH  15  16
ENDBRANCH  14  15
ENDBRANCH   6  14
BRANCH  13  19
ATOM     19  C   UNL     1       1.993  -2.148   6.775  1.00  0.00     0.227 C 
ATOM     20  O   UNL     1       2.354  -1.631   7.841  1.00  0.00    -0.274 OA
BRANCH  19  21
ATOM     21  C   UNL     1       2.854  -3.284   6.213  1.00  0.00     0.099 C 
ATOM     22  C   UNL     1       3.058  -3.385   4.697  1.00  0.00     0.023 C 
ATOM     23  C   UNL     1       2.630  -4.609   6.929  1.00  0.00     0.142 C 
ATOM     24  C   UNL     1       2.240  -4.436   3.953  1.00  0.00     0.078 C 
ATOM     25  N   UNL     1       1.986  -5.608   6.113  1.00  0.00    -0.278 N 
ATOM     26  C   UNL     1       1.834  -5.609   4.781  1.00  0.00     0.133 A 
ATOM     27  C   UNL     1       1.540  -6.830   6.547  1.00  0.00     0.345 A 
ATOM     28  N   UNL     1       1.266  -6.673   4.293  1.00  0.00    -0.155 NA
ATOM     29  N   UNL     1       1.050  -7.458   5.399  1.00  0.00    -0.216 N 
ATOM     30  O   UNL     1       1.591  -7.281   7.680  1.00  0.00    -0.246 OA
ATOM     31  C   UNL     1       0.488  -8.775   5.319  1.00  0.00     0.179 C 
ENDBRANCH  19  21
ENDBRANCH  13  19
ENDBRANCH   3   5
ENDBRANCH   2   3
ENDBRANCH   1   2
BRANCH   1  32
ATOM     32  C   UNL     1       1.295   4.056   7.829  1.00  0.00     0.275 C 
BRANCH  32  33
ATOM     33  O   UNL     1       1.064   4.902   6.705  1.00  0.00    -0.458 OA
BRANCH  33  34
ATOM     34  C   UNL     1       1.466   4.415   5.509  1.00  0.00     0.338 C 
ATOM     35  O   UNL     1       1.678   3.247   5.224  1.00  0.00    -0.246 OA
BRANCH  34  36
ATOM     36  C   UNL     1       1.825   5.548   4.651  1.00  0.00     0.060 A 
ATOM     37  C   UNL     1       1.964   5.345   3.276  1.00  0.00     0.016 A 
ATOM     38  C   UNL     1       2.222   6.748   5.261  1.00  0.00     0.016 A 
ATOM     39  C   UNL     1       2.601   6.321   2.527  1.00  0.00     0.010 A 
ATOM     40  C   UNL     1       2.868   7.707   4.520  1.00  0.00     0.010 A 
ATOM     41  C   UNL     1       3.097   7.467   3.170  1.00  0.00    -0.014 A 
BRANCH  41  42
ATOM     42  C   UNL     1       3.670   8.540   2.375  1.00  0.00     0.031 A 
ATOM     43  C   UNL     1       2.639   9.204   1.540  1.00  0.00     0.074 A 
ATOM     44  C   UNL     1       4.941   8.973   2.515  1.00  0.00     0.049 A 
ATOM     45  N   UNL     1       2.510   9.120   0.259  1.00  0.00    -0.248 NA
ATOM     46  C   UNL     1       1.497   9.851   2.209  1.00  0.00     0.031 C 
ATOM     47  C   UNL     1       5.922   8.539   3.519  1.00  0.00     0.029 A 
ATOM     48  N   UNL     1       5.599   9.981   1.871  1.00  0.00    -0.354 N 
ATOM     49  C   UNL     1       1.445   9.962  -0.054  1.00  0.00     0.074 A 
ATOM     50  C   UNL     1       0.724  10.170   1.169  1.00  0.00     0.031 C 
ATOM     51  C   UNL     1       6.941   9.430   3.570  1.00  0.00     0.029 A 
ATOM     52  C   UNL     1       6.765  10.407   2.510  1.00  0.00     0.049 A 
ATOM     53  H   UNL     1       5.278  10.375   1.027  1.00  0.00     0.167 HD
ATOM     54  C   UNL     1       1.470  10.683  -1.208  1.00  0.00     0.034 A 
ATOM     55  C   UNL     1       7.513  11.496   2.199  1.00  0.00     0.034 A 
ATOM     56  C   UNL     1       2.501  10.188  -2.085  1.00  0.00     0.049 A 
ATOM     57  C   UNL     1       7.213  11.835   0.794  1.00  0.00     0.074 A 
ATOM     58  C   UNL     1       2.697   9.095  -2.897  1.00  0.00     0.029 A 
ATOM     59  N   UNL     1       3.727  10.743  -1.829  1.00  0.00    -0.354 N 
ATOM     60  N   UNL     1       7.569  11.078  -0.203  1.00  0.00    -0.248 NA
ATOM     61  C   UNL     1       6.219  12.857   0.491  1.00  0.00     0.031 C 
ATOM     62  C   UNL     1       4.110   8.922  -2.989  1.00  0.00     0.029 A 
ATOM     63  C   UNL     1       4.737   9.942  -2.276  1.00  0.00     0.049 A 
ATOM     64  H   UNL     1       3.862  11.609  -1.380  1.00  0.00     0.167 HD
ATOM     65  C   UNL     1       6.517  11.202  -1.089  1.00  0.00     0.074 A 
ATOM     66  C   UNL     1       5.838  12.438  -0.719  1.00  0.00     0.031 C 
ATOM     67  C   UNL     1       6.090  10.125  -1.805  1.00  0.00     0.034 A 
BRANCH  54  68
ATOM     68  C   UNL     1       0.982  12.114  -1.363  1.00  0.00     0.023 A 
ATOM     69  C   UNL     1       1.069  12.674  -2.660  1.00  0.00     0.012 A 
ATOM     70  C   UNL     1       0.752  13.018  -0.299  1.00  0.00     0.148 A 
ATOM     71  C   UNL     1       0.993  14.054  -2.878  1.00  0.00     0.002 A 
ATOM     72  C   UNL     1       0.615  14.384  -0.527  1.00  0.00     0.091 A 
ATOM     73  F   UNL     1       0.789  12.592   0.964  1.00  0.00    -0.205 F 
ATOM     74  C   UNL     1       0.764  14.911  -1.811  1.00  0.00     0.022 A 
BRANCH  72  75
ATOM     75  S   UNL     1       0.299  15.543   0.813  1.00  0.00     0.127 S 
ATOM     76  O   UNL     1       1.553  16.291   0.853  1.00  0.00    -0.237 OA
ATOM     77  O   UNL     1      -0.850  16.285   0.295  1.00  0.00    -0.237 OA
ATOM     78  O   UNL     1       0.008  14.727   1.984  1.00  0.00    -0.744 OA
ENDBRANCH  72  75
ENDBRANCH  54  68
BRANCH  55  79
ATOM     79  C   UNL     1       8.391  12.383   2.997  1.00  0.00     0.023 A 
ATOM     80  C   UNL     1       9.416  13.114   2.356  1.00  0.00     0.012 A 
ATOM     81  C   UNL     1       8.008  12.771   4.297  1.00  0.00     0.148 A 
ATOM     82  C   UNL     1       9.998  14.232   2.964  1.00  0.00     0.002 A 
ATOM     83  C   UNL     1       8.582  13.892   4.894  1.00  0.00     0.091 A 
ATOM     84  F   UNL     1       7.018  12.098   4.897  1.00  0.00    -0.205 F 
ATOM     85  C   UNL     1       9.568  14.633   4.225  1.00  0.00     0.022 A 
BRANCH  83  86
ATOM     86  S   UNL     1       8.043  14.522   6.489  1.00  0.00     0.127 S 
ATOM     87  O   UNL     1       9.306  14.608   7.222  1.00  0.00    -0.237 OA
ATOM     88  O   UNL     1       7.460  15.811   6.123  1.00  0.00    -0.237 OA
ATOM     89  O   UNL     1       7.107  13.535   7.011  1.00  0.00    -0.744 OA
ENDBRANCH  83  86
ENDBRANCH  55  79
BRANCH  67  90
ATOM     90  C   UNL     1       7.054   8.991  -1.980  1.00  0.00     0.023 A 
ATOM     91  C   UNL     1       7.457   8.145  -0.928  1.00  0.00     0.012 A 
ATOM     92  C   UNL     1       7.497   8.726  -3.284  1.00  0.00     0.148 A 
ATOM     93  C   UNL     1       8.304   7.061  -1.176  1.00  0.00     0.002 A 
ATOM     94  C   UNL     1       8.299   7.625  -3.534  1.00  0.00     0.091 A 
ATOM     95  F   UNL     1       7.106   9.555  -4.264  1.00  0.00    -0.205 F 
ATOM     96  C   UNL     1       8.716   6.794  -2.482  1.00  0.00     0.022 A 
BRANCH  94  97
ATOM     97  S   UNL     1       8.761   7.171  -5.205  1.00  0.00     0.127 S 
ATOM     98  O   UNL     1      10.181   7.514  -5.233  1.00  0.00    -0.237 OA
ATOM     99  O   UNL     1       8.475   5.736  -5.226  1.00  0.00    -0.237 OA
ATOM    100  O   UNL     1       7.909   7.960  -6.086  1.00  0.00    -0.744 OA
ENDBRANCH  94  97
ENDBRANCH  67  90
ENDBRANCH  41  42
ENDBRANCH  34  36
ENDBRANCH  33  34
ENDBRANCH  32  33
ENDBRANCH   1  32
TORSDOF 19
