REMARK SMILES COc1ccccc1S(=O)(=O)[C@@H](C)[C@H](C)C(=O)OCCOC(=O)c1ccc(-c2c3nc(c(-c4cccc(S(=O)(=O)[O-])c4F)c4ccc([nH]4)c(-c4cccc(S(=O)(=O)[O-])c4F)c4nc(c(-c5cccc(S(=O)(=O)[O-])c5F)c5ccc2[nH]5)C=C4)C=C3)cc1
REMARK SMILES IDX 19 1 18 2 16 3 17 4 14 5 15 6 12 7 13 8 9 9 10 10 11 11 8 12
REMARK SMILES IDX 3 13 4 14 5 15 7 16 6 17 2 18 1 19 20 20 21 21 22 22 23 23
REMARK SMILES IDX 24 24 25 25 86 26 26 27 85 28 27 29 28 30 29 31 79 32 30 33
REMARK SMILES IDX 84 34 78 35 80 36 31 37 83 38 77 39 76 40 32 42 64 43 44 44
REMARK SMILES IDX 63 45 45 46 48 47 62 48 81 49 46 50 47 51 61 53 82 54 49 55
REMARK SMILES IDX 33 56 34 57 42 58 35 59 37 60 43 61 36 62 38 63 39 64 40 65
REMARK SMILES IDX 41 66 65 67 66 68 74 69 67 70 69 71 75 72 68 73 70 74 71 75
REMARK SMILES IDX 72 76 73 77 50 78 51 79 59 80 52 81 54 82 60 83 53 84 55 85
REMARK SMILES IDX 56 86 57 87 58 88
REMARK H PARENT 80 41 48 52
REMARK Flexibility Score: inf
ROOT
ATOM      1  C   UNL     1       1.296   1.429  -4.435  1.00  0.00     0.274 C 
ENDROOT
BRANCH   1   2
ATOM      2  O   UNL     1       2.081   1.382  -3.227  1.00  0.00    -0.462 OA
BRANCH   2   3
ATOM      3  C   UNL     1       1.744   2.295  -2.275  1.00  0.00     0.310 C 
ATOM      4  O   UNL     1       1.097   3.313  -2.481  1.00  0.00    -0.252 OA
BRANCH   3   5
ATOM      5  C   UNL     1       2.275   1.912  -0.899  1.00  0.00     0.114 C 
ATOM      6  C   UNL     1       2.351   0.390  -0.772  1.00  0.00     0.021 C 
BRANCH   5   7
ATOM      7  C   UNL     1       3.510   2.774  -0.611  1.00  0.00     0.124 C 
ATOM      8  C   UNL     1       4.771   2.467  -1.409  1.00  0.00     0.026 C 
BRANCH   7   9
ATOM      9  S   UNL     1       3.761   3.285   1.068  1.00  0.00     0.185 S 
ATOM     10  O   UNL     1       2.504   3.885   1.484  1.00  0.00    -0.223 OA
ATOM     11  O   UNL     1       4.968   4.098   1.081  1.00  0.00    -0.223 OA
BRANCH   9  12
ATOM     12  C   UNL     1       4.070   2.019   2.266  1.00  0.00     0.109 A 
ATOM     13  C   UNL     1       4.491   0.728   1.988  1.00  0.00     0.137 A 
ATOM     14  C   UNL     1       4.643  -0.194   3.036  1.00  0.00     0.048 A 
ATOM     15  C   UNL     1       4.471   0.200   4.365  1.00  0.00     0.004 A 
ATOM     16  C   UNL     1       3.914   2.415   3.610  1.00  0.00     0.024 A 
ATOM     17  C   UNL     1       4.128   1.515   4.654  1.00  0.00     0.002 A 
BRANCH  13  18
ATOM     18  O   UNL     1       4.701   0.324   0.708  1.00  0.00    -0.495 OA
ATOM     19  C   UNL     1       6.069   0.025   0.450  1.00  0.00     0.278 C 
ENDBRANCH  13  18
ENDBRANCH   9  12
ENDBRANCH   7   9
ENDBRANCH   5   7
ENDBRANCH   3   5
ENDBRANCH   2   3
ENDBRANCH   1   2
BRANCH   1  20
ATOM     20  C   UNL     1       0.119   0.461  -4.297  1.00  0.00     0.275 C 
BRANCH  20  21
ATOM     21  O   UNL     1      -0.724   0.896  -3.214  1.00  0.00    -0.458 OA
BRANCH  21  22
ATOM     22  C   UNL     1      -1.273  -0.087  -2.462  1.00  0.00     0.338 C 
ATOM     23  O   UNL     1      -1.171  -1.288  -2.639  1.00  0.00    -0.246 OA
BRANCH  22  24
ATOM     24  C   UNL     1      -2.030   0.511  -1.345  1.00  0.00     0.060 A 
ATOM     25  C   UNL     1      -1.404   1.390  -0.461  1.00  0.00     0.016 A 
ATOM     26  C   UNL     1      -3.347   0.125  -1.120  1.00  0.00     0.016 A 
ATOM     27  C   UNL     1      -2.058   1.835   0.685  1.00  0.00     0.010 A 
ATOM     28  C   UNL     1      -4.036   0.641  -0.018  1.00  0.00     0.010 A 
ATOM     29  C   UNL     1      -3.390   1.476   0.914  1.00  0.00    -0.014 A 
BRANCH  29  30
ATOM     30  C   UNL     1      -4.112   1.945   2.128  1.00  0.00     0.031 A 
ATOM     31  C   UNL     1      -4.670   0.943   3.103  1.00  0.00     0.074 A 
ATOM     32  C   UNL     1      -4.313   3.262   2.332  1.00  0.00     0.049 A 
ATOM     33  N   UNL     1      -5.487   1.129   4.107  1.00  0.00    -0.248 NA
ATOM     34  C   UNL     1      -4.270  -0.461   2.908  1.00  0.00     0.031 C 
ATOM     35  C   UNL     1      -3.823   4.338   1.468  1.00  0.00     0.029 A 
ATOM     36  N   UNL     1      -5.015   3.919   3.314  1.00  0.00    -0.354 N 
ATOM     37  C   UNL     1      -5.752  -0.135   4.621  1.00  0.00     0.074 A 
ATOM     38  C   UNL     1      -5.009  -1.081   3.817  1.00  0.00     0.031 C 
ATOM     39  C   UNL     1      -4.252   5.516   1.946  1.00  0.00     0.029 A 
ATOM     40  C   UNL     1      -5.096   5.277   3.111  1.00  0.00     0.049 A 
ATOM     41  H   UNL     1      -5.419   3.462   4.087  1.00  0.00     0.167 HD
ATOM     42  C   UNL     1      -6.533  -0.476   5.674  1.00  0.00     0.034 A 
ATOM     43  C   UNL     1      -5.805   6.222   3.759  1.00  0.00     0.034 A 
ATOM     44  C   UNL     1      -7.223   0.474   6.506  1.00  0.00     0.049 A 
ATOM     45  C   UNL     1      -6.650   5.823   4.936  1.00  0.00     0.074 A 
ATOM     46  C   UNL     1      -8.000   0.234   7.626  1.00  0.00     0.029 A 
ATOM     47  N   UNL     1      -7.214   1.848   6.314  1.00  0.00    -0.354 N 
ATOM     48  N   UNL     1      -6.833   4.632   5.454  1.00  0.00    -0.248 NA
ATOM     49  C   UNL     1      -7.366   6.899   5.636  1.00  0.00     0.031 C 
ATOM     50  C   UNL     1      -8.470   1.463   8.104  1.00  0.00     0.029 A 
ATOM     51  C   UNL     1      -7.971   2.470   7.293  1.00  0.00     0.049 A 
ATOM     52  H   UNL     1      -6.738   2.313   5.589  1.00  0.00     0.167 HD
ATOM     53  C   UNL     1      -7.665   4.816   6.551  1.00  0.00     0.074 A 
ATOM     54  C   UNL     1      -7.928   6.239   6.640  1.00  0.00     0.031 C 
ATOM     55  C   UNL     1      -8.184   3.891   7.396  1.00  0.00     0.034 A 
BRANCH  42  56
ATOM     56  C   UNL     1      -6.657  -1.941   6.004  1.00  0.00     0.023 A 
ATOM     57  C   UNL     1      -5.567  -2.622   6.583  1.00  0.00     0.012 A 
ATOM     58  C   UNL     1      -7.861  -2.637   5.774  1.00  0.00     0.148 A 
ATOM     59  C   UNL     1      -5.660  -3.979   6.893  1.00  0.00     0.002 A 
ATOM     60  C   UNL     1      -7.960  -3.979   6.124  1.00  0.00     0.091 A 
ATOM     61  F   UNL     1      -8.880  -1.982   5.200  1.00  0.00    -0.205 F 
ATOM     62  C   UNL     1      -6.857  -4.654   6.672  1.00  0.00     0.022 A 
BRANCH  60  63
ATOM     63  S   UNL     1      -9.485  -4.913   5.948  1.00  0.00     0.127 S 
ATOM     64  O   UNL     1      -9.194  -5.735   4.775  1.00  0.00    -0.237 OA
ATOM     65  O   UNL     1      -9.544  -5.653   7.210  1.00  0.00    -0.237 OA
ATOM     66  O   UNL     1     -10.540  -3.924   5.779  1.00  0.00    -0.744 OA
ENDBRANCH  60  63
ENDBRANCH  42  56
BRANCH  43  67
ATOM     67  C   UNL     1      -5.724   7.641   3.308  1.00  0.00     0.023 A 
ATOM     68  C   UNL     1      -5.049   8.584   4.106  1.00  0.00     0.012 A 
ATOM     69  C   UNL     1      -6.259   8.046   2.069  1.00  0.00     0.148 A 
ATOM     70  C   UNL     1      -4.926   9.909   3.688  1.00  0.00     0.002 A 
ATOM     71  C   UNL     1      -6.082   9.353   1.632  1.00  0.00     0.091 A 
ATOM     72  F   UNL     1      -6.915   7.137   1.333  1.00  0.00    -0.205 F 
ATOM     73  C   UNL     1      -5.429  10.290   2.446  1.00  0.00     0.022 A 
BRANCH  71  74
ATOM     74  S   UNL     1      -6.575   9.892  -0.010  1.00  0.00     0.127 S 
ATOM     75  O   UNL     1      -7.739  10.724   0.286  1.00  0.00    -0.237 OA
ATOM     76  O   UNL     1      -5.392  10.627  -0.458  1.00  0.00    -0.237 OA
ATOM     77  O   UNL     1      -6.841   8.672  -0.760  1.00  0.00    -0.744 OA
ENDBRANCH  71  74
ENDBRANCH  43  67
BRANCH  55  78
ATOM     78  C   UNL     1      -9.070   4.388   8.508  1.00  0.00     0.023 A 
ATOM     79  C   UNL     1     -10.374   4.831   8.213  1.00  0.00     0.012 A 
ATOM     80  C   UNL     1      -8.635   4.358   9.847  1.00  0.00     0.148 A 
ATOM     81  C   UNL     1     -11.221   5.269   9.232  1.00  0.00     0.002 A 
ATOM     82  C   UNL     1      -9.500   4.753  10.861  1.00  0.00     0.091 A 
ATOM     83  F   UNL     1      -7.383   3.953  10.105  1.00  0.00    -0.205 F 
ATOM     84  C   UNL     1     -10.788   5.219  10.555  1.00  0.00     0.022 A 
BRANCH  82  85
ATOM     85  S   UNL     1      -9.056   4.635  12.598  1.00  0.00     0.127 S 
ATOM     86  O   UNL     1      -8.771   6.030  12.929  1.00  0.00    -0.237 OA
ATOM     87  O   UNL     1     -10.280   4.104  13.199  1.00  0.00    -0.237 OA
ATOM     88  O   UNL     1      -7.917   3.729  12.657  1.00  0.00    -0.744 OA
ENDBRANCH  82  85
ENDBRANCH  55  78
ENDBRANCH  29  30
ENDBRANCH  22  24
ENDBRANCH  21  22
ENDBRANCH  20  21
ENDBRANCH   1  20
TORSDOF 18
