REMARK SMILES CCc1c(C)nc(Nc2ccc(Cl)cc2Cl)nc1OCC(=O)OCCOC(=O)c1ccc(-c2c3nc(c(-c4cccc(S(=O)(=O)[O-])c4F)c4ccc([nH]4)c(-c4cccc(S(=O)(=O)[O-])c4F)c4nc(c(-c5cccc(S(=O)(=O)[O-])c5F)c5ccc2[nH]5)C=C4)C=C3)cc1
REMARK SMILES IDX 24 1 23 2 21 3 22 4 20 5 19 6 18 7 3 8 4 9 5 10 6 11 17 12
REMARK SMILES IDX 7 13 2 14 1 15 8 16 9 18 10 19 15 20 11 21 14 22 16 23 12 24
REMARK SMILES IDX 13 25 25 26 26 27 27 28 28 29 29 30 30 31 91 32 31 33 90 34
REMARK SMILES IDX 32 35 33 36 34 37 84 38 35 39 89 40 83 41 85 42 36 43 88 44
REMARK SMILES IDX 82 45 81 46 37 48 69 49 49 50 68 51 50 52 53 53 67 54 86 55
REMARK SMILES IDX 51 56 52 57 66 59 87 60 54 61 38 62 39 63 47 64 40 65 42 66
REMARK SMILES IDX 48 67 41 68 43 69 44 70 45 71 46 72 70 73 71 74 79 75 72 76
REMARK SMILES IDX 74 77 80 78 73 79 75 80 76 81 77 82 78 83 55 84 56 85 64 86
REMARK SMILES IDX 57 87 59 88 65 89 58 90 60 91 61 92 62 93 63 94
REMARK H PARENT 8 17 85 47 53 58
REMARK Flexibility Score: inf
ROOT
ATOM      1  C   UNL     1       3.138  -1.011   1.182  1.00  0.00     0.274 C 
ENDROOT
BRANCH   1   2
ATOM      2  O   UNL     1       2.327  -1.942   0.410  1.00  0.00    -0.460 OA
BRANCH   2   3
ATOM      3  C   UNL     1       1.195  -2.398   1.018  1.00  0.00     0.344 C 
ATOM      4  O   UNL     1       0.931  -2.215   2.204  1.00  0.00    -0.248 OA
BRANCH   3   5
ATOM      5  C   UNL     1       0.170  -3.039   0.043  1.00  0.00     0.353 C 
BRANCH   5   6
ATOM      6  O   UNL     1       0.412  -3.570  -1.238  1.00  0.00    -0.465 OA
BRANCH   6   7
ATOM      7  C   UNL     1       0.754  -2.873  -2.348  1.00  0.00     0.222 A 
ATOM      8  C   UNL     1       0.514  -1.545  -2.669  1.00  0.00     0.035 A 
ATOM      9  C   UNL     1       1.254  -1.058  -3.744  1.00  0.00     0.050 A 
ATOM     10  C   UNL     1       1.344   0.378  -4.167  1.00  0.00     0.067 C 
ATOM     11  N   UNL     1       1.912  -1.881  -4.570  1.00  0.00    -0.218 NA
ATOM     12  N   UNL     1       1.315  -3.711  -3.241  1.00  0.00    -0.177 NA
ATOM     13  C   UNL     1       1.806  -3.192  -4.364  1.00  0.00     0.230 A 
BRANCH   8  14
ATOM     14  C   UNL     1      -0.550  -0.712  -2.024  1.00  0.00     0.040 C 
ATOM     15  C   UNL     1      -0.027  -0.025  -0.807  1.00  0.00     0.009 C 
ENDBRANCH   8  14
BRANCH  13  16
ATOM     16  N   UNL     1       2.082  -4.054  -5.427  1.00  0.00    -0.323 N 
ATOM     17  H   UNL     1       1.954  -5.020  -5.283  1.00  0.00     0.170 HD
BRANCH  16  18
ATOM     18  C   UNL     1       2.530  -3.631  -6.690  1.00  0.00     0.060 A 
ATOM     19  C   UNL     1       3.746  -2.931  -6.776  1.00  0.00     0.029 A 
ATOM     20  C   UNL     1       1.732  -3.720  -7.844  1.00  0.00     0.066 A 
ATOM     21  C   UNL     1       4.167  -2.360  -7.975  1.00  0.00     0.023 A 
ATOM     22  C   UNL     1       2.144  -3.139  -9.048  1.00  0.00     0.043 A 
ATOM     23  Cl  UNL     1       0.191  -4.505  -7.798  1.00  0.00    -0.082 Cl
ATOM     24  C   UNL     1       3.363  -2.465  -9.105  1.00  0.00     0.042 A 
ATOM     25  Cl  UNL     1       3.878  -1.746 -10.580  1.00  0.00    -0.084 Cl
ENDBRANCH  16  18
ENDBRANCH  13  16
ENDBRANCH   6   7
ENDBRANCH   5   6
ENDBRANCH   3   5
ENDBRANCH   2   3
ENDBRANCH   1   2
BRANCH   1  26
ATOM     26  C   UNL     1       3.743   0.064   0.256  1.00  0.00     0.275 C 
BRANCH  26  27
ATOM     27  O   UNL     1       2.809   1.148   0.037  1.00  0.00    -0.458 OA
BRANCH  27  28
ATOM     28  C   UNL     1       3.174   2.064  -0.910  1.00  0.00     0.338 C 
ATOM     29  O   UNL     1       4.250   2.069  -1.501  1.00  0.00    -0.246 OA
BRANCH  28  30
ATOM     30  C   UNL     1       2.024   2.947  -1.290  1.00  0.00     0.060 A 
ATOM     31  C   UNL     1       0.834   2.897  -0.573  1.00  0.00     0.016 A 
ATOM     32  C   UNL     1       2.035   3.653  -2.501  1.00  0.00     0.016 A 
ATOM     33  C   UNL     1      -0.360   3.259  -1.204  1.00  0.00     0.010 A 
ATOM     34  C   UNL     1       0.852   4.234  -3.009  1.00  0.00     0.010 A 
ATOM     35  C   UNL     1      -0.384   4.018  -2.382  1.00  0.00    -0.014 A 
BRANCH  35  36
ATOM     36  C   UNL     1      -1.661   4.667  -2.845  1.00  0.00     0.031 A 
ATOM     37  C   UNL     1      -2.072   4.715  -4.305  1.00  0.00     0.074 A 
ATOM     38  C   UNL     1      -2.440   5.304  -1.937  1.00  0.00     0.049 A 
ATOM     39  N   UNL     1      -2.934   5.508  -4.894  1.00  0.00    -0.248 NA
ATOM     40  C   UNL     1      -1.439   3.754  -5.224  1.00  0.00     0.031 C 
ATOM     41  C   UNL     1      -2.215   5.334  -0.486  1.00  0.00     0.029 A 
ATOM     42  N   UNL     1      -3.560   6.091  -2.094  1.00  0.00    -0.354 N 
ATOM     43  C   UNL     1      -2.890   5.205  -6.254  1.00  0.00     0.074 A 
ATOM     44  C   UNL     1      -1.940   4.121  -6.400  1.00  0.00     0.031 C 
ATOM     45  C   UNL     1      -3.157   6.066   0.109  1.00  0.00     0.029 A 
ATOM     46  C   UNL     1      -3.941   6.712  -0.923  1.00  0.00     0.049 A 
ATOM     47  H   UNL     1      -4.036   6.199  -2.949  1.00  0.00     0.167 HD
ATOM     48  C   UNL     1      -3.569   5.786  -7.277  1.00  0.00     0.034 A 
ATOM     49  C   UNL     1      -4.727   7.776  -0.678  1.00  0.00     0.034 A 
ATOM     50  C   UNL     1      -4.550   6.833  -7.107  1.00  0.00     0.049 A 
ATOM     51  C   UNL     1      -5.401   8.450  -1.824  1.00  0.00     0.074 A 
ATOM     52  C   UNL     1      -5.315   7.465  -8.075  1.00  0.00     0.029 A 
ATOM     53  N   UNL     1      -4.903   7.404  -5.893  1.00  0.00    -0.354 N 
ATOM     54  N   UNL     1      -5.347   8.151  -3.096  1.00  0.00    -0.248 NA
ATOM     55  C   UNL     1      -6.256   9.597  -1.500  1.00  0.00     0.031 C 
ATOM     56  C   UNL     1      -6.101   8.440  -7.452  1.00  0.00     0.029 A 
ATOM     57  C   UNL     1      -5.859   8.389  -6.090  1.00  0.00     0.049 A 
ATOM     58  H   UNL     1      -4.530   7.147  -5.019  1.00  0.00     0.167 HD
ATOM     59  C   UNL     1      -6.184   9.057  -3.728  1.00  0.00     0.074 A 
ATOM     60  C   UNL     1      -6.753   9.896  -2.691  1.00  0.00     0.031 C 
ATOM     61  C   UNL     1      -6.446   9.193  -5.049  1.00  0.00     0.034 A 
BRANCH  48  62
ATOM     62  C   UNL     1      -3.299   5.325  -8.694  1.00  0.00     0.023 A 
ATOM     63  C   UNL     1      -3.806   4.091  -9.148  1.00  0.00     0.012 A 
ATOM     64  C   UNL     1      -2.655   6.180  -9.617  1.00  0.00     0.148 A 
ATOM     65  C   UNL     1      -3.659   3.707 -10.483  1.00  0.00     0.002 A 
ATOM     66  C   UNL     1      -2.549   5.810 -10.954  1.00  0.00     0.091 A 
ATOM     67  F   UNL     1      -2.175   7.350  -9.172  1.00  0.00    -0.205 F 
ATOM     68  C   UNL     1      -3.042   4.569 -11.387  1.00  0.00     0.022 A 
BRANCH  66  69
ATOM     69  S   UNL     1      -1.848   6.885 -12.215  1.00  0.00     0.127 S 
ATOM     70  O   UNL     1      -0.627   6.164 -12.572  1.00  0.00    -0.237 OA
ATOM     71  O   UNL     1      -2.887   6.871 -13.245  1.00  0.00    -0.237 OA
ATOM     72  O   UNL     1      -1.641   8.176 -11.574  1.00  0.00    -0.744 OA
ENDBRANCH  66  69
ENDBRANCH  48  62
BRANCH  49  73
ATOM     73  C   UNL     1      -4.846   8.294   0.716  1.00  0.00     0.023 A 
ATOM     74  C   UNL     1      -6.065   8.159   1.403  1.00  0.00     0.012 A 
ATOM     75  C   UNL     1      -3.734   8.846   1.388  1.00  0.00     0.148 A 
ATOM     76  C   UNL     1      -6.181   8.584   2.727  1.00  0.00     0.002 A 
ATOM     77  C   UNL     1      -3.837   9.196   2.728  1.00  0.00     0.091 A 
ATOM     78  F   UNL     1      -2.582   8.977   0.714  1.00  0.00    -0.205 F 
ATOM     79  C   UNL     1      -5.065   9.085   3.394  1.00  0.00     0.022 A 
BRANCH  77  80
ATOM     80  S   UNL     1      -2.405   9.675   3.703  1.00  0.00     0.127 S 
ATOM     81  O   UNL     1      -2.602  11.116   3.836  1.00  0.00    -0.237 OA
ATOM     82  O   UNL     1      -2.604   8.908   4.934  1.00  0.00    -0.237 OA
ATOM     83  O   UNL     1      -1.246   9.258   2.925  1.00  0.00    -0.744 OA
ENDBRANCH  77  80
ENDBRANCH  49  73
BRANCH  61  84
ATOM     84  C   UNL     1      -7.429  10.261  -5.438  1.00  0.00     0.023 A 
ATOM     85  C   UNL     1      -7.063  11.620  -5.350  1.00  0.00     0.012 A 
ATOM     86  C   UNL     1      -8.711   9.916  -5.904  1.00  0.00     0.148 A 
ATOM     87  C   UNL     1      -7.977  12.620  -5.678  1.00  0.00     0.002 A 
ATOM     88  C   UNL     1      -9.598  10.916  -6.280  1.00  0.00     0.091 A 
ATOM     89  F   UNL     1      -9.045   8.618  -5.955  1.00  0.00    -0.205 F 
ATOM     90  C   UNL     1      -9.238  12.268  -6.152  1.00  0.00     0.022 A 
BRANCH  88  91
ATOM     91  S   UNL     1     -11.210  10.560  -6.983  1.00  0.00     0.127 S 
ATOM     92  O   UNL     1     -12.105  10.992  -5.910  1.00  0.00    -0.237 OA
ATOM     93  O   UNL     1     -11.223  11.414  -8.170  1.00  0.00    -0.237 OA
ATOM     94  O   UNL     1     -11.220   9.131  -7.264  1.00  0.00    -0.744 OA
ENDBRANCH  88  91
ENDBRANCH  61  84
ENDBRANCH  35  36
ENDBRANCH  28  30
ENDBRANCH  27  28
ENDBRANCH  26  27
ENDBRANCH   1  26
TORSDOF 19
