REMARK SMILES Cc1ccccc1-c1c(Cl)ccc2c1C=C(C(=O)OCCOC(=O)c1ccc(-c3c4nc(c(-c5cccc(S(=O)(=O)[O-])c5F)c5ccc([nH]5)c(-c5cccc(S(=O)(=O)[O-])c5F)c5nc(c(-c6cccc(S(=O)(=O)[O-])c6F)c6ccc3[nH]6)C=C5)C=C4)cc1)[C@@H](C(F)(F)F)O2
REMARK SMILES IDX 21 1 20 2 19 3 17 4 18 5 16 6 8 7 9 8 14 9 10 10 11 11 13 12
REMARK SMILES IDX 15 13 12 14 93 15 88 16 7 17 1 18 2 19 3 20 4 21 6 22 5 23
REMARK SMILES IDX 89 24 90 25 91 26 92 27 22 28 23 29 24 30 25 31 26 32 87 33
REMARK SMILES IDX 27 34 86 35 28 36 29 37 30 38 80 39 31 40 85 41 79 42 81 43
REMARK SMILES IDX 32 44 84 45 78 46 77 47 33 49 65 50 45 51 64 52 46 53 49 54
REMARK SMILES IDX 63 55 82 56 47 57 48 58 62 60 83 61 50 62 34 63 35 64 43 65
REMARK SMILES IDX 36 66 38 67 44 68 37 69 39 70 40 71 41 72 42 73 66 74 67 75
REMARK SMILES IDX 75 76 68 77 70 78 76 79 69 80 71 81 72 82 73 83 74 84 51 85
REMARK SMILES IDX 52 86 60 87 53 88 55 89 61 90 54 91 56 92 57 93 58 94 59 95
REMARK H PARENT 81 48 49 59
REMARK Flexibility Score: inf
ROOT
ATOM      1  C   UNL     1       7.379   0.177  -3.510  1.00  0.00     0.275 C 
ENDROOT
BRANCH   1   2
ATOM      2  C   UNL     1       6.035  -0.428  -3.084  1.00  0.00     0.275 C 
BRANCH   2   3
ATOM      3  O   UNL     1       4.956   0.483  -2.876  1.00  0.00    -0.459 OA
BRANCH   3   4
ATOM      4  C   UNL     1       4.250   0.875  -3.969  1.00  0.00     0.338 C 
ATOM      5  O   UNL     1       4.525   0.631  -5.128  1.00  0.00    -0.246 OA
BRANCH   4   6
ATOM      6  C   UNL     1       3.118   1.713  -3.522  1.00  0.00     0.087 C 
ATOM      7  C   UNL     1       0.784   1.858  -0.604  1.00  0.00     0.012 A 
ATOM      8  C   UNL     1       0.522   2.900   0.333  1.00  0.00     0.049 A 
ATOM      9  C   UNL     1       1.535   2.217  -1.761  1.00  0.00     0.027 A 
ATOM     10  Cl  UNL     1      -0.118   2.587   1.919  1.00  0.00    -0.084 Cl
ATOM     11  C   UNL     1       0.765   4.239   0.029  1.00  0.00     0.025 A 
ATOM     12  C   UNL     1       1.752   3.578  -2.059  1.00  0.00     0.128 A 
ATOM     13  C   UNL     1       2.314   1.261  -2.552  1.00  0.00     0.028 C 
ATOM     14  C   UNL     1       1.302   4.576  -1.202  1.00  0.00     0.049 A 
ATOM     15  O   UNL     1       2.463   4.039  -3.137  1.00  0.00    -0.475 OA
ATOM     16  C   UNL     1       2.983   3.088  -4.087  1.00  0.00     0.316 C 
BRANCH   7  17
ATOM     17  C   UNL     1       0.057   0.554  -0.444  1.00  0.00    -0.013 A 
ATOM     18  C   UNL     1       2.065  -1.069  -0.275  1.00  0.00     0.045 C 
ATOM     19  C   UNL     1       0.604  -0.735  -0.279  1.00  0.00    -0.043 A 
ATOM     20  C   UNL     1      -0.254  -1.843  -0.082  1.00  0.00     0.004 A 
ATOM     21  C   UNL     1      -1.634  -1.697   0.003  1.00  0.00     0.000 A 
ATOM     22  C   UNL     1      -1.361   0.652  -0.390  1.00  0.00     0.009 A 
ATOM     23  C   UNL     1      -2.192  -0.442  -0.144  1.00  0.00     0.001 A 
ENDBRANCH   7  17
BRANCH  16  24
ATOM     24  C   UNL     1       2.090   3.075  -5.332  1.00  0.00     0.430 C 
ATOM     25  F   UNL     1       2.045   4.286  -5.939  1.00  0.00    -0.167 F 
ATOM     26  F   UNL     1       2.526   2.197  -6.268  1.00  0.00    -0.167 F 
ATOM     27  F   UNL     1       0.810   2.729  -5.045  1.00  0.00    -0.167 F 
ENDBRANCH  16  24
ENDBRANCH   4   6
ENDBRANCH   3   4
ENDBRANCH   2   3
ENDBRANCH   1   2
BRANCH   1  28
ATOM     28  O   UNL     1       7.364   1.492  -4.114  1.00  0.00    -0.458 OA
BRANCH  28  29
ATOM     29  C   UNL     1       7.455   2.681  -3.439  1.00  0.00     0.338 C 
ATOM     30  O   UNL     1       7.778   3.721  -3.964  1.00  0.00    -0.246 OA
BRANCH  29  31
ATOM     31  C   UNL     1       7.110   2.601  -2.013  1.00  0.00     0.060 A 
ATOM     32  C   UNL     1       5.849   3.014  -1.573  1.00  0.00     0.016 A 
ATOM     33  C   UNL     1       7.995   1.928  -1.178  1.00  0.00     0.016 A 
ATOM     34  C   UNL     1       5.396   2.581  -0.329  1.00  0.00     0.010 A 
ATOM     35  C   UNL     1       7.518   1.421   0.006  1.00  0.00     0.010 A 
ATOM     36  C   UNL     1       6.219   1.740   0.430  1.00  0.00    -0.014 A 
BRANCH  36  37
ATOM     37  C   UNL     1       5.954   1.438   1.831  1.00  0.00     0.031 A 
ATOM     38  C   UNL     1       4.899   0.507   2.243  1.00  0.00     0.074 A 
ATOM     39  C   UNL     1       6.683   2.169   2.699  1.00  0.00     0.049 A 
ATOM     40  N   UNL     1       3.888   0.834   2.973  1.00  0.00    -0.248 NA
ATOM     41  C   UNL     1       4.913  -0.893   1.828  1.00  0.00     0.031 C 
ATOM     42  C   UNL     1       6.726   2.137   4.144  1.00  0.00     0.029 A 
ATOM     43  N   UNL     1       7.433   3.299   2.349  1.00  0.00    -0.354 N 
ATOM     44  C   UNL     1       3.278  -0.351   3.337  1.00  0.00     0.074 A 
ATOM     45  C   UNL     1       3.863  -1.377   2.503  1.00  0.00     0.031 C 
ATOM     46  C   UNL     1       7.191   3.331   4.568  1.00  0.00     0.029 A 
ATOM     47  C   UNL     1       7.347   4.200   3.401  1.00  0.00     0.049 A 
ATOM     48  H   UNL     1       7.930   3.431   1.509  1.00  0.00     0.167 HD
ATOM     49  C   UNL     1       2.589  -0.468   4.508  1.00  0.00     0.034 A 
ATOM     50  C   UNL     1       6.839   5.453   3.212  1.00  0.00     0.034 A 
ATOM     51  C   UNL     1       2.908   0.672   5.362  1.00  0.00     0.049 A 
ATOM     52  C   UNL     1       5.588   5.624   4.046  1.00  0.00     0.074 A 
ATOM     53  C   UNL     1       3.977   0.822   6.233  1.00  0.00     0.029 A 
ATOM     54  N   UNL     1       2.391   1.940   5.135  1.00  0.00    -0.354 N 
ATOM     55  N   UNL     1       4.855   4.630   4.467  1.00  0.00    -0.248 NA
ATOM     56  C   UNL     1       5.066   6.923   4.452  1.00  0.00     0.031 C 
ATOM     57  C   UNL     1       4.160   2.199   6.469  1.00  0.00     0.029 A 
ATOM     58  C   UNL     1       3.179   2.887   5.778  1.00  0.00     0.049 A 
ATOM     59  H   UNL     1       1.589   2.139   4.600  1.00  0.00     0.167 HD
ATOM     60  C   UNL     1       3.793   5.119   5.183  1.00  0.00     0.074 A 
ATOM     61  C   UNL     1       3.978   6.561   5.153  1.00  0.00     0.031 C 
ATOM     62  C   UNL     1       2.852   4.301   5.747  1.00  0.00     0.034 A 
BRANCH  49  63
ATOM     63  C   UNL     1       2.147  -1.816   5.047  1.00  0.00     0.023 A 
ATOM     64  C   UNL     1       2.326  -2.077   6.423  1.00  0.00     0.012 A 
ATOM     65  C   UNL     1       1.617  -2.868   4.263  1.00  0.00     0.148 A 
ATOM     66  C   UNL     1       2.124  -3.344   6.976  1.00  0.00     0.002 A 
ATOM     67  C   UNL     1       1.447  -4.147   4.808  1.00  0.00     0.091 A 
ATOM     68  F   UNL     1       1.299  -2.625   2.982  1.00  0.00    -0.205 F 
ATOM     69  C   UNL     1       1.715  -4.388   6.162  1.00  0.00     0.022 A 
BRANCH  67  70
ATOM     70  S   UNL     1       0.997  -5.587   3.823  1.00  0.00     0.127 S 
ATOM     71  O   UNL     1       2.103  -6.505   4.105  1.00  0.00    -0.237 OA
ATOM     72  O   UNL     1      -0.283  -5.983   4.406  1.00  0.00    -0.237 OA
ATOM     73  O   UNL     1       0.940  -5.130   2.440  1.00  0.00    -0.744 OA
ENDBRANCH  67  70
ENDBRANCH  49  63
BRANCH  50  74
ATOM     74  C   UNL     1       7.030   6.058   1.841  1.00  0.00     0.023 A 
ATOM     75  C   UNL     1       8.309   5.980   1.226  1.00  0.00     0.012 A 
ATOM     76  C   UNL     1       5.961   6.479   1.040  1.00  0.00     0.148 A 
ATOM     77  C   UNL     1       8.484   6.182  -0.150  1.00  0.00     0.002 A 
ATOM     78  C   UNL     1       6.145   6.684  -0.333  1.00  0.00     0.091 A 
ATOM     79  F   UNL     1       4.750   6.635   1.592  1.00  0.00    -0.205 F 
ATOM     80  C   UNL     1       7.392   6.509  -0.939  1.00  0.00     0.022 A 
BRANCH  78  81
ATOM     81  S   UNL     1       4.707   6.967  -1.357  1.00  0.00     0.127 S 
ATOM     82  O   UNL     1       5.186   6.712  -2.714  1.00  0.00    -0.237 OA
ATOM     83  O   UNL     1       3.789   5.959  -0.853  1.00  0.00    -0.237 OA
ATOM     84  O   UNL     1       4.378   8.358  -1.068  1.00  0.00    -0.744 OA
ENDBRANCH  78  81
ENDBRANCH  50  74
BRANCH  62  85
ATOM     85  C   UNL     1       1.590   4.760   6.437  1.00  0.00     0.023 A 
ATOM     86  C   UNL     1       0.962   5.975   6.114  1.00  0.00     0.012 A 
ATOM     87  C   UNL     1       0.917   3.911   7.356  1.00  0.00     0.148 A 
ATOM     88  C   UNL     1      -0.232   6.369   6.727  1.00  0.00     0.002 A 
ATOM     89  C   UNL     1      -0.325   4.255   7.873  1.00  0.00     0.091 A 
ATOM     90  F   UNL     1       1.492   2.770   7.764  1.00  0.00    -0.205 F 
ATOM     91  C   UNL     1      -0.887   5.500   7.590  1.00  0.00     0.022 A 
BRANCH  89  92
ATOM     92  S   UNL     1      -1.300   3.059   8.797  1.00  0.00     0.127 S 
ATOM     93  O   UNL     1      -0.914   3.349  10.176  1.00  0.00    -0.237 OA
ATOM     94  O   UNL     1      -2.672   3.440   8.457  1.00  0.00    -0.237 OA
ATOM     95  O   UNL     1      -0.900   1.758   8.278  1.00  0.00    -0.744 OA
ENDBRANCH  89  92
ENDBRANCH  62  85
ENDBRANCH  36  37
ENDBRANCH  29  31
ENDBRANCH  28  29
ENDBRANCH   1  28
TORSDOF 16
