REMARK SMILES Cc1coc2cc3oc(=O)c(CC(=O)N[C@H](Cc4c[nH]c5ccc(O)cc45)C(=O)OCCOC(=O)c4ccc(-c5c6nc(c(-c7cccc(S(=O)(=O)[O-])c7F)c7ccc([nH]7)c(-c7cccc(S(=O)(=O)[O-])c7F)c7nc(c(-c8cccc(S(=O)(=O)[O-])c8F)c8ccc5[nH]8)C=C7)C=C6)cc4)c(C)c3cc12
REMARK SMILES IDX 31 1 30 2 28 3 29 4 16 5 15 6 13 7 14 8 12 10 11 11 1 12
REMARK SMILES IDX 2 13 3 14 103 15 4 16 5 17 102 18 6 19 101 20 7 21 99 22
REMARK SMILES IDX 8 23 100 24 9 25 10 26 17 27 18 28 19 29 27 30 20 31 21 32
REMARK SMILES IDX 26 33 22 35 24 36 23 37 25 38 32 40 33 41 34 42 35 43 36 44
REMARK SMILES IDX 37 45 98 46 38 47 97 48 39 49 40 50 41 51 91 52 42 53 96 54
REMARK SMILES IDX 90 55 92 56 43 57 95 58 89 59 88 60 44 62 76 63 56 64 75 65
REMARK SMILES IDX 57 66 60 67 74 68 93 69 58 70 59 71 73 73 94 74 61 75 45 76
REMARK SMILES IDX 46 77 54 78 47 79 49 80 55 81 48 82 50 83 51 84 52 85 53 86
REMARK SMILES IDX 77 87 78 88 86 89 79 90 81 91 87 92 80 93 82 94 83 95 84 96
REMARK SMILES IDX 85 97 62 98 63 99 71 100 64 101 66 102 72 103 65 104 67 105
REMARK SMILES IDX 68 106 69 107 70 108
REMARK H PARENT 15 9 20 34 25 39 92 61 60 72
REMARK Flexibility Score: inf
ROOT
ATOM      1  C   UNL     1       3.896  -3.151 -11.272  1.00  0.00     0.274 C 
ENDROOT
BRANCH   1   2
ATOM      2  O   UNL     1       3.136  -3.315 -10.045  1.00  0.00    -0.461 OA
BRANCH   2   3
ATOM      3  C   UNL     1       2.829  -2.152  -9.412  1.00  0.00     0.329 C 
ATOM      4  O   UNL     1       3.149  -1.067  -9.883  1.00  0.00    -0.250 OA
BRANCH   3   5
ATOM      5  C   UNL     1       2.196  -2.302  -8.007  1.00  0.00     0.196 C 
BRANCH   5   6
ATOM      6  N   UNL     1       3.205  -1.822  -7.030  1.00  0.00    -0.342 N 
ATOM      7  C   UNL     1       4.320  -2.379  -6.488  1.00  0.00     0.225 C 
ATOM      8  O   UNL     1       5.141  -1.627  -5.957  1.00  0.00    -0.275 OA
ATOM      9  H   UNL     1       3.031  -0.909  -6.707  1.00  0.00     0.164 HD
BRANCH   7  10
ATOM     10  C   UNL     1       4.612  -3.875  -6.578  1.00  0.00     0.143 C 
BRANCH  10  11
ATOM     11  C   UNL     1       3.661  -4.829  -5.870  1.00  0.00     0.051 A 
ATOM     12  C   UNL     1      -1.629  -5.078  -1.149  1.00  0.00     0.048 C 
ATOM     13  C   UNL     1      -1.462  -5.872  -2.389  1.00  0.00    -0.005 A 
ATOM     14  C   UNL     1      -2.366  -6.775  -2.915  1.00  0.00     0.199 A 
ATOM     15  C   UNL     1      -0.354  -5.866  -3.292  1.00  0.00     0.024 A 
ATOM     16  O   UNL     1      -1.886  -7.345  -4.049  1.00  0.00    -0.464 OA
ATOM     17  C   UNL     1      -0.662  -6.795  -4.277  1.00  0.00     0.137 A 
ATOM     18  C   UNL     1       0.871  -5.165  -3.389  1.00  0.00     0.024 A 
ATOM     19  C   UNL     1       0.177  -7.110  -5.336  1.00  0.00     0.095 A 
ATOM     20  C   UNL     1       1.762  -5.432  -4.450  1.00  0.00     0.022 A 
ATOM     21  C   UNL     1       1.394  -6.416  -5.372  1.00  0.00     0.142 A 
ATOM     22  C   UNL     1       2.972  -4.610  -4.724  1.00  0.00    -0.029 A 
ATOM     23  O   UNL     1       2.246  -6.761  -6.434  1.00  0.00    -0.422 OA
ATOM     24  C   UNL     1       3.232  -3.450  -3.792  1.00  0.00     0.046 C 
ATOM     25  C   UNL     1       3.410  -6.059  -6.680  1.00  0.00     0.340 A 
ATOM     26  O   UNL     1       4.160  -6.399  -7.591  1.00  0.00    -0.246 OA
ENDBRANCH  10  11
ENDBRANCH   7  10
ENDBRANCH   5   6
BRANCH   5  27
ATOM     27  C   UNL     1       1.564  -3.632  -7.634  1.00  0.00     0.074 C 
BRANCH  27  28
ATOM     28  C   UNL     1       0.141  -4.008  -7.916  1.00  0.00    -0.020 A 
ATOM     29  C   UNL     1      -0.239  -5.155  -8.594  1.00  0.00     0.087 A 
ATOM     30  C   UNL     1      -1.073  -3.418  -7.418  1.00  0.00     0.006 A 
ATOM     31  N   UNL     1      -1.603  -5.232  -8.596  1.00  0.00    -0.361 N 
ATOM     32  C   UNL     1      -2.141  -4.145  -7.949  1.00  0.00     0.046 A 
ATOM     33  C   UNL     1      -1.377  -2.313  -6.596  1.00  0.00     0.056 A 
ATOM     34  H   UNL     1      -2.126  -5.961  -9.002  1.00  0.00     0.166 HD
ATOM     35  C   UNL     1      -3.482  -3.764  -7.787  1.00  0.00     0.030 A 
ATOM     36  C   UNL     1      -2.711  -1.915  -6.441  1.00  0.00     0.116 A 
ATOM     37  C   UNL     1      -3.750  -2.607  -7.045  1.00  0.00     0.048 A 
BRANCH  36  38
ATOM     38  O   UNL     1      -2.922  -0.780  -5.714  1.00  0.00    -0.508 OA
ATOM     39  H   UNL     1      -3.794  -0.466  -5.578  1.00  0.00     0.293 HD
ENDBRANCH  36  38
ENDBRANCH  27  28
ENDBRANCH   5  27
ENDBRANCH   3   5
ENDBRANCH   2   3
ENDBRANCH   1   2
BRANCH   1  40
ATOM     40  C   UNL     1       3.119  -3.697 -12.472  1.00  0.00     0.275 C 
BRANCH  40  41
ATOM     41  O   UNL     1       2.089  -2.761 -12.833  1.00  0.00    -0.458 OA
BRANCH  41  42
ATOM     42  C   UNL     1       0.826  -3.088 -12.443  1.00  0.00     0.338 C 
ATOM     43  O   UNL     1       0.382  -4.199 -12.279  1.00  0.00    -0.246 OA
BRANCH  42  44
ATOM     44  C   UNL     1       0.276  -1.842 -11.854  1.00  0.00     0.060 A 
ATOM     45  C   UNL     1       0.519  -0.568 -12.371  1.00  0.00     0.016 A 
ATOM     46  C   UNL     1      -0.206  -1.981 -10.567  1.00  0.00     0.016 A 
ATOM     47  C   UNL     1       0.497   0.542 -11.515  1.00  0.00     0.010 A 
ATOM     48  C   UNL     1      -0.177  -0.886  -9.721  1.00  0.00     0.010 A 
ATOM     49  C   UNL     1       0.279   0.361 -10.149  1.00  0.00    -0.014 A 
BRANCH  49  50
ATOM     50  C   UNL     1       0.261   1.479  -9.186  1.00  0.00     0.031 A 
ATOM     51  C   UNL     1      -1.125   1.992  -9.014  1.00  0.00     0.074 A 
ATOM     52  C   UNL     1       1.254   1.923  -8.372  1.00  0.00     0.049 A 
ATOM     53  N   UNL     1      -1.651   3.033  -9.570  1.00  0.00    -0.248 NA
ATOM     54  C   UNL     1      -2.104   1.135  -8.334  1.00  0.00     0.031 C 
ATOM     55  C   UNL     1       2.602   1.393  -8.168  1.00  0.00     0.029 A 
ATOM     56  N   UNL     1       1.230   2.942  -7.454  1.00  0.00    -0.354 N 
ATOM     57  C   UNL     1      -2.958   3.067  -9.092  1.00  0.00     0.074 A 
ATOM     58  C   UNL     1      -3.250   1.754  -8.603  1.00  0.00     0.031 C 
ATOM     59  C   UNL     1       3.164   1.910  -7.048  1.00  0.00     0.029 A 
ATOM     60  C   UNL     1       2.306   2.963  -6.556  1.00  0.00     0.049 A 
ATOM     61  H   UNL     1       0.509   3.612  -7.428  1.00  0.00     0.167 HD
ATOM     62  C   UNL     1      -3.584   4.242  -8.820  1.00  0.00     0.034 A 
ATOM     63  C   UNL     1       2.500   3.808  -5.508  1.00  0.00     0.034 A 
ATOM     64  C   UNL     1      -2.868   5.350  -9.394  1.00  0.00     0.049 A 
ATOM     65  C   UNL     1       1.676   4.997  -5.784  1.00  0.00     0.074 A 
ATOM     66  C   UNL     1      -2.512   5.733 -10.669  1.00  0.00     0.029 A 
ATOM     67  N   UNL     1      -2.022   5.998  -8.531  1.00  0.00    -0.354 N 
ATOM     68  N   UNL     1       1.907   5.828  -6.758  1.00  0.00    -0.248 NA
ATOM     69  C   UNL     1       0.361   5.072  -5.179  1.00  0.00     0.031 C 
ATOM     70  C   UNL     1      -1.211   6.304 -10.538  1.00  0.00     0.029 A 
ATOM     71  C   UNL     1      -0.862   6.316  -9.186  1.00  0.00     0.049 A 
ATOM     72  H   UNL     1      -2.217   6.202  -7.589  1.00  0.00     0.167 HD
ATOM     73  C   UNL     1       0.642   6.178  -7.199  1.00  0.00     0.074 A 
ATOM     74  C   UNL     1      -0.253   5.815  -6.102  1.00  0.00     0.031 C 
ATOM     75  C   UNL     1       0.419   6.447  -8.518  1.00  0.00     0.034 A 
BRANCH  62  76
ATOM     76  C   UNL     1      -4.594   4.428  -7.710  1.00  0.00     0.023 A 
ATOM     77  C   UNL     1      -5.321   5.636  -7.691  1.00  0.00     0.012 A 
ATOM     78  C   UNL     1      -4.711   3.599  -6.568  1.00  0.00     0.148 A 
ATOM     79  C   UNL     1      -6.114   5.998  -6.595  1.00  0.00     0.002 A 
ATOM     80  C   UNL     1      -5.577   3.911  -5.528  1.00  0.00     0.091 A 
ATOM     81  F   UNL     1      -3.885   2.562  -6.398  1.00  0.00    -0.205 F 
ATOM     82  C   UNL     1      -6.261   5.127  -5.521  1.00  0.00     0.022 A 
BRANCH  80  83
ATOM     83  S   UNL     1      -5.860   2.759  -4.176  1.00  0.00     0.127 S 
ATOM     84  O   UNL     1      -5.144   3.406  -3.082  1.00  0.00    -0.237 OA
ATOM     85  O   UNL     1      -7.319   2.784  -4.063  1.00  0.00    -0.237 OA
ATOM     86  O   UNL     1      -5.326   1.478  -4.636  1.00  0.00    -0.744 OA
ENDBRANCH  80  83
ENDBRANCH  62  76
BRANCH  63  87
ATOM     87  C   UNL     1       3.136   3.650  -4.171  1.00  0.00     0.023 A 
ATOM     88  C   UNL     1       3.456   4.806  -3.417  1.00  0.00     0.012 A 
ATOM     89  C   UNL     1       3.058   2.417  -3.490  1.00  0.00     0.148 A 
ATOM     90  C   UNL     1       3.607   4.750  -2.025  1.00  0.00     0.002 A 
ATOM     91  C   UNL     1       3.197   2.370  -2.102  1.00  0.00     0.091 A 
ATOM     92  F   UNL     1       2.741   1.320  -4.189  1.00  0.00    -0.205 F 
ATOM     93  C   UNL     1       3.454   3.536  -1.365  1.00  0.00     0.022 A 
BRANCH  91  94
ATOM     94  S   UNL     1       2.930   0.861  -1.156  1.00  0.00     0.127 S 
ATOM     95  O   UNL     1       4.124   0.817  -0.310  1.00  0.00    -0.237 OA
ATOM     96  O   UNL     1       1.692   1.168  -0.445  1.00  0.00    -0.237 OA
ATOM     97  O   UNL     1       2.842  -0.217  -2.132  1.00  0.00    -0.744 OA
ENDBRANCH  91  94
ENDBRANCH  63  87
BRANCH  75  98
ATOM     98  C   UNL     1       1.621   6.710  -9.398  1.00  0.00     0.023 A 
ATOM     99  C   UNL     1       2.625   5.751  -9.652  1.00  0.00     0.012 A 
ATOM    100  C   UNL     1       1.658   7.925 -10.102  1.00  0.00     0.148 A 
ATOM    101  C   UNL     1       3.646   6.008 -10.576  1.00  0.00     0.002 A 
ATOM    102  C   UNL     1       2.637   8.153 -11.060  1.00  0.00     0.091 A 
ATOM    103  F   UNL     1       0.709   8.837  -9.839  1.00  0.00    -0.205 F 
ATOM    104  C   UNL     1       3.642   7.202 -11.293  1.00  0.00     0.022 A 
BRANCH 102 105
ATOM    105  S   UNL     1       2.593   9.608 -12.109  1.00  0.00     0.127 S 
ATOM    106  O   UNL     1       3.667  10.424 -11.547  1.00  0.00    -0.237 OA
ATOM    107  O   UNL     1       2.875   9.051 -13.433  1.00  0.00    -0.237 OA
ATOM    108  O   UNL     1       1.249  10.159 -11.973  1.00  0.00    -0.744 OA
ENDBRANCH 102 105
ENDBRANCH  75  98
ENDBRANCH  49  50
ENDBRANCH  42  44
ENDBRANCH  41  42
ENDBRANCH  40  41
ENDBRANCH   1  40
TORSDOF 20
