REMARK SMILES COc1cc(Br)ccc1[C@H]([NH3+])C(=O)OCCOC(=O)c1ccc(-c2c3nc(c(-c4cccc(S(=O)(=O)[O-])c4F)c4ccc([nH]4)c(-c4cccc(S(=O)(=O)[O-])c4F)c4nc(c(-c5cccc(S(=O)(=O)[O-])c5F)c5ccc2[nH]5)C=C4)C=C3)cc1
REMARK SMILES IDX 16 1 15 2 14 3 12 4 13 5 10 6 9 7 3 8 4 9 5 10 8 11 6 12
REMARK SMILES IDX 7 13 2 14 1 15 11 16 17 20 18 21 19 22 20 23 21 24 82 25
REMARK SMILES IDX 22 26 81 27 23 28 24 29 25 30 75 31 26 32 80 33 74 34 76 35
REMARK SMILES IDX 27 36 79 37 73 38 72 39 28 41 60 42 40 43 59 44 41 45 44 46
REMARK SMILES IDX 58 47 77 48 42 49 43 50 57 52 78 53 45 54 29 55 30 56 38 57
REMARK SMILES IDX 31 58 33 59 39 60 32 61 34 62 35 63 36 64 37 65 61 66 62 67
REMARK SMILES IDX 70 68 63 69 65 70 71 71 64 72 66 73 67 74 68 75 69 76 46 77
REMARK SMILES IDX 47 78 55 79 48 80 50 81 56 82 49 83 51 84 52 85 53 86 54 87
REMARK H PARENT 11 17 11 18 11 19 76 40 44 51
REMARK Flexibility Score: inf
ROOT
ATOM      1  C   UNL     1      -1.268  -0.626  -7.152  1.00  0.00     0.275 C 
ENDROOT
BRANCH   1   2
ATOM      2  C   UNL     1      -2.253   0.494  -6.796  1.00  0.00     0.274 C 
BRANCH   2   3
ATOM      3  O   UNL     1      -1.800   1.246  -5.660  1.00  0.00    -0.457 OA
BRANCH   3   4
ATOM      4  C   UNL     1      -2.309   0.899  -4.442  1.00  0.00     0.370 C 
ATOM      5  O   UNL     1      -3.203   0.073  -4.285  1.00  0.00    -0.245 OA
BRANCH   4   6
ATOM      6  C   UNL     1      -1.609   1.636  -3.266  1.00  0.00     0.326 C 
BRANCH   6   7
ATOM      7  C   UNL     1      -2.439   2.751  -2.627  1.00  0.00     0.063 A 
ATOM      8  C   UNL     1      -1.871   3.726  -1.781  1.00  0.00     0.129 A 
ATOM      9  C   UNL     1      -2.651   4.749  -1.226  1.00  0.00     0.062 A 
ATOM     10  C   UNL     1      -4.027   4.755  -1.420  1.00  0.00     0.021 A 
ATOM     11  C   UNL     1      -3.844   2.759  -2.757  1.00  0.00     0.015 A 
ATOM     12  Br  UNL     1      -5.082   6.125  -0.659  1.00  0.00    -0.051 Br
ATOM     13  C   UNL     1      -4.631   3.748  -2.161  1.00  0.00     0.016 A 
BRANCH   8  14
ATOM     14  O   UNL     1      -0.519   3.695  -1.533  1.00  0.00    -0.496 OA
ATOM     15  C   UNL     1      -0.220   3.607  -0.140  1.00  0.00     0.278 C 
ENDBRANCH   8  14
ENDBRANCH   6   7
BRANCH   6  16
ATOM     16  N   UNL     1      -0.254   2.061  -3.691  1.00  0.00    -0.342 N 
ATOM     17  H   UNL     1      -0.332   2.726  -4.460  1.00  0.00     0.345 HD
ATOM     18  H   UNL     1       0.277   1.246  -3.999  1.00  0.00     0.345 HD
ATOM     19  H   UNL     1       0.226   2.502  -2.906  1.00  0.00     0.345 HD
ENDBRANCH   6  16
ENDBRANCH   4   6
ENDBRANCH   3   4
ENDBRANCH   2   3
ENDBRANCH   1   2
BRANCH   1  20
ATOM     20  O   UNL     1      -1.326  -1.721  -6.218  1.00  0.00    -0.458 OA
BRANCH  20  21
ATOM     21  C   UNL     1      -0.507  -1.613  -5.146  1.00  0.00     0.338 C 
ATOM     22  O   UNL     1       0.286  -0.713  -4.913  1.00  0.00    -0.246 OA
BRANCH  21  23
ATOM     23  C   UNL     1      -0.805  -2.671  -4.165  1.00  0.00     0.060 A 
ATOM     24  C   UNL     1      -1.048  -2.268  -2.849  1.00  0.00     0.016 A 
ATOM     25  C   UNL     1      -0.773  -4.027  -4.493  1.00  0.00     0.016 A 
ATOM     26  C   UNL     1      -1.241  -3.212  -1.849  1.00  0.00     0.010 A 
ATOM     27  C   UNL     1      -0.968  -4.980  -3.485  1.00  0.00     0.010 A 
ATOM     28  C   UNL     1      -1.184  -4.576  -2.155  1.00  0.00    -0.014 A 
BRANCH  28  29
ATOM     29  C   UNL     1      -1.296  -5.558  -1.052  1.00  0.00     0.031 A 
ATOM     30  C   UNL     1      -0.069  -6.268  -0.555  1.00  0.00     0.074 A 
ATOM     31  C   UNL     1      -2.488  -5.769  -0.465  1.00  0.00     0.049 A 
ATOM     32  N   UNL     1       0.042  -7.147   0.406  1.00  0.00    -0.248 NA
ATOM     33  C   UNL     1       1.201  -5.945  -1.225  1.00  0.00     0.031 C 
ATOM     34  C   UNL     1      -3.743  -5.123  -0.852  1.00  0.00     0.029 A 
ATOM     35  N   UNL     1      -2.840  -6.587   0.578  1.00  0.00    -0.354 N 
ATOM     36  C   UNL     1       1.382  -7.510   0.435  1.00  0.00     0.074 A 
ATOM     37  C   UNL     1       2.047  -6.757  -0.607  1.00  0.00     0.031 C 
ATOM     38  C   UNL     1      -4.729  -5.575  -0.060  1.00  0.00     0.029 A 
ATOM     39  C   UNL     1      -4.183  -6.561   0.868  1.00  0.00     0.049 A 
ATOM     40  H   UNL     1      -2.192  -7.140   1.072  1.00  0.00     0.167 HD
ATOM     41  C   UNL     1       2.005  -8.379   1.266  1.00  0.00     0.034 A 
ATOM     42  C   UNL     1      -4.895  -7.266   1.769  1.00  0.00     0.034 A 
ATOM     43  C   UNL     1       1.348  -9.095   2.326  1.00  0.00     0.049 A 
ATOM     44  C   UNL     1      -4.177  -8.230   2.674  1.00  0.00     0.074 A 
ATOM     45  C   UNL     1       1.901  -9.968   3.247  1.00  0.00     0.029 A 
ATOM     46  N   UNL     1      -0.008  -9.025   2.607  1.00  0.00    -0.354 N 
ATOM     47  N   UNL     1      -2.894  -8.486   2.756  1.00  0.00    -0.248 NA
ATOM     48  C   UNL     1      -5.002  -8.986   3.628  1.00  0.00     0.031 C 
ATOM     49  C   UNL     1       0.877 -10.434   4.077  1.00  0.00     0.029 A 
ATOM     50  C   UNL     1      -0.313  -9.844   3.680  1.00  0.00     0.049 A 
ATOM     51  H   UNL     1      -0.658  -8.474   2.115  1.00  0.00     0.167 HD
ATOM     52  C   UNL     1      -2.754  -9.415   3.780  1.00  0.00     0.074 A 
ATOM     53  C   UNL     1      -4.081  -9.654   4.310  1.00  0.00     0.031 C 
ATOM     54  C   UNL     1      -1.632 -10.033   4.227  1.00  0.00     0.034 A 
BRANCH  41  55
ATOM     55  C   UNL     1       3.484  -8.580   1.080  1.00  0.00     0.023 A 
ATOM     56  C   UNL     1       4.381  -7.592   1.532  1.00  0.00     0.012 A 
ATOM     57  C   UNL     1       3.988  -9.762   0.504  1.00  0.00     0.148 A 
ATOM     58  C   UNL     1       5.757  -7.766   1.391  1.00  0.00     0.002 A 
ATOM     59  C   UNL     1       5.362  -9.944   0.399  1.00  0.00     0.091 A 
ATOM     60  F   UNL     1       3.117 -10.677   0.054  1.00  0.00    -0.205 F 
ATOM     61  C   UNL     1       6.247  -8.944   0.835  1.00  0.00     0.022 A 
BRANCH  59  62
ATOM     62  S   UNL     1       6.087 -11.456  -0.247  1.00  0.00     0.127 S 
ATOM     63  O   UNL     1       6.519 -11.031  -1.577  1.00  0.00    -0.237 OA
ATOM     64  O   UNL     1       7.176 -11.707   0.697  1.00  0.00    -0.237 OA
ATOM     65  O   UNL     1       5.023 -12.450  -0.218  1.00  0.00    -0.744 OA
ENDBRANCH  59  62
ENDBRANCH  41  55
BRANCH  42  66
ATOM     66  C   UNL     1      -6.365  -7.053   1.881  1.00  0.00     0.023 A 
ATOM     67  C   UNL     1      -6.890  -6.423   3.025  1.00  0.00     0.012 A 
ATOM     68  C   UNL     1      -7.240  -7.439   0.847  1.00  0.00     0.148 A 
ATOM     69  C   UNL     1      -8.262  -6.198   3.146  1.00  0.00     0.002 A 
ATOM     70  C   UNL     1      -8.598  -7.162   0.949  1.00  0.00     0.091 A 
ATOM     71  F   UNL     1      -6.726  -8.062  -0.223  1.00  0.00    -0.205 F 
ATOM     72  C   UNL     1      -9.114  -6.555   2.103  1.00  0.00     0.022 A 
BRANCH  70  73
ATOM     73  S   UNL     1      -9.737  -7.467  -0.407  1.00  0.00     0.127 S 
ATOM     74  O   UNL     1     -10.416  -8.680   0.039  1.00  0.00    -0.237 OA
ATOM     75  O   UNL     1     -10.562  -6.259  -0.394  1.00  0.00    -0.237 OA
ATOM     76  O   UNL     1      -8.899  -7.602  -1.591  1.00  0.00    -0.744 OA
ENDBRANCH  70  73
ENDBRANCH  42  66
BRANCH  54  77
ATOM     77  C   UNL     1      -1.787 -11.024   5.349  1.00  0.00     0.023 A 
ATOM     78  C   UNL     1      -2.344 -12.290   5.081  1.00  0.00     0.012 A 
ATOM     79  C   UNL     1      -1.322 -10.733   6.646  1.00  0.00     0.148 A 
ATOM     80  C   UNL     1      -2.460 -13.242   6.093  1.00  0.00     0.002 A 
ATOM     81  C   UNL     1      -1.403 -11.702   7.640  1.00  0.00     0.091 A 
ATOM     82  F   UNL     1      -0.816  -9.515   6.888  1.00  0.00    -0.205 F 
ATOM     83  C   UNL     1      -1.980 -12.953   7.368  1.00  0.00     0.022 A 
BRANCH  81  84
ATOM     84  S   UNL     1      -0.727 -11.440   9.284  1.00  0.00     0.127 S 
ATOM     85  O   UNL     1      -1.929 -11.133  10.056  1.00  0.00    -0.237 OA
ATOM     86  O   UNL     1      -0.122 -12.738   9.588  1.00  0.00    -0.237 OA
ATOM     87  O   UNL     1       0.232 -10.351   9.147  1.00  0.00    -0.744 OA
ENDBRANCH  81  84
ENDBRANCH  54  77
ENDBRANCH  28  29
ENDBRANCH  21  23
ENDBRANCH  20  21
ENDBRANCH   1  20
TORSDOF 17
