REMARK SMILES CC/C=C/C/C=C/C/C=C/C/C=C/CC/C=C/COCC(=O)OCCOC(=O)c1ccc(-c2c3nc(c(-c4cccc(S(=O)(=O)[O-])c4F)c4ccc([nH]4)c(-c4cccc(S(=O)(=O)[O-])c4F)c4nc(c(-c5cccc(S(=O)(=O)[O-])c5F)c5ccc2[nH]5)C=C4)C=C3)cc1
REMARK SMILES IDX 18 1 17 2 16 3 15 4 14 5 13 6 12 7 11 8 10 9 9 10 8 11 7 12
REMARK SMILES IDX 6 13 5 14 4 15 3 16 2 17 1 18 19 19 20 20 21 21 22 22 23 23
REMARK SMILES IDX 24 24 25 25 26 26 27 27 28 28 29 29 30 30 91 31 31 32 90 33
REMARK SMILES IDX 32 34 33 35 34 36 84 37 35 38 89 39 83 40 85 41 36 42 88 43
REMARK SMILES IDX 82 44 81 45 37 47 69 48 49 49 68 50 50 51 53 52 67 53 86 54
REMARK SMILES IDX 51 55 52 56 66 58 87 59 54 60 38 61 39 62 47 63 40 64 42 65
REMARK SMILES IDX 48 66 41 67 43 68 44 69 45 70 46 71 70 72 71 73 79 74 72 75
REMARK SMILES IDX 74 76 80 77 73 78 75 79 76 80 77 81 78 82 55 83 56 84 64 85
REMARK SMILES IDX 57 86 59 87 65 88 58 89 60 90 61 91 62 92 63 93
REMARK H PARENT 85 46 53 57
REMARK Flexibility Score: inf
ROOT
ATOM      1  C   UNL     1      -8.670 -11.475   9.514  1.00  0.00     0.188 C 
ENDROOT
BRANCH   1   2
ATOM      2  C   UNL     1      -9.077 -11.314   8.074  1.00  0.00    -0.003 C 
ATOM      3  C   UNL     1      -8.335 -10.546   7.269  1.00  0.00    -0.029 C 
BRANCH   3   4
ATOM      4  C   UNL     1      -8.780  -9.785   6.045  1.00  0.00     0.031 C 
BRANCH   4   5
ATOM      5  C   UNL     1      -9.113  -8.221   6.224  1.00  0.00     0.031 C 
BRANCH   5   6
ATOM      6  C   UNL     1      -8.262  -6.979   6.724  1.00  0.00    -0.031 C 
ATOM      7  C   UNL     1      -7.239  -6.280   6.155  1.00  0.00    -0.027 C 
BRANCH   7   8
ATOM      8  C   UNL     1      -6.478  -4.996   6.475  1.00  0.00     0.054 C 
BRANCH   8   9
ATOM      9  C   UNL     1      -4.944  -5.100   6.352  1.00  0.00    -0.027 C 
ATOM     10  C   UNL     1      -4.122  -4.694   5.348  1.00  0.00    -0.027 C 
BRANCH  10  11
ATOM     11  C   UNL     1      -2.591  -4.749   5.407  1.00  0.00     0.054 C 
BRANCH  11  12
ATOM     12  C   UNL     1      -1.868  -4.944   4.082  1.00  0.00    -0.027 C 
ATOM     13  C   UNL     1      -0.830  -4.186   3.658  1.00  0.00    -0.027 C 
BRANCH  13  14
ATOM     14  C   UNL     1      -0.015  -4.405   2.399  1.00  0.00     0.054 C 
BRANCH  14  15
ATOM     15  C   UNL     1      -0.227  -3.303   1.390  1.00  0.00    -0.027 C 
ATOM     16  C   UNL     1       0.737  -2.574   0.797  1.00  0.00    -0.031 C 
BRANCH  16  17
ATOM     17  C   UNL     1       0.455  -1.520  -0.243  1.00  0.00     0.023 C 
ATOM     18  C   UNL     1       0.977  -0.150   0.166  1.00  0.00     0.008 C 
ENDBRANCH  16  17
ENDBRANCH  14  15
ENDBRANCH  13  14
ENDBRANCH  11  12
ENDBRANCH  10  11
ENDBRANCH   8   9
ENDBRANCH   7   8
ENDBRANCH   5   6
ENDBRANCH   4   5
ENDBRANCH   3   4
ENDBRANCH   1   2
BRANCH   1  19
ATOM     19  O   UNL     1      -9.723 -11.050  10.389  1.00  0.00    -0.366 OA
BRANCH  19  20
ATOM     20  C   UNL     1     -10.413  -9.863  10.028  1.00  0.00     0.283 C 
BRANCH  20  21
ATOM     21  C   UNL     1      -9.866  -8.450  10.247  1.00  0.00     0.332 C 
ATOM     22  O   UNL     1     -10.290  -7.486   9.618  1.00  0.00    -0.250 OA
BRANCH  21  23
ATOM     23  O   UNL     1      -8.984  -8.379  11.278  1.00  0.00    -0.460 OA
BRANCH  23  24
ATOM     24  C   UNL     1      -8.555  -7.046  11.639  1.00  0.00     0.274 C 
BRANCH  24  25
ATOM     25  C   UNL     1      -7.026  -6.987  11.704  1.00  0.00     0.275 C 
BRANCH  25  26
ATOM     26  O   UNL     1      -6.492  -7.261  10.393  1.00  0.00    -0.458 OA
BRANCH  26  27
ATOM     27  C   UNL     1      -5.187  -7.621  10.285  1.00  0.00     0.338 C 
ATOM     28  O   UNL     1      -4.372  -7.644  11.213  1.00  0.00    -0.246 OA
BRANCH  27  29
ATOM     29  C   UNL     1      -4.884  -7.990   8.869  1.00  0.00     0.060 A 
ATOM     30  C   UNL     1      -5.903  -8.500   8.093  1.00  0.00     0.016 A 
ATOM     31  C   UNL     1      -3.643  -7.854   8.243  1.00  0.00     0.016 A 
ATOM     32  C   UNL     1      -5.718  -8.775   6.721  1.00  0.00     0.010 A 
ATOM     33  C   UNL     1      -3.501  -8.094   6.830  1.00  0.00     0.010 A 
ATOM     34  C   UNL     1      -4.577  -8.504   6.010  1.00  0.00    -0.014 A 
BRANCH  34  35
ATOM     35  C   UNL     1      -4.534  -8.794   4.505  1.00  0.00     0.031 A 
ATOM     36  C   UNL     1      -3.543  -9.819   4.067  1.00  0.00     0.074 A 
ATOM     37  C   UNL     1      -5.396  -8.463   3.492  1.00  0.00     0.049 A 
ATOM     38  N   UNL     1      -3.141 -10.115   2.863  1.00  0.00    -0.248 NA
ATOM     39  C   UNL     1      -3.021 -10.691   5.128  1.00  0.00     0.031 C 
ATOM     40  C   UNL     1      -6.763  -7.997   3.589  1.00  0.00     0.029 A 
ATOM     41  N   UNL     1      -5.229  -8.442   2.110  1.00  0.00    -0.354 N 
ATOM     42  C   UNL     1      -2.287 -11.183   3.020  1.00  0.00     0.074 A 
ATOM     43  C   UNL     1      -2.214 -11.476   4.437  1.00  0.00     0.031 C 
ATOM     44  C   UNL     1      -7.210  -7.474   2.442  1.00  0.00     0.029 A 
ATOM     45  C   UNL     1      -6.207  -7.717   1.434  1.00  0.00     0.049 A 
ATOM     46  H   UNL     1      -4.487  -8.898   1.651  1.00  0.00     0.167 HD
ATOM     47  C   UNL     1      -1.636 -11.881   2.069  1.00  0.00     0.034 A 
ATOM     48  C   UNL     1      -6.355  -7.313   0.154  1.00  0.00     0.034 A 
ATOM     49  C   UNL     1      -1.735 -11.672   0.655  1.00  0.00     0.049 A 
ATOM     50  C   UNL     1      -5.425  -7.878  -0.868  1.00  0.00     0.074 A 
ATOM     51  C   UNL     1      -1.016 -12.301  -0.344  1.00  0.00     0.029 A 
ATOM     52  N   UNL     1      -2.598 -10.787   0.031  1.00  0.00    -0.354 N 
ATOM     53  N   UNL     1      -4.526  -8.810  -0.699  1.00  0.00    -0.248 NA
ATOM     54  C   UNL     1      -5.580  -7.425  -2.257  1.00  0.00     0.031 C 
ATOM     55  C   UNL     1      -1.419 -11.775  -1.575  1.00  0.00     0.029 A 
ATOM     56  C   UNL     1      -2.405 -10.832  -1.343  1.00  0.00     0.049 A 
ATOM     57  H   UNL     1      -3.250 -10.213   0.492  1.00  0.00     0.167 HD
ATOM     58  C   UNL     1      -4.050  -9.106  -1.963  1.00  0.00     0.074 A 
ATOM     59  C   UNL     1      -4.759  -8.252  -2.894  1.00  0.00     0.031 C 
ATOM     60  C   UNL     1      -3.111 -10.019  -2.299  1.00  0.00     0.034 A 
BRANCH  47  61
ATOM     61  C   UNL     1      -0.674 -12.896   2.586  1.00  0.00     0.023 A 
ATOM     62  C   UNL     1      -1.125 -14.148   3.040  1.00  0.00     0.012 A 
ATOM     63  C   UNL     1       0.684 -12.549   2.681  1.00  0.00     0.148 A 
ATOM     64  C   UNL     1      -0.225 -15.042   3.612  1.00  0.00     0.002 A 
ATOM     65  C   UNL     1       1.579 -13.460   3.210  1.00  0.00     0.091 A 
ATOM     66  F   UNL     1       1.059 -11.320   2.299  1.00  0.00    -0.205 F 
ATOM     67  C   UNL     1       1.127 -14.703   3.686  1.00  0.00     0.022 A 
BRANCH  65  68
ATOM     68  S   UNL     1       3.335 -13.119   3.289  1.00  0.00     0.127 S 
ATOM     69  O   UNL     1       3.523 -12.875   4.718  1.00  0.00    -0.237 OA
ATOM     70  O   UNL     1       3.911 -14.371   2.799  1.00  0.00    -0.237 OA
ATOM     71  O   UNL     1       3.558 -11.970   2.422  1.00  0.00    -0.744 OA
ENDBRANCH  65  68
ENDBRANCH  47  61
BRANCH  48  72
ATOM     72  C   UNL     1      -7.476  -6.408  -0.264  1.00  0.00     0.023 A 
ATOM     73  C   UNL     1      -8.515  -6.900  -1.079  1.00  0.00     0.012 A 
ATOM     74  C   UNL     1      -7.492  -5.047   0.108  1.00  0.00     0.148 A 
ATOM     75  C   UNL     1      -9.527  -6.053  -1.541  1.00  0.00     0.002 A 
ATOM     76  C   UNL     1      -8.523  -4.215  -0.327  1.00  0.00     0.091 A 
ATOM     77  F   UNL     1      -6.482  -4.581   0.857  1.00  0.00    -0.205 F 
ATOM     78  C   UNL     1      -9.534  -4.714  -1.161  1.00  0.00     0.022 A 
BRANCH  76  79
ATOM     79  S   UNL     1      -8.659  -2.492   0.173  1.00  0.00     0.127 S 
ATOM     80  O   UNL     1      -8.296  -1.793  -1.058  1.00  0.00    -0.237 OA
ATOM     81  O   UNL     1     -10.071  -2.391   0.541  1.00  0.00    -0.237 OA
ATOM     82  O   UNL     1      -7.734  -2.334   1.287  1.00  0.00    -0.744 OA
ENDBRANCH  76  79
ENDBRANCH  48  72
BRANCH  60  83
ATOM     83  C   UNL     1      -2.776 -10.164  -3.755  1.00  0.00     0.023 A 
ATOM     84  C   UNL     1      -2.059  -9.142  -4.407  1.00  0.00     0.012 A 
ATOM     85  C   UNL     1      -3.119 -11.332  -4.462  1.00  0.00     0.148 A 
ATOM     86  C   UNL     1      -1.714  -9.266  -5.751  1.00  0.00     0.002 A 
ATOM     87  C   UNL     1      -2.730 -11.470  -5.789  1.00  0.00     0.091 A 
ATOM     88  F   UNL     1      -3.822 -12.281  -3.829  1.00  0.00    -0.205 F 
ATOM     89  C   UNL     1      -2.038 -10.434  -6.438  1.00  0.00     0.022 A 
BRANCH  87  90
ATOM     90  S   UNL     1      -3.024 -12.971  -6.729  1.00  0.00     0.127 S 
ATOM     91  O   UNL     1      -4.052 -12.536  -7.673  1.00  0.00    -0.237 OA
ATOM     92  O   UNL     1      -1.713 -13.223  -7.327  1.00  0.00    -0.237 OA
ATOM     93  O   UNL     1      -3.450 -13.975  -5.762  1.00  0.00    -0.744 OA
ENDBRANCH  87  90
ENDBRANCH  60  83
ENDBRANCH  34  35
ENDBRANCH  27  29
ENDBRANCH  26  27
ENDBRANCH  25  26
ENDBRANCH  24  25
ENDBRANCH  23  24
ENDBRANCH  21  23
ENDBRANCH  20  21
ENDBRANCH  19  20
ENDBRANCH   1  19
TORSDOF 27
