REMARK SMILES CC[NH+]1CCC2(CC1)OC[C@H](C(=O)OCCOC(=O)c1ccc(-c3c4nc(c(-c5cccc(S(=O)(=O)[O-])c5F)c5ccc([nH]5)c(-c5cccc(S(=O)(=O)[O-])c5F)c5nc(c(-c6cccc(S(=O)(=O)[O-])c6F)c6ccc3[nH]6)C=C5)C=C4)cc1)N2C(=O)c1ccccc1
REMARK SMILES IDX 16 1 15 2 14 3 12 4 13 5 11 6 3 7 4 8 8 9 5 11 7 12 6 13
REMARK SMILES IDX 9 14 83 15 10 16 2 17 1 18 84 19 85 20 86 21 87 22 91 23
REMARK SMILES IDX 88 24 90 25 89 26 17 27 18 28 19 29 20 30 21 31 82 32 22 33
REMARK SMILES IDX 81 34 23 35 24 36 25 37 75 38 26 39 80 40 74 41 76 42 27 43
REMARK SMILES IDX 79 44 73 45 72 46 28 48 60 49 40 50 59 51 41 52 44 53 58 54
REMARK SMILES IDX 77 55 42 56 43 57 57 59 78 60 45 61 29 62 30 63 38 64 31 65
REMARK SMILES IDX 33 66 39 67 32 68 34 69 35 70 36 71 37 72 61 73 62 74 70 75
REMARK SMILES IDX 63 76 65 77 71 78 64 79 66 80 67 81 68 82 69 83 46 84 47 85
REMARK SMILES IDX 55 86 48 87 50 88 56 89 49 90 51 91 52 92 53 93 54 94
REMARK H PARENT 3 10 76 47 44 58
REMARK Flexibility Score: inf
ROOT
ATOM      1  C   UNL     1      -2.509   8.483   1.521  1.00  0.00     0.275 C 
ENDROOT
BRANCH   1   2
ATOM      2  C   UNL     1      -2.569   6.970   1.284  1.00  0.00     0.274 C 
BRANCH   2   3
ATOM      3  O   UNL     1      -2.424   6.230   2.514  1.00  0.00    -0.460 OA
BRANCH   3   4
ATOM      4  C   UNL     1      -1.204   5.663   2.727  1.00  0.00     0.331 C 
ATOM      5  O   UNL     1      -0.265   5.754   1.942  1.00  0.00    -0.250 OA
BRANCH   4   6
ATOM      6  C   UNL     1      -1.112   4.929   4.077  1.00  0.00     0.224 C 
ATOM      7  N   UNL     1       0.387   0.620   1.795  1.00  0.00    -0.335 N 
ATOM      8  C   UNL     1      -0.043   1.893   1.243  1.00  0.00     0.267 C 
ATOM      9  C   UNL     1       0.369   0.446   3.241  1.00  0.00     0.267 C 
ATOM     10  H   UNL     1       1.392   0.731   1.659  1.00  0.00     0.348 HD
ATOM     11  C   UNL     1      -1.208   2.504   1.975  1.00  0.00     0.120 C 
ATOM     12  C   UNL     1      -0.617   1.274   4.066  1.00  0.00     0.120 C 
ATOM     13  C   UNL     1      -0.971   2.636   3.481  1.00  0.00     0.155 C 
ATOM     14  O   UNL     1      -2.327   2.918   3.985  1.00  0.00    -0.352 OA
ATOM     15  N   UNL     1      -0.200   3.800   3.936  1.00  0.00    -0.293 N 
ATOM     16  C   UNL     1      -2.370   4.247   4.527  1.00  0.00     0.200 C 
BRANCH   7  17
ATOM     17  C   UNL     1       0.078  -0.562   1.008  1.00  0.00     0.258 C 
ATOM     18  C   UNL     1       0.840  -0.573  -0.316  1.00  0.00     0.071 C 
ENDBRANCH   7  17
BRANCH  15  19
ATOM     19  C   UNL     1       1.114   4.002   4.334  1.00  0.00     0.256 C 
ATOM     20  O   UNL     1       1.441   4.974   5.017  1.00  0.00    -0.269 OA
BRANCH  19  21
ATOM     21  C   UNL     1       2.208   3.080   4.016  1.00  0.00     0.040 A 
ATOM     22  C   UNL     1       2.806   2.348   5.049  1.00  0.00     0.014 A 
ATOM     23  C   UNL     1       2.782   3.086   2.744  1.00  0.00     0.014 A 
ATOM     24  C   UNL     1       3.895   1.518   4.771  1.00  0.00     0.001 A 
ATOM     25  C   UNL     1       3.855   2.237   2.462  1.00  0.00     0.001 A 
ATOM     26  C   UNL     1       4.400   1.442   3.471  1.00  0.00     0.000 A 
ENDBRANCH  19  21
ENDBRANCH  15  19
ENDBRANCH   4   6
ENDBRANCH   3   4
ENDBRANCH   2   3
ENDBRANCH   1   2
BRANCH   1  27
ATOM     27  O   UNL     1      -1.204   8.912   1.946  1.00  0.00    -0.458 OA
BRANCH  27  28
ATOM     28  C   UNL     1      -0.997   8.882   3.281  1.00  0.00     0.338 C 
ATOM     29  O   UNL     1      -1.812   8.569   4.145  1.00  0.00    -0.246 OA
BRANCH  28  30
ATOM     30  C   UNL     1       0.426   9.091   3.567  1.00  0.00     0.060 A 
ATOM     31  C   UNL     1       1.137   8.006   4.073  1.00  0.00     0.016 A 
ATOM     32  C   UNL     1       1.053  10.324   3.402  1.00  0.00     0.016 A 
ATOM     33  C   UNL     1       2.472   8.126   4.424  1.00  0.00     0.010 A 
ATOM     34  C   UNL     1       2.406  10.448   3.744  1.00  0.00     0.010 A 
ATOM     35  C   UNL     1       3.120   9.348   4.256  1.00  0.00    -0.014 A 
BRANCH  35  36
ATOM     36  C   UNL     1       4.545   9.466   4.634  1.00  0.00     0.031 A 
ATOM     37  C   UNL     1       4.928  10.246   5.853  1.00  0.00     0.074 A 
ATOM     38  C   UNL     1       5.481   8.855   3.884  1.00  0.00     0.049 A 
ATOM     39  N   UNL     1       6.116  10.594   6.269  1.00  0.00    -0.248 NA
ATOM     40  C   UNL     1       3.828  10.694   6.723  1.00  0.00     0.031 C 
ATOM     41  C   UNL     1       5.211   8.009   2.720  1.00  0.00     0.029 A 
ATOM     42  N   UNL     1       6.850   8.870   3.976  1.00  0.00    -0.354 N 
ATOM     43  C   UNL     1       5.909  11.340   7.421  1.00  0.00     0.074 A 
ATOM     44  C   UNL     1       4.480  11.387   7.647  1.00  0.00     0.031 C 
ATOM     45  C   UNL     1       6.377   7.607   2.190  1.00  0.00     0.029 A 
ATOM     46  C   UNL     1       7.471   8.216   2.938  1.00  0.00     0.049 A 
ATOM     47  H   UNL     1       7.338   9.305   4.711  1.00  0.00     0.167 HD
ATOM     48  C   UNL     1       6.832  11.926   8.217  1.00  0.00     0.034 A 
ATOM     49  C   UNL     1       8.774   8.159   2.601  1.00  0.00     0.034 A 
ATOM     50  C   UNL     1       8.251  11.836   7.998  1.00  0.00     0.049 A 
ATOM     51  C   UNL     1       9.773   8.883   3.462  1.00  0.00     0.074 A 
ATOM     52  C   UNL     1       9.274  12.373   8.758  1.00  0.00     0.029 A 
ATOM     53  N   UNL     1       8.845  11.166   6.939  1.00  0.00    -0.354 N 
ATOM     54  N   UNL     1       9.575   9.543   4.578  1.00  0.00    -0.248 NA
ATOM     55  C   UNL     1      11.175   8.851   3.023  1.00  0.00     0.031 C 
ATOM     56  C   UNL     1      10.488  12.047   8.143  1.00  0.00     0.029 A 
ATOM     57  C   UNL     1      10.221  11.293   7.011  1.00  0.00     0.049 A 
ATOM     58  H   UNL     1       8.359  10.674   6.239  1.00  0.00     0.167 HD
ATOM     59  C   UNL     1      10.825   9.991   4.984  1.00  0.00     0.074 A 
ATOM     60  C   UNL     1      11.779   9.502   4.009  1.00  0.00     0.031 C 
ATOM     61  C   UNL     1      11.154  10.758   6.053  1.00  0.00     0.034 A 
BRANCH  48  62
ATOM     62  C   UNL     1       6.340  12.708   9.403  1.00  0.00     0.023 A 
ATOM     63  C   UNL     1       5.877  12.027  10.546  1.00  0.00     0.012 A 
ATOM     64  C   UNL     1       6.387  14.116   9.406  1.00  0.00     0.148 A 
ATOM     65  C   UNL     1       5.447  12.736  11.668  1.00  0.00     0.002 A 
ATOM     66  C   UNL     1       5.990  14.815  10.541  1.00  0.00     0.091 A 
ATOM     67  F   UNL     1       6.807  14.744   8.299  1.00  0.00    -0.205 F 
ATOM     68  C   UNL     1       5.513  14.127  11.669  1.00  0.00     0.022 A 
BRANCH  66  69
ATOM     69  S   UNL     1       6.097  16.604  10.663  1.00  0.00     0.127 S 
ATOM     70  O   UNL     1       4.686  16.987  10.627  1.00  0.00    -0.237 OA
ATOM     71  O   UNL     1       6.745  16.787  11.962  1.00  0.00    -0.237 OA
ATOM     72  O   UNL     1       6.891  17.039   9.522  1.00  0.00    -0.744 OA
ENDBRANCH  66  69
ENDBRANCH  48  62
BRANCH  49  73
ATOM     73  C   UNL     1       9.200   7.404   1.389  1.00  0.00     0.023 A 
ATOM     74  C   UNL     1       9.970   6.235   1.536  1.00  0.00     0.012 A 
ATOM     75  C   UNL     1       8.827   7.820   0.095  1.00  0.00     0.148 A 
ATOM     76  C   UNL     1      10.379   5.507   0.418  1.00  0.00     0.002 A 
ATOM     77  C   UNL     1       9.189   7.059  -1.011  1.00  0.00     0.091 A 
ATOM     78  F   UNL     1       8.117   8.951  -0.031  1.00  0.00    -0.205 F 
ATOM     79  C   UNL     1       9.979   5.911  -0.853  1.00  0.00     0.022 A 
BRANCH  77  80
ATOM     80  S   UNL     1       8.602   7.438  -2.667  1.00  0.00     0.127 S 
ATOM     81  O   UNL     1       9.794   8.015  -3.283  1.00  0.00    -0.237 OA
ATOM     82  O   UNL     1       8.229   6.115  -3.170  1.00  0.00    -0.237 OA
ATOM     83  O   UNL     1       7.476   8.345  -2.483  1.00  0.00    -0.744 OA
ENDBRANCH  77  80
ENDBRANCH  49  73
BRANCH  61  84
ATOM     84  C   UNL     1      12.606  11.112   6.231  1.00  0.00     0.023 A 
ATOM     85  C   UNL     1      13.183  12.094   5.403  1.00  0.00     0.012 A 
ATOM     86  C   UNL     1      13.367  10.544   7.271  1.00  0.00     0.148 A 
ATOM     87  C   UNL     1      14.505  12.492   5.593  1.00  0.00     0.002 A 
ATOM     88  C   UNL     1      14.670  10.977   7.482  1.00  0.00     0.091 A 
ATOM     89  F   UNL     1      12.800   9.600   8.037  1.00  0.00    -0.205 F 
ATOM     90  C   UNL     1      15.243  11.943   6.639  1.00  0.00     0.022 A 
BRANCH  88  91
ATOM     91  S   UNL     1      15.671  10.397   8.857  1.00  0.00     0.127 S 
ATOM     92  O   UNL     1      16.689   9.604   8.170  1.00  0.00    -0.237 OA
ATOM     93  O   UNL     1      16.160  11.650   9.434  1.00  0.00    -0.237 OA
ATOM     94  O   UNL     1      14.773   9.642   9.720  1.00  0.00    -0.744 OA
ENDBRANCH  88  91
ENDBRANCH  61  84
ENDBRANCH  35  36
ENDBRANCH  28  30
ENDBRANCH  27  28
ENDBRANCH   1  27
TORSDOF 17
