REMARK SMILES CS(=O)(=O)c1ccc(-n2nc(C(F)(F)F)cc2-c2ccc(CC(=O)OCCOC(=O)c3ccc(-c4c5nc(c(-c6cccc(S(=O)(=O)[O-])c6F)c6ccc([nH]6)c(-c6cccc(S(=O)(=O)[O-])c6F)c6nc(c(-c7cccc(S(=O)(=O)[O-])c7F)c7ccc4[nH]7)C=C6)C=C5)cc3)cc2)cc1
REMARK SMILES IDX 26 1 25 2 23 3 24 4 22 5 21 6 18 7 19 8 95 9 20 10 94 11
REMARK SMILES IDX 17 12 9 13 10 14 11 15 16 16 8 17 5 18 6 19 97 20 7 21 96 22
REMARK SMILES IDX 2 23 1 24 3 25 4 26 12 27 13 28 14 29 15 30 27 31 28 32
REMARK SMILES IDX 29 33 30 34 31 35 32 36 93 37 33 38 92 39 34 40 35 41 36 42
REMARK SMILES IDX 86 43 37 44 91 45 85 46 87 47 38 48 90 49 84 50 83 51 39 53
REMARK SMILES IDX 71 54 51 55 70 56 52 57 55 58 69 59 88 60 53 61 54 62 68 64
REMARK SMILES IDX 89 65 56 66 40 67 41 68 49 69 42 70 44 71 50 72 43 73 45 74
REMARK SMILES IDX 46 75 47 76 48 77 72 78 73 79 81 80 74 81 76 82 82 83 75 84
REMARK SMILES IDX 77 85 78 86 79 87 80 88 57 89 58 90 66 91 59 92 61 93 67 94
REMARK SMILES IDX 60 95 62 96 63 97 64 98 65 99
REMARK H PARENT 87 52 55 63
REMARK Flexibility Score: inf
ROOT
ATOM      1  C   UNL     1       6.400   0.121   2.287  1.00  0.00     0.274 C 
ENDROOT
BRANCH   1   2
ATOM      2  O   UNL     1       6.453   1.475   2.789  1.00  0.00    -0.462 OA
BRANCH   2   3
ATOM      3  C   UNL     1       7.642   2.119   2.627  1.00  0.00     0.310 C 
ATOM      4  O   UNL     1       8.651   1.586   2.171  1.00  0.00    -0.252 OA
BRANCH   3   5
ATOM      5  C   UNL     1       7.678   3.533   3.170  1.00  0.00     0.158 C 
BRANCH   5   6
ATOM      6  C   UNL     1       6.419   4.368   3.121  1.00  0.00    -0.037 A 
ATOM      7  C   UNL     1       4.075   5.938   2.973  1.00  0.00     0.000 A 
ATOM      8  C   UNL     1       4.923   5.835   1.872  1.00  0.00     0.010 A 
ATOM      9  C   UNL     1       4.427   5.292   4.164  1.00  0.00     0.010 A 
ATOM     10  C   UNL     1       6.092   5.081   1.962  1.00  0.00     0.005 A 
ATOM     11  C   UNL     1       5.578   4.494   4.230  1.00  0.00     0.005 A 
BRANCH   7  12
ATOM     12  C   UNL     1       2.847   6.719   2.870  1.00  0.00     0.075 A 
ATOM     13  N   UNL     1       1.777   6.443   2.021  1.00  0.00    -0.233 N 
ATOM     14  N   UNL     1       0.900   7.483   1.973  1.00  0.00    -0.163 NA
ATOM     15  C   UNL     1       1.331   8.360   2.897  1.00  0.00     0.167 A 
ATOM     16  C   UNL     1       2.556   7.932   3.460  1.00  0.00     0.064 A 
BRANCH  13  17
ATOM     17  C   UNL     1       1.473   5.243   1.318  1.00  0.00     0.065 A 
ATOM     18  C   UNL     1       0.794   2.892  -0.034  1.00  0.00     0.067 A 
ATOM     19  C   UNL     1       1.517   2.818   1.156  1.00  0.00     0.022 A 
ATOM     20  C   UNL     1       0.411   4.132  -0.557  1.00  0.00     0.022 A 
ATOM     21  C   UNL     1       1.863   3.995   1.825  1.00  0.00     0.030 A 
ATOM     22  C   UNL     1       0.730   5.307   0.130  1.00  0.00     0.030 A 
BRANCH  18  23
ATOM     23  S   UNL     1       0.301   1.438  -0.927  1.00  0.00     0.175 S 
ATOM     24  C   UNL     1       1.070   0.049  -0.144  1.00  0.00     0.163 C 
ATOM     25  O   UNL     1       0.869   1.558  -2.252  1.00  0.00    -0.224 OA
ATOM     26  O   UNL     1      -1.131   1.305  -0.719  1.00  0.00    -0.224 OA
ENDBRANCH  18  23
ENDBRANCH  13  17
BRANCH  15  27
ATOM     27  C   UNL     1       0.576   9.611   3.254  1.00  0.00     0.435 C 
ATOM     28  F   UNL     1       0.171  10.330   2.177  1.00  0.00    -0.164 F 
ATOM     29  F   UNL     1      -0.535   9.336   3.993  1.00  0.00    -0.164 F 
ATOM     30  F   UNL     1       1.331  10.451   4.018  1.00  0.00    -0.164 F 
ENDBRANCH  15  27
ENDBRANCH   7  12
ENDBRANCH   5   6
ENDBRANCH   3   5
ENDBRANCH   2   3
ENDBRANCH   1   2
BRANCH   1  31
ATOM     31  C   UNL     1       5.903   0.013   0.844  1.00  0.00     0.275 C 
BRANCH  31  32
ATOM     32  O   UNL     1       6.766   0.663  -0.088  1.00  0.00    -0.458 OA
BRANCH  32  33
ATOM     33  C   UNL     1       6.448   1.964  -0.257  1.00  0.00     0.338 C 
ATOM     34  O   UNL     1       5.688   2.624   0.431  1.00  0.00    -0.246 OA
BRANCH  33  35
ATOM     35  C   UNL     1       6.967   2.481  -1.517  1.00  0.00     0.060 A 
ATOM     36  C   UNL     1       7.173   3.862  -1.608  1.00  0.00     0.016 A 
ATOM     37  C   UNL     1       6.845   1.669  -2.645  1.00  0.00     0.016 A 
ATOM     38  C   UNL     1       7.063   4.474  -2.834  1.00  0.00     0.010 A 
ATOM     39  C   UNL     1       6.740   2.280  -3.872  1.00  0.00     0.010 A 
ATOM     40  C   UNL     1       6.772   3.678  -3.937  1.00  0.00    -0.014 A 
BRANCH  40  41
ATOM     41  C   UNL     1       6.544   4.332  -5.206  1.00  0.00     0.031 A 
ATOM     42  C   UNL     1       7.776   4.799  -5.882  1.00  0.00     0.074 A 
ATOM     43  C   UNL     1       5.325   4.309  -5.774  1.00  0.00     0.049 A 
ATOM     44  N   UNL     1       8.041   5.982  -6.328  1.00  0.00    -0.248 NA
ATOM     45  C   UNL     1       8.903   3.856  -5.962  1.00  0.00     0.031 C 
ATOM     46  C   UNL     1       4.133   3.613  -5.278  1.00  0.00     0.029 A 
ATOM     47  N   UNL     1       4.955   4.724  -7.018  1.00  0.00    -0.354 N 
ATOM     48  C   UNL     1       9.286   5.869  -6.940  1.00  0.00     0.074 A 
ATOM     49  C   UNL     1       9.844   4.611  -6.523  1.00  0.00     0.031 C 
ATOM     50  C   UNL     1       3.293   3.403  -6.313  1.00  0.00     0.029 A 
ATOM     51  C   UNL     1       3.847   4.034  -7.499  1.00  0.00     0.049 A 
ATOM     52  H   UNL     1       5.420   5.432  -7.519  1.00  0.00     0.167 HD
ATOM     53  C   UNL     1       9.668   6.694  -7.949  1.00  0.00     0.034 A 
ATOM     54  C   UNL     1       3.490   3.887  -8.797  1.00  0.00     0.034 A 
ATOM     55  C   UNL     1       8.849   7.870  -8.033  1.00  0.00     0.049 A 
ATOM     56  C   UNL     1       4.198   4.926  -9.582  1.00  0.00     0.074 A 
ATOM     57  C   UNL     1       8.536   8.903  -7.172  1.00  0.00     0.029 A 
ATOM     58  N   UNL     1       7.923   7.920  -9.045  1.00  0.00    -0.354 N 
ATOM     59  N   UNL     1       3.937   6.201  -9.499  1.00  0.00    -0.248 NA
ATOM     60  C   UNL     1       5.486   4.594 -10.173  1.00  0.00     0.031 C 
ATOM     61  C   UNL     1       7.184   9.234  -7.469  1.00  0.00     0.029 A 
ATOM     62  C   UNL     1       6.759   8.405  -8.510  1.00  0.00     0.049 A 
ATOM     63  H   UNL     1       8.068   7.655  -9.982  1.00  0.00     0.167 HD
ATOM     64  C   UNL     1       5.179   6.817  -9.592  1.00  0.00     0.074 A 
ATOM     65  C   UNL     1       6.066   5.798 -10.146  1.00  0.00     0.031 C 
ATOM     66  C   UNL     1       5.439   7.985  -8.929  1.00  0.00     0.034 A 
BRANCH  53  67
ATOM     67  C   UNL     1      10.572   6.275  -9.077  1.00  0.00     0.023 A 
ATOM     68  C   UNL     1      11.113   7.290  -9.893  1.00  0.00     0.012 A 
ATOM     69  C   UNL     1      10.707   4.942  -9.528  1.00  0.00     0.148 A 
ATOM     70  C   UNL     1      11.733   6.993 -11.111  1.00  0.00     0.002 A 
ATOM     71  C   UNL     1      11.406   4.646 -10.691  1.00  0.00     0.091 A 
ATOM     72  F   UNL     1      10.041   3.955  -8.918  1.00  0.00    -0.205 F 
ATOM     73  C   UNL     1      11.896   5.670 -11.503  1.00  0.00     0.022 A 
BRANCH  71  74
ATOM     74  S   UNL     1      11.702   2.943 -11.177  1.00  0.00     0.127 S 
ATOM     75  O   UNL     1      10.632   2.721 -12.144  1.00  0.00    -0.237 OA
ATOM     76  O   UNL     1      13.048   3.016 -11.746  1.00  0.00    -0.237 OA
ATOM     77  O   UNL     1      11.625   2.180  -9.936  1.00  0.00    -0.744 OA
ENDBRANCH  71  74
ENDBRANCH  53  67
BRANCH  54  78
ATOM     78  C   UNL     1       2.741   2.778  -9.430  1.00  0.00     0.023 A 
ATOM     79  C   UNL     1       2.073   2.997 -10.649  1.00  0.00     0.012 A 
ATOM     80  C   UNL     1       2.844   1.448  -8.959  1.00  0.00     0.148 A 
ATOM     81  C   UNL     1       1.531   1.931 -11.376  1.00  0.00     0.002 A 
ATOM     82  C   UNL     1       2.280   0.394  -9.671  1.00  0.00     0.091 A 
ATOM     83  F   UNL     1       3.576   1.200  -7.864  1.00  0.00    -0.205 F 
ATOM     84  C   UNL     1       1.630   0.631 -10.887  1.00  0.00     0.022 A 
BRANCH  82  85
ATOM     85  S   UNL     1       2.374  -1.305  -9.087  1.00  0.00     0.127 S 
ATOM     86  O   UNL     1       1.023  -1.800  -9.357  1.00  0.00    -0.237 OA
ATOM     87  O   UNL     1       3.413  -1.865  -9.946  1.00  0.00    -0.237 OA
ATOM     88  O   UNL     1       2.702  -1.218  -7.669  1.00  0.00    -0.744 OA
ENDBRANCH  82  85
ENDBRANCH  54  78
BRANCH  66  89
ATOM     89  C   UNL     1       4.279   8.721  -8.297  1.00  0.00     0.023 A 
ATOM     90  C   UNL     1       3.478   8.122  -7.302  1.00  0.00     0.012 A 
ATOM     91  C   UNL     1       4.114  10.092  -8.559  1.00  0.00     0.148 A 
ATOM     92  C   UNL     1       2.514   8.857  -6.610  1.00  0.00     0.002 A 
ATOM     93  C   UNL     1       3.190  10.835  -7.830  1.00  0.00     0.091 A 
ATOM     94  F   UNL     1       4.887  10.660  -9.497  1.00  0.00    -0.205 F 
ATOM     95  C   UNL     1       2.379  10.218  -6.864  1.00  0.00     0.022 A 
BRANCH  93  96
ATOM     96  S   UNL     1       3.078  12.617  -8.007  1.00  0.00     0.127 S 
ATOM     97  O   UNL     1       1.929  12.768  -8.896  1.00  0.00    -0.237 OA
ATOM     98  O   UNL     1       2.848  13.062  -6.630  1.00  0.00    -0.237 OA
ATOM     99  O   UNL     1       4.362  13.039  -8.554  1.00  0.00    -0.744 OA
ENDBRANCH  93  96
ENDBRANCH  66  89
ENDBRANCH  40  41
ENDBRANCH  33  35
ENDBRANCH  32  33
ENDBRANCH  31  32
ENDBRANCH   1  31
TORSDOF 19
