REMARK SMILES Nc1nc(N2CCCCC2)nc2c1[C@H](C(=O)OCCOC(=O)c1ccc(-c3c4nc(c(-c5cccc(S(=O)(=O)[O-])c5F)c5ccc([nH]5)c(-c5cccc(S(=O)(=O)[O-])c5F)c5nc(c(-c6cccc(S(=O)(=O)[O-])c6F)c6ccc3[nH]6)C=C5)C=C4)cc1)CC(=O)N2
REMARK SMILES IDX 19 1 18 2 17 3 15 4 16 5 14 6 2 7 3 8 13 9 4 10 12 11 11 12
REMARK SMILES IDX 89 13 86 14 87 15 88 17 1 18 5 21 6 22 10 23 7 24 9 25 8 26
REMARK SMILES IDX 20 27 21 28 22 29 23 30 24 31 85 32 25 33 84 34 26 35 27 36
REMARK SMILES IDX 28 37 78 38 29 39 83 40 77 41 79 42 30 43 82 44 76 45 75 46
REMARK SMILES IDX 31 48 63 49 43 50 62 51 44 52 47 53 61 54 80 55 45 56 46 57
REMARK SMILES IDX 60 59 81 60 48 61 32 62 33 63 41 64 34 65 36 66 42 67 35 68
REMARK SMILES IDX 37 69 38 70 39 71 40 72 64 73 65 74 73 75 66 76 68 77 74 78
REMARK SMILES IDX 67 79 69 80 70 81 71 82 72 83 49 84 50 85 58 86 51 87 53 88
REMARK SMILES IDX 59 89 52 90 54 91 55 92 56 93 57 94
REMARK H PARENT 89 16 1 19 1 20 79 47 47 58
REMARK Flexibility Score: inf
ROOT
ATOM      1  C   UNL     1      -3.184  -0.162  -2.344  1.00  0.00     0.275 C 
ENDROOT
BRANCH   1   2
ATOM      2  C   UNL     1      -3.465  -1.288  -1.357  1.00  0.00     0.274 C 
BRANCH   2   3
ATOM      3  O   UNL     1      -2.997  -0.939  -0.036  1.00  0.00    -0.462 OA
BRANCH   3   4
ATOM      4  C   UNL     1      -1.863  -1.554   0.396  1.00  0.00     0.314 C 
ATOM      5  O   UNL     1      -1.176  -2.316  -0.274  1.00  0.00    -0.252 OA
BRANCH   4   6
ATOM      6  C   UNL     1      -1.546  -1.228   1.842  1.00  0.00     0.146 C 
ATOM      7  C   UNL     1       0.230   0.587   1.864  1.00  0.00     0.135 A 
ATOM      8  N   UNL     1       0.605   1.851   2.060  1.00  0.00    -0.196 NA
ATOM      9  C   UNL     1      -1.068   0.174   2.046  1.00  0.00     0.052 A 
ATOM     10  C   UNL     1      -0.319   2.747   2.429  1.00  0.00     0.229 A 
ATOM     11  C   UNL     1      -1.942   1.161   2.443  1.00  0.00     0.144 A 
ATOM     12  N   UNL     1      -1.606   2.444   2.627  1.00  0.00    -0.195 NA
ATOM     13  N   UNL     1      -3.264   0.825   2.717  1.00  0.00    -0.310 N 
ATOM     14  C   UNL     1      -2.735  -1.567   2.730  1.00  0.00     0.120 C 
ATOM     15  C   UNL     1      -3.748  -0.448   2.795  1.00  0.00     0.226 C 
ATOM     16  H   UNL     1      -3.900   1.562   2.866  1.00  0.00     0.171 HD
ATOM     17  O   UNL     1      -4.937  -0.670   3.014  1.00  0.00    -0.275 OA
BRANCH   7  18
ATOM     18  N   UNL     1       1.256  -0.292   1.590  1.00  0.00    -0.383 N 
ATOM     19  H   UNL     1       2.173   0.044   1.466  1.00  0.00     0.158 HD
ATOM     20  H   UNL     1       1.072  -1.257   1.517  1.00  0.00     0.158 HD
ENDBRANCH   7  18
BRANCH  10  21
ATOM     21  N   UNL     1       0.141   3.999   2.723  1.00  0.00    -0.341 N 
ATOM     22  C   UNL     1       0.014   5.053   1.740  1.00  0.00     0.119 C 
ATOM     23  C   UNL     1       0.296   4.360   4.114  1.00  0.00     0.119 C 
ATOM     24  C   UNL     1       1.247   5.955   1.839  1.00  0.00     0.022 C 
ATOM     25  C   UNL     1       1.548   5.228   4.245  1.00  0.00     0.022 C 
ATOM     26  C   UNL     1       1.508   6.414   3.278  1.00  0.00     0.004 C 
ENDBRANCH  10  21
ENDBRANCH   4   6
ENDBRANCH   3   4
ENDBRANCH   2   3
ENDBRANCH   1   2
BRANCH   1  27
ATOM     27  O   UNL     1      -1.764  -0.005  -2.468  1.00  0.00    -0.458 OA
BRANCH  27  28
ATOM     28  C   UNL     1      -1.278   1.240  -2.270  1.00  0.00     0.338 C 
ATOM     29  O   UNL     1      -1.928   2.261  -2.091  1.00  0.00    -0.246 OA
BRANCH  28  30
ATOM     30  C   UNL     1       0.197   1.203  -2.293  1.00  0.00     0.060 A 
ATOM     31  C   UNL     1       0.893   0.141  -1.714  1.00  0.00     0.016 A 
ATOM     32  C   UNL     1       0.899   2.284  -2.827  1.00  0.00     0.016 A 
ATOM     33  C   UNL     1       2.280   0.205  -1.579  1.00  0.00     0.010 A 
ATOM     34  C   UNL     1       2.297   2.299  -2.774  1.00  0.00     0.010 A 
ATOM     35  C   UNL     1       3.004   1.282  -2.109  1.00  0.00    -0.014 A 
BRANCH  35  36
ATOM     36  C   UNL     1       4.482   1.381  -1.922  1.00  0.00     0.031 A 
ATOM     37  C   UNL     1       5.081   2.609  -1.282  1.00  0.00     0.074 A 
ATOM     38  C   UNL     1       5.299   0.379  -2.310  1.00  0.00     0.049 A 
ATOM     39  N   UNL     1       6.333   2.984  -1.231  1.00  0.00    -0.248 NA
ATOM     40  C   UNL     1       4.150   3.548  -0.633  1.00  0.00     0.031 C 
ATOM     41  C   UNL     1       4.866  -0.883  -2.909  1.00  0.00     0.029 A 
ATOM     42  N   UNL     1       6.667   0.261  -2.248  1.00  0.00    -0.354 N 
ATOM     43  C   UNL     1       6.331   4.239  -0.632  1.00  0.00     0.074 A 
ATOM     44  C   UNL     1       4.954   4.556  -0.321  1.00  0.00     0.031 C 
ATOM     45  C   UNL     1       5.934  -1.672  -3.099  1.00  0.00     0.029 A 
ATOM     46  C   UNL     1       7.141  -0.938  -2.730  1.00  0.00     0.049 A 
ATOM     47  H   UNL     1       7.253   0.967  -1.891  1.00  0.00     0.167 HD
ATOM     48  C   UNL     1       7.382   5.046  -0.354  1.00  0.00     0.034 A 
ATOM     49  C   UNL     1       8.401  -1.391  -2.889  1.00  0.00     0.034 A 
ATOM     50  C   UNL     1       8.759   4.681  -0.558  1.00  0.00     0.049 A 
ATOM     51  C   UNL     1       9.553  -0.489  -2.542  1.00  0.00     0.074 A 
ATOM     52  C   UNL     1       9.894   5.430  -0.299  1.00  0.00     0.029 A 
ATOM     53  N   UNL     1       9.191   3.451  -1.028  1.00  0.00    -0.354 N 
ATOM     54  N   UNL     1       9.530   0.711  -2.014  1.00  0.00    -0.248 NA
ATOM     55  C   UNL     1      10.904  -0.996  -2.824  1.00  0.00     0.031 C 
ATOM     56  C   UNL     1      11.014   4.648  -0.601  1.00  0.00     0.029 A 
ATOM     57  C   UNL     1      10.575   3.412  -1.049  1.00  0.00     0.049 A 
ATOM     58  H   UNL     1       8.601   2.714  -1.307  1.00  0.00     0.167 HD
ATOM     59  C   UNL     1      10.858   1.103  -1.903  1.00  0.00     0.074 A 
ATOM     60  C   UNL     1      11.664  -0.003  -2.378  1.00  0.00     0.031 C 
ATOM     61  C   UNL     1      11.363   2.288  -1.480  1.00  0.00     0.034 A 
BRANCH  48  62
ATOM     62  C   UNL     1       7.098   6.397   0.248  1.00  0.00     0.023 A 
ATOM     63  C   UNL     1       6.758   6.493   1.611  1.00  0.00     0.012 A 
ATOM     64  C   UNL     1       7.258   7.574  -0.511  1.00  0.00     0.148 A 
ATOM     65  C   UNL     1       6.563   7.739   2.207  1.00  0.00     0.002 A 
ATOM     66  C   UNL     1       7.101   8.813   0.099  1.00  0.00     0.091 A 
ATOM     67  F   UNL     1       7.559   7.460  -1.813  1.00  0.00    -0.205 F 
ATOM     68  C   UNL     1       6.747   8.898   1.455  1.00  0.00     0.022 A 
BRANCH  66  69
ATOM     69  S   UNL     1       7.395  10.361  -0.767  1.00  0.00     0.127 S 
ATOM     70  O   UNL     1       6.033  10.852  -0.966  1.00  0.00    -0.237 OA
ATOM     71  O   UNL     1       8.180  11.119   0.208  1.00  0.00    -0.237 OA
ATOM     72  O   UNL     1       8.119  10.007  -1.981  1.00  0.00    -0.744 OA
ENDBRANCH  66  69
ENDBRANCH  48  62
BRANCH  49  73
ATOM     73  C   UNL     1       8.629  -2.785  -3.369  1.00  0.00     0.023 A 
ATOM     74  C   UNL     1       9.159  -3.736  -2.477  1.00  0.00     0.012 A 
ATOM     75  C   UNL     1       8.250  -3.197  -4.661  1.00  0.00     0.148 A 
ATOM     76  C   UNL     1       9.306  -5.070  -2.861  1.00  0.00     0.002 A 
ATOM     77  C   UNL     1       8.332  -4.540  -5.013  1.00  0.00     0.091 A 
ATOM     78  F   UNL     1       7.784  -2.274  -5.515  1.00  0.00    -0.205 F 
ATOM     79  C   UNL     1       8.873  -5.476  -4.121  1.00  0.00     0.022 A 
BRANCH  77  80
ATOM     80  S   UNL     1       7.619  -5.155  -6.544  1.00  0.00     0.127 S 
ATOM     81  O   UNL     1       8.795  -5.263  -7.403  1.00  0.00    -0.237 OA
ATOM     82  O   UNL     1       7.041  -6.434  -6.127  1.00  0.00    -0.237 OA
ATOM     83  O   UNL     1       6.630  -4.157  -6.930  1.00  0.00    -0.744 OA
ENDBRANCH  77  80
ENDBRANCH  49  73
BRANCH  61  84
ATOM     84  C   UNL     1      12.857   2.465  -1.520  1.00  0.00     0.023 A 
ATOM     85  C   UNL     1      13.480   2.727  -2.756  1.00  0.00     0.012 A 
ATOM     86  C   UNL     1      13.625   2.471  -0.341  1.00  0.00     0.148 A 
ATOM     87  C   UNL     1      14.850   2.977  -2.820  1.00  0.00     0.002 A 
ATOM     88  C   UNL     1      14.985   2.755  -0.407  1.00  0.00     0.091 A 
ATOM     89  F   UNL     1      13.015   2.199   0.823  1.00  0.00    -0.205 F 
ATOM     90  C   UNL     1      15.599   3.003  -1.646  1.00  0.00     0.022 A 
BRANCH  88  91
ATOM     91  S   UNL     1      16.010   2.888   1.062  1.00  0.00     0.127 S 
ATOM     92  O   UNL     1      16.737   1.621   1.034  1.00  0.00    -0.237 OA
ATOM     93  O   UNL     1      16.827   4.067   0.770  1.00  0.00    -0.237 OA
ATOM     94  O   UNL     1      15.086   3.059   2.176  1.00  0.00    -0.744 OA
ENDBRANCH  88  91
ENDBRANCH  61  84
ENDBRANCH  35  36
ENDBRANCH  28  30
ENDBRANCH  27  28
ENDBRANCH   1  27
TORSDOF 16
