REMARK SMILES O=C(OCCOC(=O)[C@H]1C=C[C@H](NS(=O)(=O)c2ccc(F)c(F)c2F)C1)c1ccc(-c2c3nc(c(-c4cccc(S(=O)(=O)[O-])c4F)c4ccc([nH]4)c(-c4cccc(S(=O)(=O)[O-])c4F)c4nc(c(-c5cccc(S(=O)(=O)[O-])c5F)c5ccc2[nH]5)C=C4)C=C3)cc1
REMARK SMILES IDX 4 1 3 2 2 3 1 4 27 5 28 6 89 7 29 8 88 9 30 10 31 11 32 12
REMARK SMILES IDX 82 13 33 14 87 15 81 16 83 17 34 18 86 19 80 20 79 21 35 23
REMARK SMILES IDX 67 24 47 25 66 26 48 27 51 28 65 29 84 30 49 31 50 32 64 34
REMARK SMILES IDX 85 35 52 36 36 37 37 38 45 39 38 40 40 41 46 42 39 43 41 44
REMARK SMILES IDX 42 45 43 46 44 47 68 48 69 49 77 50 70 51 72 52 78 53 71 54
REMARK SMILES IDX 73 55 74 56 75 57 76 58 53 59 54 60 62 61 55 62 57 63 63 64
REMARK SMILES IDX 56 65 58 66 59 67 60 68 61 69 5 70 6 71 7 72 8 73 9 74 10 75
REMARK SMILES IDX 26 76 11 77 12 78 13 79 14 81 15 82 16 83 17 84 18 85 24 86
REMARK SMILES IDX 19 87 22 88 25 89 20 90 23 91 21 92
REMARK H PARENT 83 22 51 33 13 80
REMARK Flexibility Score: inf
ROOT
ATOM      1  C   UNL     1       4.165  -1.470   0.356  1.00  0.00     0.275 C 
ENDROOT
BRANCH   1   2
ATOM      2  O   UNL     1       3.268  -0.642   1.098  1.00  0.00    -0.458 OA
BRANCH   2   3
ATOM      3  C   UNL     1       3.124   0.699   1.064  1.00  0.00     0.338 C 
ATOM      4  O   UNL     1       2.231   1.194   1.752  1.00  0.00    -0.246 OA
BRANCH   3   5
ATOM      5  C   UNL     1       3.913   1.621   0.174  1.00  0.00     0.060 A 
ATOM      6  C   UNL     1       5.047   1.321  -0.598  1.00  0.00     0.016 A 
ATOM      7  C   UNL     1       3.380   2.910   0.052  1.00  0.00     0.016 A 
ATOM      8  C   UNL     1       5.534   2.205  -1.574  1.00  0.00     0.010 A 
ATOM      9  C   UNL     1       3.846   3.783  -0.929  1.00  0.00     0.010 A 
ATOM     10  C   UNL     1       4.902   3.423  -1.780  1.00  0.00    -0.014 A 
BRANCH  10  11
ATOM     11  C   UNL     1       5.393   4.430  -2.745  1.00  0.00     0.031 A 
ATOM     12  C   UNL     1       5.907   5.703  -2.151  1.00  0.00     0.074 A 
ATOM     13  C   UNL     1       5.253   4.293  -4.079  1.00  0.00     0.049 A 
ATOM     14  N   UNL     1       6.140   6.848  -2.721  1.00  0.00    -0.248 NA
ATOM     15  C   UNL     1       6.101   5.695  -0.688  1.00  0.00     0.031 C 
ATOM     16  C   UNL     1       4.759   3.107  -4.777  1.00  0.00     0.029 A 
ATOM     17  N   UNL     1       5.470   5.198  -5.090  1.00  0.00    -0.354 N 
ATOM     18  C   UNL     1       6.461   7.703  -1.679  1.00  0.00     0.074 A 
ATOM     19  C   UNL     1       6.260   6.982  -0.445  1.00  0.00     0.031 C 
ATOM     20  C   UNL     1       4.643   3.378  -6.091  1.00  0.00     0.029 A 
ATOM     21  C   UNL     1       5.071   4.753  -6.332  1.00  0.00     0.049 A 
ATOM     22  H   UNL     1       5.874   6.083  -4.942  1.00  0.00     0.167 HD
ATOM     23  C   UNL     1       6.959   8.956  -1.741  1.00  0.00     0.034 A 
ATOM     24  C   UNL     1       5.061   5.389  -7.522  1.00  0.00     0.034 A 
ATOM     25  C   UNL     1       7.228   9.625  -2.975  1.00  0.00     0.049 A 
ATOM     26  C   UNL     1       5.622   6.791  -7.585  1.00  0.00     0.074 A 
ATOM     27  C   UNL     1       7.812  10.858  -3.179  1.00  0.00     0.029 A 
ATOM     28  N   UNL     1       6.928   9.101  -4.224  1.00  0.00    -0.354 N 
ATOM     29  N   UNL     1       6.062   7.544  -6.605  1.00  0.00    -0.248 NA
ATOM     30  C   UNL     1       5.749   7.406  -8.915  1.00  0.00     0.031 C 
ATOM     31  C   UNL     1       7.840  11.092  -4.557  1.00  0.00     0.029 A 
ATOM     32  C   UNL     1       7.312   9.985  -5.208  1.00  0.00     0.049 A 
ATOM     33  H   UNL     1       6.503   8.227  -4.383  1.00  0.00     0.167 HD
ATOM     34  C   UNL     1       6.582   8.687  -7.203  1.00  0.00     0.074 A 
ATOM     35  C   UNL     1       6.388   8.534  -8.630  1.00  0.00     0.031 C 
ATOM     36  C   UNL     1       7.176   9.761  -6.626  1.00  0.00     0.034 A 
BRANCH  23  37
ATOM     37  C   UNL     1       7.258   9.617  -0.427  1.00  0.00     0.023 A 
ATOM     38  C   UNL     1       8.266   9.093   0.414  1.00  0.00     0.012 A 
ATOM     39  C   UNL     1       6.473  10.691   0.020  1.00  0.00     0.148 A 
ATOM     40  C   UNL     1       8.418   9.564   1.716  1.00  0.00     0.002 A 
ATOM     41  C   UNL     1       6.680  11.203   1.293  1.00  0.00     0.091 A 
ATOM     42  F   UNL     1       5.502  11.151  -0.782  1.00  0.00    -0.205 F 
ATOM     43  C   UNL     1       7.628  10.622   2.153  1.00  0.00     0.022 A 
BRANCH  41  44
ATOM     44  S   UNL     1       5.781  12.624   1.914  1.00  0.00     0.127 S 
ATOM     45  O   UNL     1       4.943  12.016   2.944  1.00  0.00    -0.237 OA
ATOM     46  O   UNL     1       6.864  13.466   2.423  1.00  0.00    -0.237 OA
ATOM     47  O   UNL     1       5.068  13.175   0.770  1.00  0.00    -0.744 OA
ENDBRANCH  41  44
ENDBRANCH  23  37
BRANCH  24  48
ATOM     48  C   UNL     1       4.604   4.690  -8.761  1.00  0.00     0.023 A 
ATOM     49  C   UNL     1       5.556   4.295  -9.722  1.00  0.00     0.012 A 
ATOM     50  C   UNL     1       3.242   4.412  -8.996  1.00  0.00     0.148 A 
ATOM     51  C   UNL     1       5.161   3.675 -10.910  1.00  0.00     0.002 A 
ATOM     52  C   UNL     1       2.858   3.762 -10.166  1.00  0.00     0.091 A 
ATOM     53  F   UNL     1       2.352   4.779  -8.064  1.00  0.00    -0.205 F 
ATOM     54  C   UNL     1       3.814   3.408 -11.131  1.00  0.00     0.022 A 
BRANCH  52  55
ATOM     55  S   UNL     1       1.160   3.285 -10.512  1.00  0.00     0.127 S 
ATOM     56  O   UNL     1       0.877   4.044 -11.729  1.00  0.00    -0.237 OA
ATOM     57  O   UNL     1       1.293   1.841 -10.704  1.00  0.00    -0.237 OA
ATOM     58  O   UNL     1       0.394   3.675  -9.337  1.00  0.00    -0.744 OA
ENDBRANCH  52  55
ENDBRANCH  24  48
BRANCH  36  59
ATOM     59  C   UNL     1       7.759  10.822  -7.516  1.00  0.00     0.023 A 
ATOM     60  C   UNL     1       6.922  11.758  -8.148  1.00  0.00     0.012 A 
ATOM     61  C   UNL     1       9.158  10.991  -7.560  1.00  0.00     0.148 A 
ATOM     62  C   UNL     1       7.473  12.853  -8.814  1.00  0.00     0.002 A 
ATOM     63  C   UNL     1       9.696  12.113  -8.172  1.00  0.00     0.091 A 
ATOM     64  F   UNL     1       9.930  10.070  -6.963  1.00  0.00    -0.205 F 
ATOM     65  C   UNL     1       8.855  13.041  -8.807  1.00  0.00     0.022 A 
BRANCH  63  66
ATOM     66  S   UNL     1      11.447  12.503  -8.092  1.00  0.00     0.127 S 
ATOM     67  O   UNL     1      11.851  12.340  -9.488  1.00  0.00    -0.237 OA
ATOM     68  O   UNL     1      11.432  13.886  -7.617  1.00  0.00    -0.237 OA
ATOM     69  O   UNL     1      12.033  11.547  -7.161  1.00  0.00    -0.744 OA
ENDBRANCH  63  66
ENDBRANCH  36  59
ENDBRANCH  10  11
ENDBRANCH   3   5
ENDBRANCH   2   3
ENDBRANCH   1   2
BRANCH   1  70
ATOM     70  C   UNL     1       3.751  -1.726  -1.099  1.00  0.00     0.274 C 
BRANCH  70  71
ATOM     71  O   UNL     1       3.162  -0.607  -1.797  1.00  0.00    -0.462 OA
BRANCH  71  72
ATOM     72  C   UNL     1       1.792  -0.580  -1.857  1.00  0.00     0.312 C 
ATOM     73  O   UNL     1       1.081  -1.387  -1.269  1.00  0.00    -0.252 OA
BRANCH  72  74
ATOM     74  C   UNL     1       1.266   0.428  -2.899  1.00  0.00     0.123 C 
ATOM     75  C   UNL     1      -0.143   0.875  -2.658  1.00  0.00    -0.015 C 
ATOM     76  C   UNL     1       1.985   1.773  -3.022  1.00  0.00     0.043 C 
ATOM     77  C   UNL     1      -0.254   2.200  -2.492  1.00  0.00    -0.011 C 
ATOM     78  C   UNL     1       1.064   2.883  -2.461  1.00  0.00     0.093 C 
BRANCH  78  79
ATOM     79  N   UNL     1       1.180   4.080  -3.281  1.00  0.00    -0.204 NA
ATOM     80  H   UNL     1       0.986   3.773  -4.234  1.00  0.00     0.142 HD
BRANCH  79  81
ATOM     81  S   UNL     1       0.300   5.487  -3.085  1.00  0.00     0.244 S 
ATOM     82  O   UNL     1       0.629   6.307  -4.233  1.00  0.00    -0.207 OA
ATOM     83  O   UNL     1      -1.077   5.162  -2.799  1.00  0.00    -0.207 OA
BRANCH  81  84
ATOM     84  C   UNL     1       0.988   6.327  -1.683  1.00  0.00     0.121 A 
ATOM     85  C   UNL     1       1.986   7.305  -1.856  1.00  0.00     0.028 A 
ATOM     86  C   UNL     1       0.374   6.183  -0.443  1.00  0.00     0.181 A 
ATOM     87  C   UNL     1       2.358   8.124  -0.781  1.00  0.00     0.044 A 
ATOM     88  C   UNL     1       0.737   7.009   0.617  1.00  0.00     0.195 A 
ATOM     89  F   UNL     1      -0.567   5.253  -0.233  1.00  0.00    -0.202 F 
ATOM     90  C   UNL     1       1.720   7.975   0.447  1.00  0.00     0.161 A 
ATOM     91  F   UNL     1       0.123   6.879   1.802  1.00  0.00    -0.200 F 
ATOM     92  F   UNL     1       2.053   8.773   1.470  1.00  0.00    -0.204 F 
ENDBRANCH  81  84
ENDBRANCH  79  81
ENDBRANCH  78  79
ENDBRANCH  72  74
ENDBRANCH  71  72
ENDBRANCH  70  71
ENDBRANCH   1  70
TORSDOF 17
