REMARK SMILES O=C(OCCOC(=O)c1ccc(NS(=O)(=O)c2ccc3c(c2)CCC3)cc1Cl)c1ccc(-c2c3nc(c(-c4cccc(S(=O)(=O)[O-])c4F)c4ccc([nH]4)c(-c4cccc(S(=O)(=O)[O-])c4F)c4nc(c(-c5cccc(S(=O)(=O)[O-])c5F)c5ccc2[nH]5)C=C4)C=C3)cc1
REMARK SMILES IDX 4 1 3 2 2 3 1 4 29 5 30 6 91 7 31 8 90 9 32 10 33 11 34 12
REMARK SMILES IDX 84 13 35 14 89 15 83 16 85 17 36 18 88 19 82 20 81 21 37 23
REMARK SMILES IDX 69 24 49 25 68 26 50 27 53 28 67 29 86 30 51 31 52 32 66 34
REMARK SMILES IDX 87 35 54 36 38 37 39 38 47 39 40 40 42 41 48 42 41 43 43 44
REMARK SMILES IDX 44 45 45 46 46 47 70 48 71 49 79 50 72 51 74 52 80 53 73 54
REMARK SMILES IDX 75 55 76 56 77 57 78 58 55 59 56 60 64 61 57 62 59 63 65 64
REMARK SMILES IDX 58 65 60 66 61 67 62 68 63 69 5 70 6 71 7 72 8 73 9 74 10 75
REMARK SMILES IDX 27 76 11 77 26 78 28 79 12 80 13 81 14 83 15 84 16 85 17 86
REMARK SMILES IDX 18 87 22 88 19 89 21 90 20 91 23 92 25 93 24 94
REMARK H PARENT 85 22 53 33 13 82
REMARK Flexibility Score: inf
ROOT
ATOM      1  C   UNL     1       4.108  -0.208   1.598  1.00  0.00     0.275 C 
ENDROOT
BRANCH   1   2
ATOM      2  O   UNL     1       3.006   0.524   1.038  1.00  0.00    -0.458 OA
BRANCH   2   3
ATOM      3  C   UNL     1       2.908   1.111  -0.180  1.00  0.00     0.338 C 
ATOM      4  O   UNL     1       2.031   1.959  -0.346  1.00  0.00    -0.246 OA
BRANCH   3   5
ATOM      5  C   UNL     1       3.679   0.655  -1.384  1.00  0.00     0.060 A 
ATOM      6  C   UNL     1       4.896  -0.029  -1.385  1.00  0.00     0.016 A 
ATOM      7  C   UNL     1       3.070   0.896  -2.630  1.00  0.00     0.016 A 
ATOM      8  C   UNL     1       5.439  -0.551  -2.559  1.00  0.00     0.010 A 
ATOM      9  C   UNL     1       3.593   0.351  -3.806  1.00  0.00     0.010 A 
ATOM     10  C   UNL     1       4.779  -0.389  -3.772  1.00  0.00    -0.014 A 
BRANCH  10  11
ATOM     11  C   UNL     1       5.413  -0.862  -5.019  1.00  0.00     0.031 A 
ATOM     12  C   UNL     1       5.986   0.166  -5.941  1.00  0.00     0.074 A 
ATOM     13  C   UNL     1       5.509  -2.175  -5.301  1.00  0.00     0.049 A 
ATOM     14  N   UNL     1       6.604  -0.006  -7.075  1.00  0.00    -0.248 NA
ATOM     15  C   UNL     1       5.882   1.572  -5.512  1.00  0.00     0.031 C 
ATOM     16  C   UNL     1       5.083  -3.261  -4.422  1.00  0.00     0.029 A 
ATOM     17  N   UNL     1       5.972  -2.824  -6.417  1.00  0.00    -0.354 N 
ATOM     18  C   UNL     1       6.968   1.265  -7.491  1.00  0.00     0.074 A 
ATOM     19  C   UNL     1       6.458   2.204  -6.519  1.00  0.00     0.031 C 
ATOM     20  C   UNL     1       5.211  -4.434  -5.065  1.00  0.00     0.029 A 
ATOM     21  C   UNL     1       5.749  -4.183  -6.395  1.00  0.00     0.049 A 
ATOM     22  H   UNL     1       6.420  -2.362  -7.162  1.00  0.00     0.167 HD
ATOM     23  C   UNL     1       7.701   1.613  -8.570  1.00  0.00     0.034 A 
ATOM     24  C   UNL     1       5.950  -5.111  -7.349  1.00  0.00     0.034 A 
ATOM     25  C   UNL     1       8.191   0.668  -9.530  1.00  0.00     0.049 A 
ATOM     26  C   UNL     1       6.645  -4.681  -8.613  1.00  0.00     0.074 A 
ATOM     27  C   UNL     1       8.960   0.902 -10.652  1.00  0.00     0.029 A 
ATOM     28  N   UNL     1       7.926  -0.693  -9.493  1.00  0.00    -0.354 N 
ATOM     29  N   UNL     1       7.090  -3.491  -8.937  1.00  0.00    -0.248 NA
ATOM     30  C   UNL     1       6.928  -5.722  -9.610  1.00  0.00     0.031 C 
ATOM     31  C   UNL     1       9.122  -0.315 -11.321  1.00  0.00     0.029 A 
ATOM     32  C   UNL     1       8.493  -1.313 -10.590  1.00  0.00     0.049 A 
ATOM     33  H   UNL     1       7.411  -1.150  -8.790  1.00  0.00     0.167 HD
ATOM     34  C   UNL     1       7.762  -3.649 -10.141  1.00  0.00     0.074 A 
ATOM     35  C   UNL     1       7.660  -5.052 -10.491  1.00  0.00     0.031 C 
ATOM     36  C   UNL     1       8.412  -2.721 -10.886  1.00  0.00     0.034 A 
BRANCH  23  37
ATOM     37  C   UNL     1       7.995   3.075  -8.746  1.00  0.00     0.023 A 
ATOM     38  C   UNL     1       8.893   3.724  -7.874  1.00  0.00     0.012 A 
ATOM     39  C   UNL     1       7.357   3.811  -9.760  1.00  0.00     0.148 A 
ATOM     40  C   UNL     1       9.119   5.095  -7.981  1.00  0.00     0.002 A 
ATOM     41  C   UNL     1       7.622   5.167  -9.891  1.00  0.00     0.091 A 
ATOM     42  F   UNL     1       6.483   3.178 -10.555  1.00  0.00    -0.205 F 
ATOM     43  C   UNL     1       8.489   5.814  -8.994  1.00  0.00     0.022 A 
BRANCH  41  44
ATOM     44  S   UNL     1       6.910   6.169 -11.197  1.00  0.00     0.127 S 
ATOM     45  O   UNL     1       6.052   7.077 -10.436  1.00  0.00    -0.237 OA
ATOM     46  O   UNL     1       8.097   6.794 -11.780  1.00  0.00    -0.237 OA
ATOM     47  O   UNL     1       6.209   5.246 -12.078  1.00  0.00    -0.744 OA
ENDBRANCH  41  44
ENDBRANCH  23  37
BRANCH  24  48
ATOM     48  C   UNL     1       5.526  -6.525  -7.138  1.00  0.00     0.023 A 
ATOM     49  C   UNL     1       6.489  -7.543  -7.002  1.00  0.00     0.012 A 
ATOM     50  C   UNL     1       4.159  -6.864  -7.085  1.00  0.00     0.148 A 
ATOM     51  C   UNL     1       6.100  -8.877  -6.859  1.00  0.00     0.002 A 
ATOM     52  C   UNL     1       3.779  -8.190  -6.905  1.00  0.00     0.091 A 
ATOM     53  F   UNL     1       3.257  -5.880  -7.209  1.00  0.00    -0.205 F 
ATOM     54  C   UNL     1       4.747  -9.201  -6.808  1.00  0.00     0.022 A 
BRANCH  52  55
ATOM     55  S   UNL     1       2.061  -8.685  -6.730  1.00  0.00     0.127 S 
ATOM     56  O   UNL     1       1.831  -9.408  -7.978  1.00  0.00    -0.237 OA
ATOM     57  O   UNL     1       2.109  -9.521  -5.530  1.00  0.00    -0.237 OA
ATOM     58  O   UNL     1       1.318  -7.442  -6.567  1.00  0.00    -0.744 OA
ENDBRANCH  52  55
ENDBRANCH  24  48
BRANCH  36  59
ATOM     59  C   UNL     1       9.113  -3.196 -12.128  1.00  0.00     0.023 A 
ATOM     60  C   UNL     1       8.368  -3.564 -13.264  1.00  0.00     0.012 A 
ATOM     61  C   UNL     1      10.520  -3.174 -12.193  1.00  0.00     0.148 A 
ATOM     62  C   UNL     1       9.016  -3.928 -14.442  1.00  0.00     0.002 A 
ATOM     63  C   UNL     1      11.157  -3.480 -13.387  1.00  0.00     0.091 A 
ATOM     64  F   UNL     1      11.206  -2.838 -11.091  1.00  0.00    -0.205 F 
ATOM     65  C   UNL     1      10.407  -3.871 -14.508  1.00  0.00     0.022 A 
BRANCH  63  66
ATOM     66  S   UNL     1      12.932  -3.321 -13.597  1.00  0.00     0.127 S 
ATOM     67  O   UNL     1      13.342  -4.718 -13.731  1.00  0.00    -0.237 OA
ATOM     68  O   UNL     1      13.027  -2.536 -14.828  1.00  0.00    -0.237 OA
ATOM     69  O   UNL     1      13.422  -2.641 -12.405  1.00  0.00    -0.744 OA
ENDBRANCH  63  66
ENDBRANCH  36  59
ENDBRANCH  10  11
ENDBRANCH   3   5
ENDBRANCH   2   3
ENDBRANCH   1   2
BRANCH   1  70
ATOM     70  C   UNL     1       3.985  -1.730   1.446  1.00  0.00     0.275 C 
BRANCH  70  71
ATOM     71  O   UNL     1       3.515  -2.144   0.151  1.00  0.00    -0.458 OA
BRANCH  71  72
ATOM     72  C   UNL     1       2.219  -2.558   0.088  1.00  0.00     0.339 C 
ATOM     73  O   UNL     1       1.427  -2.625   1.012  1.00  0.00    -0.246 OA
BRANCH  72  74
ATOM     74  C   UNL     1       1.829  -2.672  -1.328  1.00  0.00     0.078 A 
ATOM     75  C   UNL     1       1.125  -1.593  -1.841  1.00  0.00     0.019 A 
ATOM     76  C   UNL     1       2.204  -3.712  -2.181  1.00  0.00     0.057 A 
ATOM     77  C   UNL     1       0.947  -1.490  -3.219  1.00  0.00     0.028 A 
ATOM     78  C   UNL     1       1.921  -3.637  -3.565  1.00  0.00     0.048 A 
ATOM     79  Cl  UNL     1       3.082  -5.073  -1.584  1.00  0.00    -0.083 Cl
ATOM     80  C   UNL     1       1.320  -2.497  -4.105  1.00  0.00     0.050 A 
BRANCH  80  81
ATOM     81  N   UNL     1       1.355  -2.249  -5.521  1.00  0.00    -0.280 N 
ATOM     82  H   UNL     1       2.217  -2.338  -5.988  1.00  0.00     0.180 HD
BRANCH  81  83
ATOM     83  S   UNL     1      -0.015  -1.812  -6.435  1.00  0.00     0.261 S 
ATOM     84  O   UNL     1       0.458  -1.408  -7.739  1.00  0.00    -0.201 OA
ATOM     85  O   UNL     1      -1.013  -2.853  -6.292  1.00  0.00    -0.201 OA
BRANCH  83  86
ATOM     86  C   UNL     1      -0.670  -0.349  -5.653  1.00  0.00     0.088 A 
ATOM     87  C   UNL     1      -0.105   0.915  -5.906  1.00  0.00     0.022 A 
ATOM     88  C   UNL     1      -1.636  -0.534  -4.653  1.00  0.00     0.026 A 
ATOM     89  C   UNL     1      -0.415   1.991  -5.063  1.00  0.00     0.005 A 
ATOM     90  C   UNL     1      -1.870   0.520  -3.790  1.00  0.00    -0.043 A 
ATOM     91  C   UNL     1      -1.260   1.765  -3.984  1.00  0.00    -0.045 A 
ATOM     92  C   UNL     1      -2.550   0.449  -2.460  1.00  0.00     0.036 C 
ATOM     93  C   UNL     1      -1.528   2.666  -2.817  1.00  0.00     0.036 C 
ATOM     94  C   UNL     1      -2.683   1.934  -2.112  1.00  0.00     0.010 C 
ENDBRANCH  83  86
ENDBRANCH  81  83
ENDBRANCH  80  81
ENDBRANCH  72  74
ENDBRANCH  71  72
ENDBRANCH  70  71
ENDBRANCH   1  70
TORSDOF 17
