REMARK SMILES O=C(OCCOC(=O)C1CC[NH+]([C@@H]2CCO[C@]3(CCOC3)C2)CC1)c1ccc(-c2c3nc(c(-c4cccc(S(=O)(=O)[O-])c4F)c4ccc([nH]4)c(-c4cccc(S(=O)(=O)[O-])c4F)c4nc(c(-c5cccc(S(=O)(=O)[O-])c5F)c5ccc2[nH]5)C=C4)C=C3)cc1
REMARK SMILES IDX 4 1 3 2 2 3 1 4 25 5 26 6 87 7 27 8 86 9 28 10 29 11 30 12
REMARK SMILES IDX 80 13 31 14 85 15 79 16 81 17 32 18 84 19 78 20 77 21 33 23
REMARK SMILES IDX 65 24 45 25 64 26 46 27 49 28 63 29 82 30 47 31 48 32 62 34
REMARK SMILES IDX 83 35 50 36 34 37 35 38 43 39 36 40 38 41 44 42 37 43 39 44
REMARK SMILES IDX 40 45 41 46 42 47 66 48 67 49 75 50 68 51 70 52 76 53 69 54
REMARK SMILES IDX 71 55 72 56 73 57 74 58 51 59 52 60 60 61 53 62 55 63 61 64
REMARK SMILES IDX 54 65 56 66 57 67 58 68 59 69 5 70 6 71 7 72 8 73 9 74 10 75
REMARK SMILES IDX 24 76 11 77 23 78 12 79 13 81 14 82 22 83 15 84 17 85 16 86
REMARK SMILES IDX 18 87 21 88 19 89 20 90
REMARK H PARENT 81 22 49 33 12 80
REMARK Flexibility Score: inf
ROOT
ATOM      1  C   UNL     1       4.848   0.070  -1.544  1.00  0.00     0.275 C 
ENDROOT
BRANCH   1   2
ATOM      2  O   UNL     1       3.921  -0.993  -1.242  1.00  0.00    -0.458 OA
BRANCH   2   3
ATOM      3  C   UNL     1       3.721  -1.715  -0.112  1.00  0.00     0.338 C 
ATOM      4  O   UNL     1       2.950  -2.673  -0.149  1.00  0.00    -0.246 OA
BRANCH   3   5
ATOM      5  C   UNL     1       4.275  -1.318   1.221  1.00  0.00     0.060 A 
ATOM      6  C   UNL     1       5.446  -0.585   1.428  1.00  0.00     0.016 A 
ATOM      7  C   UNL     1       3.502  -1.651   2.349  1.00  0.00     0.016 A 
ATOM      8  C   UNL     1       5.767  -0.078   2.689  1.00  0.00     0.010 A 
ATOM      9  C   UNL     1       3.805  -1.135   3.614  1.00  0.00     0.010 A 
ATOM     10  C   UNL     1       4.947  -0.343   3.788  1.00  0.00    -0.014 A 
BRANCH  10  11
ATOM     11  C   UNL     1       5.472  -0.049   5.137  1.00  0.00     0.031 A 
ATOM     12  C   UNL     1       6.091  -1.210   5.858  1.00  0.00     0.074 A 
ATOM     13  C   UNL     1       5.489   1.193   5.660  1.00  0.00     0.049 A 
ATOM     14  N   UNL     1       6.740  -1.234   6.986  1.00  0.00    -0.248 NA
ATOM     15  C   UNL     1       5.963  -2.530   5.207  1.00  0.00     0.031 C 
ATOM     16  C   UNL     1       4.919   2.392   5.045  1.00  0.00     0.029 A 
ATOM     17  N   UNL     1       6.017   1.651   6.842  1.00  0.00    -0.354 N 
ATOM     18  C   UNL     1       7.076  -2.566   7.184  1.00  0.00     0.074 A 
ATOM     19  C   UNL     1       6.519  -3.328   6.097  1.00  0.00     0.031 C 
ATOM     20  C   UNL     1       5.123   3.446   5.857  1.00  0.00     0.029 A 
ATOM     21  C   UNL     1       5.839   3.001   7.049  1.00  0.00     0.049 A 
ATOM     22  H   UNL     1       6.482   1.067   7.484  1.00  0.00     0.167 HD
ATOM     23  C   UNL     1       7.822  -3.109   8.168  1.00  0.00     0.034 A 
ATOM     24  C   UNL     1       6.223   3.778   8.084  1.00  0.00     0.034 A 
ATOM     25  C   UNL     1       8.378  -2.346   9.241  1.00  0.00     0.049 A 
ATOM     26  C   UNL     1       7.030   3.142   9.191  1.00  0.00     0.074 A 
ATOM     27  C   UNL     1       9.157  -2.781  10.292  1.00  0.00     0.029 A 
ATOM     28  N   UNL     1       8.188  -0.982   9.404  1.00  0.00    -0.354 N 
ATOM     29  N   UNL     1       7.448   1.902   9.301  1.00  0.00    -0.248 NA
ATOM     30  C   UNL     1       7.455   4.014  10.296  1.00  0.00     0.031 C 
ATOM     31  C   UNL     1       9.409  -1.681  11.117  1.00  0.00     0.029 A 
ATOM     32  C   UNL     1       8.826  -0.556  10.550  1.00  0.00     0.049 A 
ATOM     33  H   UNL     1       7.676  -0.405   8.793  1.00  0.00     0.167 HD
ATOM     34  C   UNL     1       8.215   1.855  10.459  1.00  0.00     0.074 A 
ATOM     35  C   UNL     1       8.220   3.196  11.007  1.00  0.00     0.031 C 
ATOM     36  C   UNL     1       8.851   0.802  11.030  1.00  0.00     0.034 A 
BRANCH  23  37
ATOM     37  C   UNL     1       8.045  -4.591   8.101  1.00  0.00     0.023 A 
ATOM     38  C   UNL     1       8.872  -5.137   7.095  1.00  0.00     0.012 A 
ATOM     39  C   UNL     1       7.382  -5.447   8.996  1.00  0.00     0.148 A 
ATOM     40  C   UNL     1       8.992  -6.517   6.950  1.00  0.00     0.002 A 
ATOM     41  C   UNL     1       7.549  -6.820   8.879  1.00  0.00     0.091 A 
ATOM     42  F   UNL     1       6.573  -4.905   9.917  1.00  0.00    -0.205 F 
ATOM     43  C   UNL     1       8.336  -7.357   7.846  1.00  0.00     0.022 A 
BRANCH  41  44
ATOM     44  S   UNL     1       6.801  -7.983  10.021  1.00  0.00     0.127 S 
ATOM     45  O   UNL     1       5.871  -8.698   9.148  1.00  0.00    -0.237 OA
ATOM     46  O   UNL     1       7.959  -8.765  10.453  1.00  0.00    -0.237 OA
ATOM     47  O   UNL     1       6.179  -7.181  11.065  1.00  0.00    -0.744 OA
ENDBRANCH  41  44
ENDBRANCH  23  37
BRANCH  24  48
ATOM     48  C   UNL     1       5.904   5.239   8.114  1.00  0.00     0.023 A 
ATOM     49  C   UNL     1       6.942   6.189   8.030  1.00  0.00     0.012 A 
ATOM     50  C   UNL     1       4.578   5.693   8.253  1.00  0.00     0.148 A 
ATOM     51  C   UNL     1       6.671   7.557   8.126  1.00  0.00     0.002 A 
ATOM     52  C   UNL     1       4.309   7.058   8.297  1.00  0.00     0.091 A 
ATOM     53  F   UNL     1       3.602   4.779   8.346  1.00  0.00    -0.205 F 
ATOM     54  C   UNL     1       5.355   7.991   8.254  1.00  0.00     0.022 A 
BRANCH  52  55
ATOM     55  S   UNL     1       2.637   7.715   8.350  1.00  0.00     0.127 S 
ATOM     56  O   UNL     1       2.595   8.318   9.680  1.00  0.00    -0.237 OA
ATOM     57  O   UNL     1       2.657   8.668   7.240  1.00  0.00    -0.237 OA
ATOM     58  O   UNL     1       1.759   6.572   8.147  1.00  0.00    -0.744 OA
ENDBRANCH  52  55
ENDBRANCH  24  48
BRANCH  36  59
ATOM     59  C   UNL     1       9.647   1.054  12.280  1.00  0.00     0.023 A 
ATOM     60  C   UNL     1       8.987   1.283  13.502  1.00  0.00     0.012 A 
ATOM     61  C   UNL     1      11.050   0.930  12.258  1.00  0.00     0.148 A 
ATOM     62  C   UNL     1       9.716   1.410  14.683  1.00  0.00     0.002 A 
ATOM     63  C   UNL     1      11.764   0.998  13.445  1.00  0.00     0.091 A 
ATOM     64  F   UNL     1      11.655   0.726  11.078  1.00  0.00    -0.205 F 
ATOM     65  C   UNL     1      11.101   1.250  14.657  1.00  0.00     0.022 A 
BRANCH  63  66
ATOM     66  S   UNL     1      13.530   0.682  13.520  1.00  0.00     0.127 S 
ATOM     67  O   UNL     1      14.060   2.020  13.779  1.00  0.00    -0.237 OA
ATOM     68  O   UNL     1      13.632  -0.245  14.647  1.00  0.00    -0.237 OA
ATOM     69  O   UNL     1      13.891   0.107  12.231  1.00  0.00    -0.744 OA
ENDBRANCH  63  66
ENDBRANCH  36  59
ENDBRANCH  10  11
ENDBRANCH   3   5
ENDBRANCH   2   3
ENDBRANCH   1   2
BRANCH   1  70
ATOM     70  C   UNL     1       4.444   1.486  -1.114  1.00  0.00     0.274 C 
BRANCH  70  71
ATOM     71  O   UNL     1       4.019   1.607   0.247  1.00  0.00    -0.462 OA
BRANCH  71  72
ATOM     72  C   UNL     1       2.721   1.261   0.479  1.00  0.00     0.309 C 
ATOM     73  O   UNL     1       1.952   0.860  -0.391  1.00  0.00    -0.252 OA
BRANCH  72  74
ATOM     74  C   UNL     1       2.348   1.500   1.933  1.00  0.00     0.110 C 
ATOM     75  C   UNL     1       1.185   0.620   2.408  1.00  0.00     0.077 C 
ATOM     76  C   UNL     1       1.987   2.955   2.100  1.00  0.00     0.077 C 
ATOM     77  C   UNL     1      -0.186   1.037   1.875  1.00  0.00     0.263 C 
ATOM     78  C   UNL     1       0.722   3.179   1.300  1.00  0.00     0.263 C 
ATOM     79  N   UNL     1      -0.408   2.493   1.928  1.00  0.00    -0.332 N 
ATOM     80  H   UNL     1      -0.436   2.824   2.892  1.00  0.00     0.348 HD
BRANCH  79  81
ATOM     81  C   UNL     1      -1.737   2.833   1.375  1.00  0.00     0.189 C 
ATOM     82  C   UNL     1      -1.820   2.967  -0.143  1.00  0.00     0.093 C 
ATOM     83  C   UNL     1      -2.360   4.100   1.985  1.00  0.00     0.103 C 
ATOM     84  C   UNL     1      -1.239   4.272  -0.667  1.00  0.00     0.167 C 
ATOM     85  C   UNL     1      -1.702   5.403   1.517  1.00  0.00     0.099 C 
ATOM     86  O   UNL     1      -1.454   5.447   0.103  1.00  0.00    -0.372 OA
ATOM     87  C   UNL     1      -0.526   5.801   2.426  1.00  0.00     0.066 C 
ATOM     88  C   UNL     1      -2.605   6.617   1.767  1.00  0.00     0.195 C 
ATOM     89  C   UNL     1      -1.083   6.758   3.465  1.00  0.00     0.163 C 
ATOM     90  O   UNL     1      -2.451   6.999   3.129  1.00  0.00    -0.378 OA
ENDBRANCH  79  81
ENDBRANCH  72  74
ENDBRANCH  71  72
ENDBRANCH  70  71
ENDBRANCH   1  70
TORSDOF 15
