REMARK SMILES O=C(OCCOC(=O)[C@H]1[C@H]2CC[C@H](CC2)[C@H]1C(=O)Nc1ccc(C(=O)N2CCCC2)cc1)c1ccc(-c2c3nc(c(-c4cccc(S(=O)(=O)[O-])c4F)c4ccc([nH]4)c(-c4cccc(S(=O)(=O)[O-])c4F)c4nc(c(-c5cccc(S(=O)(=O)[O-])c5F)c5ccc2[nH]5)C=C4)C=C3)cc1
REMARK SMILES IDX 4 1 3 2 2 3 1 4 33 5 34 6 95 7 35 8 94 9 36 10 37 11 38 12
REMARK SMILES IDX 88 13 39 14 93 15 87 16 89 17 40 18 92 19 86 20 85 21 41 23
REMARK SMILES IDX 73 24 53 25 72 26 54 27 57 28 71 29 90 30 55 31 56 32 70 34
REMARK SMILES IDX 91 35 58 36 42 37 43 38 51 39 44 40 46 41 52 42 45 43 47 44
REMARK SMILES IDX 48 45 49 46 50 47 74 48 75 49 83 50 76 51 78 52 84 53 77 54
REMARK SMILES IDX 79 55 80 56 81 57 82 58 59 59 60 60 68 61 61 62 63 63 69 64
REMARK SMILES IDX 62 65 64 66 65 67 66 68 67 69 5 70 6 71 7 72 8 73 9 74 10 75
REMARK SMILES IDX 16 76 15 77 11 78 13 79 14 80 12 81 17 82 18 83 19 84 20 86
REMARK SMILES IDX 21 87 32 88 22 89 31 90 23 91 24 92 25 93 26 94 27 95 30 96
REMARK SMILES IDX 28 97 29 98
REMARK H PARENT 89 22 57 33 19 85
REMARK Flexibility Score: inf
ROOT
ATOM      1  C   UNL     1       3.961  -1.294  -0.475  1.00  0.00     0.275 C 
ENDROOT
BRANCH   1   2
ATOM      2  O   UNL     1       3.091  -1.644   0.627  1.00  0.00    -0.458 OA
BRANCH   2   3
ATOM      3  C   UNL     1       2.385  -0.784   1.407  1.00  0.00     0.338 C 
ATOM      4  O   UNL     1       1.190  -0.991   1.605  1.00  0.00    -0.246 OA
BRANCH   3   5
ATOM      5  C   UNL     1       3.068   0.335   2.148  1.00  0.00     0.060 A 
ATOM      6  C   UNL     1       4.428   0.619   2.068  1.00  0.00     0.016 A 
ATOM      7  C   UNL     1       2.284   1.176   2.971  1.00  0.00     0.016 A 
ATOM      8  C   UNL     1       4.957   1.758   2.700  1.00  0.00     0.010 A 
ATOM      9  C   UNL     1       2.837   2.288   3.657  1.00  0.00     0.010 A 
ATOM     10  C   UNL     1       4.188   2.610   3.511  1.00  0.00    -0.014 A 
BRANCH  10  11
ATOM     11  C   UNL     1       4.939   3.597   4.361  1.00  0.00     0.031 A 
ATOM     12  C   UNL     1       5.541   3.059   5.610  1.00  0.00     0.074 A 
ATOM     13  C   UNL     1       5.273   4.857   4.005  1.00  0.00     0.049 A 
ATOM     14  N   UNL     1       6.474   3.584   6.350  1.00  0.00    -0.248 NA
ATOM     15  C   UNL     1       5.027   1.764   6.081  1.00  0.00     0.031 C 
ATOM     16  C   UNL     1       4.657   5.581   2.930  1.00  0.00     0.029 A 
ATOM     17  N   UNL     1       6.217   5.757   4.457  1.00  0.00    -0.354 N 
ATOM     18  C   UNL     1       6.679   2.678   7.367  1.00  0.00     0.074 A 
ATOM     19  C   UNL     1       5.753   1.582   7.170  1.00  0.00     0.031 C 
ATOM     20  C   UNL     1       5.339   6.693   2.635  1.00  0.00     0.029 A 
ATOM     21  C   UNL     1       6.361   6.873   3.643  1.00  0.00     0.049 A 
ATOM     22  H   UNL     1       6.739   5.620   5.281  1.00  0.00     0.167 HD
ATOM     23  C   UNL     1       7.573   2.749   8.372  1.00  0.00     0.034 A 
ATOM     24  C   UNL     1       7.178   7.947   3.705  1.00  0.00     0.034 A 
ATOM     25  C   UNL     1       8.436   3.865   8.616  1.00  0.00     0.049 A 
ATOM     26  C   UNL     1       8.079   8.041   4.897  1.00  0.00     0.074 A 
ATOM     27  C   UNL     1       9.333   4.036   9.652  1.00  0.00     0.029 A 
ATOM     28  N   UNL     1       8.477   5.021   7.850  1.00  0.00    -0.354 N 
ATOM     29  N   UNL     1       8.301   7.139   5.821  1.00  0.00    -0.248 NA
ATOM     30  C   UNL     1       8.810   9.301   5.087  1.00  0.00     0.031 C 
ATOM     31  C   UNL     1       9.891   5.313   9.534  1.00  0.00     0.029 A 
ATOM     32  C   UNL     1       9.383   5.915   8.394  1.00  0.00     0.049 A 
ATOM     33  H   UNL     1       7.941   5.181   7.040  1.00  0.00     0.167 HD
ATOM     34  C   UNL     1       9.198   7.720   6.702  1.00  0.00     0.074 A 
ATOM     35  C   UNL     1       9.513   9.034   6.179  1.00  0.00     0.031 C 
ATOM     36  C   UNL     1       9.699   7.212   7.852  1.00  0.00     0.034 A 
BRANCH  23  37
ATOM     37  C   UNL     1       7.592   1.575   9.294  1.00  0.00     0.023 A 
ATOM     38  C   UNL     1       8.178   0.365   8.872  1.00  0.00     0.012 A 
ATOM     39  C   UNL     1       6.949   1.654  10.539  1.00  0.00     0.148 A 
ATOM     40  C   UNL     1       8.093  -0.769   9.675  1.00  0.00     0.002 A 
ATOM     41  C   UNL     1       6.902   0.531  11.347  1.00  0.00     0.091 A 
ATOM     42  F   UNL     1       6.358   2.808  10.879  1.00  0.00    -0.205 F 
ATOM     43  C   UNL     1       7.462  -0.684  10.914  1.00  0.00     0.022 A 
BRANCH  41  44
ATOM     44  S   UNL     1       6.134   0.551  12.966  1.00  0.00     0.127 S 
ATOM     45  O   UNL     1       4.990  -0.335  12.758  1.00  0.00    -0.237 OA
ATOM     46  O   UNL     1       7.194  -0.003  13.808  1.00  0.00    -0.237 OA
ATOM     47  O   UNL     1       5.801   1.942  13.238  1.00  0.00    -0.744 OA
ENDBRANCH  41  44
ENDBRANCH  23  37
BRANCH  24  48
ATOM     48  C   UNL     1       7.165   9.038   2.670  1.00  0.00     0.023 A 
ATOM     49  C   UNL     1       8.342   9.350   1.957  1.00  0.00     0.012 A 
ATOM     50  C   UNL     1       6.006   9.797   2.405  1.00  0.00     0.148 A 
ATOM     51  C   UNL     1       8.371  10.403   1.034  1.00  0.00     0.002 A 
ATOM     52  C   UNL     1       6.019  10.787   1.426  1.00  0.00     0.091 A 
ATOM     53  F   UNL     1       4.902   9.546   3.123  1.00  0.00    -0.205 F 
ATOM     54  C   UNL     1       7.206  11.111   0.756  1.00  0.00     0.022 A 
BRANCH  52  55
ATOM     55  S   UNL     1       4.517  11.622   0.899  1.00  0.00     0.127 S 
ATOM     56  O   UNL     1       4.671  12.937   1.515  1.00  0.00    -0.237 OA
ATOM     57  O   UNL     1       4.650  11.603  -0.558  1.00  0.00    -0.237 OA
ATOM     58  O   UNL     1       3.423  10.803   1.407  1.00  0.00    -0.744 OA
ENDBRANCH  52  55
ENDBRANCH  24  48
BRANCH  36  59
ATOM     59  C   UNL     1      10.689   8.060   8.595  1.00  0.00     0.023 A 
ATOM     60  C   UNL     1      10.270   9.215   9.284  1.00  0.00     0.012 A 
ATOM     61  C   UNL     1      12.039   7.671   8.641  1.00  0.00     0.148 A 
ATOM     62  C   UNL     1      11.194   9.989   9.983  1.00  0.00     0.002 A 
ATOM     63  C   UNL     1      12.941   8.410   9.391  1.00  0.00     0.091 A 
ATOM     64  F   UNL     1      12.416   6.586   7.948  1.00  0.00    -0.205 F 
ATOM     65  C   UNL     1      12.525   9.578  10.050  1.00  0.00     0.022 A 
BRANCH  63  66
ATOM     66  S   UNL     1      14.639   7.883   9.622  1.00  0.00     0.127 S 
ATOM     67  O   UNL     1      15.365   8.849   8.800  1.00  0.00    -0.237 OA
ATOM     68  O   UNL     1      14.819   8.047  11.064  1.00  0.00    -0.237 OA
ATOM     69  O   UNL     1      14.696   6.502   9.161  1.00  0.00    -0.744 OA
ENDBRANCH  63  66
ENDBRANCH  36  59
ENDBRANCH  10  11
ENDBRANCH   3   5
ENDBRANCH   2   3
ENDBRANCH   1   2
BRANCH   1  70
ATOM     70  C   UNL     1       3.433  -0.242  -1.440  1.00  0.00     0.274 C 
BRANCH  70  71
ATOM     71  O   UNL     1       3.029   0.943  -0.741  1.00  0.00    -0.462 OA
BRANCH  71  72
ATOM     72  C   UNL     1       2.298   1.795  -1.491  1.00  0.00     0.310 C 
ATOM     73  O   UNL     1       1.859   1.509  -2.607  1.00  0.00    -0.252 OA
BRANCH  72  74
ATOM     74  C   UNL     1       2.000   3.114  -0.821  1.00  0.00     0.115 C 
ATOM     75  C   UNL     1       2.705   3.619   0.459  1.00  0.00     0.004 C 
ATOM     76  C   UNL     1       2.038   4.277  -1.806  1.00  0.00     0.096 C 
ATOM     77  C   UNL     1       3.843   4.608   0.125  1.00  0.00     0.005 C 
ATOM     78  C   UNL     1       1.611   4.383   1.224  1.00  0.00     0.005 C 
ATOM     79  C   UNL     1       1.993   5.636  -0.987  1.00  0.00     0.002 C 
ATOM     80  C   UNL     1       3.386   5.929  -0.458  1.00  0.00     0.005 C 
ATOM     81  C   UNL     1       1.114   5.525   0.314  1.00  0.00     0.005 C 
BRANCH  76  82
ATOM     82  C   UNL     1       3.050   4.165  -3.020  1.00  0.00     0.228 C 
ATOM     83  O   UNL     1       2.548   4.437  -4.132  1.00  0.00    -0.274 OA
ATOM     84  N   UNL     1       4.403   3.936  -3.120  1.00  0.00    -0.326 N 
ATOM     85  H   UNL     1       4.667   4.082  -4.057  1.00  0.00     0.169 HD
BRANCH  84  86
ATOM     86  C   UNL     1       5.572   3.567  -2.382  1.00  0.00     0.041 A 
ATOM     87  C   UNL     1       6.743   4.283  -2.645  1.00  0.00     0.027 A 
ATOM     88  C   UNL     1       5.666   2.638  -1.346  1.00  0.00     0.027 A 
ATOM     89  C   UNL     1       7.843   4.242  -1.752  1.00  0.00     0.016 A 
ATOM     90  C   UNL     1       6.750   2.602  -0.438  1.00  0.00     0.016 A 
ATOM     91  C   UNL     1       7.832   3.454  -0.585  1.00  0.00     0.040 A 
BRANCH  91  92
ATOM     92  C   UNL     1       8.846   3.746   0.496  1.00  0.00     0.253 C 
ATOM     93  O   UNL     1       9.642   4.662   0.274  1.00  0.00    -0.269 OA
ATOM     94  N   UNL     1       8.792   3.142   1.756  1.00  0.00    -0.339 N 
ATOM     95  C   UNL     1       8.832   1.724   2.072  1.00  0.00     0.120 C 
ATOM     96  C   UNL     1       9.290   3.895   2.906  1.00  0.00     0.120 C 
ATOM     97  C   UNL     1       8.623   1.666   3.582  1.00  0.00     0.023 C 
ATOM     98  C   UNL     1       9.262   2.946   4.099  1.00  0.00     0.023 C 
ENDBRANCH  91  92
ENDBRANCH  84  86
ENDBRANCH  76  82
ENDBRANCH  72  74
ENDBRANCH  71  72
ENDBRANCH  70  71
ENDBRANCH   1  70
TORSDOF 17
