REMARK SMILES O=C(OCCOC(=O)c1ccc(-c2c3nc(c(-c4cccc(S(=O)(=O)[O-])c4F)c4ccc([nH]4)c(-c4cccc(S(=O)(=O)[O-])c4F)c4nc(c(-c5cccc(S(=O)(=O)[O-])c5F)c5ccc2[nH]5)C=C4)C=C3)cc1)C1=Cc2cc(Cl)cc(C#Cc3ccccc3)c2O[C@@H]1C(F)(F)F
REMARK SMILES IDX 5 1 4 2 3 3 2 4 1 5 72 6 73 7 90 8 74 9 89 10 75 11 88 12
REMARK SMILES IDX 76 13 79 14 77 15 78 16 91 17 92 18 93 19 94 20 80 21 81 22
REMARK SMILES IDX 82 23 83 24 87 25 84 26 86 27 85 28 6 29 7 30 8 31 9 32
REMARK SMILES IDX 10 33 71 34 11 35 70 36 12 37 13 38 14 39 64 40 15 41 69 42
REMARK SMILES IDX 63 43 65 44 16 45 68 46 62 47 61 48 17 50 49 51 29 52 48 53
REMARK SMILES IDX 30 54 33 55 47 56 66 57 31 58 32 59 46 61 67 62 34 63 18 64
REMARK SMILES IDX 19 65 27 66 20 67 22 68 28 69 21 70 23 71 24 72 25 73 26 74
REMARK SMILES IDX 50 75 51 76 59 77 52 78 54 79 60 80 53 81 55 82 56 83 57 84
REMARK SMILES IDX 58 85 35 86 36 87 44 88 37 89 39 90 45 91 38 92 40 93 41 94
REMARK SMILES IDX 42 95 43 96
REMARK H PARENT 65 49 33 60
REMARK Flexibility Score: inf
ROOT
ATOM      1  C   UNL     1       4.624  -0.008   0.831  1.00  0.00     0.275 C 
ENDROOT
BRANCH   1   2
ATOM      2  C   UNL     1       3.844  -0.617  -1.107  1.00  0.00     0.275 C 
BRANCH   2   3
ATOM      3  O   UNL     1       3.031  -1.908  -1.404  1.00  0.00    -0.459 OA
BRANCH   3   4
ATOM      4  C   UNL     1       3.236  -2.886  -0.515  1.00  0.00     0.338 C 
ATOM      5  O   UNL     1       2.703  -3.958  -0.403  1.00  0.00    -0.246 OA
BRANCH   4   6
ATOM      6  C   UNL     1       4.026  -2.081   0.381  1.00  0.00     0.087 C 
ATOM      7  C   UNL     1       5.401  -1.918  -0.124  1.00  0.00     0.027 C 
ATOM      8  C   UNL     1       2.739  -0.654   0.587  1.00  0.00     0.316 C 
ATOM      9  C   UNL     1       6.030  -0.362  -0.796  1.00  0.00     0.020 A 
ATOM     10  O   UNL     1       3.379   1.004  -0.167  1.00  0.00    -0.474 OA
ATOM     11  C   UNL     1       7.230  -0.414  -1.454  1.00  0.00     0.032 A 
ATOM     12  C   UNL     1       5.041   1.070  -0.919  1.00  0.00     0.143 A 
ATOM     13  C   UNL     1       7.541   0.727  -2.200  1.00  0.00     0.043 A 
ATOM     14  C   UNL     1       5.442   2.134  -1.686  1.00  0.00     0.069 A 
ATOM     15  Cl  UNL     1       9.006   0.681  -3.128  1.00  0.00    -0.084 Cl
ATOM     16  C   UNL     1       6.709   1.913  -2.309  1.00  0.00     0.041 A 
BRANCH   8  17
ATOM     17  C   UNL     1       2.194  -1.068   2.004  1.00  0.00     0.430 C 
ATOM     18  F   UNL     1       0.953  -0.609   2.213  1.00  0.00    -0.167 F 
ATOM     19  F   UNL     1       2.054  -2.429   2.021  1.00  0.00    -0.167 F 
ATOM     20  F   UNL     1       2.990  -0.838   3.059  1.00  0.00    -0.167 F 
ENDBRANCH   8  17
BRANCH  14  21
ATOM     21  C   UNL     1       4.755   3.325  -2.012  1.00  0.00    -0.058 C 
ATOM     22  C   UNL     1       4.385   4.387  -2.467  1.00  0.00    -0.062 C 
BRANCH  22  23
ATOM     23  C   UNL     1       4.073   5.638  -3.072  1.00  0.00     0.025 A 
ATOM     24  C   UNL     1       4.870   6.760  -2.817  1.00  0.00     0.017 A 
ATOM     25  C   UNL     1       2.978   5.749  -3.932  1.00  0.00     0.017 A 
ATOM     26  C   UNL     1       4.542   7.996  -3.379  1.00  0.00     0.001 A 
ATOM     27  C   UNL     1       2.652   6.985  -4.494  1.00  0.00     0.001 A 
ATOM     28  C   UNL     1       3.426   8.110  -4.208  1.00  0.00     0.000 A 
ENDBRANCH  22  23
ENDBRANCH  14  21
ENDBRANCH   4   6
ENDBRANCH   3   4
ENDBRANCH   2   3
ENDBRANCH   1   2
BRANCH   1  29
ATOM     29  O   UNL     1       3.807   0.952   1.980  1.00  0.00    -0.458 OA
BRANCH  29  30
ATOM     30  C   UNL     1       2.997   2.044   2.141  1.00  0.00     0.338 C 
ATOM     31  O   UNL     1       2.643   2.878   1.330  1.00  0.00    -0.246 OA
BRANCH  30  32
ATOM     32  C   UNL     1       2.300   1.813   3.446  1.00  0.00     0.060 A 
ATOM     33  C   UNL     1       0.917   1.558   3.435  1.00  0.00     0.016 A 
ATOM     34  C   UNL     1       3.057   1.475   4.569  1.00  0.00     0.016 A 
ATOM     35  C   UNL     1       0.344   0.773   4.453  1.00  0.00     0.010 A 
ATOM     36  C   UNL     1       2.481   0.704   5.583  1.00  0.00     0.010 A 
ATOM     37  C   UNL     1       1.137   0.295   5.506  1.00  0.00    -0.014 A 
BRANCH  37  38
ATOM     38  C   UNL     1       0.522  -0.378   6.681  1.00  0.00     0.031 A 
ATOM     39  C   UNL     1       0.080   0.542   7.782  1.00  0.00     0.074 A 
ATOM     40  C   UNL     1       0.429  -1.716   6.835  1.00  0.00     0.049 A 
ATOM     41  N   UNL     1      -0.464   0.270   8.934  1.00  0.00    -0.248 NA
ATOM     42  C   UNL     1       0.320   1.979   7.547  1.00  0.00     0.031 C 
ATOM     43  C   UNL     1       0.859  -2.731   5.871  1.00  0.00     0.029 A 
ATOM     44  N   UNL     1      -0.044  -2.459   7.897  1.00  0.00    -0.354 N 
ATOM     45  C   UNL     1      -0.611   1.497   9.566  1.00  0.00     0.074 A 
ATOM     46  C   UNL     1      -0.052   2.505   8.697  1.00  0.00     0.031 C 
ATOM     47  C   UNL     1       0.642  -3.957   6.392  1.00  0.00     0.029 A 
ATOM     48  C   UNL     1       0.061  -3.824   7.727  1.00  0.00     0.049 A 
ATOM     49  H   UNL     1      -0.426  -2.049   8.707  1.00  0.00     0.167 HD
ATOM     50  C   UNL     1      -1.187   1.777  10.754  1.00  0.00     0.034 A 
ATOM     51  C   UNL     1      -0.282  -4.836   8.556  1.00  0.00     0.034 A 
ATOM     52  C   UNL     1      -1.725   0.782  11.628  1.00  0.00     0.049 A 
ATOM     53  C   UNL     1      -0.915  -4.500   9.894  1.00  0.00     0.074 A 
ATOM     54  C   UNL     1      -2.362   0.954  12.841  1.00  0.00     0.029 A 
ATOM     55  N   UNL     1      -1.663  -0.582  11.388  1.00  0.00    -0.354 N 
ATOM     56  N   UNL     1      -1.210  -3.326  10.403  1.00  0.00    -0.248 NA
ATOM     57  C   UNL     1      -1.303  -5.630  10.755  1.00  0.00     0.031 C 
ATOM     58  C   UNL     1      -2.660  -0.314  13.351  1.00  0.00     0.029 A 
ATOM     59  C   UNL     1      -2.244  -1.269  12.435  1.00  0.00     0.049 A 
ATOM     60  H   UNL     1      -1.264  -0.998  10.590  1.00  0.00     0.167 HD
ATOM     61  C   UNL     1      -1.866  -3.578  11.605  1.00  0.00     0.074 A 
ATOM     62  C   UNL     1      -1.934  -5.017  11.748  1.00  0.00     0.031 C 
ATOM     63  C   UNL     1      -2.364  -2.703  12.515  1.00  0.00     0.034 A 
BRANCH  50  64
ATOM     64  C   UNL     1      -1.251   3.229  11.134  1.00  0.00     0.023 A 
ATOM     65  C   UNL     1      -2.090   4.102  10.406  1.00  0.00     0.012 A 
ATOM     66  C   UNL     1      -0.430   3.742  12.152  1.00  0.00     0.148 A 
ATOM     67  C   UNL     1      -2.059   5.474  10.643  1.00  0.00     0.002 A 
ATOM     68  C   UNL     1      -0.446   5.105  12.419  1.00  0.00     0.091 A 
ATOM     69  F   UNL     1       0.382   2.900  12.806  1.00  0.00    -0.205 F 
ATOM     70  C   UNL     1      -1.242   5.974  11.652  1.00  0.00     0.022 A 
BRANCH  68  71
ATOM     71  S   UNL     1       0.517   5.841  13.741  1.00  0.00     0.127 S 
ATOM     72  O   UNL     1       1.504   6.617  12.991  1.00  0.00    -0.237 OA
ATOM     73  O   UNL     1      -0.488   6.643  14.438  1.00  0.00    -0.237 OA
ATOM     74  O   UNL     1       1.054   4.731  14.515  1.00  0.00    -0.744 OA
ENDBRANCH  68  71
ENDBRANCH  50  64
BRANCH  51  75
ATOM     75  C   UNL     1      -0.135  -6.273   8.152  1.00  0.00     0.023 A 
ATOM     76  C   UNL     1      -1.296  -7.048   7.942  1.00  0.00     0.012 A 
ATOM     77  C   UNL     1       1.123  -6.899   8.039  1.00  0.00     0.148 A 
ATOM     78  C   UNL     1      -1.213  -8.417   7.677  1.00  0.00     0.002 A 
ATOM     79  C   UNL     1       1.202  -8.256   7.729  1.00  0.00     0.091 A 
ATOM     80  F   UNL     1       2.220  -6.161   8.258  1.00  0.00    -0.205 F 
ATOM     81  C   UNL     1       0.035  -9.021   7.566  1.00  0.00     0.022 A 
BRANCH  79  82
ATOM     82  S   UNL     1       2.762  -9.117   7.484  1.00  0.00     0.127 S 
ATOM     83  O   UNL     1       2.769 -10.053   8.607  1.00  0.00    -0.237 OA
ATOM     84  O   UNL     1       2.562  -9.734   6.173  1.00  0.00    -0.237 OA
ATOM     85  O   UNL     1       3.791  -8.088   7.520  1.00  0.00    -0.744 OA
ENDBRANCH  79  82
ENDBRANCH  51  75
BRANCH  63  86
ATOM     86  C   UNL     1      -3.092  -3.253  13.714  1.00  0.00     0.023 A 
ATOM     87  C   UNL     1      -2.379  -3.889  14.748  1.00  0.00     0.012 A 
ATOM     88  C   UNL     1      -4.475  -3.024  13.866  1.00  0.00     0.148 A 
ATOM     89  C   UNL     1      -3.036  -4.312  15.903  1.00  0.00     0.002 A 
ATOM     90  C   UNL     1      -5.112  -3.396  15.043  1.00  0.00     0.091 A 
ATOM     91  F   UNL     1      -5.140  -2.432  12.862  1.00  0.00    -0.205 F 
ATOM     92  C   UNL     1      -4.397  -4.052  16.057  1.00  0.00     0.022 A 
BRANCH  90  93
ATOM     93  S   UNL     1      -6.830  -2.989  15.372  1.00  0.00     0.127 S 
ATOM     94  O   UNL     1      -7.479  -4.290  15.219  1.00  0.00    -0.237 OA
ATOM     95  O   UNL     1      -6.774  -2.494  16.748  1.00  0.00    -0.237 OA
ATOM     96  O   UNL     1      -7.200  -1.984  14.385  1.00  0.00    -0.744 OA
ENDBRANCH  90  93
ENDBRANCH  63  86
ENDBRANCH  37  38
ENDBRANCH  30  32
ENDBRANCH  29  30
ENDBRANCH   1  29
TORSDOF 17
