REMARK SMILES NC(=S)S/C=C/C(=O)OCCOC(=O)c1ccc(-c2c3nc(c(-c4cccc(S(=O)(=O)[O-])c4F)c4ccc([nH]4)c(-c4cccc(S(=O)(=O)[O-])c4F)c4nc(c(-c5cccc(S(=O)(=O)[O-])c5F)c5ccc2[nH]5)C=C4)C=C3)cc1
REMARK SMILES IDX 10 1 9 2 7 3 8 4 6 5 5 6 4 7 2 8 3 9 1 10 11 13 12 14 13 15
REMARK SMILES IDX 14 16 15 17 16 18 77 19 17 20 76 21 18 22 19 23 20 24 70 25
REMARK SMILES IDX 21 26 75 27 69 28 71 29 22 30 74 31 68 32 67 33 23 35 55 36
REMARK SMILES IDX 35 37 54 38 36 39 39 40 53 41 72 42 37 43 38 44 52 46 73 47
REMARK SMILES IDX 40 48 24 49 25 50 33 51 26 52 28 53 34 54 27 55 29 56 30 57
REMARK SMILES IDX 31 58 32 59 56 60 57 61 65 62 58 63 60 64 66 65 59 66 61 67
REMARK SMILES IDX 62 68 63 69 64 70 41 71 42 72 50 73 43 74 45 75 51 76 44 77
REMARK SMILES IDX 46 78 47 79 48 80 49 81
REMARK H PARENT 1 11 1 12 71 34 39 45
REMARK Flexibility Score: inf
ROOT
ATOM      1  C   UNL     1      -2.774   4.210  -5.902  1.00  0.00     0.275 C 
ENDROOT
BRANCH   1   2
ATOM      2  O   UNL     1      -1.796   3.633  -5.013  1.00  0.00    -0.459 OA
BRANCH   2   3
ATOM      3  C   UNL     1      -2.052   3.761  -3.689  1.00  0.00     0.331 C 
ATOM      4  O   UNL     1      -3.016   4.328  -3.195  1.00  0.00    -0.247 OA
BRANCH   3   5
ATOM      5  C   UNL     1      -0.981   3.196  -2.843  1.00  0.00     0.101 C 
ATOM      6  C   UNL     1      -0.037   2.345  -3.268  1.00  0.00     0.056 C 
BRANCH   6   7
ATOM      7  S   UNL     1       1.267   1.804  -2.261  1.00  0.00    -0.069 SA
BRANCH   7   8
ATOM      8  C   UNL     1       0.603   0.743  -1.046  1.00  0.00     0.135 C 
ATOM      9  S   UNL     1      -0.963   0.362  -0.678  1.00  0.00    -0.053 S 
BRANCH   8  10
ATOM     10  N   UNL     1       1.601   0.188  -0.305  1.00  0.00    -0.384 N 
ATOM     11  H   UNL     1       1.383  -0.436   0.425  1.00  0.00     0.158 HD
ATOM     12  H   UNL     1       2.540   0.412  -0.498  1.00  0.00     0.158 HD
ENDBRANCH   8  10
ENDBRANCH   7   8
ENDBRANCH   6   7
ENDBRANCH   3   5
ENDBRANCH   2   3
ENDBRANCH   1   2
BRANCH   1  13
ATOM     13  C   UNL     1      -3.631   3.142  -6.588  1.00  0.00     0.275 C 
BRANCH  13  14
ATOM     14  O   UNL     1      -4.449   2.422  -5.650  1.00  0.00    -0.458 OA
BRANCH  14  15
ATOM     15  C   UNL     1      -3.861   1.318  -5.135  1.00  0.00     0.338 C 
ATOM     16  O   UNL     1      -2.753   0.884  -5.413  1.00  0.00    -0.246 OA
BRANCH  15  17
ATOM     17  C   UNL     1      -4.688   0.740  -4.064  1.00  0.00     0.060 A 
ATOM     18  C   UNL     1      -4.088   0.602  -2.813  1.00  0.00     0.016 A 
ATOM     19  C   UNL     1      -5.962   0.219  -4.296  1.00  0.00     0.016 A 
ATOM     20  C   UNL     1      -4.724  -0.117  -1.806  1.00  0.00     0.010 A 
ATOM     21  C   UNL     1      -6.610  -0.489  -3.273  1.00  0.00     0.010 A 
ATOM     22  C   UNL     1      -5.978  -0.697  -2.034  1.00  0.00    -0.014 A 
BRANCH  22  23
ATOM     23  C   UNL     1      -6.554  -1.595  -0.998  1.00  0.00     0.031 A 
ATOM     24  C   UNL     1      -6.602  -3.083  -1.236  1.00  0.00     0.074 A 
ATOM     25  C   UNL     1      -6.975  -1.093   0.179  1.00  0.00     0.049 A 
ATOM     26  N   UNL     1      -7.064  -4.031  -0.460  1.00  0.00    -0.248 NA
ATOM     27  C   UNL     1      -6.059  -3.569  -2.515  1.00  0.00     0.031 C 
ATOM     28  C   UNL     1      -6.970   0.324   0.542  1.00  0.00     0.029 A 
ATOM     29  N   UNL     1      -7.491  -1.720   1.287  1.00  0.00    -0.354 N 
ATOM     30  C   UNL     1      -6.893  -5.218  -1.164  1.00  0.00     0.074 A 
ATOM     31  C   UNL     1      -6.302  -4.870  -2.438  1.00  0.00     0.031 C 
ATOM     32  C   UNL     1      -7.467   0.460   1.783  1.00  0.00     0.029 A 
ATOM     33  C   UNL     1      -7.848  -0.854   2.294  1.00  0.00     0.049 A 
ATOM     34  H   UNL     1      -7.595  -2.697   1.354  1.00  0.00     0.167 HD
ATOM     35  C   UNL     1      -7.178  -6.485  -0.778  1.00  0.00     0.034 A 
ATOM     36  C   UNL     1      -8.425  -1.091   3.489  1.00  0.00     0.034 A 
ATOM     37  C   UNL     1      -7.727  -6.839   0.504  1.00  0.00     0.049 A 
ATOM     38  C   UNL     1      -8.712  -2.511   3.898  1.00  0.00     0.074 A 
ATOM     39  C   UNL     1      -8.063  -8.095   0.981  1.00  0.00     0.029 A 
ATOM     40  N   UNL     1      -8.005  -5.940   1.521  1.00  0.00    -0.354 N 
ATOM     41  N   UNL     1      -8.481  -3.624   3.244  1.00  0.00    -0.248 NA
ATOM     42  C   UNL     1      -9.301  -2.713   5.231  1.00  0.00     0.031 C 
ATOM     43  C   UNL     1      -8.539  -7.955   2.289  1.00  0.00     0.029 A 
ATOM     44  C   UNL     1      -8.489  -6.614   2.631  1.00  0.00     0.049 A 
ATOM     45  H   UNL     1      -7.878  -4.965   1.464  1.00  0.00     0.167 HD
ATOM     46  C   UNL     1      -8.862  -4.654   4.097  1.00  0.00     0.074 A 
ATOM     47  C   UNL     1      -9.312  -4.035   5.325  1.00  0.00     0.031 C 
ATOM     48  C   UNL     1      -8.862  -5.992   3.874  1.00  0.00     0.034 A 
BRANCH  35  49
ATOM     49  C   UNL     1      -6.849  -7.598  -1.738  1.00  0.00     0.023 A 
ATOM     50  C   UNL     1      -5.505  -7.986  -1.909  1.00  0.00     0.012 A 
ATOM     51  C   UNL     1      -7.864  -8.300  -2.418  1.00  0.00     0.148 A 
ATOM     52  C   UNL     1      -5.172  -9.038  -2.761  1.00  0.00     0.002 A 
ATOM     53  C   UNL     1      -7.527  -9.373  -3.237  1.00  0.00     0.091 A 
ATOM     54  F   UNL     1      -9.134  -7.904  -2.257  1.00  0.00    -0.205 F 
ATOM     55  C   UNL     1      -6.182  -9.737  -3.416  1.00  0.00     0.022 A 
BRANCH  53  56
ATOM     56  S   UNL     1      -8.758 -10.383  -4.069  1.00  0.00     0.127 S 
ATOM     57  O   UNL     1      -8.563  -9.995  -5.466  1.00  0.00    -0.237 OA
ATOM     58  O   UNL     1      -8.315 -11.739  -3.746  1.00  0.00    -0.237 OA
ATOM     59  O   UNL     1     -10.042 -10.010  -3.492  1.00  0.00    -0.744 OA
ENDBRANCH  53  56
ENDBRANCH  35  49
BRANCH  36  60
ATOM     60  C   UNL     1      -8.731   0.042   4.408  1.00  0.00     0.023 A 
ATOM     61  C   UNL     1      -8.012   0.179   5.612  1.00  0.00     0.012 A 
ATOM     62  C   UNL     1      -9.727   0.987   4.095  1.00  0.00     0.148 A 
ATOM     63  C   UNL     1      -8.306   1.212   6.503  1.00  0.00     0.002 A 
ATOM     64  C   UNL     1      -9.976   2.046   4.960  1.00  0.00     0.091 A 
ATOM     65  F   UNL     1     -10.421   0.830   2.958  1.00  0.00    -0.205 F 
ATOM     66  C   UNL     1      -9.280   2.151   6.173  1.00  0.00     0.022 A 
BRANCH  64  67
ATOM     67  S   UNL     1     -11.120   3.364   4.535  1.00  0.00     0.127 S 
ATOM     68  O   UNL     1     -12.321   2.967   5.265  1.00  0.00    -0.237 OA
ATOM     69  O   UNL     1     -10.442   4.548   5.064  1.00  0.00    -0.237 OA
ATOM     70  O   UNL     1     -11.214   3.333   3.081  1.00  0.00    -0.744 OA
ENDBRANCH  64  67
ENDBRANCH  36  60
BRANCH  48  71
ATOM     71  C   UNL     1      -9.319  -6.885   4.997  1.00  0.00     0.023 A 
ATOM     72  C   UNL     1     -10.688  -6.950   5.326  1.00  0.00     0.012 A 
ATOM     73  C   UNL     1      -8.403  -7.700   5.691  1.00  0.00     0.148 A 
ATOM     74  C   UNL     1     -11.132  -7.783   6.352  1.00  0.00     0.002 A 
ATOM     75  C   UNL     1      -8.860  -8.560   6.684  1.00  0.00     0.091 A 
ATOM     76  F   UNL     1      -7.101  -7.611   5.382  1.00  0.00    -0.205 F 
ATOM     77  C   UNL     1     -10.221  -8.594   7.024  1.00  0.00     0.022 A 
BRANCH  75  78
ATOM     78  S   UNL     1      -7.758  -9.699   7.532  1.00  0.00     0.127 S 
ATOM     79  O   UNL     1      -7.474  -8.976   8.770  1.00  0.00    -0.237 OA
ATOM     80  O   UNL     1      -8.597 -10.887   7.700  1.00  0.00    -0.237 OA
ATOM     81  O   UNL     1      -6.627  -9.890   6.634  1.00  0.00    -0.744 OA
ENDBRANCH  75  78
ENDBRANCH  48  71
ENDBRANCH  22  23
ENDBRANCH  15  17
ENDBRANCH  14  15
ENDBRANCH  13  14
ENDBRANCH   1  13
TORSDOF 17
