REMARK SMILES COc1ccc(-c2nc3ccc(C)cc3[nH]2)c(C(=O)OCCOC(=O)c2ccc(-c3c4nc(c(-c5cccc(S(=O)(=O)[O-])c5F)c5ccc([nH]5)c(-c5cccc(S(=O)(=O)[O-])c5F)c5nc(c(-c6cccc(S(=O)(=O)[O-])c6F)c6ccc3[nH]6)C=C5)C=C4)cc2)c1OC
REMARK SMILES IDX 22 1 21 2 20 3 18 4 19 5 17 6 3 7 4 8 89 9 5 10 6 11 2 12
REMARK SMILES IDX 1 13 90 14 91 15 7 16 8 17 16 18 9 19 15 20 10 22 14 23
REMARK SMILES IDX 11 24 12 25 13 26 23 27 24 28 25 29 26 30 27 31 88 32 28 33
REMARK SMILES IDX 87 34 29 35 30 36 31 37 81 38 32 39 86 40 80 41 82 42 33 43
REMARK SMILES IDX 85 44 79 45 78 46 34 48 66 49 46 50 65 51 47 52 50 53 64 54
REMARK SMILES IDX 83 55 48 56 49 57 63 59 84 60 51 61 35 62 36 63 44 64 37 65
REMARK SMILES IDX 39 66 45 67 38 68 40 69 41 70 42 71 43 72 67 73 68 74 76 75
REMARK SMILES IDX 69 76 71 77 77 78 70 79 72 80 73 81 74 82 75 83 52 84 53 85
REMARK SMILES IDX 61 86 54 87 56 88 62 89 55 90 57 91 58 92 59 93 60 94
REMARK H PARENT 16 21 82 47 50 58
REMARK Flexibility Score: inf
ROOT
ATOM      1  C   UNL     1       6.702   0.409  -4.853  1.00  0.00     0.275 C 
ENDROOT
BRANCH   1   2
ATOM      2  C   UNL     1       6.348   1.347  -3.696  1.00  0.00     0.275 C 
BRANCH   2   3
ATOM      3  O   UNL     1       5.000   1.069  -3.321  1.00  0.00    -0.458 OA
BRANCH   3   4
ATOM      4  C   UNL     1       4.348   2.078  -2.706  1.00  0.00     0.342 C 
ATOM      5  O   UNL     1       4.806   3.043  -2.134  1.00  0.00    -0.246 OA
BRANCH   4   6
ATOM      6  C   UNL     1       2.911   1.839  -2.917  1.00  0.00     0.116 A 
ATOM      7  C   UNL     1       0.928   0.628  -2.305  1.00  0.00     0.161 A 
ATOM      8  C   UNL     1       0.201   1.393  -3.227  1.00  0.00     0.051 A 
ATOM      9  C   UNL     1       2.303   0.813  -2.181  1.00  0.00     0.176 A 
ATOM     10  C   UNL     1       0.836   2.372  -4.017  1.00  0.00     0.017 A 
ATOM     11  C   UNL     1       2.209   2.620  -3.869  1.00  0.00     0.036 A 
BRANCH   7  12
ATOM     12  O   UNL     1       0.274  -0.370  -1.634  1.00  0.00    -0.493 OA
ATOM     13  C   UNL     1      -0.128   0.066  -0.334  1.00  0.00     0.278 C 
ENDBRANCH   7  12
BRANCH   9  14
ATOM     14  O   UNL     1       3.107  -0.133  -1.600  1.00  0.00    -0.492 OA
ATOM     15  C   UNL     1       3.121  -0.140  -0.185  1.00  0.00     0.278 C 
ENDBRANCH   9  14
BRANCH  11  16
ATOM     16  C   UNL     1       2.984   3.445  -4.819  1.00  0.00     0.139 A 
ATOM     17  N   UNL     1       4.203   3.105  -5.191  1.00  0.00    -0.228 NA
ATOM     18  N   UNL     1       2.606   4.584  -5.503  1.00  0.00    -0.338 N 
ATOM     19  C   UNL     1       4.578   3.940  -6.193  1.00  0.00     0.089 A 
ATOM     20  C   UNL     1       3.605   4.897  -6.409  1.00  0.00     0.066 A 
ATOM     21  H   UNL     1       1.769   5.086  -5.370  1.00  0.00     0.168 HD
ATOM     22  C   UNL     1       5.720   3.887  -7.000  1.00  0.00     0.031 A 
ATOM     23  C   UNL     1       3.735   5.850  -7.423  1.00  0.00     0.031 A 
ATOM     24  C   UNL     1       5.775   4.709  -8.122  1.00  0.00     0.006 A 
ATOM     25  C   UNL     1       4.771   5.649  -8.360  1.00  0.00    -0.049 A 
ATOM     26  C   UNL     1       4.782   6.390  -9.668  1.00  0.00     0.044 C 
ENDBRANCH  11  16
ENDBRANCH   4   6
ENDBRANCH   3   4
ENDBRANCH   2   3
ENDBRANCH   1   2
BRANCH   1  27
ATOM     27  O   UNL     1       5.941   0.712  -6.046  1.00  0.00    -0.458 OA
BRANCH  27  28
ATOM     28  C   UNL     1       4.749   0.074  -6.203  1.00  0.00     0.338 C 
ATOM     29  O   UNL     1       4.325  -0.851  -5.529  1.00  0.00    -0.246 OA
BRANCH  28  30
ATOM     30  C   UNL     1       3.957   0.718  -7.291  1.00  0.00     0.060 A 
ATOM     31  C   UNL     1       2.577   0.899  -7.111  1.00  0.00     0.016 A 
ATOM     32  C   UNL     1       4.555   1.193  -8.460  1.00  0.00     0.016 A 
ATOM     33  C   UNL     1       1.814   1.621  -8.047  1.00  0.00     0.010 A 
ATOM     34  C   UNL     1       3.792   1.910  -9.396  1.00  0.00     0.010 A 
ATOM     35  C   UNL     1       2.416   2.149  -9.195  1.00  0.00    -0.014 A 
BRANCH  35  36
ATOM     36  C   UNL     1       1.635   2.819 -10.279  1.00  0.00     0.031 A 
ATOM     37  C   UNL     1       1.273   2.022 -11.493  1.00  0.00     0.074 A 
ATOM     38  C   UNL     1       1.255   4.114 -10.249  1.00  0.00     0.049 A 
ATOM     39  N   UNL     1       0.662   2.425 -12.573  1.00  0.00    -0.248 NA
ATOM     40  C   UNL     1       1.555   0.579 -11.452  1.00  0.00     0.031 C 
ATOM     41  C   UNL     1       1.278   4.975  -9.082  1.00  0.00     0.029 A 
ATOM     42  N   UNL     1       0.822   4.958 -11.253  1.00  0.00    -0.354 N 
ATOM     43  C   UNL     1       0.442   1.285 -13.323  1.00  0.00     0.074 A 
ATOM     44  C   UNL     1       1.029   0.176 -12.600  1.00  0.00     0.031 C 
ATOM     45  C   UNL     1       1.066   6.251  -9.456  1.00  0.00     0.029 A 
ATOM     46  C   UNL     1       0.866   6.292 -10.896  1.00  0.00     0.049 A 
ATOM     47  H   UNL     1       0.513   4.641 -12.132  1.00  0.00     0.167 HD
ATOM     48  C   UNL     1      -0.232   1.174 -14.489  1.00  0.00     0.034 A 
ATOM     49  C   UNL     1       0.781   7.415 -11.641  1.00  0.00     0.034 A 
ATOM     50  C   UNL     1      -0.790   2.279 -15.216  1.00  0.00     0.049 A 
ATOM     51  C   UNL     1       0.308   7.282 -13.058  1.00  0.00     0.074 A 
ATOM     52  C   UNL     1      -1.526   2.248 -16.387  1.00  0.00     0.029 A 
ATOM     53  N   UNL     1      -0.630   3.614 -14.880  1.00  0.00    -0.354 N 
ATOM     54  N   UNL     1      -0.025   6.191 -13.699  1.00  0.00    -0.248 NA
ATOM     55  C   UNL     1       0.076   8.523 -13.811  1.00  0.00     0.031 C 
ATOM     56  C   UNL     1      -1.748   3.566 -16.797  1.00  0.00     0.029 A 
ATOM     57  C   UNL     1      -1.195   4.418 -15.855  1.00  0.00     0.049 A 
ATOM     58  H   UNL     1      -0.181   3.942 -14.067  1.00  0.00     0.167 HD
ATOM     59  C   UNL     1      -0.601   6.614 -14.887  1.00  0.00     0.074 A 
ATOM     60  C   UNL     1      -0.538   8.062 -14.893  1.00  0.00     0.031 C 
ATOM     61  C   UNL     1      -1.165   5.859 -15.859  1.00  0.00     0.034 A 
BRANCH  48  62
ATOM     62  C   UNL     1      -0.383  -0.203 -15.056  1.00  0.00     0.023 A 
ATOM     63  C   UNL     1      -1.300  -1.107 -14.484  1.00  0.00     0.012 A 
ATOM     64  C   UNL     1       0.364  -0.582 -16.185  1.00  0.00     0.148 A 
ATOM     65  C   UNL     1      -1.456  -2.384 -15.020  1.00  0.00     0.002 A 
ATOM     66  C   UNL     1       0.173  -1.839 -16.737  1.00  0.00     0.091 A 
ATOM     67  F   UNL     1       1.248   0.291 -16.686  1.00  0.00    -0.205 F 
ATOM     68  C   UNL     1      -0.727  -2.745 -16.151  1.00  0.00     0.022 A 
BRANCH  66  69
ATOM     69  S   UNL     1       1.016  -2.371 -18.228  1.00  0.00     0.127 S 
ATOM     70  O   UNL     1       1.852  -3.459 -17.722  1.00  0.00    -0.237 OA
ATOM     71  O   UNL     1      -0.100  -2.798 -19.071  1.00  0.00    -0.237 OA
ATOM     72  O   UNL     1       1.744  -1.209 -18.718  1.00  0.00    -0.744 OA
ENDBRANCH  66  69
ENDBRANCH  48  62
BRANCH  49  73
ATOM     73  C   UNL     1       1.068   8.769 -11.079  1.00  0.00     0.023 A 
ATOM     74  C   UNL     1       0.010   9.636 -10.751  1.00  0.00     0.012 A 
ATOM     75  C   UNL     1       2.393   9.236 -10.952  1.00  0.00     0.148 A 
ATOM     76  C   UNL     1       0.265  10.942 -10.321  1.00  0.00     0.002 A 
ATOM     77  C   UNL     1       2.642  10.515 -10.462  1.00  0.00     0.091 A 
ATOM     78  F   UNL     1       3.388   8.450 -11.383  1.00  0.00    -0.205 F 
ATOM     79  C   UNL     1       1.578  11.377 -10.161  1.00  0.00     0.022 A 
BRANCH  77  80
ATOM     80  S   UNL     1       4.304  11.119 -10.134  1.00  0.00     0.127 S 
ATOM     81  O   UNL     1       4.507  12.059 -11.233  1.00  0.00    -0.237 OA
ATOM     82  O   UNL     1       4.148  11.736  -8.816  1.00  0.00    -0.237 OA
ATOM     83  O   UNL     1       5.152   9.934 -10.144  1.00  0.00    -0.744 OA
ENDBRANCH  77  80
ENDBRANCH  49  73
BRANCH  61  84
ATOM     84  C   UNL     1      -1.808   6.572 -17.014  1.00  0.00     0.023 A 
ATOM     85  C   UNL     1      -1.011   7.231 -17.970  1.00  0.00     0.012 A 
ATOM     86  C   UNL     1      -3.205   6.514 -17.196  1.00  0.00     0.148 A 
ATOM     87  C   UNL     1      -1.597   7.840 -19.078  1.00  0.00     0.002 A 
ATOM     88  C   UNL     1      -3.775   7.073 -18.331  1.00  0.00     0.091 A 
ATOM     89  F   UNL     1      -3.946   5.901 -16.261  1.00  0.00    -0.205 F 
ATOM     90  C   UNL     1      -2.974   7.748 -19.267  1.00  0.00     0.022 A 
BRANCH  88  91
ATOM     91  S   UNL     1      -5.522   6.914 -18.714  1.00  0.00     0.127 S 
ATOM     92  O   UNL     1      -5.975   8.301 -18.620  1.00  0.00    -0.237 OA
ATOM     93  O   UNL     1      -5.490   6.373 -20.073  1.00  0.00    -0.237 OA
ATOM     94  O   UNL     1      -6.077   6.013 -17.714  1.00  0.00    -0.744 OA
ENDBRANCH  88  91
ENDBRANCH  61  84
ENDBRANCH  35  36
ENDBRANCH  28  30
ENDBRANCH  27  28
ENDBRANCH   1  27
TORSDOF 17
