REMARK SMILES O=C1C[C@H](c2cn[nH]c2C(=O)OCCOC(=O)c2ccc(-c3c4nc(c(-c5cccc(S(=O)(=O)[O-])c5F)c5ccc([nH]5)c(-c5cccc(S(=O)(=O)[O-])c5F)c5nc(c(-c6cccc(S(=O)(=O)[O-])c6F)c6ccc3[nH]6)C=C5)C=C4)cc2)c2c(-c3cccs3)n[nH]c2N1
REMARK SMILES IDX 14 1 13 2 12 3 10 4 11 5 9 6 5 7 6 8 7 9 8 10 4 12 1 13 2 14
REMARK SMILES IDX 3 15 91 16 90 17 81 19 89 20 82 21 88 22 83 24 84 25 87 26
REMARK SMILES IDX 85 27 86 28 15 29 16 30 17 31 18 32 19 33 80 34 20 35 79 36
REMARK SMILES IDX 21 37 22 38 23 39 73 40 24 41 78 42 72 43 74 44 25 45 77 46
REMARK SMILES IDX 71 47 70 48 26 50 58 51 38 52 57 53 39 54 42 55 56 56 75 57
REMARK SMILES IDX 40 58 41 59 55 61 76 62 43 63 27 64 28 65 36 66 29 67 31 68
REMARK SMILES IDX 37 69 30 70 32 71 33 72 34 73 35 74 59 75 60 76 68 77 61 78
REMARK SMILES IDX 63 79 69 80 62 81 64 82 65 83 66 84 67 85 44 86 45 87 53 88
REMARK SMILES IDX 46 89 48 90 54 91 47 92 49 93 50 94 51 95 52 96
REMARK H PARENT 8 11 91 18 89 23 74 49 42 60
REMARK Flexibility Score: inf
ROOT
ATOM      1  C   UNL     1       5.995  -3.022  -1.987  1.00  0.00     0.275 C 
ENDROOT
BRANCH   1   2
ATOM      2  C   UNL     1       7.040  -1.961  -1.716  1.00  0.00     0.275 C 
BRANCH   2   3
ATOM      3  O   UNL     1       6.372  -0.696  -1.573  1.00  0.00    -0.457 OA
BRANCH   3   4
ATOM      4  C   UNL     1       6.467   0.201  -2.570  1.00  0.00     0.356 C 
ATOM      5  O   UNL     1       7.171   0.061  -3.566  1.00  0.00    -0.244 OA
BRANCH   4   6
ATOM      6  C   UNL     1       5.629   1.352  -2.345  1.00  0.00     0.147 A 
ATOM      7  C   UNL     1       4.777   1.851  -1.353  1.00  0.00     0.013 A 
ATOM      8  C   UNL     1       4.358   3.106  -1.896  1.00  0.00     0.140 A 
ATOM      9  N   UNL     1       4.855   3.365  -3.099  1.00  0.00    -0.183 NA
ATOM     10  N   UNL     1       5.571   2.271  -3.367  1.00  0.00    -0.271 N 
ATOM     11  H   UNL     1       6.022   2.131  -4.231  1.00  0.00     0.190 HD
BRANCH   7  12
ATOM     12  C   UNL     1       4.299   1.411   0.024  1.00  0.00     0.069 C 
ATOM     13  O   UNL     1       1.105  -0.484  -0.356  1.00  0.00    -0.275 OA
ATOM     14  C   UNL     1       2.260  -0.232  -0.012  1.00  0.00     0.226 C 
ATOM     15  C   UNL     1       2.763   1.206   0.078  1.00  0.00     0.114 C 
ATOM     16  N   UNL     1       3.065  -1.233   0.476  1.00  0.00    -0.311 N 
ATOM     17  C   UNL     1       4.348  -0.942   0.844  1.00  0.00     0.132 A 
ATOM     18  H   UNL     1       2.720  -2.151   0.559  1.00  0.00     0.171 HD
ATOM     19  C   UNL     1       4.978   0.263   0.674  1.00  0.00     0.031 A 
ATOM     20  N   UNL     1       5.264  -1.804   1.357  1.00  0.00    -0.262 N 
ATOM     21  C   UNL     1       6.307   0.033   1.116  1.00  0.00     0.108 A 
ATOM     22  N   UNL     1       6.484  -1.244   1.508  1.00  0.00    -0.173 NA
ATOM     23  H   UNL     1       5.061  -2.737   1.593  1.00  0.00     0.192 HD
BRANCH  21  24
ATOM     24  C   UNL     1       7.444   0.993   0.948  1.00  0.00     0.055 A 
ATOM     25  C   UNL     1       8.622   0.670   0.305  1.00  0.00     0.022 A 
ATOM     26  S   UNL     1       7.393   2.638   1.394  1.00  0.00    -0.142 S 
ATOM     27  C   UNL     1       9.446   1.814   0.092  1.00  0.00     0.012 A 
ATOM     28  C   UNL     1       8.921   2.939   0.688  1.00  0.00     0.065 A 
ENDBRANCH  21  24
ENDBRANCH   7  12
ENDBRANCH   4   6
ENDBRANCH   3   4
ENDBRANCH   2   3
ENDBRANCH   1   2
BRANCH   1  29
ATOM     29  O   UNL     1       5.657  -2.978  -3.364  1.00  0.00    -0.458 OA
BRANCH  29  30
ATOM     30  C   UNL     1       4.676  -2.130  -3.736  1.00  0.00     0.338 C 
ATOM     31  O   UNL     1       4.072  -1.335  -3.040  1.00  0.00    -0.246 OA
BRANCH  30  32
ATOM     32  C   UNL     1       4.384  -2.407  -5.145  1.00  0.00     0.060 A 
ATOM     33  C   UNL     1       3.480  -1.580  -5.816  1.00  0.00     0.016 A 
ATOM     34  C   UNL     1       4.888  -3.583  -5.724  1.00  0.00     0.016 A 
ATOM     35  C   UNL     1       2.978  -2.009  -7.028  1.00  0.00     0.010 A 
ATOM     36  C   UNL     1       4.379  -4.014  -6.918  1.00  0.00     0.010 A 
ATOM     37  C   UNL     1       3.387  -3.251  -7.523  1.00  0.00    -0.014 A 
BRANCH  37  38
ATOM     38  C   UNL     1       2.780  -3.760  -8.728  1.00  0.00     0.031 A 
ATOM     39  C   UNL     1       3.299  -3.173  -9.977  1.00  0.00     0.074 A 
ATOM     40  C   UNL     1       1.957  -4.823  -8.707  1.00  0.00     0.049 A 
ATOM     41  N   UNL     1       2.661  -2.427 -10.814  1.00  0.00    -0.248 NA
ATOM     42  C   UNL     1       4.730  -3.335 -10.271  1.00  0.00     0.031 C 
ATOM     43  C   UNL     1       1.671  -5.715  -7.579  1.00  0.00     0.029 A 
ATOM     44  N   UNL     1       1.329  -5.420  -9.752  1.00  0.00    -0.354 N 
ATOM     45  C   UNL     1       3.550  -2.210 -11.859  1.00  0.00     0.074 A 
ATOM     46  C   UNL     1       4.848  -2.624 -11.392  1.00  0.00     0.031 C 
ATOM     47  C   UNL     1       1.137  -6.861  -8.055  1.00  0.00     0.029 A 
ATOM     48  C   UNL     1       0.923  -6.718  -9.485  1.00  0.00     0.049 A 
ATOM     49  H   UNL     1       1.177  -4.974 -10.616  1.00  0.00     0.167 HD
ATOM     50  C   UNL     1       3.115  -1.938 -13.117  1.00  0.00     0.034 A 
ATOM     51  C   UNL     1       0.523  -7.628 -10.402  1.00  0.00     0.034 A 
ATOM     52  C   UNL     1       1.717  -1.600 -13.145  1.00  0.00     0.049 A 
ATOM     53  C   UNL     1       0.138  -6.886 -11.627  1.00  0.00     0.074 A 
ATOM     54  C   UNL     1       0.933  -0.627 -12.560  1.00  0.00     0.029 A 
ATOM     55  N   UNL     1       0.855  -2.575 -13.586  1.00  0.00    -0.354 N 
ATOM     56  N   UNL     1      -0.892  -6.090 -11.702  1.00  0.00    -0.248 NA
ATOM     57  C   UNL     1       1.123  -6.728 -12.685  1.00  0.00     0.031 C 
ATOM     58  C   UNL     1      -0.310  -1.269 -12.286  1.00  0.00     0.029 A 
ATOM     59  C   UNL     1      -0.225  -2.586 -12.744  1.00  0.00     0.049 A 
ATOM     60  H   UNL     1       0.990  -3.160 -14.366  1.00  0.00     0.167 HD
ATOM     61  C   UNL     1      -0.477  -5.056 -12.534  1.00  0.00     0.074 A 
ATOM     62  C   UNL     1       0.703  -5.576 -13.216  1.00  0.00     0.031 C 
ATOM     63  C   UNL     1      -0.951  -3.784 -12.371  1.00  0.00     0.034 A 
BRANCH  50  64
ATOM     64  C   UNL     1       3.861  -2.308 -14.369  1.00  0.00     0.023 A 
ATOM     65  C   UNL     1       3.451  -1.706 -15.576  1.00  0.00     0.012 A 
ATOM     66  C   UNL     1       4.767  -3.389 -14.460  1.00  0.00     0.148 A 
ATOM     67  C   UNL     1       3.905  -2.171 -16.814  1.00  0.00     0.002 A 
ATOM     68  C   UNL     1       5.289  -3.784 -15.684  1.00  0.00     0.091 A 
ATOM     69  F   UNL     1       5.026  -4.138 -13.382  1.00  0.00    -0.205 F 
ATOM     70  C   UNL     1       4.840  -3.198 -16.869  1.00  0.00     0.022 A 
BRANCH  68  71
ATOM     71  S   UNL     1       6.560  -5.048 -15.781  1.00  0.00     0.127 S 
ATOM     72  O   UNL     1       5.777  -6.229 -16.128  1.00  0.00    -0.237 OA
ATOM     73  O   UNL     1       7.419  -4.536 -16.851  1.00  0.00    -0.237 OA
ATOM     74  O   UNL     1       7.190  -5.048 -14.466  1.00  0.00    -0.744 OA
ENDBRANCH  68  71
ENDBRANCH  50  64
BRANCH  51  75
ATOM     75  C   UNL     1       0.656  -9.100 -10.374  1.00  0.00     0.023 A 
ATOM     76  C   UNL     1      -0.192  -9.885 -11.178  1.00  0.00     0.012 A 
ATOM     77  C   UNL     1       1.765  -9.726  -9.761  1.00  0.00     0.148 A 
ATOM     78  C   UNL     1       0.073 -11.242 -11.391  1.00  0.00     0.002 A 
ATOM     79  C   UNL     1       2.017 -11.079  -9.965  1.00  0.00     0.091 A 
ATOM     80  F   UNL     1       2.624  -8.977  -9.056  1.00  0.00    -0.205 F 
ATOM     81  C   UNL     1       1.179 -11.838 -10.791  1.00  0.00     0.022 A 
BRANCH  79  82
ATOM     82  S   UNL     1       3.431 -11.910  -9.226  1.00  0.00     0.127 S 
ATOM     83  O   UNL     1       2.834 -13.154  -8.739  1.00  0.00    -0.237 OA
ATOM     84  O   UNL     1       4.323 -12.066 -10.371  1.00  0.00    -0.237 OA
ATOM     85  O   UNL     1       3.902 -11.023  -8.169  1.00  0.00    -0.744 OA
ENDBRANCH  79  82
ENDBRANCH  51  75
BRANCH  63  86
ATOM     86  C   UNL     1      -2.153  -3.580 -11.477  1.00  0.00     0.023 A 
ATOM     87  C   UNL     1      -2.125  -3.905 -10.105  1.00  0.00     0.012 A 
ATOM     88  C   UNL     1      -3.266  -2.887 -11.985  1.00  0.00     0.148 A 
ATOM     89  C   UNL     1      -3.193  -3.576  -9.266  1.00  0.00     0.002 A 
ATOM     90  C   UNL     1      -4.305  -2.518 -11.137  1.00  0.00     0.091 A 
ATOM     91  F   UNL     1      -3.280  -2.573 -13.289  1.00  0.00    -0.205 F 
ATOM     92  C   UNL     1      -4.277  -2.871  -9.779  1.00  0.00     0.022 A 
BRANCH  90  93
ATOM     93  S   UNL     1      -5.662  -1.492 -11.711  1.00  0.00     0.127 S 
ATOM     94  O   UNL     1      -6.722  -2.475 -11.923  1.00  0.00    -0.237 OA
ATOM     95  O   UNL     1      -5.883  -0.591 -10.578  1.00  0.00    -0.237 OA
ATOM     96  O   UNL     1      -5.172  -0.823 -12.910  1.00  0.00    -0.744 OA
ENDBRANCH  90  93
ENDBRANCH  63  86
ENDBRANCH  37  38
ENDBRANCH  30  32
ENDBRANCH  29  30
ENDBRANCH   1  29
TORSDOF 16
