REMARK SMILES CC(C)OCCS(=O)(=O)N1CCC[C@H](C(=O)OCCOC(=O)c2ccc(-c3c4nc(c(-c5cccc(S(=O)(=O)[O-])c5F)c5ccc([nH]5)c(-c5cccc(S(=O)(=O)[O-])c5F)c5nc(c(-c6cccc(S(=O)(=O)[O-])c6F)c6ccc3[nH]6)C=C5)C=C4)cc2)C1
REMARK SMILES IDX 18 1 17 2 15 3 16 4 14 5 10 6 11 7 86 8 12 9 13 10 7 11 8 12
REMARK SMILES IDX 9 13 6 14 5 15 4 16 2 17 1 18 3 19 19 20 20 21 21 22 22 23
REMARK SMILES IDX 23 24 24 25 85 26 25 27 84 28 26 29 27 30 28 31 78 32 29 33
REMARK SMILES IDX 83 34 77 35 79 36 30 37 82 38 76 39 75 40 31 42 63 43 43 44
REMARK SMILES IDX 62 45 44 46 47 47 61 48 80 49 45 50 46 51 60 53 81 54 48 55
REMARK SMILES IDX 32 56 33 57 41 58 34 59 36 60 42 61 35 62 37 63 38 64 39 65
REMARK SMILES IDX 40 66 64 67 65 68 73 69 66 70 68 71 74 72 67 73 69 74 70 75
REMARK SMILES IDX 71 76 72 77 49 78 50 79 58 80 51 81 53 82 59 83 52 84 54 85
REMARK SMILES IDX 55 86 56 87 57 88
REMARK H PARENT 79 41 47 52
REMARK Flexibility Score: inf
ROOT
ATOM      1  C   UNL     1      -0.197   3.203   2.506  1.00  0.00     0.274 C 
ENDROOT
BRANCH   1   2
ATOM      2  O   UNL     1       0.876   3.608   1.623  1.00  0.00    -0.462 OA
BRANCH   2   3
ATOM      3  C   UNL     1       0.512   4.111   0.413  1.00  0.00     0.310 C 
ATOM      4  O   UNL     1      -0.650   4.277   0.058  1.00  0.00    -0.252 OA
BRANCH   3   5
ATOM      5  C   UNL     1       1.685   4.480  -0.490  1.00  0.00     0.114 C 
ATOM      6  N   UNL     1       1.818   2.449  -1.888  1.00  0.00    -0.201 NA
ATOM      7  C   UNL     1       3.264   2.260  -1.619  1.00  0.00     0.102 C 
ATOM      8  C   UNL     1       1.453   3.891  -1.882  1.00  0.00     0.117 C 
ATOM      9  C   UNL     1       3.549   2.742  -0.196  1.00  0.00     0.018 C 
ATOM     10  C   UNL     1       3.098   4.184   0.032  1.00  0.00     0.018 C 
BRANCH   6  11
ATOM     11  S   UNL     1       1.141   1.512  -3.134  1.00  0.00     0.216 S 
ATOM     12  O   UNL     1       1.780   0.218  -3.117  1.00  0.00    -0.212 OA
ATOM     13  O   UNL     1       1.182   2.326  -4.337  1.00  0.00    -0.212 OA
BRANCH  11  14
ATOM     14  C   UNL     1      -0.574   1.343  -2.600  1.00  0.00     0.182 C 
BRANCH  14  15
ATOM     15  C   UNL     1      -0.921  -0.052  -2.089  1.00  0.00     0.178 C 
BRANCH  15  16
ATOM     16  O   UNL     1      -1.406  -0.049  -0.741  1.00  0.00    -0.378 OA
BRANCH  16  17
ATOM     17  C   UNL     1      -0.491  -0.368   0.311  1.00  0.00     0.112 C 
ATOM     18  C   UNL     1      -0.058  -1.828   0.314  1.00  0.00     0.038 C 
ATOM     19  C   UNL     1       0.713   0.545   0.343  1.00  0.00     0.038 C 
ENDBRANCH  16  17
ENDBRANCH  15  16
ENDBRANCH  14  15
ENDBRANCH  11  14
ENDBRANCH   6  11
ENDBRANCH   3   5
ENDBRANCH   2   3
ENDBRANCH   1   2
BRANCH   1  20
ATOM     20  C   UNL     1      -0.053   3.840   3.889  1.00  0.00     0.275 C 
BRANCH  20  21
ATOM     21  O   UNL     1      -0.220   5.261   3.793  1.00  0.00    -0.458 OA
BRANCH  21  22
ATOM     22  C   UNL     1       0.924   5.949   3.593  1.00  0.00     0.338 C 
ATOM     23  O   UNL     1       2.072   5.528   3.641  1.00  0.00    -0.246 OA
BRANCH  22  24
ATOM     24  C   UNL     1       0.568   7.261   3.053  1.00  0.00     0.060 A 
ATOM     25  C   UNL     1       0.780   7.462   1.689  1.00  0.00     0.016 A 
ATOM     26  C   UNL     1       0.064   8.277   3.859  1.00  0.00     0.016 A 
ATOM     27  C   UNL     1       0.496   8.685   1.105  1.00  0.00     0.010 A 
ATOM     28  C   UNL     1      -0.219   9.512   3.276  1.00  0.00     0.010 A 
ATOM     29  C   UNL     1       0.008   9.722   1.902  1.00  0.00    -0.014 A 
BRANCH  29  30
ATOM     30  C   UNL     1      -0.188  11.061   1.313  1.00  0.00     0.031 A 
ATOM     31  C   UNL     1       0.780  12.150   1.660  1.00  0.00     0.074 A 
ATOM     32  C   UNL     1      -1.233  11.287   0.498  1.00  0.00     0.049 A 
ATOM     33  N   UNL     1       0.711  13.427   1.404  1.00  0.00    -0.248 NA
ATOM     34  C   UNL     1       1.985  11.745   2.405  1.00  0.00     0.031 C 
ATOM     35  C   UNL     1      -2.203  10.277   0.071  1.00  0.00     0.029 A 
ATOM     36  N   UNL     1      -1.671  12.445  -0.088  1.00  0.00    -0.354 N 
ATOM     37  C   UNL     1       1.827  13.990   2.009  1.00  0.00     0.074 A 
ATOM     38  C   UNL     1       2.567  12.914   2.630  1.00  0.00     0.031 C 
ATOM     39  C   UNL     1      -3.144  10.868  -0.682  1.00  0.00     0.029 A 
ATOM     40  C   UNL     1      -2.870  12.300  -0.744  1.00  0.00     0.049 A 
ATOM     41  H   UNL     1      -1.176  13.295  -0.044  1.00  0.00     0.167 HD
ATOM     42  C   UNL     1       2.196  15.291   2.037  1.00  0.00     0.034 A 
ATOM     43  C   UNL     1      -3.678  13.230  -1.288  1.00  0.00     0.034 A 
ATOM     44  C   UNL     1       1.465  16.338   1.378  1.00  0.00     0.049 A 
ATOM     45  C   UNL     1      -3.253  14.672  -1.228  1.00  0.00     0.074 A 
ATOM     46  C   UNL     1       1.767  17.685   1.302  1.00  0.00     0.029 A 
ATOM     47  N   UNL     1       0.280  16.150   0.680  1.00  0.00    -0.354 N 
ATOM     48  N   UNL     1      -2.162  15.189  -0.715  1.00  0.00    -0.248 NA
ATOM     49  C   UNL     1      -4.159  15.657  -1.833  1.00  0.00     0.031 C 
ATOM     50  C   UNL     1       0.753  18.315   0.570  1.00  0.00     0.029 A 
ATOM     51  C   UNL     1      -0.171  17.358   0.178  1.00  0.00     0.049 A 
ATOM     52  H   UNL     1      -0.174  15.285   0.561  1.00  0.00     0.167 HD
ATOM     53  C   UNL     1      -2.239  16.556  -0.949  1.00  0.00     0.074 A 
ATOM     54  C   UNL     1      -3.473  16.782  -1.677  1.00  0.00     0.031 C 
ATOM     55  C   UNL     1      -1.383  17.541  -0.579  1.00  0.00     0.034 A 
BRANCH  42  56
ATOM     56  C   UNL     1       3.446  15.644   2.797  1.00  0.00     0.023 A 
ATOM     57  C   UNL     1       4.708  15.327   2.257  1.00  0.00     0.012 A 
ATOM     58  C   UNL     1       3.371  16.311   4.035  1.00  0.00     0.148 A 
ATOM     59  C   UNL     1       5.876  15.642   2.950  1.00  0.00     0.002 A 
ATOM     60  C   UNL     1       4.540  16.657   4.703  1.00  0.00     0.091 A 
ATOM     61  F   UNL     1       2.160  16.575   4.548  1.00  0.00    -0.205 F 
ATOM     62  C   UNL     1       5.793  16.315   4.167  1.00  0.00     0.022 A 
BRANCH  60  63
ATOM     63  S   UNL     1       4.536  17.579   6.244  1.00  0.00     0.127 S 
ATOM     64  O   UNL     1       4.902  16.543   7.209  1.00  0.00    -0.237 OA
ATOM     65  O   UNL     1       5.572  18.584   6.006  1.00  0.00    -0.237 OA
ATOM     66  O   UNL     1       3.190  18.118   6.383  1.00  0.00    -0.744 OA
ENDBRANCH  60  63
ENDBRANCH  42  56
BRANCH  43  67
ATOM     67  C   UNL     1      -4.955  12.817  -1.934  1.00  0.00     0.023 A 
ATOM     68  C   UNL     1      -5.086  12.913  -3.332  1.00  0.00     0.012 A 
ATOM     69  C   UNL     1      -6.017  12.278  -1.180  1.00  0.00     0.148 A 
ATOM     70  C   UNL     1      -6.257  12.495  -3.966  1.00  0.00     0.002 A 
ATOM     71  C   UNL     1      -7.158  11.812  -1.823  1.00  0.00     0.091 A 
ATOM     72  F   UNL     1      -5.884  12.216   0.153  1.00  0.00    -0.205 F 
ATOM     73  C   UNL     1      -7.286  11.932  -3.215  1.00  0.00     0.022 A 
BRANCH  71  74
ATOM     74  S   UNL     1      -8.469  10.949  -0.946  1.00  0.00     0.127 S 
ATOM     75  O   UNL     1      -9.524  11.959  -0.916  1.00  0.00    -0.237 OA
ATOM     76  O   UNL     1      -8.729   9.812  -1.829  1.00  0.00    -0.237 OA
ATOM     77  O   UNL     1      -7.899  10.585   0.344  1.00  0.00    -0.744 OA
ENDBRANCH  71  74
ENDBRANCH  43  67
BRANCH  55  78
ATOM     78  C   UNL     1      -1.746  18.949  -0.965  1.00  0.00     0.023 A 
ATOM     79  C   UNL     1      -2.765  19.619  -0.260  1.00  0.00     0.012 A 
ATOM     80  C   UNL     1      -1.031  19.629  -1.969  1.00  0.00     0.148 A 
ATOM     81  C   UNL     1      -3.084  20.941  -0.567  1.00  0.00     0.002 A 
ATOM     82  C   UNL     1      -1.324  20.960  -2.239  1.00  0.00     0.091 A 
ATOM     83  F   UNL     1      -0.080  18.964  -2.641  1.00  0.00    -0.205 F 
ATOM     84  C   UNL     1      -2.357  21.614  -1.546  1.00  0.00     0.022 A 
BRANCH  82  85
ATOM     85  S   UNL     1      -0.376  21.928  -3.417  1.00  0.00     0.127 S 
ATOM     86  O   UNL     1      -1.291  21.993  -4.555  1.00  0.00    -0.237 OA
ATOM     87  O   UNL     1      -0.194  23.195  -2.706  1.00  0.00    -0.237 OA
ATOM     88  O   UNL     1       0.857  21.185  -3.643  1.00  0.00    -0.744 OA
ENDBRANCH  82  85
ENDBRANCH  55  78
ENDBRANCH  29  30
ENDBRANCH  22  24
ENDBRANCH  21  22
ENDBRANCH  20  21
ENDBRANCH   1  20
TORSDOF 19
