REMARK SMILES [NH2+]=C1S[C@@H](C(=O)Nc2ccc(C(=O)OCCOC(=O)c3ccc(-c4c5nc(c(-c6cccc(S(=O)(=O)[O-])c6F)c6ccc([nH]6)c(-c6cccc(S(=O)(=O)[O-])c6F)c6nc(c(-c7cccc(S(=O)(=O)[O-])c7F)c7ccc4[nH]7)C=C6)C=C5)cc3)cc2)CC(=O)N1/N=C/c1ccc(Cl)cc1
REMARK SMILES IDX 15 1 14 2 12 3 13 4 11 5 8 6 9 7 84 8 10 9 83 10 7 11 5 12
REMARK SMILES IDX 6 13 4 15 1 16 2 17 3 20 88 21 86 22 85 23 87 24 89 25 90 26
REMARK SMILES IDX 91 27 92 28 97 29 93 30 96 31 94 32 95 33 16 34 17 35 18 36
REMARK SMILES IDX 19 37 20 38 21 39 82 40 22 41 81 42 23 43 24 44 25 45 75 46
REMARK SMILES IDX 26 47 80 48 74 49 76 50 27 51 79 52 73 53 72 54 28 56 60 57
REMARK SMILES IDX 40 58 59 59 41 60 44 61 58 62 77 63 42 64 43 65 57 67 78 68
REMARK SMILES IDX 45 69 29 70 30 71 38 72 31 73 33 74 39 75 32 76 34 77 35 78
REMARK SMILES IDX 36 79 37 80 61 81 62 82 70 83 63 84 65 85 71 86 64 87 66 88
REMARK SMILES IDX 67 89 68 90 69 91 46 92 47 93 55 94 48 95 50 96 56 97 49 98
REMARK SMILES IDX 51 99 52 100 53 101 54 102
REMARK H PARENT 7 14 1 18 1 19 76 55 44 66
REMARK Flexibility Score: inf
ROOT
ATOM      1  C   UNL     1      -5.809  -0.873   0.625  1.00  0.00     0.275 C 
ENDROOT
BRANCH   1   2
ATOM      2  O   UNL     1      -5.159  -0.010  -0.333  1.00  0.00    -0.458 OA
BRANCH   2   3
ATOM      3  C   UNL     1      -3.856  -0.328  -0.487  1.00  0.00     0.338 C 
ATOM      4  O   UNL     1      -3.306  -1.291   0.016  1.00  0.00    -0.246 OA
BRANCH   3   5
ATOM      5  C   UNL     1      -3.030   0.612  -1.251  1.00  0.00     0.060 A 
ATOM      6  C   UNL     1      -0.878   2.256  -1.733  1.00  0.00     0.041 A 
ATOM      7  C   UNL     1      -0.784   0.924  -2.106  1.00  0.00     0.027 A 
ATOM      8  C   UNL     1      -2.102   2.810  -1.348  1.00  0.00     0.027 A 
ATOM      9  C   UNL     1      -1.860   0.095  -1.835  1.00  0.00     0.018 A 
ATOM     10  C   UNL     1      -3.193   1.983  -1.093  1.00  0.00     0.018 A 
BRANCH   6  11
ATOM     11  N   UNL     1       0.281   3.014  -1.723  1.00  0.00    -0.325 N 
ATOM     12  C   UNL     1       0.878   3.645  -0.673  1.00  0.00     0.238 C 
ATOM     13  O   UNL     1       1.805   4.419  -0.953  1.00  0.00    -0.273 OA
ATOM     14  H   UNL     1       0.735   3.110  -2.592  1.00  0.00     0.169 HD
BRANCH  12  15
ATOM     15  C   UNL     1       0.605   3.312   0.813  1.00  0.00     0.160 C 
ATOM     16  N   UNL     1       0.913  -0.477   0.749  1.00  0.00    -0.279 N 
ATOM     17  C   UNL     1       0.458   0.625   1.236  1.00  0.00     0.338 C 
ATOM     18  H   UNL     1       1.839  -0.524   0.418  1.00  0.00     0.302 HD
ATOM     19  H   UNL     1       0.334  -1.273   0.707  1.00  0.00     0.302 HD
ATOM     20  S   UNL     1       1.605   1.917   1.343  1.00  0.00    -0.022 SA
ATOM     21  N   UNL     1      -0.831   0.812   1.732  1.00  0.00    -0.057 N 
ATOM     22  C   UNL     1      -1.480   2.050   1.828  1.00  0.00     0.337 C 
ATOM     23  C   UNL     1      -0.759   3.335   1.447  1.00  0.00     0.155 C 
ATOM     24  O   UNL     1      -2.643   2.185   2.241  1.00  0.00    -0.244 OA
BRANCH  21  25
ATOM     25  N   UNL     1      -1.641  -0.273   2.162  1.00  0.00    -0.082 NA
ATOM     26  C   UNL     1      -1.122  -1.420   2.470  1.00  0.00     0.167 C 
BRANCH  26  27
ATOM     27  C   UNL     1      -1.935  -2.533   3.023  1.00  0.00    -0.003 A 
ATOM     28  C   UNL     1      -1.724  -2.894   4.356  1.00  0.00     0.011 A 
ATOM     29  C   UNL     1      -2.829  -3.271   2.246  1.00  0.00     0.011 A 
ATOM     30  C   UNL     1      -2.437  -3.963   4.913  1.00  0.00     0.021 A 
ATOM     31  C   UNL     1      -3.551  -4.332   2.803  1.00  0.00     0.021 A 
ATOM     32  C   UNL     1      -3.355  -4.671   4.137  1.00  0.00     0.041 A 
ATOM     33  Cl  UNL     1      -4.242  -5.971   4.831  1.00  0.00    -0.084 Cl
ENDBRANCH  26  27
ENDBRANCH  21  25
ENDBRANCH  12  15
ENDBRANCH   6  11
ENDBRANCH   3   5
ENDBRANCH   2   3
ENDBRANCH   1   2
BRANCH   1  34
ATOM     34  C   UNL     1      -6.334  -2.186   0.023  1.00  0.00     0.275 C 
BRANCH  34  35
ATOM     35  O   UNL     1      -5.293  -3.010  -0.542  1.00  0.00    -0.458 OA
BRANCH  35  36
ATOM     36  C   UNL     1      -5.233  -3.021  -1.896  1.00  0.00     0.338 C 
ATOM     37  O   UNL     1      -6.002  -2.454  -2.658  1.00  0.00    -0.246 OA
BRANCH  36  38
ATOM     38  C   UNL     1      -4.092  -3.820  -2.400  1.00  0.00     0.060 A 
ATOM     39  C   UNL     1      -2.787  -3.574  -1.978  1.00  0.00     0.016 A 
ATOM     40  C   UNL     1      -4.310  -4.711  -3.451  1.00  0.00     0.016 A 
ATOM     41  C   UNL     1      -1.702  -4.104  -2.674  1.00  0.00     0.010 A 
ATOM     42  C   UNL     1      -3.223  -5.335  -4.075  1.00  0.00     0.010 A 
ATOM     43  C   UNL     1      -1.902  -5.003  -3.725  1.00  0.00    -0.014 A 
BRANCH  43  44
ATOM     44  C   UNL     1      -0.748  -5.575  -4.473  1.00  0.00     0.031 A 
ATOM     45  C   UNL     1      -0.661  -5.408  -5.970  1.00  0.00     0.074 A 
ATOM     46  C   UNL     1       0.213  -6.263  -3.823  1.00  0.00     0.049 A 
ATOM     47  N   UNL     1       0.123  -6.010  -6.825  1.00  0.00    -0.248 NA
ATOM     48  C   UNL     1      -1.588  -4.443  -6.587  1.00  0.00     0.031 C 
ATOM     49  C   UNL     1       0.276  -6.472  -2.374  1.00  0.00     0.029 A 
ATOM     50  N   UNL     1       1.314  -6.936  -4.298  1.00  0.00    -0.354 N 
ATOM     51  C   UNL     1      -0.265  -5.559  -8.083  1.00  0.00     0.074 A 
ATOM     52  C   UNL     1      -1.345  -4.619  -7.879  1.00  0.00     0.031 C 
ATOM     53  C   UNL     1       1.355  -7.212  -2.079  1.00  0.00     0.029 A 
ATOM     54  C   UNL     1       2.008  -7.611  -3.319  1.00  0.00     0.049 A 
ATOM     55  H   UNL     1       1.579  -6.935  -5.246  1.00  0.00     0.167 HD
ATOM     56  C   UNL     1       0.238  -5.896  -9.295  1.00  0.00     0.034 A 
ATOM     57  C   UNL     1       3.016  -8.500  -3.407  1.00  0.00     0.034 A 
ATOM     58  C   UNL     1       1.358  -6.779  -9.484  1.00  0.00     0.049 A 
ATOM     59  C   UNL     1       3.540  -8.872  -4.765  1.00  0.00     0.074 A 
ATOM     60  C   UNL     1       1.963  -7.158 -10.670  1.00  0.00     0.029 A 
ATOM     61  N   UNL     1       2.050  -7.410  -8.462  1.00  0.00    -0.354 N 
ATOM     62  N   UNL     1       3.183  -8.414  -5.941  1.00  0.00    -0.248 NA
ATOM     63  C   UNL     1       4.608  -9.880  -4.811  1.00  0.00     0.031 C 
ATOM     64  C   UNL     1       3.015  -8.029 -10.365  1.00  0.00     0.029 A 
ATOM     65  C   UNL     1       3.074  -8.178  -8.989  1.00  0.00     0.049 A 
ATOM     66  H   UNL     1       1.844  -7.324  -7.504  1.00  0.00     0.167 HD
ATOM     67  C   UNL     1       3.993  -9.065  -6.863  1.00  0.00     0.074 A 
ATOM     68  C   UNL     1       4.882  -9.923  -6.108  1.00  0.00     0.031 C 
ATOM     69  C   UNL     1       3.983  -8.983  -8.216  1.00  0.00     0.034 A 
BRANCH  56  70
ATOM     70  C   UNL     1      -0.396  -5.290 -10.520  1.00  0.00     0.023 A 
ATOM     71  C   UNL     1      -0.135  -3.946 -10.851  1.00  0.00     0.012 A 
ATOM     72  C   UNL     1      -1.180  -6.077 -11.389  1.00  0.00     0.148 A 
ATOM     73  C   UNL     1      -0.662  -3.386 -12.015  1.00  0.00     0.002 A 
ATOM     74  C   UNL     1      -1.670  -5.523 -12.567  1.00  0.00     0.091 A 
ATOM     75  F   UNL     1      -1.430  -7.349 -11.048  1.00  0.00    -0.205 F 
ATOM     76  C   UNL     1      -1.419  -4.177 -12.877  1.00  0.00     0.022 A 
BRANCH  74  77
ATOM     77  S   UNL     1      -2.593  -6.475 -13.780  1.00  0.00     0.127 S 
ATOM     78  O   UNL     1      -3.925  -5.881 -13.670  1.00  0.00    -0.237 OA
ATOM     79  O   UNL     1      -1.885  -6.160 -15.021  1.00  0.00    -0.237 OA
ATOM     80  O   UNL     1      -2.496  -7.866 -13.360  1.00  0.00    -0.744 OA
ENDBRANCH  74  77
ENDBRANCH  56  70
BRANCH  57  81
ATOM     81  C   UNL     1       3.584  -9.111  -2.171  1.00  0.00     0.023 A 
ATOM     82  C   UNL     1       4.905  -8.808  -1.791  1.00  0.00     0.012 A 
ATOM     83  C   UNL     1       2.818  -9.968  -1.356  1.00  0.00     0.148 A 
ATOM     84  C   UNL     1       5.459  -9.364  -0.636  1.00  0.00     0.002 A 
ATOM     85  C   UNL     1       3.353 -10.466  -0.173  1.00  0.00     0.091 A 
ATOM     86  F   UNL     1       1.572 -10.274  -1.745  1.00  0.00    -0.205 F 
ATOM     87  C   UNL     1       4.680 -10.180   0.179  1.00  0.00     0.022 A 
BRANCH  85  88
ATOM     88  S   UNL     1       2.358 -11.392   1.000  1.00  0.00     0.127 S 
ATOM     89  O   UNL     1       2.764 -12.766   0.720  1.00  0.00    -0.237 OA
ATOM     90  O   UNL     1       2.820 -10.862   2.284  1.00  0.00    -0.237 OA
ATOM     91  O   UNL     1       0.977 -11.053   0.682  1.00  0.00    -0.744 OA
ENDBRANCH  85  88
ENDBRANCH  57  81
BRANCH  69  92
ATOM     92  C   UNL     1       4.979  -9.825  -8.966  1.00  0.00     0.023 A 
ATOM     93  C   UNL     1       4.768 -11.213  -9.081  1.00  0.00     0.012 A 
ATOM     94  C   UNL     1       6.083  -9.234  -9.611  1.00  0.00     0.148 A 
ATOM     95  C   UNL     1       5.657 -12.006  -9.803  1.00  0.00     0.002 A 
ATOM     96  C   UNL     1       6.940 -10.024 -10.367  1.00  0.00     0.091 A 
ATOM     97  F   UNL     1       6.274  -7.914  -9.473  1.00  0.00    -0.205 F 
ATOM     98  C   UNL     1       6.735 -11.411 -10.455  1.00  0.00     0.022 A 
BRANCH  96  99
ATOM     99  S   UNL     1       8.303  -9.335 -11.312  1.00  0.00     0.127 S 
ATOM    100  O   UNL     1       9.459  -9.782 -10.536  1.00  0.00    -0.237 OA
ATOM    101  O   UNL     1       8.147  -9.994 -12.608  1.00  0.00    -0.237 OA
ATOM    102  O   UNL     1       8.086  -7.894 -11.336  1.00  0.00    -0.744 OA
ENDBRANCH  96  99
ENDBRANCH  69  92
ENDBRANCH  43  44
ENDBRANCH  36  38
ENDBRANCH  35  36
ENDBRANCH  34  35
ENDBRANCH   1  34
TORSDOF 18
