REMARK SMILES O=C(OCCOC(=O)c1ccc(-c2c3nc(c(-c4cccc(S(=O)(=O)[O-])c4F)c4ccc([nH]4)c(-c4cccc(S(=O)(=O)[O-])c4F)c4nc(c(-c5cccc(S(=O)(=O)[O-])c5F)c5ccc2[nH]5)C=C4)C=C3)cc1)C1=Cc2cc(S(F)(F)(F)(F)F)cc(Br)c2O[C@@H]1C(F)(F)F
REMARK SMILES IDX 5 1 4 2 3 3 2 4 1 5 72 6 73 7 88 8 74 9 87 10 75 11 86 12
REMARK SMILES IDX 76 13 84 14 83 15 85 16 89 17 90 18 91 19 92 20 77 21 78 22
REMARK SMILES IDX 79 23 80 24 81 25 82 26 6 27 7 28 8 29 9 30 10 31 71 32
REMARK SMILES IDX 11 33 70 34 12 35 13 36 14 37 64 38 15 39 69 40 63 41 65 42
REMARK SMILES IDX 16 43 68 44 62 45 61 46 17 48 49 49 29 50 48 51 30 52 33 53
REMARK SMILES IDX 47 54 66 55 31 56 32 57 46 59 67 60 34 61 18 62 19 63 27 64
REMARK SMILES IDX 20 65 22 66 28 67 21 68 23 69 24 70 25 71 26 72 50 73 51 74
REMARK SMILES IDX 59 75 52 76 54 77 60 78 53 79 55 80 56 81 57 82 58 83 35 84
REMARK SMILES IDX 36 85 44 86 37 87 39 88 45 89 38 90 40 91 41 92 42 93 43 94
REMARK H PARENT 65 47 33 58
REMARK Flexibility Score: inf
ROOT
ATOM      1  C   UNL     1       4.843   1.247  -0.479  1.00  0.00     0.275 C 
ENDROOT
BRANCH   1   2
ATOM      2  C   UNL     1       4.337  -0.017  -1.156  1.00  0.00     0.275 C 
BRANCH   2   3
ATOM      3  O   UNL     1       2.917  -0.017  -1.156  1.00  0.00    -0.459 OA
BRANCH   3   4
ATOM      4  C   UNL     1       2.207   0.022   0.073  1.00  0.00     0.338 C 
ATOM      5  O   UNL     1       0.936   0.022   0.073  1.00  0.00    -0.246 OA
BRANCH   4   6
ATOM      6  C   UNL     1       2.967   0.064   1.389  1.00  0.00     0.087 C 
ATOM      7  C   UNL     1       4.327   0.064   1.389  1.00  0.00     0.027 C 
ATOM      8  C   UNL     1       2.207   0.106   2.705  1.00  0.00     0.316 C 
ATOM      9  C   UNL     1       5.087   0.022   0.073  1.00  0.00     0.020 A 
ATOM     10  O   UNL     1       3.502   1.557  -0.811  1.00  0.00    -0.474 OA
ATOM     11  C   UNL     1       6.165  -0.836  -0.061  1.00  0.00     0.036 A 
ATOM     12  C   UNL     1       4.704   0.809  -0.925  1.00  0.00     0.142 A 
ATOM     13  C   UNL     1       6.962  -0.582  -1.203  1.00  0.00     0.109 A 
ATOM     14  C   UNL     1       5.460   0.906  -2.069  1.00  0.00     0.062 A 
ATOM     15  C   UNL     1       6.572   0.131  -2.244  1.00  0.00     0.044 A 
ATOM     16  Br  UNL     1       4.938   2.176  -3.467  1.00  0.00    -0.047 Br
BRANCH   8  17
ATOM     17  C   UNL     1       2.574   1.372   3.462  1.00  0.00     0.430 C 
ATOM     18  F   UNL     1       2.253   2.435   2.730  1.00  0.00    -0.167 F 
ATOM     19  F   UNL     1       1.909   1.409   4.613  1.00  0.00    -0.167 F 
ATOM     20  F   UNL     1       3.881   1.380   3.705  1.00  0.00    -0.167 F 
ENDBRANCH   8  17
BRANCH  13  21
ATOM     21  S   UNL     1       8.631  -1.281  -1.238  1.00  0.00     0.310 S 
ATOM     22  F   UNL     1       8.729  -1.286   0.345  1.00  0.00    -0.094 F 
ATOM     23  F   UNL     1       9.214   0.182  -1.201  1.00  0.00    -0.094 F 
ATOM     24  F   UNL     1      10.065  -1.882  -1.268  1.00  0.00    -0.094 F 
ATOM     25  F   UNL     1       8.031  -2.739  -1.133  1.00  0.00    -0.094 F 
ATOM     26  F   UNL     1       7.173  -0.687  -1.094  1.00  0.00    -0.094 F 
ENDBRANCH  13  21
ENDBRANCH   4   6
ENDBRANCH   3   4
ENDBRANCH   2   3
ENDBRANCH   1   2
BRANCH   1  27
ATOM     27  O   UNL     1       4.370   1.289   0.859  1.00  0.00    -0.458 OA
BRANCH  27  28
ATOM     28  C   UNL     1       2.974   1.297   1.118  1.00  0.00     0.338 C 
ATOM     29  O   UNL     1       2.148   1.267   0.153  1.00  0.00    -0.246 OA
BRANCH  28  30
ATOM     30  C   UNL     1       2.467   1.343   2.551  1.00  0.00     0.060 A 
ATOM     31  C   UNL     1       1.435   0.502   2.933  1.00  0.00     0.016 A 
ATOM     32  C   UNL     1       3.022   2.189   3.411  1.00  0.00     0.016 A 
ATOM     33  C   UNL     1       0.858   0.835   4.182  1.00  0.00     0.010 A 
ATOM     34  C   UNL     1       2.485   2.364   4.664  1.00  0.00     0.010 A 
ATOM     35  C   UNL     1       1.427   1.609   5.087  1.00  0.00    -0.014 A 
BRANCH  35  36
ATOM     36  C   UNL     1       0.932   1.659   6.524  1.00  0.00     0.031 A 
ATOM     37  C   UNL     1       0.487   2.884   7.022  1.00  0.00     0.074 A 
ATOM     38  C   UNL     1       0.948   0.485   7.257  1.00  0.00     0.049 A 
ATOM     39  N   UNL     1      -0.015   3.137   8.232  1.00  0.00    -0.248 NA
ATOM     40  C   UNL     1       0.502   4.140   6.256  1.00  0.00     0.031 C 
ATOM     41  C   UNL     1       1.387  -0.758   6.759  1.00  0.00     0.029 A 
ATOM     42  N   UNL     1       0.556   0.299   8.565  1.00  0.00    -0.354 N 
ATOM     43  C   UNL     1      -0.347   4.425   8.333  1.00  0.00     0.074 A 
ATOM     44  C   UNL     1      -0.014   5.090   7.066  1.00  0.00     0.031 C 
ATOM     45  C   UNL     1       1.273  -1.675   7.754  1.00  0.00     0.029 A 
ATOM     46  C   UNL     1       0.760  -1.023   8.892  1.00  0.00     0.049 A 
ATOM     47  H   UNL     1       0.194   0.993   9.162  1.00  0.00     0.167 HD
ATOM     48  C   UNL     1      -0.917   5.071   9.432  1.00  0.00     0.034 A 
ATOM     49  C   UNL     1       0.520  -1.643  10.107  1.00  0.00     0.034 A 
ATOM     50  C   UNL     1      -1.197   4.441  10.634  1.00  0.00     0.049 A 
ATOM     51  C   UNL     1       0.004  -0.984  11.226  1.00  0.00     0.074 A 
ATOM     52  C   UNL     1      -1.778   5.076  11.748  1.00  0.00     0.029 A 
ATOM     53  N   UNL     1      -0.971   3.124  10.969  1.00  0.00    -0.354 N 
ATOM     54  N   UNL     1      -0.364   0.295  11.314  1.00  0.00    -0.248 NA
ATOM     55  C   UNL     1      -0.224  -1.623  12.528  1.00  0.00     0.031 C 
ATOM     56  C   UNL     1      -1.892   4.157  12.745  1.00  0.00     0.029 A 
ATOM     57  C   UNL     1      -1.383   2.934  12.269  1.00  0.00     0.049 A 
ATOM     58  H   UNL     1      -0.581   2.438  10.380  1.00  0.00     0.167 HD
ATOM     59  C   UNL     1      -0.828   0.556  12.538  1.00  0.00     0.074 A 
ATOM     60  C   UNL     1      -0.738  -0.672  13.339  1.00  0.00     0.031 C 
ATOM     61  C   UNL     1      -1.327   1.768  13.018  1.00  0.00     0.034 A 
BRANCH  48  62
ATOM     62  C   UNL     1      -1.248   6.549   9.302  1.00  0.00     0.023 A 
ATOM     63  C   UNL     1      -2.141   6.973   8.332  1.00  0.00     0.012 A 
ATOM     64  C   UNL     1      -0.671   7.411  10.131  1.00  0.00     0.148 A 
ATOM     65  C   UNL     1      -2.140   8.373   8.125  1.00  0.00     0.002 A 
ATOM     66  C   UNL     1      -0.823   8.764   9.950  1.00  0.00     0.091 A 
ATOM     67  F   UNL     1       0.062   6.960  11.145  1.00  0.00    -0.205 F 
ATOM     68  C   UNL     1      -1.643   9.255   8.973  1.00  0.00     0.022 A 
BRANCH  66  69
ATOM     69  S   UNL     1       0.075   9.914  11.022  1.00  0.00     0.127 S 
ATOM     70  O   UNL     1       0.991  10.796  10.169  1.00  0.00    -0.237 OA
ATOM     71  O   UNL     1      -0.923  10.795  11.776  1.00  0.00    -0.237 OA
ATOM     72  O   UNL     1       1.017   9.031  12.143  1.00  0.00    -0.744 OA
ENDBRANCH  66  69
ENDBRANCH  48  62
BRANCH  49  73
ATOM     73  C   UNL     1       0.836  -3.125  10.231  1.00  0.00     0.023 A 
ATOM     74  C   UNL     1      -0.175  -4.020  10.540  1.00  0.00     0.012 A 
ATOM     75  C   UNL     1       2.082  -3.536  10.030  1.00  0.00     0.148 A 
ATOM     76  C   UNL     1       0.289  -5.307  10.900  1.00  0.00     0.002 A 
ATOM     77  C   UNL     1       2.436  -4.842  10.272  1.00  0.00     0.091 A 
ATOM     78  F   UNL     1       2.997  -2.677   9.589  1.00  0.00    -0.205 F 
ATOM     79  C   UNL     1       1.499  -5.768  10.638  1.00  0.00     0.022 A 
BRANCH  77  80
ATOM     80  S   UNL     1       4.167  -5.343  10.105  1.00  0.00     0.127 S 
ATOM     81  O   UNL     1       4.673  -5.882  11.445  1.00  0.00    -0.237 OA
ATOM     82  O   UNL     1       4.282  -6.435   9.040  1.00  0.00    -0.237 OA
ATOM     83  O   UNL     1       5.109  -3.993   9.642  1.00  0.00    -0.744 OA
ENDBRANCH  77  80
ENDBRANCH  49  73
BRANCH  61  84
ATOM     84  C   UNL     1      -1.840   1.813  14.448  1.00  0.00     0.023 A 
ATOM     85  C   UNL     1      -0.978   1.509  15.488  1.00  0.00     0.012 A 
ATOM     86  C   UNL     1      -3.106   2.143  14.676  1.00  0.00     0.148 A 
ATOM     87  C   UNL     1      -1.627   1.297  16.727  1.00  0.00     0.002 A 
ATOM     88  C   UNL     1      -3.638   2.041  15.938  1.00  0.00     0.091 A 
ATOM     89  F   UNL     1      -3.865   2.575  13.673  1.00  0.00    -0.205 F 
ATOM     90  C   UNL     1      -2.858   1.688  17.004  1.00  0.00     0.022 A 
BRANCH  88  91
ATOM     91  S   UNL     1      -5.398   2.380  16.194  1.00  0.00     0.127 S 
ATOM     92  O   UNL     1      -6.080   1.133  16.763  1.00  0.00    -0.237 OA
ATOM     93  O   UNL     1      -5.556   3.542  17.178  1.00  0.00    -0.237 OA
ATOM     94  O   UNL     1      -6.122   2.794  14.701  1.00  0.00    -0.744 OA
ENDBRANCH  88  91
ENDBRANCH  61  84
ENDBRANCH  35  36
ENDBRANCH  28  30
ENDBRANCH  27  28
ENDBRANCH   1  27
TORSDOF 16
