REMARK SMILES O=C(OCCOC(=O)[C@]12C[NH2+]C[C@H]1CN(C(=O)c1ccccc1-n1cncn1)C2)c1ccc(-c2c3nc(c(-c4cccc(S(=O)(=O)[O-])c4F)c4ccc([nH]4)c(-c4cccc(S(=O)(=O)[O-])c4F)c4nc(c(-c5cccc(S(=O)(=O)[O-])c5F)c5ccc2[nH]5)C=C4)C=C3)cc1
REMARK SMILES IDX 4 1 3 2 2 3 1 4 30 5 31 6 92 7 32 8 91 9 33 10 34 11 35 12
REMARK SMILES IDX 85 13 36 14 90 15 84 16 86 17 37 18 89 19 83 20 82 21 38 23
REMARK SMILES IDX 70 24 50 25 69 26 51 27 54 28 68 29 87 30 52 31 53 32 67 34
REMARK SMILES IDX 88 35 55 36 39 37 40 38 48 39 41 40 43 41 49 42 42 43 44 44
REMARK SMILES IDX 45 45 46 46 47 47 71 48 72 49 80 50 73 51 75 52 81 53 74 54
REMARK SMILES IDX 76 55 77 56 78 57 79 58 56 59 57 60 65 61 58 62 60 63 66 64
REMARK SMILES IDX 59 65 61 66 62 67 63 68 64 69 5 70 6 71 7 72 8 73 9 74 10 75
REMARK SMILES IDX 13 76 29 77 11 78 12 79 14 80 15 81 16 84 17 85 18 86 19 87
REMARK SMILES IDX 23 88 20 89 22 90 21 91 24 92 25 93 28 94 26 95 27 96
REMARK H PARENT 86 22 54 33 11 82 11 83
REMARK Flexibility Score: inf
ROOT
ATOM      1  C   UNL     1       5.429   0.140   0.698  1.00  0.00     0.275 C 
ENDROOT
BRANCH   1   2
ATOM      2  O   UNL     1       4.275   0.926   0.683  1.00  0.00    -0.458 OA
BRANCH   2   3
ATOM      3  C   UNL     1       3.427   0.951  -0.343  1.00  0.00     0.338 C 
ATOM      4  O   UNL     1       2.271   1.155   0.042  1.00  0.00    -0.246 OA
BRANCH   3   5
ATOM      5  C   UNL     1       3.711   0.856  -1.908  1.00  0.00     0.060 A 
ATOM      6  C   UNL     1       4.711   1.036  -2.819  1.00  0.00     0.016 A 
ATOM      7  C   UNL     1       2.526   0.879  -2.591  1.00  0.00     0.016 A 
ATOM      8  C   UNL     1       4.361   1.747  -4.073  1.00  0.00     0.010 A 
ATOM      9  C   UNL     1       2.146   1.416  -3.828  1.00  0.00     0.010 A 
ATOM     10  C   UNL     1       3.024   2.235  -4.399  1.00  0.00    -0.014 A 
BRANCH  10  11
ATOM     11  C   UNL     1       2.397   3.151  -5.538  1.00  0.00     0.031 A 
ATOM     12  C   UNL     1       2.938   2.342  -6.671  1.00  0.00     0.074 A 
ATOM     13  C   UNL     1       1.542   4.305  -5.685  1.00  0.00     0.049 A 
ATOM     14  N   UNL     1       4.200   2.427  -6.955  1.00  0.00    -0.248 NA
ATOM     15  C   UNL     1       2.417   0.995  -7.041  1.00  0.00     0.031 C 
ATOM     16  C   UNL     1       0.673   5.150  -4.757  1.00  0.00     0.029 A 
ATOM     17  N   UNL     1       1.360   5.152  -6.838  1.00  0.00    -0.354 N 
ATOM     18  C   UNL     1       4.400   1.524  -7.966  1.00  0.00     0.074 A 
ATOM     19  C   UNL     1       3.457   0.477  -7.718  1.00  0.00     0.031 C 
ATOM     20  C   UNL     1       0.020   6.174  -5.371  1.00  0.00     0.029 A 
ATOM     21  C   UNL     1       0.334   6.194  -6.769  1.00  0.00     0.049 A 
ATOM     22  H   UNL     1       1.909   5.034  -7.647  1.00  0.00     0.167 HD
ATOM     23  C   UNL     1       4.878   2.076  -9.109  1.00  0.00     0.034 A 
ATOM     24  C   UNL     1      -0.123   7.150  -7.680  1.00  0.00     0.034 A 
ATOM     25  C   UNL     1       5.499   3.365  -8.787  1.00  0.00     0.049 A 
ATOM     26  C   UNL     1       0.906   7.292  -8.720  1.00  0.00     0.074 A 
ATOM     27  C   UNL     1       6.464   3.792  -7.887  1.00  0.00     0.029 A 
ATOM     28  N   UNL     1       4.628   4.414  -8.937  1.00  0.00    -0.354 N 
ATOM     29  N   UNL     1       2.058   7.841  -8.465  1.00  0.00    -0.248 NA
ATOM     30  C   UNL     1       0.861   6.249  -9.724  1.00  0.00     0.031 C 
ATOM     31  C   UNL     1       6.003   5.040  -7.360  1.00  0.00     0.029 A 
ATOM     32  C   UNL     1       4.892   5.447  -8.089  1.00  0.00     0.049 A 
ATOM     33  H   UNL     1       3.890   4.420  -9.589  1.00  0.00     0.167 HD
ATOM     34  C   UNL     1       2.933   6.818  -8.783  1.00  0.00     0.074 A 
ATOM     35  C   UNL     1       2.135   5.874  -9.590  1.00  0.00     0.031 C 
ATOM     36  C   UNL     1       4.073   6.634  -8.052  1.00  0.00     0.034 A 
BRANCH  23  37
ATOM     37  C   UNL     1       4.228   1.823 -10.454  1.00  0.00     0.023 A 
ATOM     38  C   UNL     1       4.878   2.398 -11.559  1.00  0.00     0.012 A 
ATOM     39  C   UNL     1       2.926   1.300 -10.680  1.00  0.00     0.148 A 
ATOM     40  C   UNL     1       4.274   2.444 -12.818  1.00  0.00     0.002 A 
ATOM     41  C   UNL     1       2.358   1.279 -11.945  1.00  0.00     0.091 A 
ATOM     42  F   UNL     1       2.155   0.919  -9.663  1.00  0.00    -0.205 F 
ATOM     43  C   UNL     1       3.024   1.869 -13.018  1.00  0.00     0.022 A 
BRANCH  41  44
ATOM     44  S   UNL     1       0.760   0.518 -12.277  1.00  0.00     0.127 S 
ATOM     45  O   UNL     1      -0.021   1.647 -12.752  1.00  0.00    -0.237 OA
ATOM     46  O   UNL     1       1.115  -0.473 -13.286  1.00  0.00    -0.237 OA
ATOM     47  O   UNL     1       0.317  -0.064 -10.998  1.00  0.00    -0.744 OA
ENDBRANCH  41  44
ENDBRANCH  23  37
BRANCH  24  48
ATOM     48  C   UNL     1      -1.520   7.695  -8.000  1.00  0.00     0.023 A 
ATOM     49  C   UNL     1      -1.802   8.666  -9.018  1.00  0.00     0.012 A 
ATOM     50  C   UNL     1      -2.625   6.978  -7.522  1.00  0.00     0.148 A 
ATOM     51  C   UNL     1      -3.106   8.838  -9.557  1.00  0.00     0.002 A 
ATOM     52  C   UNL     1      -3.899   7.124  -8.075  1.00  0.00     0.091 A 
ATOM     53  F   UNL     1      -2.411   6.080  -6.558  1.00  0.00    -0.205 F 
ATOM     54  C   UNL     1      -4.150   8.039  -9.104  1.00  0.00     0.022 A 
BRANCH  52  55
ATOM     55  S   UNL     1      -5.251   6.065  -7.546  1.00  0.00     0.127 S 
ATOM     56  O   UNL     1      -6.295   7.042  -7.238  1.00  0.00    -0.237 OA
ATOM     57  O   UNL     1      -5.491   5.264  -8.743  1.00  0.00    -0.237 OA
ATOM     58  O   UNL     1      -4.752   5.336  -6.388  1.00  0.00    -0.744 OA
ENDBRANCH  52  55
ENDBRANCH  24  48
BRANCH  36  59
ATOM     59  C   UNL     1       4.564   7.763  -7.184  1.00  0.00     0.023 A 
ATOM     60  C   UNL     1       3.999   8.203  -5.966  1.00  0.00     0.012 A 
ATOM     61  C   UNL     1       5.771   8.329  -7.616  1.00  0.00     0.148 A 
ATOM     62  C   UNL     1       4.626   9.222  -5.228  1.00  0.00     0.002 A 
ATOM     63  C   UNL     1       6.400   9.310  -6.874  1.00  0.00     0.091 A 
ATOM     64  F   UNL     1       6.307   7.860  -8.752  1.00  0.00    -0.205 F 
ATOM     65  C   UNL     1       5.826   9.777  -5.684  1.00  0.00     0.022 A 
BRANCH  63  66
ATOM     66  S   UNL     1       7.975   9.973  -7.403  1.00  0.00     0.127 S 
ATOM     67  O   UNL     1       7.604  11.325  -7.817  1.00  0.00    -0.237 OA
ATOM     68  O   UNL     1       8.770   9.900  -6.177  1.00  0.00    -0.237 OA
ATOM     69  O   UNL     1       8.449   9.104  -8.472  1.00  0.00    -0.744 OA
ENDBRANCH  63  66
ENDBRANCH  36  59
ENDBRANCH  10  11
ENDBRANCH   3   5
ENDBRANCH   2   3
ENDBRANCH   1   2
BRANCH   1  70
ATOM     70  C   UNL     1       5.154  -1.346   0.467  1.00  0.00     0.274 C 
BRANCH  70  71
ATOM     71  O   UNL     1       4.330  -1.629  -0.713  1.00  0.00    -0.461 OA
BRANCH  71  72
ATOM     72  C   UNL     1       3.051  -1.983  -0.418  1.00  0.00     0.320 C 
ATOM     73  O   UNL     1       2.687  -2.149   0.752  1.00  0.00    -0.251 OA
BRANCH  72  74
ATOM     74  C   UNL     1       2.026  -2.291  -1.538  1.00  0.00     0.144 C 
ATOM     75  C   UNL     1       2.158  -3.831  -1.369  1.00  0.00     0.281 C 
ATOM     76  C   UNL     1       1.923  -2.189  -3.084  1.00  0.00     0.088 C 
ATOM     77  C   UNL     1       0.848  -1.313  -1.068  1.00  0.00     0.145 C 
ATOM     78  N   UNL     1       1.774  -4.565  -2.559  1.00  0.00    -0.345 N 
ATOM     79  C   UNL     1       1.819  -3.624  -3.667  1.00  0.00     0.267 C 
ATOM     80  C   UNL     1       0.571  -1.410  -3.403  1.00  0.00     0.130 C 
ATOM     81  N   UNL     1       0.273  -0.572  -2.220  1.00  0.00    -0.337 N 
ATOM     82  H   UNL     1       0.831  -4.938  -2.453  1.00  0.00     0.346 HD
ATOM     83  H   UNL     1       2.403  -5.352  -2.723  1.00  0.00     0.346 HD
BRANCH  81  84
ATOM     84  C   UNL     1      -0.208   0.888  -2.367  1.00  0.00     0.256 C 
ATOM     85  O   UNL     1      -0.931   1.112  -3.350  1.00  0.00    -0.269 OA
BRANCH  84  86
ATOM     86  C   UNL     1       0.196   2.309  -1.441  1.00  0.00     0.065 A 
ATOM     87  C   UNL     1      -0.995   2.697  -0.796  1.00  0.00     0.016 A 
ATOM     88  C   UNL     1       1.314   3.352  -1.267  1.00  0.00     0.079 A 
ATOM     89  C   UNL     1      -1.108   3.865  -0.003  1.00  0.00     0.001 A 
ATOM     90  C   UNL     1       1.153   4.464  -0.400  1.00  0.00     0.029 A 
ATOM     91  C   UNL     1      -0.043   4.727   0.214  1.00  0.00     0.002 A 
BRANCH  88  92
ATOM     92  N   UNL     1       2.661   3.546  -1.841  1.00  0.00    -0.220 N 
ATOM     93  C   UNL     1       3.027   4.537  -2.752  1.00  0.00     0.225 A 
ATOM     94  N   UNL     1       3.826   3.463  -1.059  1.00  0.00    -0.155 NA
ATOM     95  N   UNL     1       4.318   4.682  -2.897  1.00  0.00    -0.223 NA
ATOM     96  C   UNL     1       4.773   3.939  -1.882  1.00  0.00     0.246 A 
ENDBRANCH  88  92
ENDBRANCH  84  86
ENDBRANCH  81  84
ENDBRANCH  72  74
ENDBRANCH  71  72
ENDBRANCH  70  71
ENDBRANCH   1  70
TORSDOF 17
