REMARK SMILES Cc1c(CC(=O)OCCOC(=O)c2ccc(-c3c4nc(c(-c5cccc(S(=O)(=O)[O-])c5F)c5ccc([nH]5)c(-c5cccc(S(=O)(=O)[O-])c5F)c5nc(c(-c6cccc(S(=O)(=O)[O-])c6F)c6ccc3[nH]6)C=C5)C=C4)cc2)c(O)oc2cc(=O)cc(O)c1-2
REMARK SMILES IDX 9 1 8 2 7 3 5 4 6 5 4 6 3 7 1 8 2 9 86 10 76 11 79 12 84 13
REMARK SMILES IDX 78 14 80 15 83 16 81 17 82 18 77 19 85 21 10 23 11 24 12 25
REMARK SMILES IDX 13 26 14 27 75 28 15 29 74 30 16 31 17 32 18 33 68 34 19 35
REMARK SMILES IDX 73 36 67 37 69 38 20 39 72 40 66 41 65 42 21 44 53 45 33 46
REMARK SMILES IDX 52 47 34 48 37 49 51 50 70 51 35 52 36 53 50 55 71 56 38 57
REMARK SMILES IDX 22 58 23 59 31 60 24 61 26 62 32 63 25 64 27 65 28 66 29 67
REMARK SMILES IDX 30 68 54 69 55 70 63 71 56 72 58 73 64 74 57 75 59 76 60 77
REMARK SMILES IDX 61 78 62 79 39 80 40 81 48 82 41 83 43 84 49 85 42 86 44 87
REMARK SMILES IDX 45 88 46 89 47 90
REMARK H PARENT 77 20 85 22 69 43 37 54
REMARK Flexibility Score: inf
ROOT
ATOM      1  C   UNL     1      -0.121   1.276   3.824  1.00  0.00     0.275 C 
ENDROOT
BRANCH   1   2
ATOM      2  C   UNL     1      -1.181   0.181   3.793  1.00  0.00     0.274 C 
BRANCH   2   3
ATOM      3  O   UNL     1      -1.066  -0.563   2.562  1.00  0.00    -0.462 OA
BRANCH   3   4
ATOM      4  C   UNL     1      -2.096  -0.432   1.689  1.00  0.00     0.310 C 
ATOM      5  O   UNL     1      -3.138   0.176   1.917  1.00  0.00    -0.252 OA
BRANCH   4   6
ATOM      6  C   UNL     1      -1.825  -1.046   0.323  1.00  0.00     0.166 C 
BRANCH   6   7
ATOM      7  C   UNL     1      -0.824  -2.183   0.291  1.00  0.00     0.048 A 
ATOM      8  C   UNL     1       0.809  -0.675  -0.998  1.00  0.00     0.046 C 
ATOM      9  C   UNL     1       0.545  -1.955  -0.235  1.00  0.00    -0.026 A 
ATOM     10  C   UNL     1       1.501  -2.910  -0.070  1.00  0.00     0.063 A 
ATOM     11  C   UNL     1      -1.139  -3.406   0.776  1.00  0.00     0.286 A 
ATOM     12  C   UNL     1       1.084  -4.237   0.404  1.00  0.00     0.146 A 
ATOM     13  C   UNL     1       2.936  -2.722  -0.360  1.00  0.00     0.130 A 
ATOM     14  O   UNL     1      -0.218  -4.433   0.825  1.00  0.00    -0.425 OA
ATOM     15  C   UNL     1       1.914  -5.286   0.356  1.00  0.00     0.100 A 
ATOM     16  C   UNL     1       3.779  -3.762  -0.413  1.00  0.00     0.099 A 
ATOM     17  C   UNL     1       3.297  -5.130  -0.130  1.00  0.00     0.186 A 
ATOM     18  O   UNL     1       4.039  -6.098  -0.252  1.00  0.00    -0.290 OA
BRANCH  11  19
ATOM     19  O   UNL     1      -2.383  -3.731   1.277  1.00  0.00    -0.480 OA
ATOM     20  H   UNL     1      -3.068  -3.091   1.282  1.00  0.00     0.297 HD
ENDBRANCH  11  19
BRANCH  13  21
ATOM     21  O   UNL     1       3.395  -1.426  -0.465  1.00  0.00    -0.507 OA
ATOM     22  H   UNL     1       4.299  -1.262  -0.648  1.00  0.00     0.293 HD
ENDBRANCH  13  21
ENDBRANCH   6   7
ENDBRANCH   4   6
ENDBRANCH   3   4
ENDBRANCH   2   3
ENDBRANCH   1   2
BRANCH   1  23
ATOM     23  O   UNL     1      -0.207   2.045   2.612  1.00  0.00    -0.458 OA
BRANCH  23  24
ATOM     24  C   UNL     1       0.955   2.185   1.931  1.00  0.00     0.338 C 
ATOM     25  O   UNL     1       2.063   1.826   2.295  1.00  0.00    -0.246 OA
BRANCH  24  26
ATOM     26  C   UNL     1       0.713   2.851   0.633  1.00  0.00     0.060 A 
ATOM     27  C   UNL     1      -0.434   2.590  -0.123  1.00  0.00     0.016 A 
ATOM     28  C   UNL     1       1.710   3.682   0.119  1.00  0.00     0.016 A 
ATOM     29  C   UNL     1      -0.546   3.102  -1.419  1.00  0.00     0.010 A 
ATOM     30  C   UNL     1       1.552   4.267  -1.139  1.00  0.00     0.010 A 
ATOM     31  C   UNL     1       0.436   3.963  -1.935  1.00  0.00    -0.014 A 
BRANCH  31  32
ATOM     32  C   UNL     1       0.299   4.579  -3.284  1.00  0.00     0.031 A 
ATOM     33  C   UNL     1       1.344   4.352  -4.346  1.00  0.00     0.074 A 
ATOM     34  C   UNL     1      -0.740   5.399  -3.540  1.00  0.00     0.049 A 
ATOM     35  N   UNL     1       1.472   4.930  -5.513  1.00  0.00    -0.248 NA
ATOM     36  C   UNL     1       2.390   3.356  -4.055  1.00  0.00     0.031 C 
ATOM     37  C   UNL     1      -1.816   5.716  -2.600  1.00  0.00     0.029 A 
ATOM     38  N   UNL     1      -1.053   6.131  -4.659  1.00  0.00    -0.354 N 
ATOM     39  C   UNL     1       2.633   4.411  -6.073  1.00  0.00     0.074 A 
ATOM     40  C   UNL     1       3.177   3.470  -5.117  1.00  0.00     0.031 C 
ATOM     41  C   UNL     1      -2.679   6.559  -3.184  1.00  0.00     0.029 A 
ATOM     42  C   UNL     1      -2.185   6.900  -4.515  1.00  0.00     0.049 A 
ATOM     43  H   UNL     1      -0.518   6.109  -5.486  1.00  0.00     0.167 HD
ATOM     44  C   UNL     1       3.187   4.679  -7.280  1.00  0.00     0.034 A 
ATOM     45  C   UNL     1      -2.752   7.801  -5.341  1.00  0.00     0.034 A 
ATOM     46  C   UNL     1       2.615   5.567  -8.257  1.00  0.00     0.049 A 
ATOM     47  C   UNL     1      -2.115   8.083  -6.671  1.00  0.00     0.074 A 
ATOM     48  C   UNL     1       3.082   5.859  -9.528  1.00  0.00     0.029 A 
ATOM     49  N   UNL     1       1.451   6.299  -8.083  1.00  0.00    -0.354 N 
ATOM     50  N   UNL     1      -1.055   7.531  -7.209  1.00  0.00    -0.248 NA
ATOM     51  C   UNL     1      -2.754   9.105  -7.513  1.00  0.00     0.031 C 
ATOM     52  C   UNL     1       2.202   6.770 -10.120  1.00  0.00     0.029 A 
ATOM     53  C   UNL     1       1.185   7.043  -9.220  1.00  0.00     0.049 A 
ATOM     54  H   UNL     1       0.896   6.291  -7.270  1.00  0.00     0.167 HD
ATOM     55  C   UNL     1      -0.905   8.129  -8.455  1.00  0.00     0.074 A 
ATOM     56  C   UNL     1      -2.001   9.064  -8.605  1.00  0.00     0.031 C 
ATOM     57  C   UNL     1       0.068   7.938  -9.378  1.00  0.00     0.034 A 
BRANCH  44  58
ATOM     58  C   UNL     1       4.456   3.959  -7.652  1.00  0.00     0.023 A 
ATOM     59  C   UNL     1       4.387   2.616  -8.071  1.00  0.00     0.012 A 
ATOM     60  C   UNL     1       5.693   4.633  -7.686  1.00  0.00     0.148 A 
ATOM     61  C   UNL     1       5.532   1.949  -8.505  1.00  0.00     0.002 A 
ATOM     62  C   UNL     1       6.824   3.971  -8.152  1.00  0.00     0.091 A 
ATOM     63  F   UNL     1       5.742   5.904  -7.261  1.00  0.00    -0.205 F 
ATOM     64  C   UNL     1       6.746   2.629  -8.557  1.00  0.00     0.022 A 
BRANCH  62  65
ATOM     65  S   UNL     1       8.417   4.786  -8.322  1.00  0.00     0.127 S 
ATOM     66  O   UNL     1       9.149   4.242  -7.180  1.00  0.00    -0.237 OA
ATOM     67  O   UNL     1       8.876   4.305  -9.626  1.00  0.00    -0.237 OA
ATOM     68  O   UNL     1       8.139   6.215  -8.270  1.00  0.00    -0.744 OA
ENDBRANCH  62  65
ENDBRANCH  44  58
BRANCH  45  69
ATOM     69  C   UNL     1      -4.025   8.462  -4.935  1.00  0.00     0.023 A 
ATOM     70  C   UNL     1      -5.218   8.105  -5.591  1.00  0.00     0.012 A 
ATOM     71  C   UNL     1      -4.076   9.364  -3.854  1.00  0.00     0.148 A 
ATOM     72  C   UNL     1      -6.440   8.636  -5.179  1.00  0.00     0.002 A 
ATOM     73  C   UNL     1      -5.304   9.840  -3.409  1.00  0.00     0.091 A 
ATOM     74  F   UNL     1      -2.926   9.712  -3.260  1.00  0.00    -0.205 F 
ATOM     75  C   UNL     1      -6.486   9.488  -4.078  1.00  0.00     0.022 A 
BRANCH  73  76
ATOM     76  S   UNL     1      -5.462  10.805  -1.902  1.00  0.00     0.127 S 
ATOM     77  O   UNL     1      -5.678  12.150  -2.427  1.00  0.00    -0.237 OA
ATOM     78  O   UNL     1      -6.631  10.195  -1.267  1.00  0.00    -0.237 OA
ATOM     79  O   UNL     1      -4.215  10.596  -1.177  1.00  0.00    -0.744 OA
ENDBRANCH  73  76
ENDBRANCH  45  69
BRANCH  57  80
ATOM     80  C   UNL     1       0.009   8.759 -10.638  1.00  0.00     0.023 A 
ATOM     81  C   UNL     1       0.400  10.111 -10.595  1.00  0.00     0.012 A 
ATOM     82  C   UNL     1      -0.336   8.176 -11.873  1.00  0.00     0.148 A 
ATOM     83  C   UNL     1       0.433  10.877 -11.760  1.00  0.00     0.002 A 
ATOM     84  C   UNL     1      -0.264   8.935 -13.036  1.00  0.00     0.091 A 
ATOM     85  F   UNL     1      -0.726   6.893 -11.889  1.00  0.00    -0.205 F 
ATOM     86  C   UNL     1       0.114  10.286 -12.980  1.00  0.00     0.022 A 
BRANCH  84  87
ATOM     87  S   UNL     1      -0.574   8.231 -14.660  1.00  0.00     0.127 S 
ATOM     88  O   UNL     1      -1.915   8.733 -14.952  1.00  0.00    -0.237 OA
ATOM     89  O   UNL     1       0.490   8.826 -15.470  1.00  0.00    -0.237 OA
ATOM     90  O   UNL     1      -0.465   6.787 -14.493  1.00  0.00    -0.744 OA
ENDBRANCH  84  87
ENDBRANCH  57  80
ENDBRANCH  31  32
ENDBRANCH  24  26
ENDBRANCH  23  24
ENDBRANCH   1  23
TORSDOF 17
