REMARK SMILES CCc1ccc(C(=O)OCCOC(=O)c2ccc(-c3c4nc(c(-c5cccc(S(=O)(=O)[O-])c5F)c5ccc([nH]5)c(-c5cccc(S(=O)(=O)[O-])c5F)c5nc(c(-c6cccc(S(=O)(=O)[O-])c6F)c6ccc3[nH]6)C=C5)C=C4)cc2)cc1S(=O)(=O)Nc1ccc(F)c(F)c1F
REMARK SMILES IDX 10 1 9 2 7 3 8 4 6 5 3 6 4 7 79 8 5 9 78 10 2 11 1 12 80 13
REMARK SMILES IDX 81 14 82 15 83 16 84 18 85 19 91 20 86 21 89 22 92 23 87 24
REMARK SMILES IDX 90 25 88 26 11 27 12 28 13 29 14 30 15 31 16 32 77 33 17 34
REMARK SMILES IDX 76 35 18 36 19 37 20 38 70 39 21 40 75 41 69 42 71 43 22 44
REMARK SMILES IDX 74 45 68 46 67 47 23 49 55 50 35 51 54 52 36 53 39 54 53 55
REMARK SMILES IDX 72 56 37 57 38 58 52 60 73 61 40 62 24 63 25 64 33 65 26 66
REMARK SMILES IDX 28 67 34 68 27 69 29 70 30 71 31 72 32 73 56 74 57 75 65 76
REMARK SMILES IDX 58 77 60 78 66 79 59 80 61 81 62 82 63 83 64 84 41 85 42 86
REMARK SMILES IDX 50 87 43 88 45 89 51 90 44 91 46 92 47 93 48 94 49 95
REMARK H PARENT 83 17 71 48 39 59
REMARK Flexibility Score: inf
ROOT
ATOM      1  C   UNL     1       1.421   7.563   3.359  1.00  0.00     0.275 C 
ENDROOT
BRANCH   1   2
ATOM      2  O   UNL     1       0.899   6.285   2.928  1.00  0.00    -0.458 OA
BRANCH   2   3
ATOM      3  C   UNL     1       1.793   5.279   3.059  1.00  0.00     0.338 C 
ATOM      4  O   UNL     1       2.934   5.393   3.490  1.00  0.00    -0.246 OA
BRANCH   3   5
ATOM      5  C   UNL     1       1.313   3.955   2.606  1.00  0.00     0.061 A 
ATOM      6  C   UNL     1       1.462   1.448   1.381  1.00  0.00    -0.028 A 
ATOM      7  C   UNL     1       1.878   1.613   2.705  1.00  0.00     0.006 A 
ATOM      8  C   UNL     1       0.634   2.446   0.835  1.00  0.00     0.091 A 
ATOM      9  C   UNL     1       1.821   2.858   3.298  1.00  0.00     0.016 A 
ATOM     10  C   UNL     1       0.613   3.736   1.423  1.00  0.00     0.038 A 
BRANCH   6  11
ATOM     11  C   UNL     1       2.145   0.300   0.676  1.00  0.00     0.033 C 
ATOM     12  C   UNL     1       2.639   0.589  -0.731  1.00  0.00     0.009 C 
ENDBRANCH   6  11
BRANCH   8  13
ATOM     13  S   UNL     1      -0.520   2.215  -0.508  1.00  0.00     0.262 S 
ATOM     14  O   UNL     1      -1.820   2.675  -0.057  1.00  0.00    -0.201 OA
ATOM     15  O   UNL     1       0.095   2.816  -1.671  1.00  0.00    -0.201 OA
BRANCH  13  16
ATOM     16  N   UNL     1      -0.657   0.596  -0.894  1.00  0.00    -0.277 N 
ATOM     17  H   UNL     1      -0.585   0.370  -1.850  1.00  0.00     0.180 HD
BRANCH  16  18
ATOM     18  C   UNL     1      -0.867  -0.498  -0.004  1.00  0.00     0.088 A 
ATOM     19  C   UNL     1      -0.456  -1.752  -0.494  1.00  0.00     0.033 A 
ATOM     20  C   UNL     1      -1.323  -0.406   1.316  1.00  0.00     0.185 A 
ATOM     21  C   UNL     1      -0.387  -2.860   0.353  1.00  0.00     0.045 A 
ATOM     22  C   UNL     1      -1.264  -1.516   2.155  1.00  0.00     0.196 A 
ATOM     23  F   UNL     1      -1.745   0.760   1.821  1.00  0.00    -0.201 F 
ATOM     24  C   UNL     1      -0.776  -2.727   1.681  1.00  0.00     0.162 A 
ATOM     25  F   UNL     1      -1.631  -1.404   3.439  1.00  0.00    -0.200 F 
ATOM     26  F   UNL     1      -0.651  -3.778   2.501  1.00  0.00    -0.204 F 
ENDBRANCH  16  18
ENDBRANCH  13  16
ENDBRANCH   8  13
ENDBRANCH   3   5
ENDBRANCH   2   3
ENDBRANCH   1   2
BRANCH   1  27
ATOM     27  C   UNL     1       1.099   7.868   4.825  1.00  0.00     0.275 C 
BRANCH  27  28
ATOM     28  O   UNL     1       1.654   6.877   5.712  1.00  0.00    -0.458 OA
BRANCH  28  29
ATOM     29  C   UNL     1       0.746   6.172   6.427  1.00  0.00     0.338 C 
ATOM     30  O   UNL     1      -0.467   6.312   6.402  1.00  0.00    -0.246 OA
BRANCH  29  31
ATOM     31  C   UNL     1       1.383   5.129   7.258  1.00  0.00     0.060 A 
ATOM     32  C   UNL     1       2.189   4.170   6.662  1.00  0.00     0.016 A 
ATOM     33  C   UNL     1       0.986   4.960   8.582  1.00  0.00     0.016 A 
ATOM     34  C   UNL     1       2.413   2.949   7.304  1.00  0.00     0.010 A 
ATOM     35  C   UNL     1       1.355   3.802   9.282  1.00  0.00     0.010 A 
ATOM     36  C   UNL     1       1.997   2.734   8.630  1.00  0.00    -0.014 A 
BRANCH  36  37
ATOM     37  C   UNL     1       2.175   1.400   9.302  1.00  0.00     0.031 A 
ATOM     38  C   UNL     1       1.016   0.727  10.016  1.00  0.00     0.074 A 
ATOM     39  C   UNL     1       3.367   0.762   9.284  1.00  0.00     0.049 A 
ATOM     40  N   UNL     1       1.023  -0.327  10.797  1.00  0.00    -0.248 NA
ATOM     41  C   UNL     1      -0.318   1.329   9.857  1.00  0.00     0.031 C 
ATOM     42  C   UNL     1       4.590   1.262   8.655  1.00  0.00     0.029 A 
ATOM     43  N   UNL     1       3.748  -0.452   9.812  1.00  0.00    -0.354 N 
ATOM     44  C   UNL     1      -0.271  -0.446  11.300  1.00  0.00     0.074 A 
ATOM     45  C   UNL     1      -1.042   0.634  10.725  1.00  0.00     0.031 C 
ATOM     46  C   UNL     1       5.561   0.347   8.778  1.00  0.00     0.029 A 
ATOM     47  C   UNL     1       5.069  -0.765   9.582  1.00  0.00     0.049 A 
ATOM     48  H   UNL     1       3.134  -1.040  10.307  1.00  0.00     0.167 HD
ATOM     49  C   UNL     1      -0.781  -1.373  12.149  1.00  0.00     0.034 A 
ATOM     50  C   UNL     1       5.824  -1.805   9.994  1.00  0.00     0.034 A 
ATOM     51  C   UNL     1      -0.061  -2.525  12.626  1.00  0.00     0.049 A 
ATOM     52  C   UNL     1       5.214  -2.863  10.868  1.00  0.00     0.074 A 
ATOM     53  C   UNL     1      -0.515  -3.544  13.448  1.00  0.00     0.029 A 
ATOM     54  N   UNL     1       1.249  -2.835  12.299  1.00  0.00    -0.354 N 
ATOM     55  N   UNL     1       3.984  -2.962  11.307  1.00  0.00    -0.248 NA
ATOM     56  C   UNL     1       6.095  -3.960  11.297  1.00  0.00     0.031 C 
ATOM     57  C   UNL     1       0.519  -4.471  13.615  1.00  0.00     0.029 A 
ATOM     58  C   UNL     1       1.614  -4.034  12.889  1.00  0.00     0.049 A 
ATOM     59  H   UNL     1       1.834  -2.284  11.731  1.00  0.00     0.167 HD
ATOM     60  C   UNL     1       3.937  -4.137  12.047  1.00  0.00     0.074 A 
ATOM     61  C   UNL     1       5.254  -4.734  11.969  1.00  0.00     0.031 C 
ATOM     62  C   UNL     1       2.904  -4.657  12.753  1.00  0.00     0.034 A 
BRANCH  49  63
ATOM     63  C   UNL     1      -2.214  -1.213  12.597  1.00  0.00     0.023 A 
ATOM     64  C   UNL     1      -3.266  -1.515  11.709  1.00  0.00     0.012 A 
ATOM     65  C   UNL     1      -2.517  -0.841  13.923  1.00  0.00     0.148 A 
ATOM     66  C   UNL     1      -4.595  -1.418  12.124  1.00  0.00     0.002 A 
ATOM     67  C   UNL     1      -3.842  -0.789  14.341  1.00  0.00     0.091 A 
ATOM     68  F   UNL     1      -1.505  -0.540  14.751  1.00  0.00    -0.205 F 
ATOM     69  C   UNL     1      -4.882  -1.067  13.441  1.00  0.00     0.022 A 
BRANCH  67  70
ATOM     70  S   UNL     1      -4.303  -0.432  16.042  1.00  0.00     0.127 S 
ATOM     71  O   UNL     1      -4.766   0.951  15.940  1.00  0.00    -0.237 OA
ATOM     72  O   UNL     1      -5.363  -1.411  16.292  1.00  0.00    -0.237 OA
ATOM     73  O   UNL     1      -3.097  -0.637  16.832  1.00  0.00    -0.744 OA
ENDBRANCH  67  70
ENDBRANCH  49  63
BRANCH  50  74
ATOM     74  C   UNL     1       7.245  -1.906   9.551  1.00  0.00     0.023 A 
ATOM     75  C   UNL     1       7.617  -2.924   8.651  1.00  0.00     0.012 A 
ATOM     76  C   UNL     1       8.214  -0.973   9.967  1.00  0.00     0.148 A 
ATOM     77  C   UNL     1       8.930  -3.018   8.186  1.00  0.00     0.002 A 
ATOM     78  C   UNL     1       9.501  -1.030   9.446  1.00  0.00     0.091 A 
ATOM     79  F   UNL     1       7.853  -0.029  10.848  1.00  0.00    -0.205 F 
ATOM     80  C   UNL     1       9.866  -2.061   8.568  1.00  0.00     0.022 A 
BRANCH  78  81
ATOM     81  S   UNL     1      10.707   0.265   9.758  1.00  0.00     0.127 S 
ATOM     82  O   UNL     1      11.557  -0.353  10.770  1.00  0.00    -0.237 OA
ATOM     83  O   UNL     1      11.331   0.428   8.443  1.00  0.00    -0.237 OA
ATOM     84  O   UNL     1       9.927   1.417  10.191  1.00  0.00    -0.744 OA
ENDBRANCH  78  81
ENDBRANCH  50  74
BRANCH  62  85
ATOM     85  C   UNL     1       3.139  -5.959  13.472  1.00  0.00     0.023 A 
ATOM     86  C   UNL     1       3.909  -5.973  14.652  1.00  0.00     0.012 A 
ATOM     87  C   UNL     1       2.559  -7.156  13.011  1.00  0.00     0.148 A 
ATOM     88  C   UNL     1       4.124  -7.164  15.344  1.00  0.00     0.002 A 
ATOM     89  C   UNL     1       2.744  -8.333  13.728  1.00  0.00     0.091 A 
ATOM     90  F   UNL     1       1.850  -7.129  11.872  1.00  0.00    -0.205 F 
ATOM     91  C   UNL     1       3.534  -8.341  14.888  1.00  0.00     0.022 A 
BRANCH  89  92
ATOM     92  S   UNL     1       1.951  -9.872  13.248  1.00  0.00     0.127 S 
ATOM     93  O   UNL     1       3.033 -10.562  12.548  1.00  0.00    -0.237 OA
ATOM     94  O   UNL     1       1.591 -10.459  14.540  1.00  0.00    -0.237 OA
ATOM     95  O   UNL     1       0.810  -9.487  12.428  1.00  0.00    -0.744 OA
ENDBRANCH  89  92
ENDBRANCH  62  85
ENDBRANCH  36  37
ENDBRANCH  29  31
ENDBRANCH  28  29
ENDBRANCH  27  28
ENDBRANCH   1  27
TORSDOF 18
