REMARK SMILES CC(C)[C@H]([NH2+][C@@H](C)C[C@@H]1CCCC[NH2+]1)C(=O)OCCOC(=O)c1ccc(-c2c3nc(c(-c4cccc(S(=O)(=O)[O-])c4F)c4ccc([nH]4)c(-c4cccc(S(=O)(=O)[O-])c4F)c4nc(c(-c5cccc(S(=O)(=O)[O-])c5F)c5ccc2[nH]5)C=C4)C=C3)cc1
REMARK SMILES IDX 18 1 17 2 15 3 16 4 4 5 2 6 1 7 3 8 5 9 6 12 7 13 8 14 9 15
REMARK SMILES IDX 10 16 14 17 11 18 13 19 12 22 19 23 20 24 21 25 22 26 23 27
REMARK SMILES IDX 24 28 85 29 25 30 84 31 26 32 27 33 28 34 78 35 29 36 83 37
REMARK SMILES IDX 77 38 79 39 30 40 82 41 76 42 75 43 31 45 63 46 43 47 62 48
REMARK SMILES IDX 44 49 47 50 61 51 80 52 45 53 46 54 60 56 81 57 48 58 32 59
REMARK SMILES IDX 33 60 41 61 34 62 36 63 42 64 35 65 37 66 38 67 39 68 40 69
REMARK SMILES IDX 64 70 65 71 73 72 66 73 68 74 74 75 67 76 69 77 70 78 71 79
REMARK SMILES IDX 72 80 49 81 50 82 58 83 51 84 53 85 59 86 52 87 54 88 55 89
REMARK SMILES IDX 56 90 57 91
REMARK H PARENT 5 10 5 11 14 20 14 21 79 44 47 55
REMARK Flexibility Score: inf
ROOT
ATOM      1  C   UNL     1      -1.363  -5.216   1.602  1.00  0.00     0.274 C 
ENDROOT
BRANCH   1   2
ATOM      2  O   UNL     1      -0.822  -4.068   0.920  1.00  0.00    -0.458 OA
BRANCH   2   3
ATOM      3  C   UNL     1      -1.658  -2.991   0.855  1.00  0.00     0.365 C 
ATOM      4  O   UNL     1      -2.728  -2.922   1.456  1.00  0.00    -0.245 OA
BRANCH   3   5
ATOM      5  C   UNL     1      -1.228  -1.931  -0.176  1.00  0.00     0.296 C 
BRANCH   5   6
ATOM      6  C   UNL     1      -1.616  -2.402  -1.607  1.00  0.00     0.053 C 
ATOM      7  C   UNL     1      -0.890  -3.656  -2.109  1.00  0.00     0.014 C 
ATOM      8  C   UNL     1      -3.131  -2.618  -1.726  1.00  0.00     0.014 C 
ENDBRANCH   5   6
BRANCH   5   9
ATOM      9  N   UNL     1       0.199  -1.569  -0.064  1.00  0.00    -0.332 N 
ATOM     10  H   UNL     1       0.672  -1.917  -0.899  1.00  0.00     0.347 HD
ATOM     11  H   UNL     1       0.514  -1.990   0.810  1.00  0.00     0.347 HD
BRANCH   9  12
ATOM     12  C   UNL     1       0.512  -0.136   0.061  1.00  0.00     0.185 C 
ATOM     13  C   UNL     1       2.048  -0.065   0.184  1.00  0.00     0.075 C 
BRANCH  12  14
ATOM     14  C   UNL     1       0.076   0.837  -1.077  1.00  0.00     0.129 C 
BRANCH  14  15
ATOM     15  C   UNL     1      -1.325   1.516  -1.034  1.00  0.00     0.188 C 
ATOM     16  C   UNL     1      -1.716   1.998   0.375  1.00  0.00     0.065 C 
ATOM     17  N   UNL     1      -2.343   0.664  -1.655  1.00  0.00    -0.344 N 
ATOM     18  C   UNL     1      -3.130   2.567   0.422  1.00  0.00     0.012 C 
ATOM     19  C   UNL     1      -3.701   1.200  -1.581  1.00  0.00     0.260 C 
ATOM     20  H   UNL     1      -2.332  -0.241  -1.185  1.00  0.00     0.346 HD
ATOM     21  H   UNL     1      -2.107   0.601  -2.645  1.00  0.00     0.346 HD
ATOM     22  C   UNL     1      -4.103   1.549  -0.155  1.00  0.00     0.062 C 
ENDBRANCH  14  15
ENDBRANCH  12  14
ENDBRANCH   9  12
ENDBRANCH   5   9
ENDBRANCH   3   5
ENDBRANCH   2   3
ENDBRANCH   1   2
BRANCH   1  23
ATOM     23  C   UNL     1      -0.939  -5.316   3.068  1.00  0.00     0.275 C 
BRANCH  23  24
ATOM     24  O   UNL     1      -1.434  -4.218   3.848  1.00  0.00    -0.458 OA
BRANCH  24  25
ATOM     25  C   UNL     1      -0.578  -3.173   3.943  1.00  0.00     0.338 C 
ATOM     26  O   UNL     1       0.570  -3.127   3.535  1.00  0.00    -0.246 OA
BRANCH  25  27
ATOM     27  C   UNL     1      -1.263  -2.009   4.529  1.00  0.00     0.060 A 
ATOM     28  C   UNL     1      -1.222  -0.810   3.813  1.00  0.00     0.016 A 
ATOM     29  C   UNL     1      -1.846  -2.061   5.796  1.00  0.00     0.016 A 
ATOM     30  C   UNL     1      -1.727   0.358   4.378  1.00  0.00     0.010 A 
ATOM     31  C   UNL     1      -2.352  -0.887   6.364  1.00  0.00     0.010 A 
ATOM     32  C   UNL     1      -2.264   0.334   5.671  1.00  0.00    -0.014 A 
BRANCH  32  33
ATOM     33  C   UNL     1      -2.639   1.610   6.326  1.00  0.00     0.031 A 
ATOM     34  C   UNL     1      -1.714   2.221   7.342  1.00  0.00     0.074 A 
ATOM     35  C   UNL     1      -3.788   2.228   5.999  1.00  0.00     0.049 A 
ATOM     36  N   UNL     1      -1.839   3.342   8.005  1.00  0.00    -0.248 NA
ATOM     37  C   UNL     1      -0.486   1.472   7.655  1.00  0.00     0.031 C 
ATOM     38  C   UNL     1      -4.771   1.728   5.038  1.00  0.00     0.029 A 
ATOM     39  N   UNL     1      -4.328   3.404   6.454  1.00  0.00    -0.354 N 
ATOM     40  C   UNL     1      -0.723   3.424   8.828  1.00  0.00     0.074 A 
ATOM     41  C   UNL     1       0.063   2.231   8.593  1.00  0.00     0.031 C 
ATOM     42  C   UNL     1      -5.804   2.586   4.988  1.00  0.00     0.029 A 
ATOM     43  C   UNL     1      -5.562   3.686   5.918  1.00  0.00     0.049 A 
ATOM     44  H   UNL     1      -3.875   3.991   7.102  1.00  0.00     0.167 HD
ATOM     45  C   UNL     1      -0.371   4.411   9.685  1.00  0.00     0.034 A 
ATOM     46  C   UNL     1      -6.401   4.714   6.155  1.00  0.00     0.034 A 
ATOM     47  C   UNL     1      -1.136   5.611   9.897  1.00  0.00     0.049 A 
ATOM     48  C   UNL     1      -5.978   5.805   7.104  1.00  0.00     0.074 A 
ATOM     49  C   UNL     1      -0.841   6.688  10.713  1.00  0.00     0.029 A 
ATOM     50  N   UNL     1      -2.351   5.890   9.291  1.00  0.00    -0.354 N 
ATOM     51  N   UNL     1      -4.859   5.930   7.775  1.00  0.00    -0.248 NA
ATOM     52  C   UNL     1      -6.919   6.919   7.297  1.00  0.00     0.031 C 
ATOM     53  C   UNL     1      -1.883   7.617  10.607  1.00  0.00     0.029 A 
ATOM     54  C   UNL     1      -2.821   7.122   9.716  1.00  0.00     0.049 A 
ATOM     55  H   UNL     1      -2.813   5.300   8.653  1.00  0.00     0.167 HD
ATOM     56  C   UNL     1      -4.945   7.148   8.441  1.00  0.00     0.074 A 
ATOM     57  C   UNL     1      -6.218   7.734   8.073  1.00  0.00     0.031 C 
ATOM     58  C   UNL     1      -4.061   7.721   9.294  1.00  0.00     0.034 A 
BRANCH  45  59
ATOM     59  C   UNL     1       0.929   4.256  10.428  1.00  0.00     0.023 A 
ATOM     60  C   UNL     1       2.145   4.455   9.742  1.00  0.00     0.012 A 
ATOM     61  C   UNL     1       0.952   3.969  11.807  1.00  0.00     0.148 A 
ATOM     62  C   UNL     1       3.364   4.343  10.410  1.00  0.00     0.002 A 
ATOM     63  C   UNL     1       2.170   3.896  12.474  1.00  0.00     0.091 A 
ATOM     64  F   UNL     1      -0.213   3.757  12.436  1.00  0.00    -0.205 F 
ATOM     65  C   UNL     1       3.376   4.074  11.776  1.00  0.00     0.022 A 
BRANCH  63  66
ATOM     66  S   UNL     1       2.283   3.623  14.246  1.00  0.00     0.127 S 
ATOM     67  O   UNL     1       2.718   2.228  14.303  1.00  0.00    -0.237 OA
ATOM     68  O   UNL     1       3.301   4.595  14.646  1.00  0.00    -0.237 OA
ATOM     69  O   UNL     1       0.953   3.889  14.776  1.00  0.00    -0.744 OA
ENDBRANCH  63  66
ENDBRANCH  45  59
BRANCH  46  70
ATOM     70  C   UNL     1      -7.698   4.794   5.428  1.00  0.00     0.023 A 
ATOM     71  C   UNL     1      -7.878   5.782   4.440  1.00  0.00     0.012 A 
ATOM     72  C   UNL     1      -8.742   3.886   5.690  1.00  0.00     0.148 A 
ATOM     73  C   UNL     1      -9.083   5.881   3.745  1.00  0.00     0.002 A 
ATOM     74  C   UNL     1      -9.922   3.958   4.957  1.00  0.00     0.091 A 
ATOM     75  F   UNL     1      -8.562   2.968   6.650  1.00  0.00    -0.205 F 
ATOM     76  C   UNL     1     -10.100   4.964   3.995  1.00  0.00     0.022 A 
BRANCH  74  77
ATOM     77  S   UNL     1     -11.231   2.740   5.128  1.00  0.00     0.127 S 
ATOM     78  O   UNL     1     -12.233   3.481   5.888  1.00  0.00    -0.237 OA
ATOM     79  O   UNL     1     -11.587   2.476   3.733  1.00  0.00    -0.237 OA
ATOM     80  O   UNL     1     -10.621   1.607   5.812  1.00  0.00    -0.744 OA
ENDBRANCH  74  77
ENDBRANCH  46  70
BRANCH  58  81
ATOM     81  C   UNL     1      -4.421   9.065   9.872  1.00  0.00     0.023 A 
ATOM     82  C   UNL     1      -5.416   9.152  10.867  1.00  0.00     0.012 A 
ATOM     83  C   UNL     1      -3.737  10.232   9.478  1.00  0.00     0.148 A 
ATOM     84  C   UNL     1      -5.747  10.382  11.435  1.00  0.00     0.002 A 
ATOM     85  C   UNL     1      -4.042  11.448  10.080  1.00  0.00     0.091 A 
ATOM     86  F   UNL     1      -2.808  10.138   8.514  1.00  0.00    -0.205 F 
ATOM     87  C   UNL     1      -5.054  11.527  11.050  1.00  0.00     0.022 A 
BRANCH  85  88
ATOM     88  S   UNL     1      -3.130  12.948   9.699  1.00  0.00     0.127 S 
ATOM     89  O   UNL     1      -4.004  13.592   8.722  1.00  0.00    -0.237 OA
ATOM     90  O   UNL     1      -3.068  13.622  10.998  1.00  0.00    -0.237 OA
ATOM     91  O   UNL     1      -1.837  12.502   9.197  1.00  0.00    -0.744 OA
ENDBRANCH  85  88
ENDBRANCH  58  81
ENDBRANCH  32  33
ENDBRANCH  25  27
ENDBRANCH  24  25
ENDBRANCH  23  24
ENDBRANCH   1  23
TORSDOF 19
