REMARK SMILES CC(=O)N[C@H](CC(=O)NCC(=O)OCCOC(=O)c1ccc(-c2c3nc(c(-c4cccc(S(=O)(=O)[O-])c4F)c4ccc([nH]4)c(-c4cccc(S(=O)(=O)[O-])c4F)c4nc(c(-c5cccc(S(=O)(=O)[O-])c5F)c5ccc2[nH]5)C=C4)C=C3)cc1)c1cccs1
REMARK SMILES IDX 14 1 13 2 11 3 12 4 10 5 9 6 7 7 8 8 6 10 5 11 4 12 1 13
REMARK SMILES IDX 2 14 3 15 82 17 83 18 86 19 84 20 85 21 15 22 16 23 17 24
REMARK SMILES IDX 18 25 19 26 20 27 81 28 21 29 80 30 22 31 23 32 24 33 74 34
REMARK SMILES IDX 25 35 79 36 73 37 75 38 26 39 78 40 72 41 71 42 27 44 59 45
REMARK SMILES IDX 39 46 58 47 40 48 43 49 57 50 76 51 41 52 42 53 56 55 77 56
REMARK SMILES IDX 44 57 28 58 29 59 37 60 30 61 32 62 38 63 31 64 33 65 34 66
REMARK SMILES IDX 35 67 36 68 60 69 61 70 69 71 62 72 64 73 70 74 63 75 65 76
REMARK SMILES IDX 66 77 67 78 68 79 45 80 46 81 54 82 47 83 49 84 55 85 48 86
REMARK SMILES IDX 50 87 51 88 52 89 53 90
REMARK H PARENT 9 9 4 16 75 43 43 54
REMARK Flexibility Score: inf
ROOT
ATOM      1  C   UNL     1       0.723   5.176  -2.298  1.00  0.00     0.274 C 
ENDROOT
BRANCH   1   2
ATOM      2  O   UNL     1       0.418   3.778  -2.112  1.00  0.00    -0.461 OA
BRANCH   2   3
ATOM      3  C   UNL     1       0.763   3.224  -0.924  1.00  0.00     0.325 C 
ATOM      4  O   UNL     1       1.428   3.781  -0.059  1.00  0.00    -0.250 OA
BRANCH   3   5
ATOM      5  C   UNL     1       0.263   1.784  -0.773  1.00  0.00     0.238 C 
BRANCH   5   6
ATOM      6  N   UNL     1      -0.602   1.255  -1.820  1.00  0.00    -0.345 N 
ATOM      7  C   UNL     1      -0.379   0.254  -2.707  1.00  0.00     0.222 C 
ATOM      8  O   UNL     1      -1.334  -0.227  -3.319  1.00  0.00    -0.275 OA
ATOM      9  H   UNL     1      -1.482   1.691  -1.895  1.00  0.00     0.164 HD
BRANCH   7  10
ATOM     10  C   UNL     1       1.019  -0.268  -2.947  1.00  0.00     0.130 C 
BRANCH  10  11
ATOM     11  C   UNL     1       2.007   0.802  -3.418  1.00  0.00     0.131 C 
BRANCH  11  12
ATOM     12  N   UNL     1       3.285   0.199  -3.777  1.00  0.00    -0.348 N 
ATOM     13  C   UNL     1       4.271   0.395  -1.522  1.00  0.00     0.114 C 
ATOM     14  C   UNL     1       4.367  -0.007  -2.970  1.00  0.00     0.217 C 
ATOM     15  O   UNL     1       5.385  -0.516  -3.435  1.00  0.00    -0.275 OA
ATOM     16  H   UNL     1       3.379  -0.096  -4.712  1.00  0.00     0.164 HD
ENDBRANCH  11  12
BRANCH  11  17
ATOM     17  C   UNL     1       1.546   1.679  -4.565  1.00  0.00     0.027 A 
ATOM     18  C   UNL     1       0.417   1.613  -5.362  1.00  0.00     0.017 A 
ATOM     19  S   UNL     1       2.466   3.090  -4.948  1.00  0.00    -0.147 S 
ATOM     20  C   UNL     1       0.208   2.804  -6.118  1.00  0.00     0.012 A 
ATOM     21  C   UNL     1       1.244   3.695  -5.973  1.00  0.00     0.065 A 
ENDBRANCH  11  17
ENDBRANCH  10  11
ENDBRANCH   7  10
ENDBRANCH   5   6
ENDBRANCH   3   5
ENDBRANCH   2   3
ENDBRANCH   1   2
BRANCH   1  22
ATOM     22  C   UNL     1      -0.469   5.877  -2.957  1.00  0.00     0.275 C 
BRANCH  22  23
ATOM     23  O   UNL     1      -1.568   5.945  -2.030  1.00  0.00    -0.458 OA
BRANCH  23  24
ATOM     24  C   UNL     1      -2.341   4.837  -1.981  1.00  0.00     0.338 C 
ATOM     25  O   UNL     1      -2.316   3.872  -2.735  1.00  0.00    -0.246 OA
BRANCH  24  26
ATOM     26  C   UNL     1      -3.067   4.827  -0.707  1.00  0.00     0.060 A 
ATOM     27  C   UNL     1      -2.870   3.721   0.125  1.00  0.00     0.016 A 
ATOM     28  C   UNL     1      -3.931   5.856  -0.337  1.00  0.00     0.016 A 
ATOM     29  C   UNL     1      -3.542   3.627   1.333  1.00  0.00     0.010 A 
ATOM     30  C   UNL     1      -4.609   5.761   0.879  1.00  0.00     0.010 A 
ATOM     31  C   UNL     1      -4.426   4.641   1.711  1.00  0.00    -0.014 A 
BRANCH  31  32
ATOM     32  C   UNL     1      -5.212   4.484   2.952  1.00  0.00     0.031 A 
ATOM     33  C   UNL     1      -6.673   4.161   2.855  1.00  0.00     0.074 A 
ATOM     34  C   UNL     1      -4.606   4.619   4.145  1.00  0.00     0.049 A 
ATOM     35  N   UNL     1      -7.560   4.064   3.807  1.00  0.00    -0.248 NA
ATOM     36  C   UNL     1      -7.207   3.919   1.504  1.00  0.00     0.031 C 
ATOM     37  C   UNL     1      -3.184   4.904   4.341  1.00  0.00     0.029 A 
ATOM     38  N   UNL     1      -5.114   4.553   5.416  1.00  0.00    -0.354 N 
ATOM     39  C   UNL     1      -8.766   3.801   3.172  1.00  0.00     0.074 A 
ATOM     40  C   UNL     1      -8.498   3.748   1.751  1.00  0.00     0.031 C 
ATOM     41  C   UNL     1      -2.936   5.009   5.657  1.00  0.00     0.029 A 
ATOM     42  C   UNL     1      -4.188   4.843   6.389  1.00  0.00     0.049 A 
ATOM     43  H   UNL     1      -6.050   4.321   5.613  1.00  0.00     0.167 HD
ATOM     44  C   UNL     1      -9.985   3.614   3.728  1.00  0.00     0.034 A 
ATOM     45  C   UNL     1      -4.344   4.992   7.719  1.00  0.00     0.034 A 
ATOM     46  C   UNL     1     -10.226   3.638   5.146  1.00  0.00     0.049 A 
ATOM     47  C   UNL     1      -5.713   4.790   8.309  1.00  0.00     0.074 A 
ATOM     48  C   UNL     1     -11.414   3.430   5.821  1.00  0.00     0.029 A 
ATOM     49  N   UNL     1      -9.257   3.888   6.106  1.00  0.00    -0.354 N 
ATOM     50  N   UNL     1      -6.832   4.467   7.705  1.00  0.00    -0.248 NA
ATOM     51  C   UNL     1      -5.839   4.947   9.764  1.00  0.00     0.031 C 
ATOM     52  C   UNL     1     -11.167   3.576   7.190  1.00  0.00     0.029 A 
ATOM     53  C   UNL     1      -9.819   3.846   7.369  1.00  0.00     0.049 A 
ATOM     54  H   UNL     1      -8.307   4.069   5.917  1.00  0.00     0.167 HD
ATOM     55  C   UNL     1      -7.787   4.349   8.707  1.00  0.00     0.074 A 
ATOM     56  C   UNL     1      -7.109   4.616   9.960  1.00  0.00     0.031 C 
ATOM     57  C   UNL     1      -9.108   4.061   8.603  1.00  0.00     0.034 A 
BRANCH  44  58
ATOM     58  C   UNL     1     -11.145   3.361   2.803  1.00  0.00     0.023 A 
ATOM     59  C   UNL     1     -11.263   2.119   2.148  1.00  0.00     0.012 A 
ATOM     60  C   UNL     1     -12.140   4.340   2.613  1.00  0.00     0.148 A 
ATOM     61  C   UNL     1     -12.336   1.866   1.293  1.00  0.00     0.002 A 
ATOM     62  C   UNL     1     -13.228   4.066   1.794  1.00  0.00     0.091 A 
ATOM     63  F   UNL     1     -11.996   5.524   3.224  1.00  0.00    -0.205 F 
ATOM     64  C   UNL     1     -13.322   2.835   1.124  1.00  0.00     0.022 A 
BRANCH  62  65
ATOM     65  S   UNL     1     -14.586   5.220   1.569  1.00  0.00     0.127 S 
ATOM     66  O   UNL     1     -14.379   5.652   0.187  1.00  0.00    -0.237 OA
ATOM     67  O   UNL     1     -15.755   4.364   1.772  1.00  0.00    -0.237 OA
ATOM     68  O   UNL     1     -14.406   6.253   2.579  1.00  0.00    -0.744 OA
ENDBRANCH  62  65
ENDBRANCH  44  58
BRANCH  45  69
ATOM     69  C   UNL     1      -3.171   5.329   8.574  1.00  0.00     0.023 A 
ATOM     70  C   UNL     1      -2.675   4.373   9.481  1.00  0.00     0.012 A 
ATOM     71  C   UNL     1      -2.524   6.576   8.470  1.00  0.00     0.148 A 
ATOM     72  C   UNL     1      -1.573   4.662  10.288  1.00  0.00     0.002 A 
ATOM     73  C   UNL     1      -1.393   6.837   9.235  1.00  0.00     0.091 A 
ATOM     74  F   UNL     1      -3.021   7.480   7.614  1.00  0.00    -0.205 F 
ATOM     75  C   UNL     1      -0.925   5.888  10.156  1.00  0.00     0.022 A 
BRANCH  73  76
ATOM     76  S   UNL     1      -0.420   8.333   9.030  1.00  0.00     0.127 S 
ATOM     77  O   UNL     1      -0.745   9.070  10.248  1.00  0.00    -0.237 OA
ATOM     78  O   UNL     1       0.943   7.803   8.975  1.00  0.00    -0.237 OA
ATOM     79  O   UNL     1      -0.879   8.931   7.784  1.00  0.00    -0.744 OA
ENDBRANCH  73  76
ENDBRANCH  45  69
BRANCH  57  80
ATOM     80  C   UNL     1      -9.902   3.977   9.879  1.00  0.00     0.023 A 
ATOM     81  C   UNL     1     -10.239   5.154  10.575  1.00  0.00     0.012 A 
ATOM     82  C   UNL     1     -10.383   2.736  10.339  1.00  0.00     0.148 A 
ATOM     83  C   UNL     1     -11.019   5.093  11.728  1.00  0.00     0.002 A 
ATOM     84  C   UNL     1     -11.202   2.688  11.460  1.00  0.00     0.091 A 
ATOM     85  F   UNL     1     -10.034   1.627   9.671  1.00  0.00    -0.205 F 
ATOM     86  C   UNL     1     -11.511   3.864  12.163  1.00  0.00     0.022 A 
BRANCH  84  87
ATOM     87  S   UNL     1     -11.960   1.164  12.030  1.00  0.00     0.127 S 
ATOM     88  O   UNL     1     -11.185   0.879  13.237  1.00  0.00    -0.237 OA
ATOM     89  O   UNL     1     -13.342   1.577  12.277  1.00  0.00    -0.237 OA
ATOM     90  O   UNL     1     -11.802   0.206  10.944  1.00  0.00    -0.744 OA
ENDBRANCH  84  87
ENDBRANCH  57  80
ENDBRANCH  31  32
ENDBRANCH  24  26
ENDBRANCH  23  24
ENDBRANCH  22  23
ENDBRANCH   1  22
TORSDOF 19
