REMARK SMILES O=C(Cn1c(-c2nc(-c3ccc(C(F)(F)F)cc3)no2)cc2ccccc21)OCCOC(=O)c1ccc(-c2c3nc(c(-c4cccc(S(=O)(=O)[O-])c4F)c4ccc([nH]4)c(-c4cccc(S(=O)(=O)[O-])c4F)c4nc(c(-c5cccc(S(=O)(=O)[O-])c5F)c5ccc2[nH]5)C=C4)C=C3)cc1
REMARK SMILES IDX 29 1 28 2 2 3 1 4 3 5 4 6 5 7 27 8 21 9 22 10 26 11 23 12
REMARK SMILES IDX 25 13 24 14 6 15 7 16 20 17 8 18 19 19 9 20 10 21 18 22
REMARK SMILES IDX 11 23 17 24 12 25 13 26 14 27 15 28 16 29 30 30 31 31 32 32
REMARK SMILES IDX 33 33 34 34 35 35 96 36 36 37 95 38 37 39 38 40 39 41 89 42
REMARK SMILES IDX 40 43 94 44 88 45 90 46 41 47 93 48 87 49 86 50 42 52 74 53
REMARK SMILES IDX 54 54 73 55 55 56 58 57 72 58 91 59 56 60 57 61 71 63 92 64
REMARK SMILES IDX 59 65 43 66 44 67 52 68 45 69 47 70 53 71 46 72 48 73 49 74
REMARK SMILES IDX 50 75 51 76 75 77 76 78 84 79 77 80 79 81 85 82 78 83 80 84
REMARK SMILES IDX 81 85 82 86 83 87 60 88 61 89 69 90 62 91 64 92 70 93 63 94
REMARK SMILES IDX 65 95 66 96 67 97 68 98
REMARK H PARENT 90 51 58 62
REMARK Flexibility Score: inf
ROOT
ATOM      1  C   UNL     1       4.175   1.284   0.770  1.00  0.00     0.274 C 
ENDROOT
BRANCH   1   2
ATOM      2  O   UNL     1       2.891   1.320   0.112  1.00  0.00    -0.461 OA
BRANCH   2   3
ATOM      3  C   UNL     1       2.574   0.480  -0.916  1.00  0.00     0.326 C 
ATOM      4  O   UNL     1       1.712   0.802  -1.730  1.00  0.00    -0.250 OA
BRANCH   3   5
ATOM      5  C   UNL     1       3.184  -0.891  -0.897  1.00  0.00     0.245 C 
BRANCH   5   6
ATOM      6  N   UNL     1       4.116  -1.296  -1.941  1.00  0.00    -0.325 N 
ATOM      7  C   UNL     1       4.940  -0.544  -2.741  1.00  0.00     0.109 A 
ATOM      8  C   UNL     1       4.400  -2.648  -2.134  1.00  0.00     0.049 A 
ATOM      9  C   UNL     1       5.515  -1.416  -3.652  1.00  0.00     0.042 A 
ATOM     10  C   UNL     1       5.175  -2.747  -3.284  1.00  0.00     0.000 A 
ATOM     11  C   UNL     1       4.024  -3.787  -1.401  1.00  0.00     0.027 A 
ATOM     12  C   UNL     1       5.497  -4.029  -3.775  1.00  0.00     0.010 A 
ATOM     13  C   UNL     1       4.343  -5.048  -1.903  1.00  0.00     0.002 A 
ATOM     14  C   UNL     1       5.053  -5.170  -3.089  1.00  0.00     0.001 A 
BRANCH   7  15
ATOM     15  C   UNL     1       5.288   0.825  -2.530  1.00  0.00     0.274 A 
ATOM     16  N   UNL     1       4.518   1.887  -2.667  1.00  0.00    -0.185 NA
ATOM     17  O   UNL     1       6.526   1.148  -2.043  1.00  0.00    -0.332 OA
ATOM     18  C   UNL     1       5.349   2.927  -2.298  1.00  0.00     0.202 A 
ATOM     19  N   UNL     1       6.553   2.515  -1.863  1.00  0.00    -0.057 NA
BRANCH  18  20
ATOM     20  C   UNL     1       5.014   4.352  -2.363  1.00  0.00     0.023 A 
ATOM     21  C   UNL     1       6.049   5.295  -2.225  1.00  0.00     0.013 A 
ATOM     22  C   UNL     1       3.712   4.826  -2.564  1.00  0.00     0.013 A 
ATOM     23  C   UNL     1       5.803   6.666  -2.291  1.00  0.00     0.014 A 
ATOM     24  C   UNL     1       3.460   6.212  -2.628  1.00  0.00     0.014 A 
ATOM     25  C   UNL     1       4.505   7.144  -2.497  1.00  0.00     0.056 A 
BRANCH  25  26
ATOM     26  C   UNL     1       4.282   8.635  -2.567  1.00  0.00     0.416 C 
ATOM     27  F   UNL     1       4.617   9.264  -1.403  1.00  0.00    -0.166 F 
ATOM     28  F   UNL     1       5.047   9.229  -3.530  1.00  0.00    -0.166 F 
ATOM     29  F   UNL     1       2.999   9.001  -2.834  1.00  0.00    -0.166 F 
ENDBRANCH  25  26
ENDBRANCH  18  20
ENDBRANCH   7  15
ENDBRANCH   5   6
ENDBRANCH   3   5
ENDBRANCH   2   3
ENDBRANCH   1   2
BRANCH   1  30
ATOM     30  C   UNL     1       4.078   0.820   2.226  1.00  0.00     0.275 C 
BRANCH  30  31
ATOM     31  O   UNL     1       3.384  -0.434   2.286  1.00  0.00    -0.458 OA
BRANCH  31  32
ATOM     32  C   UNL     1       2.119  -0.371   2.779  1.00  0.00     0.338 C 
ATOM     33  O   UNL     1       1.667   0.480   3.527  1.00  0.00    -0.246 OA
BRANCH  32  34
ATOM     34  C   UNL     1       1.309  -1.314   1.986  1.00  0.00     0.060 A 
ATOM     35  C   UNL     1       1.785  -2.584   1.661  1.00  0.00     0.016 A 
ATOM     36  C   UNL     1       0.141  -0.816   1.395  1.00  0.00     0.016 A 
ATOM     37  C   UNL     1       1.138  -3.302   0.661  1.00  0.00     0.010 A 
ATOM     38  C   UNL     1      -0.494  -1.536   0.386  1.00  0.00     0.010 A 
ATOM     39  C   UNL     1       0.040  -2.753  -0.032  1.00  0.00    -0.014 A 
BRANCH  39  40
ATOM     40  C   UNL     1      -0.595  -3.584  -1.072  1.00  0.00     0.031 A 
ATOM     41  C   UNL     1      -0.913  -4.961  -0.584  1.00  0.00     0.074 A 
ATOM     42  C   UNL     1      -0.984  -3.175  -2.302  1.00  0.00     0.049 A 
ATOM     43  N   UNL     1      -0.483  -6.097  -1.034  1.00  0.00    -0.248 NA
ATOM     44  C   UNL     1      -1.658  -5.058   0.685  1.00  0.00     0.031 C 
ATOM     45  C   UNL     1      -0.965  -1.818  -2.855  1.00  0.00     0.029 A 
ATOM     46  N   UNL     1      -1.617  -3.887  -3.290  1.00  0.00    -0.354 N 
ATOM     47  C   UNL     1      -1.082  -7.061  -0.225  1.00  0.00     0.074 A 
ATOM     48  C   UNL     1      -1.639  -6.370   0.908  1.00  0.00     0.031 C 
ATOM     49  C   UNL     1      -1.789  -1.759  -3.928  1.00  0.00     0.029 A 
ATOM     50  C   UNL     1      -2.296  -3.088  -4.216  1.00  0.00     0.049 A 
ATOM     51  H   UNL     1      -1.596  -4.870  -3.341  1.00  0.00     0.167 HD
ATOM     52  C   UNL     1      -1.293  -8.339  -0.634  1.00  0.00     0.034 A 
ATOM     53  C   UNL     1      -3.265  -3.486  -5.085  1.00  0.00     0.034 A 
ATOM     54  C   UNL     1      -0.496  -8.701  -1.767  1.00  0.00     0.049 A 
ATOM     55  C   UNL     1      -3.127  -4.950  -5.242  1.00  0.00     0.074 A 
ATOM     56  C   UNL     1       0.856  -8.816  -2.019  1.00  0.00     0.029 A 
ATOM     57  N   UNL     1      -1.111  -8.681  -2.992  1.00  0.00    -0.354 N 
ATOM     58  N   UNL     1      -2.116  -5.532  -5.820  1.00  0.00    -0.248 NA
ATOM     59  C   UNL     1      -3.954  -5.799  -4.402  1.00  0.00     0.031 C 
ATOM     60  C   UNL     1       1.016  -8.382  -3.366  1.00  0.00     0.029 A 
ATOM     61  C   UNL     1      -0.249  -8.075  -3.866  1.00  0.00     0.049 A 
ATOM     62  H   UNL     1      -2.004  -9.035  -3.203  1.00  0.00     0.167 HD
ATOM     63  C   UNL     1      -1.916  -6.681  -5.072  1.00  0.00     0.074 A 
ATOM     64  C   UNL     1      -3.131  -6.841  -4.278  1.00  0.00     0.031 C 
ATOM     65  C   UNL     1      -0.675  -7.232  -4.957  1.00  0.00     0.034 A 
BRANCH  52  66
ATOM     66  C   UNL     1      -2.492  -9.140  -0.206  1.00  0.00     0.023 A 
ATOM     67  C   UNL     1      -2.466 -10.539  -0.368  1.00  0.00     0.012 A 
ATOM     68  C   UNL     1      -3.735  -8.543   0.112  1.00  0.00     0.148 A 
ATOM     69  C   UNL     1      -3.626 -11.307  -0.210  1.00  0.00     0.002 A 
ATOM     70  C   UNL     1      -4.864  -9.315   0.344  1.00  0.00     0.091 A 
ATOM     71  F   UNL     1      -3.858  -7.212   0.066  1.00  0.00    -0.205 F 
ATOM     72  C   UNL     1      -4.820 -10.699   0.164  1.00  0.00     0.022 A 
BRANCH  70  73
ATOM     73  S   UNL     1      -6.417  -8.576   0.859  1.00  0.00     0.127 S 
ATOM     74  O   UNL     1      -7.212  -8.691  -0.360  1.00  0.00    -0.237 OA
ATOM     75  O   UNL     1      -6.821  -9.462   1.951  1.00  0.00    -0.237 OA
ATOM     76  O   UNL     1      -6.080  -7.223   1.283  1.00  0.00    -0.744 OA
ENDBRANCH  70  73
ENDBRANCH  52  66
BRANCH  53  77
ATOM     77  C   UNL     1      -4.502  -2.798  -5.560  1.00  0.00     0.023 A 
ATOM     78  C   UNL     1      -5.266  -3.393  -6.594  1.00  0.00     0.012 A 
ATOM     79  C   UNL     1      -5.112  -1.771  -4.810  1.00  0.00     0.148 A 
ATOM     80  C   UNL     1      -6.602  -3.032  -6.819  1.00  0.00     0.002 A 
ATOM     81  C   UNL     1      -6.438  -1.407  -5.045  1.00  0.00     0.091 A 
ATOM     82  F   UNL     1      -4.435  -1.218  -3.797  1.00  0.00    -0.205 F 
ATOM     83  C   UNL     1      -7.192  -2.049  -6.035  1.00  0.00     0.022 A 
BRANCH  81  84
ATOM     84  S   UNL     1      -7.269  -0.153  -4.059  1.00  0.00     0.127 S 
ATOM     85  O   UNL     1      -7.970   0.626  -5.082  1.00  0.00    -0.237 OA
ATOM     86  O   UNL     1      -8.134  -0.962  -3.207  1.00  0.00    -0.237 OA
ATOM     87  O   UNL     1      -6.209   0.579  -3.377  1.00  0.00    -0.744 OA
ENDBRANCH  81  84
ENDBRANCH  53  77
BRANCH  65  88
ATOM     88  C   UNL     1       0.410  -6.733  -5.871  1.00  0.00     0.023 A 
ATOM     89  C   UNL     1       0.966  -5.442  -5.748  1.00  0.00     0.012 A 
ATOM     90  C   UNL     1       1.015  -7.662  -6.731  1.00  0.00     0.148 A 
ATOM     91  C   UNL     1       2.111  -5.090  -6.471  1.00  0.00     0.002 A 
ATOM     92  C   UNL     1       2.173  -7.322  -7.417  1.00  0.00     0.091 A 
ATOM     93  F   UNL     1       0.471  -8.885  -6.821  1.00  0.00    -0.205 F 
ATOM     94  C   UNL     1       2.722  -6.035  -7.293  1.00  0.00     0.022 A 
BRANCH  92  95
ATOM     95  S   UNL     1       3.078  -8.523  -8.394  1.00  0.00     0.127 S 
ATOM     96  O   UNL     1       2.942  -7.984  -9.746  1.00  0.00    -0.237 OA
ATOM     97  O   UNL     1       4.425  -8.427  -7.829  1.00  0.00    -0.237 OA
ATOM     98  O   UNL     1       2.425  -9.807  -8.171  1.00  0.00    -0.744 OA
ENDBRANCH  92  95
ENDBRANCH  65  88
ENDBRANCH  39  40
ENDBRANCH  32  34
ENDBRANCH  31  32
ENDBRANCH  30  31
ENDBRANCH   1  30
TORSDOF 18
