REMARK SMILES C[C@@H]1C[C@H](C)C[C@H]([N@H+]2[C@@H](C(=O)OCCOC(=O)c3ccc(-c4c5nc(c(-c6cccc(S(=O)(=O)[O-])c6F)c6ccc([nH]6)c(-c6cccc(S(=O)(=O)[O-])c6F)c6nc(c(-c7cccc(S(=O)(=O)[O-])c7F)c7ccc4[nH]7)C=C6)C=C5)cc3)CC[C@@H]3CCCC[C@@H]32)C1
REMARK SMILES IDX 14 1 13 2 12 3 10 4 11 5 9 6 8 7 88 8 81 10 83 11 87 12
REMARK SMILES IDX 82 13 84 14 86 15 85 16 7 17 5 18 4 19 6 20 3 21 2 22 89 23
REMARK SMILES IDX 1 24 15 25 16 26 17 27 18 28 19 29 80 30 20 31 79 32 21 33
REMARK SMILES IDX 22 34 23 35 73 36 24 37 78 38 72 39 74 40 25 41 77 42 71 43
REMARK SMILES IDX 70 44 26 46 58 47 38 48 57 49 39 50 42 51 56 52 75 53 40 54
REMARK SMILES IDX 41 55 55 57 76 58 43 59 27 60 28 61 36 62 29 63 31 64 37 65
REMARK SMILES IDX 30 66 32 67 33 68 34 69 35 70 59 71 60 72 68 73 61 74 63 75
REMARK SMILES IDX 69 76 62 77 64 78 65 79 66 80 67 81 44 82 45 83 53 84 46 85
REMARK SMILES IDX 48 86 54 87 47 88 49 89 50 90 51 91 52 92
REMARK H PARENT 8 9 74 45 42 56
REMARK Flexibility Score: inf
ROOT
ATOM      1  C   UNL     1       7.658   2.073   1.798  1.00  0.00     0.275 C 
ENDROOT
BRANCH   1   2
ATOM      2  C   UNL     1       6.554   1.102   2.207  1.00  0.00     0.274 C 
BRANCH   2   3
ATOM      3  O   UNL     1       5.765   0.766   1.047  1.00  0.00    -0.458 OA
BRANCH   3   4
ATOM      4  C   UNL     1       4.437   1.062   1.133  1.00  0.00     0.365 C 
ATOM      5  O   UNL     1       3.893   1.425   2.170  1.00  0.00    -0.245 OA
BRANCH   4   6
ATOM      6  C   UNL     1       3.754   1.024  -0.260  1.00  0.00     0.295 C 
ATOM      7  N   UNL     1       2.271   1.027  -0.158  1.00  0.00    -0.318 N 
ATOM      8  C   UNL     1       1.791  -0.211   0.475  1.00  0.00     0.188 C 
ATOM      9  H   UNL     1       1.458   0.895  -0.760  1.00  0.00     0.349 HD
ATOM     10  C   UNL     1       4.167  -0.080  -1.229  1.00  0.00     0.078 C 
ATOM     11  C   UNL     1       2.088  -1.411  -0.455  1.00  0.00     0.048 C 
ATOM     12  C   UNL     1       0.382  -0.325   1.054  1.00  0.00     0.065 C 
ATOM     13  C   UNL     1       3.540  -1.439  -0.955  1.00  0.00     0.016 C 
ATOM     14  C   UNL     1       1.050  -1.457  -1.577  1.00  0.00     0.010 C 
ATOM     15  C   UNL     1      -0.557  -1.372   0.446  1.00  0.00     0.006 C 
ATOM     16  C   UNL     1      -0.333  -1.775  -1.012  1.00  0.00     0.001 C 
BRANCH   7  17
ATOM     17  C   UNL     1       1.630   2.329  -0.432  1.00  0.00     0.185 C 
ATOM     18  C   UNL     1      -1.779   1.650  -0.625  1.00  0.00     0.008 C 
ATOM     19  C   UNL     1      -0.895   2.812  -1.041  1.00  0.00    -0.008 C 
ATOM     20  C   UNL     1       0.507   2.397  -1.484  1.00  0.00     0.068 C 
ATOM     21  C   UNL     1      -0.888   3.950  -0.023  1.00  0.00     0.007 C 
ATOM     22  C   UNL     1       0.134   3.854   1.118  1.00  0.00    -0.008 C 
ATOM     23  C   UNL     1       1.529   3.402   0.672  1.00  0.00     0.068 C 
ATOM     24  C   UNL     1      -0.342   3.088   2.351  1.00  0.00     0.008 C 
ENDBRANCH   7  17
ENDBRANCH   4   6
ENDBRANCH   3   4
ENDBRANCH   2   3
ENDBRANCH   1   2
BRANCH   1  25
ATOM     25  O   UNL     1       7.076   3.245   1.194  1.00  0.00    -0.458 OA
BRANCH  25  26
ATOM     26  C   UNL     1       7.248   3.347  -0.140  1.00  0.00     0.338 C 
ATOM     27  O   UNL     1       7.887   2.584  -0.866  1.00  0.00    -0.246 OA
BRANCH  26  28
ATOM     28  C   UNL     1       6.514   4.498  -0.679  1.00  0.00     0.060 A 
ATOM     29  C   UNL     1       5.123   4.477  -0.678  1.00  0.00     0.016 A 
ATOM     30  C   UNL     1       7.196   5.506  -1.357  1.00  0.00     0.016 A 
ATOM     31  C   UNL     1       4.415   5.368  -1.482  1.00  0.00     0.010 A 
ATOM     32  C   UNL     1       6.472   6.488  -2.044  1.00  0.00     0.010 A 
ATOM     33  C   UNL     1       5.073   6.402  -2.164  1.00  0.00    -0.014 A 
BRANCH  33  34
ATOM     34  C   UNL     1       4.305   7.367  -3.009  1.00  0.00     0.031 A 
ATOM     35  C   UNL     1       4.675   7.586  -4.457  1.00  0.00     0.074 A 
ATOM     36  C   UNL     1       3.272   8.060  -2.485  1.00  0.00     0.049 A 
ATOM     37  N   UNL     1       4.235   8.491  -5.295  1.00  0.00    -0.248 NA
ATOM     38  C   UNL     1       5.679   6.678  -5.037  1.00  0.00     0.031 C 
ATOM     39  C   UNL     1       2.785   7.951  -1.108  1.00  0.00     0.029 A 
ATOM     40  N   UNL     1       2.448   9.007  -3.048  1.00  0.00    -0.354 N 
ATOM     41  C   UNL     1       4.961   8.314  -6.468  1.00  0.00     0.074 A 
ATOM     42  C   UNL     1       5.865   7.208  -6.239  1.00  0.00     0.031 C 
ATOM     43  C   UNL     1       1.736   8.769  -0.941  1.00  0.00     0.029 A 
ATOM     44  C   UNL     1       1.530   9.531  -2.167  1.00  0.00     0.049 A 
ATOM     45  H   UNL     1       2.509   9.283  -3.991  1.00  0.00     0.167 HD
ATOM     46  C   UNL     1       4.876   8.998  -7.636  1.00  0.00     0.034 A 
ATOM     47  C   UNL     1       0.648  10.541  -2.304  1.00  0.00     0.034 A 
ATOM     48  C   UNL     1       3.923  10.043  -7.899  1.00  0.00     0.049 A 
ATOM     49  C   UNL     1       0.573  11.281  -3.609  1.00  0.00     0.074 A 
ATOM     50  C   UNL     1       3.735  10.761  -9.068  1.00  0.00     0.029 A 
ATOM     51  N   UNL     1       2.989  10.513  -6.989  1.00  0.00    -0.354 N 
ATOM     52  N   UNL     1       1.236  11.065  -4.719  1.00  0.00    -0.248 NA
ATOM     53  C   UNL     1      -0.379  12.398  -3.684  1.00  0.00     0.031 C 
ATOM     54  C   UNL     1       2.694  11.673  -8.861  1.00  0.00     0.029 A 
ATOM     55  C   UNL     1       2.224  11.512  -7.569  1.00  0.00     0.049 A 
ATOM     56  H   UNL     1       2.885  10.185  -6.067  1.00  0.00     0.167 HD
ATOM     57  C   UNL     1       0.767  12.005  -5.629  1.00  0.00     0.074 A 
ATOM     58  C   UNL     1      -0.258  12.771  -4.950  1.00  0.00     0.031 C 
ATOM     59  C   UNL     1       1.168  12.231  -6.904  1.00  0.00     0.034 A 
BRANCH  46  60
ATOM     60  C   UNL     1       5.827   8.619  -8.742  1.00  0.00     0.023 A 
ATOM     61  C   UNL     1       5.617   7.433  -9.473  1.00  0.00     0.012 A 
ATOM     62  C   UNL     1       6.892   9.471  -9.100  1.00  0.00     0.148 A 
ATOM     63  C   UNL     1       6.467   7.085 -10.522  1.00  0.00     0.002 A 
ATOM     64  C   UNL     1       7.711   9.138 -10.173  1.00  0.00     0.091 A 
ATOM     65  F   UNL     1       7.090  10.585  -8.380  1.00  0.00    -0.205 F 
ATOM     66  C   UNL     1       7.507   7.941 -10.878  1.00  0.00     0.022 A 
BRANCH  64  67
ATOM     67  S   UNL     1       9.028  10.214 -10.753  1.00  0.00     0.127 S 
ATOM     68  O   UNL     1      10.217   9.511 -10.274  1.00  0.00    -0.237 OA
ATOM     69  O   UNL     1       8.842  10.178 -12.204  1.00  0.00    -0.237 OA
ATOM     70  O   UNL     1       8.779  11.513 -10.145  1.00  0.00    -0.744 OA
ENDBRANCH  64  67
ENDBRANCH  46  60
BRANCH  47  71
ATOM     71  C   UNL     1      -0.242  10.908  -1.165  1.00  0.00     0.023 A 
ATOM     72  C   UNL     1      -1.626  10.668  -1.264  1.00  0.00     0.012 A 
ATOM     73  C   UNL     1       0.277  11.461   0.022  1.00  0.00     0.148 A 
ATOM     74  C   UNL     1      -2.479  10.991  -0.208  1.00  0.00     0.002 A 
ATOM     75  C   UNL     1      -0.570  11.722   1.092  1.00  0.00     0.091 A 
ATOM     76  F   UNL     1       1.593  11.707   0.088  1.00  0.00    -0.205 F 
ATOM     77  C   UNL     1      -1.951  11.505   0.974  1.00  0.00     0.022 A 
BRANCH  75  78
ATOM     78  S   UNL     1       0.050  12.245   2.695  1.00  0.00     0.127 S 
ATOM     79  O   UNL     1      -0.315  13.658   2.711  1.00  0.00    -0.237 OA
ATOM     80  O   UNL     1      -0.717  11.398   3.610  1.00  0.00    -0.237 OA
ATOM     81  O   UNL     1       1.478  11.955   2.672  1.00  0.00    -0.744 OA
ENDBRANCH  75  78
ENDBRANCH  47  71
BRANCH  59  82
ATOM     82  C   UNL     1       0.480  13.334  -7.664  1.00  0.00     0.023 A 
ATOM     83  C   UNL     1       0.769  14.678  -7.353  1.00  0.00     0.012 A 
ATOM     84  C   UNL     1      -0.404  13.043  -8.721  1.00  0.00     0.148 A 
ATOM     85  C   UNL     1       0.164  15.715  -8.062  1.00  0.00     0.002 A 
ATOM     86  C   UNL     1      -0.969  14.082  -9.452  1.00  0.00     0.091 A 
ATOM     87  F   UNL     1      -0.684  11.758  -8.987  1.00  0.00    -0.205 F 
ATOM     88  C   UNL     1      -0.695  15.418  -9.117  1.00  0.00     0.022 A 
BRANCH  86  89
ATOM     89  S   UNL     1      -2.016  13.787 -10.882  1.00  0.00     0.127 S 
ATOM     90  O   UNL     1      -3.345  14.063 -10.341  1.00  0.00    -0.237 OA
ATOM     91  O   UNL     1      -1.528  14.783 -11.838  1.00  0.00    -0.237 OA
ATOM     92  O   UNL     1      -1.770  12.406 -11.277  1.00  0.00    -0.744 OA
ENDBRANCH  86  89
ENDBRANCH  59  82
ENDBRANCH  33  34
ENDBRANCH  26  28
ENDBRANCH  25  26
ENDBRANCH   1  25
TORSDOF 15
