REMARK SMILES CCN(Cc1cn(CC)nc1C)C(=O)c1ccn([C@@H](C)C(=O)OCCOC(=O)c2ccc(-c3c4nc(c(-c5cccc(S(=O)(=O)[O-])c5F)c5ccc([nH]5)c(-c5cccc(S(=O)(=O)[O-])c5F)c5nc(c(-c6cccc(S(=O)(=O)[O-])c6F)c6ccc3[nH]6)C=C5)C=C4)cc2)n1
REMARK SMILES IDX 23 1 21 2 22 3 19 4 20 5 18 6 15 7 16 8 92 9 17 10 13 11
REMARK SMILES IDX 14 12 3 13 2 14 1 15 4 16 5 17 6 18 11 19 7 20 10 21 12 22
REMARK SMILES IDX 8 23 9 24 24 25 25 26 26 27 27 28 28 29 29 30 30 31 91 32
REMARK SMILES IDX 31 33 90 34 32 35 33 36 34 37 84 38 35 39 89 40 83 41 85 42
REMARK SMILES IDX 36 43 88 44 82 45 81 46 37 48 69 49 49 50 68 51 50 52 53 53
REMARK SMILES IDX 67 54 86 55 51 56 52 57 66 59 87 60 54 61 38 62 39 63 47 64
REMARK SMILES IDX 40 65 42 66 48 67 41 68 43 69 44 70 45 71 46 72 70 73 71 74
REMARK SMILES IDX 79 75 72 76 74 77 80 78 73 79 75 80 76 81 77 82 78 83 55 84
REMARK SMILES IDX 56 85 64 86 57 87 59 88 65 89 58 90 60 91 61 92 62 93 63 94
REMARK H PARENT 85 47 53 58
REMARK Flexibility Score: inf
ROOT
ATOM      1  O   UNL     1       5.785  -7.444   2.747  1.00  0.00    -0.460 OA
ENDROOT
BRANCH   1   2
ATOM      2  C   UNL     1       6.363  -6.352   3.321  1.00  0.00     0.330 C 
ATOM      3  O   UNL     1       7.565  -6.279   3.566  1.00  0.00    -0.250 OA
BRANCH   2   4
ATOM      4  C   UNL     1       5.377  -5.276   3.752  1.00  0.00     0.213 C 
ATOM      5  C   UNL     1       4.864  -5.593   5.147  1.00  0.00     0.046 C 
BRANCH   4   6
ATOM      6  N   UNL     1       4.277  -5.019   2.823  1.00  0.00    -0.258 N 
ATOM      7  C   UNL     1       3.151  -3.878   1.408  1.00  0.00     0.150 A 
ATOM      8  C   UNL     1       2.867  -5.250   1.207  1.00  0.00     0.056 A 
ATOM      9  N   UNL     1       3.962  -3.742   2.481  1.00  0.00    -0.167 NA
ATOM     10  C   UNL     1       3.440  -5.928   2.248  1.00  0.00     0.110 A 
BRANCH   7  11
ATOM     11  C   UNL     1       2.736  -2.733   0.564  1.00  0.00     0.274 C 
ATOM     12  O   UNL     1       3.575  -1.940   0.134  1.00  0.00    -0.267 OA
BRANCH  11  13
ATOM     13  N   UNL     1       1.368  -2.571   0.251  1.00  0.00    -0.333 N 
BRANCH  13  14
ATOM     14  C   UNL     1       0.996  -1.494  -0.669  1.00  0.00     0.117 C 
ATOM     15  C   UNL     1       1.033  -0.120  -0.012  1.00  0.00     0.027 C 
ENDBRANCH  13  14
BRANCH  13  16
ATOM     16  C   UNL     1       0.277  -3.308   0.886  1.00  0.00     0.159 C 
BRANCH  16  17
ATOM     17  C   UNL     1       0.006  -4.610   0.198  1.00  0.00     0.012 A 
ATOM     18  C   UNL     1       0.329  -5.010  -1.088  1.00  0.00     0.114 A 
ATOM     19  C   UNL     1      -0.534  -5.789   0.796  1.00  0.00     0.064 A 
ATOM     20  N   UNL     1       0.162  -6.367  -1.116  1.00  0.00    -0.272 N 
ATOM     21  N   UNL     1      -0.475  -6.841  -0.030  1.00  0.00    -0.178 NA
ATOM     22  C   UNL     1      -1.014  -5.983   2.187  1.00  0.00     0.069 C 
BRANCH  20  23
ATOM     23  C   UNL     1       0.743  -7.292  -2.074  1.00  0.00     0.141 C 
ATOM     24  C   UNL     1       1.869  -8.129  -1.476  1.00  0.00     0.029 C 
ENDBRANCH  20  23
ENDBRANCH  16  17
ENDBRANCH  13  16
ENDBRANCH  11  13
ENDBRANCH   7  11
ENDBRANCH   4   6
ENDBRANCH   2   4
ENDBRANCH   1   2
BRANCH   1  25
ATOM     25  C   UNL     1       6.657  -8.441   2.174  1.00  0.00     0.274 C 
BRANCH  25  26
ATOM     26  C   UNL     1       6.948  -8.170   0.702  1.00  0.00     0.275 C 
BRANCH  26  27
ATOM     27  O   UNL     1       7.809  -7.044   0.543  1.00  0.00    -0.458 OA
BRANCH  27  28
ATOM     28  C   UNL     1       7.157  -5.877   0.373  1.00  0.00     0.338 C 
ATOM     29  O   UNL     1       5.965  -5.680   0.583  1.00  0.00    -0.246 OA
BRANCH  28  30
ATOM     30  C   UNL     1       8.002  -4.895  -0.290  1.00  0.00     0.060 A 
ATOM     31  C   UNL     1       7.494  -3.595  -0.417  1.00  0.00     0.016 A 
ATOM     32  C   UNL     1       9.120  -5.337  -1.007  1.00  0.00     0.016 A 
ATOM     33  C   UNL     1       8.025  -2.777  -1.388  1.00  0.00     0.010 A 
ATOM     34  C   UNL     1       9.635  -4.525  -1.986  1.00  0.00     0.010 A 
ATOM     35  C   UNL     1       9.039  -3.283  -2.204  1.00  0.00    -0.014 A 
BRANCH  35  36
ATOM     36  C   UNL     1       9.514  -2.453  -3.286  1.00  0.00     0.031 A 
ATOM     37  C   UNL     1      10.427  -1.368  -2.866  1.00  0.00     0.074 A 
ATOM     38  C   UNL     1       9.268  -2.766  -4.571  1.00  0.00     0.049 A 
ATOM     39  N   UNL     1      10.267  -0.096  -3.016  1.00  0.00    -0.248 NA
ATOM     40  C   UNL     1      11.608  -1.742  -2.072  1.00  0.00     0.031 C 
ATOM     41  C   UNL     1       8.673  -4.001  -5.090  1.00  0.00     0.029 A 
ATOM     42  N   UNL     1       9.676  -2.116  -5.693  1.00  0.00    -0.354 N 
ATOM     43  C   UNL     1      11.435   0.480  -2.525  1.00  0.00     0.074 A 
ATOM     44  C   UNL     1      12.130  -0.548  -1.798  1.00  0.00     0.031 C 
ATOM     45  C   UNL     1       9.013  -4.130  -6.391  1.00  0.00     0.029 A 
ATOM     46  C   UNL     1       9.740  -2.942  -6.806  1.00  0.00     0.049 A 
ATOM     47  H   UNL     1       9.904  -1.158  -5.714  1.00  0.00     0.167 HD
ATOM     48  C   UNL     1      11.870   1.690  -2.966  1.00  0.00     0.034 A 
ATOM     49  C   UNL     1      10.460  -2.709  -7.930  1.00  0.00     0.034 A 
ATOM     50  C   UNL     1      10.828   2.434  -3.621  1.00  0.00     0.049 A 
ATOM     51  C   UNL     1      10.766  -1.256  -7.972  1.00  0.00     0.074 A 
ATOM     52  C   UNL     1       9.559   2.849  -3.263  1.00  0.00     0.029 A 
ATOM     53  N   UNL     1      10.883   2.537  -4.990  1.00  0.00    -0.354 N 
ATOM     54  N   UNL     1       9.863  -0.327  -8.129  1.00  0.00    -0.248 NA
ATOM     55  C   UNL     1      12.031  -0.808  -7.411  1.00  0.00     0.031 C 
ATOM     56  C   UNL     1       8.779   2.702  -4.446  1.00  0.00     0.029 A 
ATOM     57  C   UNL     1       9.629   2.253  -5.460  1.00  0.00     0.049 A 
ATOM     58  H   UNL     1      11.673   2.771  -5.529  1.00  0.00     0.167 HD
ATOM     59  C   UNL     1      10.273   0.703  -7.290  1.00  0.00     0.074 A 
ATOM     60  C   UNL     1      11.665   0.396  -6.966  1.00  0.00     0.031 C 
ATOM     61  C   UNL     1       9.372   1.543  -6.695  1.00  0.00     0.034 A 
BRANCH  48  62
ATOM     62  C   UNL     1      13.325   2.054  -3.117  1.00  0.00     0.023 A 
ATOM     63  C   UNL     1      13.632   3.405  -3.382  1.00  0.00     0.012 A 
ATOM     64  C   UNL     1      14.367   1.112  -3.282  1.00  0.00     0.148 A 
ATOM     65  C   UNL     1      14.897   3.792  -3.832  1.00  0.00     0.002 A 
ATOM     66  C   UNL     1      15.648   1.515  -3.639  1.00  0.00     0.091 A 
ATOM     67  F   UNL     1      14.107  -0.198  -3.238  1.00  0.00    -0.205 F 
ATOM     68  C   UNL     1      15.911   2.849  -3.949  1.00  0.00     0.022 A 
BRANCH  66  69
ATOM     69  S   UNL     1      16.999   0.335  -3.729  1.00  0.00     0.127 S 
ATOM     70  O   UNL     1      17.079   0.090  -5.166  1.00  0.00    -0.237 OA
ATOM     71  O   UNL     1      18.111   1.102  -3.167  1.00  0.00    -0.237 OA
ATOM     72  O   UNL     1      16.578  -0.790  -2.902  1.00  0.00    -0.744 OA
ENDBRANCH  66  69
ENDBRANCH  48  62
BRANCH  49  73
ATOM     73  C   UNL     1      11.139  -3.698  -8.800  1.00  0.00     0.023 A 
ATOM     74  C   UNL     1      11.505  -3.338 -10.110  1.00  0.00     0.012 A 
ATOM     75  C   UNL     1      11.636  -4.918  -8.283  1.00  0.00     0.148 A 
ATOM     76  C   UNL     1      12.346  -4.158 -10.874  1.00  0.00     0.002 A 
ATOM     77  C   UNL     1      12.446  -5.744  -9.056  1.00  0.00     0.091 A 
ATOM     78  F   UNL     1      11.398  -5.229  -7.002  1.00  0.00    -0.205 F 
ATOM     79  C   UNL     1      12.814  -5.361 -10.350  1.00  0.00     0.022 A 
BRANCH  77  80
ATOM     80  S   UNL     1      13.059  -7.317  -8.436  1.00  0.00     0.127 S 
ATOM     81  O   UNL     1      12.871  -8.196  -9.591  1.00  0.00    -0.237 OA
ATOM     82  O   UNL     1      14.450  -7.003  -8.127  1.00  0.00    -0.237 OA
ATOM     83  O   UNL     1      12.211  -7.648  -7.297  1.00  0.00    -0.744 OA
ENDBRANCH  77  80
ENDBRANCH  49  73
BRANCH  61  84
ATOM     84  C   UNL     1       7.930   1.502  -7.142  1.00  0.00     0.023 A 
ATOM     85  C   UNL     1       7.151   0.332  -7.031  1.00  0.00     0.012 A 
ATOM     86  C   UNL     1       7.292   2.710  -7.477  1.00  0.00     0.148 A 
ATOM     87  C   UNL     1       5.775   0.359  -7.271  1.00  0.00     0.002 A 
ATOM     88  C   UNL     1       5.915   2.743  -7.668  1.00  0.00     0.091 A 
ATOM     89  F   UNL     1       8.040   3.820  -7.571  1.00  0.00    -0.205 F 
ATOM     90  C   UNL     1       5.154   1.567  -7.575  1.00  0.00     0.022 A 
BRANCH  88  91
ATOM     91  S   UNL     1       5.038   4.287  -7.927  1.00  0.00     0.127 S 
ATOM     92  O   UNL     1       4.777   4.254  -9.365  1.00  0.00    -0.237 OA
ATOM     93  O   UNL     1       3.849   4.124  -7.088  1.00  0.00    -0.237 OA
ATOM     94  O   UNL     1       5.940   5.340  -7.476  1.00  0.00    -0.744 OA
ENDBRANCH  88  91
ENDBRANCH  61  84
ENDBRANCH  35  36
ENDBRANCH  28  30
ENDBRANCH  27  28
ENDBRANCH  26  27
ENDBRANCH  25  26
ENDBRANCH   1  25
TORSDOF 21
