REMARK SMILES O=C(CN1C(=O)S/C(=C\c2cccn2-c2cccc(C(=O)OCCOC(=O)c3ccc(-c4c5nc(c(-c6cccc(S(=O)(=O)[O-])c6F)c6ccc([nH]6)c(-c6cccc(S(=O)(=O)[O-])c6F)c6nc(c(-c7cccc(S(=O)(=O)[O-])c7F)c7ccc4[nH]7)C=C6)C=C5)cc3)c2)C1=O)Nc1ccc(Cl)cc1
REMARK SMILES IDX 23 1 22 2 20 3 21 4 19 5 15 6 16 7 91 8 17 9 18 10 14 11
REMARK SMILES IDX 10 12 11 13 12 14 13 15 9 16 4 17 5 18 92 19 6 20 7 21 8 22
REMARK SMILES IDX 93 23 3 24 2 25 1 26 94 27 95 29 96 30 101 31 97 32 100 33
REMARK SMILES IDX 98 34 99 35 24 36 25 37 26 38 27 39 28 40 29 41 90 42 30 43
REMARK SMILES IDX 89 44 31 45 32 46 33 47 83 48 34 49 88 50 82 51 84 52 35 53
REMARK SMILES IDX 87 54 81 55 80 56 36 58 68 59 48 60 67 61 49 62 52 63 66 64
REMARK SMILES IDX 85 65 50 66 51 67 65 69 86 70 53 71 37 72 38 73 46 74 39 75
REMARK SMILES IDX 41 76 47 77 40 78 42 79 43 80 44 81 45 82 69 83 70 84 78 85
REMARK SMILES IDX 71 86 73 87 79 88 72 89 74 90 75 91 76 92 77 93 54 94 55 95
REMARK SMILES IDX 63 96 56 97 58 98 64 99 57 100 59 101 60 102 61 103 62 104
REMARK H PARENT 94 28 84 57 52 68
REMARK Flexibility Score: inf
ROOT
ATOM      1  C   UNL     1       0.153  -2.832  -5.462  1.00  0.00     0.275 C 
ENDROOT
BRANCH   1   2
ATOM      2  O   UNL     1       1.102  -3.765  -4.914  1.00  0.00    -0.458 OA
BRANCH   2   3
ATOM      3  C   UNL     1       0.617  -5.021  -4.693  1.00  0.00     0.338 C 
ATOM      4  O   UNL     1      -0.546  -5.346  -4.680  1.00  0.00    -0.246 OA
BRANCH   3   5
ATOM      5  C   UNL     1       1.736  -6.003  -4.583  1.00  0.00     0.062 A 
ATOM      6  C   UNL     1       4.060  -6.590  -4.204  1.00  0.00     0.046 A 
ATOM      7  C   UNL     1       3.790  -7.910  -4.589  1.00  0.00     0.026 A 
ATOM      8  C   UNL     1       3.037  -5.630  -4.226  1.00  0.00     0.042 A 
ATOM      9  C   UNL     1       2.490  -8.283  -4.932  1.00  0.00     0.003 A 
ATOM     10  C   UNL     1       1.464  -7.336  -4.916  1.00  0.00     0.016 A 
BRANCH   6  11
ATOM     11  N   UNL     1       5.380  -6.234  -3.797  1.00  0.00    -0.317 N 
ATOM     12  C   UNL     1       5.761  -5.351  -2.782  1.00  0.00     0.047 A 
ATOM     13  C   UNL     1       7.146  -5.273  -2.792  1.00  0.00     0.028 A 
ATOM     14  C   UNL     1       7.630  -6.140  -3.791  1.00  0.00     0.020 A 
ATOM     15  C   UNL     1       6.535  -6.745  -4.363  1.00  0.00     0.092 A 
BRANCH  12  16
ATOM     16  C   UNL     1       4.798  -4.803  -1.887  1.00  0.00     0.048 C 
ATOM     17  N   UNL     1       3.904  -1.653  -0.372  1.00  0.00    -0.259 N 
ATOM     18  C   UNL     1       4.947  -1.072  -1.032  1.00  0.00     0.294 C 
ATOM     19  C   UNL     1       3.716  -2.998  -0.592  1.00  0.00     0.268 C 
ATOM     20  O   UNL     1       5.253   0.111  -0.978  1.00  0.00    -0.261 OA
ATOM     21  S   UNL     1       5.764  -2.223  -2.050  1.00  0.00    -0.022 SA
ATOM     22  C   UNL     1       4.747  -3.511  -1.540  1.00  0.00     0.085 C 
ATOM     23  O   UNL     1       2.873  -3.702  -0.055  1.00  0.00    -0.268 OA
BRANCH  17  24
ATOM     24  C   UNL     1       3.124  -0.922   0.617  1.00  0.00     0.230 C 
BRANCH  24  25
ATOM     25  C   UNL     1       2.122   0.111   0.076  1.00  0.00     0.244 C 
ATOM     26  O   UNL     1       1.010   0.213   0.591  1.00  0.00    -0.273 OA
ATOM     27  N   UNL     1       2.648   0.988  -0.858  1.00  0.00    -0.325 N 
ATOM     28  H   UNL     1       3.567   0.799  -1.157  1.00  0.00     0.169 HD
BRANCH  27  29
ATOM     29  C   UNL     1       2.032   2.116  -1.432  1.00  0.00     0.041 A 
ATOM     30  C   UNL     1       2.671   2.691  -2.540  1.00  0.00     0.027 A 
ATOM     31  C   UNL     1       0.856   2.695  -0.952  1.00  0.00     0.027 A 
ATOM     32  C   UNL     1       2.126   3.808  -3.178  1.00  0.00     0.022 A 
ATOM     33  C   UNL     1       0.323   3.830  -1.573  1.00  0.00     0.022 A 
ATOM     34  C   UNL     1       0.954   4.376  -2.688  1.00  0.00     0.041 A 
ATOM     35  Cl  UNL     1       0.286   5.762  -3.458  1.00  0.00    -0.084 Cl
ENDBRANCH  27  29
ENDBRANCH  24  25
ENDBRANCH  17  24
ENDBRANCH  12  16
ENDBRANCH   6  11
ENDBRANCH   3   5
ENDBRANCH   2   3
ENDBRANCH   1   2
BRANCH   1  36
ATOM     36  C   UNL     1       0.247  -2.740  -6.987  1.00  0.00     0.275 C 
BRANCH  36  37
ATOM     37  O   UNL     1      -0.039  -3.969  -7.664  1.00  0.00    -0.458 OA
BRANCH  37  38
ATOM     38  C   UNL     1       1.052  -4.745  -7.857  1.00  0.00     0.338 C 
ATOM     39  O   UNL     1       2.128  -4.664  -7.283  1.00  0.00    -0.246 OA
BRANCH  38  40
ATOM     40  C   UNL     1       0.867  -5.648  -8.989  1.00  0.00     0.060 A 
ATOM     41  C   UNL     1       1.431  -6.927  -8.916  1.00  0.00     0.016 A 
ATOM     42  C   UNL     1       0.383  -5.123 -10.189  1.00  0.00     0.016 A 
ATOM     43  C   UNL     1       1.550  -7.678 -10.074  1.00  0.00     0.010 A 
ATOM     44  C   UNL     1       0.547  -5.855 -11.352  1.00  0.00     0.010 A 
ATOM     45  C   UNL     1       1.129  -7.128 -11.292  1.00  0.00    -0.014 A 
BRANCH  45  46
ATOM     46  C   UNL     1       1.153  -7.975 -12.499  1.00  0.00     0.031 A 
ATOM     47  C   UNL     1      -0.147  -8.796 -12.626  1.00  0.00     0.074 A 
ATOM     48  C   UNL     1       2.285  -7.904 -13.267  1.00  0.00     0.049 A 
ATOM     49  N   UNL     1      -0.373  -9.908 -13.260  1.00  0.00    -0.248 NA
ATOM     50  C   UNL     1      -1.353  -8.376 -11.854  1.00  0.00     0.031 C 
ATOM     51  C   UNL     1       3.440  -7.019 -12.985  1.00  0.00     0.029 A 
ATOM     52  N   UNL     1       2.707  -8.532 -14.423  1.00  0.00    -0.354 N 
ATOM     53  C   UNL     1      -1.770 -10.141 -13.188  1.00  0.00     0.074 A 
ATOM     54  C   UNL     1      -2.285  -9.270 -12.184  1.00  0.00     0.031 C 
ATOM     55  C   UNL     1       4.436  -7.218 -13.877  1.00  0.00     0.029 A 
ATOM     56  C   UNL     1       4.021  -8.207 -14.855  1.00  0.00     0.049 A 
ATOM     57  H   UNL     1       2.135  -9.163 -14.916  1.00  0.00     0.167 HD
ATOM     58  C   UNL     1      -2.444 -10.913 -14.089  1.00  0.00     0.034 A 
ATOM     59  C   UNL     1       4.734  -8.703 -15.917  1.00  0.00     0.034 A 
ATOM     60  C   UNL     1      -1.523 -11.425 -15.047  1.00  0.00     0.049 A 
ATOM     61  C   UNL     1       3.766  -9.461 -16.715  1.00  0.00     0.074 A 
ATOM     62  C   UNL     1      -0.581 -12.414 -14.992  1.00  0.00     0.029 A 
ATOM     63  N   UNL     1      -1.296 -10.616 -16.135  1.00  0.00    -0.354 N 
ATOM     64  N   UNL     1       2.848  -8.913 -17.453  1.00  0.00    -0.248 NA
ATOM     65  C   UNL     1       3.759 -10.927 -16.642  1.00  0.00     0.031 C 
ATOM     66  C   UNL     1       0.439 -11.939 -15.836  1.00  0.00     0.029 A 
ATOM     67  C   UNL     1       0.011 -10.782 -16.503  1.00  0.00     0.049 A 
ATOM     68  H   UNL     1      -1.953 -10.025 -16.570  1.00  0.00     0.167 HD
ATOM     69  C   UNL     1       1.949  -9.940 -17.587  1.00  0.00     0.074 A 
ATOM     70  C   UNL     1       2.702 -11.162 -17.415  1.00  0.00     0.031 C 
ATOM     71  C   UNL     1       0.650  -9.725 -17.251  1.00  0.00     0.034 A 
BRANCH  58  72
ATOM     72  C   UNL     1      -3.905 -11.113 -14.410  1.00  0.00     0.023 A 
ATOM     73  C   UNL     1      -4.200 -12.269 -15.189  1.00  0.00     0.012 A 
ATOM     74  C   UNL     1      -4.913 -10.142 -14.290  1.00  0.00     0.148 A 
ATOM     75  C   UNL     1      -5.375 -12.396 -15.924  1.00  0.00     0.002 A 
ATOM     76  C   UNL     1      -6.115 -10.301 -14.988  1.00  0.00     0.091 A 
ATOM     77  F   UNL     1      -4.682  -9.031 -13.583  1.00  0.00    -0.205 F 
ATOM     78  C   UNL     1      -6.329 -11.400 -15.835  1.00  0.00     0.022 A 
BRANCH  76  79
ATOM     79  S   UNL     1      -7.466  -9.122 -14.873  1.00  0.00     0.127 S 
ATOM     80  O   UNL     1      -7.328  -8.376 -16.120  1.00  0.00    -0.237 OA
ATOM     81  O   UNL     1      -8.636 -10.004 -14.823  1.00  0.00    -0.237 OA
ATOM     82  O   UNL     1      -7.234  -8.383 -13.640  1.00  0.00    -0.744 OA
ENDBRANCH  76  79
ENDBRANCH  58  72
BRANCH  59  83
ATOM     83  C   UNL     1       6.160  -8.695 -16.429  1.00  0.00     0.023 A 
ATOM     84  C   UNL     1       7.175  -7.859 -15.945  1.00  0.00     0.012 A 
ATOM     85  C   UNL     1       6.569  -9.658 -17.405  1.00  0.00     0.148 A 
ATOM     86  C   UNL     1       8.520  -8.038 -16.336  1.00  0.00     0.002 A 
ATOM     87  C   UNL     1       7.904  -9.921 -17.687  1.00  0.00     0.091 A 
ATOM     88  F   UNL     1       5.651 -10.320 -18.116  1.00  0.00    -0.205 F 
ATOM     89  C   UNL     1       8.892  -9.098 -17.164  1.00  0.00     0.022 A 
BRANCH  87  90
ATOM     90  S   UNL     1       8.407 -11.406 -18.582  1.00  0.00     0.127 S 
ATOM     91  O   UNL     1       9.243 -10.861 -19.649  1.00  0.00    -0.237 OA
ATOM     92  O   UNL     1       9.133 -12.139 -17.544  1.00  0.00    -0.237 OA
ATOM     93  O   UNL     1       7.181 -12.056 -19.030  1.00  0.00    -0.744 OA
ENDBRANCH  87  90
ENDBRANCH  59  83
BRANCH  71  94
ATOM     94  C   UNL     1       0.193  -8.269 -17.401  1.00  0.00     0.023 A 
ATOM     95  C   UNL     1       0.364  -7.675 -18.671  1.00  0.00     0.012 A 
ATOM     96  C   UNL     1      -0.263  -7.428 -16.358  1.00  0.00     0.148 A 
ATOM     97  C   UNL     1       0.138  -6.313 -18.890  1.00  0.00     0.002 A 
ATOM     98  C   UNL     1      -0.485  -6.060 -16.575  1.00  0.00     0.091 A 
ATOM     99  F   UNL     1      -0.458  -7.954 -15.150  1.00  0.00    -0.205 F 
ATOM    100  C   UNL     1      -0.283  -5.505 -17.843  1.00  0.00     0.022 A 
BRANCH  98 101
ATOM    101  S   UNL     1      -1.010  -4.909 -15.287  1.00  0.00     0.127 S 
ATOM    102  O   UNL     1       0.194  -4.107 -15.066  1.00  0.00    -0.237 OA
ATOM    103  O   UNL     1      -2.100  -4.182 -15.939  1.00  0.00    -0.237 OA
ATOM    104  O   UNL     1      -1.413  -5.725 -14.150  1.00  0.00    -0.744 OA
ENDBRANCH  98 101
ENDBRANCH  71  94
ENDBRANCH  45  46
ENDBRANCH  38  40
ENDBRANCH  37  38
ENDBRANCH  36  37
ENDBRANCH   1  36
TORSDOF 19
