REMARK SMILES C[N@H+]1CCO[C@@H](C[N@H+]2CCCC[C@@H]2CCC(=O)OCCOC(=O)c2ccc(-c3c4nc(c(-c5cccc(S(=O)(=O)[O-])c5F)c5ccc([nH]5)c(-c5cccc(S(=O)(=O)[O-])c5F)c5nc(c(-c6cccc(S(=O)(=O)[O-])c6F)c6ccc3[nH]6)C=C5)C=C4)cc2)C1
REMARK SMILES IDX 19 1 18 2 16 3 17 4 15 5 14 6 13 7 8 8 9 9 10 11 12 12 11 13
REMARK SMILES IDX 7 14 6 15 1 16 2 17 3 18 87 19 4 21 5 22 20 23 21 24 22 25
REMARK SMILES IDX 23 26 24 27 25 28 86 29 26 30 85 31 27 32 28 33 29 34 79 35
REMARK SMILES IDX 30 36 84 37 78 38 80 39 31 40 83 41 77 42 76 43 32 45 64 46
REMARK SMILES IDX 44 47 63 48 45 49 48 50 62 51 81 52 46 53 47 54 61 56 82 57
REMARK SMILES IDX 49 58 33 59 34 60 42 61 35 62 37 63 43 64 36 65 38 66 39 67
REMARK SMILES IDX 40 68 41 69 65 70 66 71 74 72 67 73 69 74 75 75 68 76 70 77
REMARK SMILES IDX 71 78 72 79 73 80 50 81 51 82 59 83 52 84 54 85 60 86 53 87
REMARK SMILES IDX 55 88 56 89 57 90 58 91
REMARK H PARENT 8 10 2 20 80 44 48 55
REMARK Flexibility Score: inf
ROOT
ATOM      1  C   UNL     1      -0.148  -3.702   6.977  1.00  0.00     0.274 C 
ENDROOT
BRANCH   1   2
ATOM      2  O   UNL     1      -0.285  -2.434   6.310  1.00  0.00    -0.462 OA
BRANCH   2   3
ATOM      3  C   UNL     1      -1.375  -1.691   6.617  1.00  0.00     0.306 C 
ATOM      4  O   UNL     1      -2.273  -2.039   7.372  1.00  0.00    -0.252 OA
BRANCH   3   5
ATOM      5  C   UNL     1      -1.384  -0.347   5.924  1.00  0.00     0.129 C 
BRANCH   5   6
ATOM      6  C   UNL     1      -0.196  -0.036   5.003  1.00  0.00     0.077 C 
BRANCH   6   7
ATOM      7  C   UNL     1      -0.143  -0.869   3.690  1.00  0.00     0.184 C 
ATOM      8  N   UNL     1       0.854  -0.304   2.771  1.00  0.00    -0.330 N 
ATOM      9  C   UNL     1       0.500   0.967   2.151  1.00  0.00     0.262 C 
ATOM     10  H   UNL     1       1.573  -0.012   3.433  1.00  0.00     0.348 HD
ATOM     11  C   UNL     1      -0.929   1.065   1.612  1.00  0.00     0.062 C 
ATOM     12  C   UNL     1      -1.513  -0.961   3.003  1.00  0.00     0.065 C 
ATOM     13  C   UNL     1      -1.978   0.400   2.498  1.00  0.00     0.012 C 
BRANCH   8  14
ATOM     14  C   UNL     1       1.684  -1.236   1.993  1.00  0.00     0.300 C 
BRANCH  14  15
ATOM     15  C   UNL     1       1.048  -2.458   1.275  1.00  0.00     0.228 C 
ATOM     16  C   UNL     1       1.263  -0.580  -1.390  1.00  0.00     0.332 C 
ATOM     17  N   UNL     1       0.722  -1.925  -1.238  1.00  0.00    -0.333 N 
ATOM     18  C   UNL     1       1.732  -2.965  -1.481  1.00  0.00     0.290 C 
ATOM     19  C   UNL     1       0.111  -2.166   0.080  1.00  0.00     0.300 C 
ATOM     20  H   UNL     1      -0.008  -1.982  -1.948  1.00  0.00     0.348 HD
ATOM     21  C   UNL     1       2.721  -3.136  -0.319  1.00  0.00     0.222 C 
ATOM     22  O   UNL     1       2.054  -3.435   0.911  1.00  0.00    -0.361 OA
ENDBRANCH  14  15
ENDBRANCH   8  14
ENDBRANCH   6   7
ENDBRANCH   5   6
ENDBRANCH   3   5
ENDBRANCH   2   3
ENDBRANCH   1   2
BRANCH   1  23
ATOM     23  C   UNL     1       1.128  -3.702   7.816  1.00  0.00     0.275 C 
BRANCH  23  24
ATOM     24  O   UNL     1       1.034  -2.698   8.844  1.00  0.00    -0.458 OA
BRANCH  24  25
ATOM     25  C   UNL     1       1.794  -1.595   8.657  1.00  0.00     0.338 C 
ATOM     26  O   UNL     1       2.629  -1.400   7.787  1.00  0.00    -0.246 OA
BRANCH  25  27
ATOM     27  C   UNL     1       1.337  -0.550   9.581  1.00  0.00     0.060 A 
ATOM     28  C   UNL     1       0.436   0.392   9.085  1.00  0.00     0.016 A 
ATOM     29  C   UNL     1       1.821  -0.448  10.882  1.00  0.00     0.016 A 
ATOM     30  C   UNL     1      -0.008   1.437   9.887  1.00  0.00     0.010 A 
ATOM     31  C   UNL     1       1.374   0.603  11.693  1.00  0.00     0.010 A 
ATOM     32  C   UNL     1       0.461   1.555  11.200  1.00  0.00    -0.014 A 
BRANCH  32  33
ATOM     33  C   UNL     1       0.034   2.712  12.025  1.00  0.00     0.031 A 
ATOM     34  C   UNL     1       1.021   3.794  12.360  1.00  0.00     0.074 A 
ATOM     35  C   UNL     1      -1.239   2.802  12.453  1.00  0.00     0.049 A 
ATOM     36  N   UNL     1       0.873   4.835  13.136  1.00  0.00    -0.248 NA
ATOM     37  C   UNL     1       2.353   3.689  11.741  1.00  0.00     0.031 C 
ATOM     38  C   UNL     1      -2.295   1.829  12.168  1.00  0.00     0.029 A 
ATOM     39  N   UNL     1      -1.859   3.751  13.227  1.00  0.00    -0.354 N 
ATOM     40  C   UNL     1       2.105   5.477  13.148  1.00  0.00     0.074 A 
ATOM     41  C   UNL     1       2.987   4.715  12.291  1.00  0.00     0.031 C 
ATOM     42  C   UNL     1      -3.432   2.230  12.761  1.00  0.00     0.029 A 
ATOM     43  C   UNL     1      -3.174   3.459  13.506  1.00  0.00     0.049 A 
ATOM     44  H   UNL     1      -1.407   4.563  13.552  1.00  0.00     0.167 HD
ATOM     45  C   UNL     1       2.464   6.605  13.806  1.00  0.00     0.034 A 
ATOM     46  C   UNL     1      -4.063   4.094  14.295  1.00  0.00     0.034 A 
ATOM     47  C   UNL     1       1.567   7.391  14.610  1.00  0.00     0.049 A 
ATOM     48  C   UNL     1      -3.638   5.348  15.010  1.00  0.00     0.074 A 
ATOM     49  C   UNL     1       1.828   8.568  15.289  1.00  0.00     0.029 A 
ATOM     50  N   UNL     1       0.234   7.084  14.838  1.00  0.00    -0.354 N 
ATOM     51  N   UNL     1      -2.489   5.977  14.960  1.00  0.00    -0.248 NA
ATOM     52  C   UNL     1      -4.636   5.989  15.879  1.00  0.00     0.031 C 
ATOM     53  C   UNL     1       0.652   8.970  15.934  1.00  0.00     0.029 A 
ATOM     54  C   UNL     1      -0.342   8.047  15.649  1.00  0.00     0.049 A 
ATOM     55  H   UNL     1      -0.234   6.297  14.476  1.00  0.00     0.167 HD
ATOM     56  C   UNL     1      -2.628   7.093  15.777  1.00  0.00     0.074 A 
ATOM     57  C   UNL     1      -3.986   7.072  16.283  1.00  0.00     0.031 C 
ATOM     58  C   UNL     1      -1.709   8.035  16.102  1.00  0.00     0.034 A 
BRANCH  45  59
ATOM     59  C   UNL     1       3.888   7.069  13.663  1.00  0.00     0.023 A 
ATOM     60  C   UNL     1       4.299   7.703  12.473  1.00  0.00     0.012 A 
ATOM     61  C   UNL     1       4.806   6.917  14.720  1.00  0.00     0.148 A 
ATOM     62  C   UNL     1       5.610   8.155  12.328  1.00  0.00     0.002 A 
ATOM     63  C   UNL     1       6.102   7.402  14.581  1.00  0.00     0.091 A 
ATOM     64  F   UNL     1       4.404   6.286  15.832  1.00  0.00    -0.205 F 
ATOM     65  C   UNL     1       6.508   8.013  13.383  1.00  0.00     0.022 A 
BRANCH  63  66
ATOM     66  S   UNL     1       7.308   7.322  15.910  1.00  0.00     0.127 S 
ATOM     67  O   UNL     1       8.173   6.234  15.460  1.00  0.00    -0.237 OA
ATOM     68  O   UNL     1       7.920   8.650  15.855  1.00  0.00    -0.237 OA
ATOM     69  O   UNL     1       6.545   7.061  17.123  1.00  0.00    -0.744 OA
ENDBRANCH  63  66
ENDBRANCH  45  59
BRANCH  46  70
ATOM     70  C   UNL     1      -5.451   3.565  14.427  1.00  0.00     0.023 A 
ATOM     71  C   UNL     1      -6.523   4.286  13.868  1.00  0.00     0.012 A 
ATOM     72  C   UNL     1      -5.710   2.336  15.065  1.00  0.00     0.148 A 
ATOM     73  C   UNL     1      -7.829   3.800  13.956  1.00  0.00     0.002 A 
ATOM     74  C   UNL     1      -7.004   1.830  15.098  1.00  0.00     0.091 A 
ATOM     75  F   UNL     1      -4.682   1.677  15.619  1.00  0.00    -0.205 F 
ATOM     76  C   UNL     1      -8.068   2.567  14.556  1.00  0.00     0.022 A 
BRANCH  74  77
ATOM     77  S   UNL     1      -7.367   0.186  15.727  1.00  0.00     0.127 S 
ATOM     78  O   UNL     1      -7.917   0.485  17.046  1.00  0.00    -0.237 OA
ATOM     79  O   UNL     1      -8.339  -0.310  14.752  1.00  0.00    -0.237 OA
ATOM     80  O   UNL     1      -6.093  -0.521  15.710  1.00  0.00    -0.744 OA
ENDBRANCH  74  77
ENDBRANCH  46  70
BRANCH  58  81
ATOM     81  C   UNL     1      -2.140   9.127  17.044  1.00  0.00     0.023 A 
ATOM     82  C   UNL     1      -2.278   8.840  18.417  1.00  0.00     0.012 A 
ATOM     83  C   UNL     1      -2.342  10.444  16.588  1.00  0.00     0.148 A 
ATOM     84  C   UNL     1      -2.637   9.842  19.317  1.00  0.00     0.002 A 
ATOM     85  C   UNL     1      -2.660  11.446  17.497  1.00  0.00     0.091 A 
ATOM     86  F   UNL     1      -2.230  10.692  15.274  1.00  0.00    -0.205 F 
ATOM     87  C   UNL     1      -2.817  11.146  18.860  1.00  0.00     0.022 A 
BRANCH  85  88
ATOM     88  S   UNL     1      -2.823  13.165  17.001  1.00  0.00     0.127 S 
ATOM     89  O   UNL     1      -4.274  13.319  16.926  1.00  0.00    -0.237 OA
ATOM     90  O   UNL     1      -2.191  13.877  18.113  1.00  0.00    -0.237 OA
ATOM     91  O   UNL     1      -2.109  13.278  15.736  1.00  0.00    -0.744 OA
ENDBRANCH  85  88
ENDBRANCH  58  81
ENDBRANCH  32  33
ENDBRANCH  25  27
ENDBRANCH  24  25
ENDBRANCH  23  24
ENDBRANCH   1  23
TORSDOF 18
