REMARK SMILES [NH3+][C@@H](C(=O)OCCOC(=O)c1ccc(-c2c3nc(c(-c4cccc(S(=O)(=O)[O-])c4F)c4ccc([nH]4)c(-c4cccc(S(=O)(=O)[O-])c4F)c4nc(c(-c5cccc(S(=O)(=O)[O-])c5F)c5ccc2[nH]5)C=C4)C=C3)cc1)[C@@H](O)c1cccs1
REMARK SMILES IDX 7 1 6 2 5 3 3 4 4 5 2 6 1 7 74 11 75 12 76 14 77 15 80 16
REMARK SMILES IDX 78 17 79 18 8 19 9 20 10 21 11 22 12 23 73 24 13 25 72 26
REMARK SMILES IDX 14 27 15 28 16 29 66 30 17 31 71 32 65 33 67 34 18 35 70 36
REMARK SMILES IDX 64 37 63 38 19 40 51 41 31 42 50 43 32 44 35 45 49 46 68 47
REMARK SMILES IDX 33 48 34 49 48 51 69 52 36 53 20 54 21 55 29 56 22 57 24 58
REMARK SMILES IDX 30 59 23 60 25 61 26 62 27 63 28 64 52 65 53 66 61 67 54 68
REMARK SMILES IDX 56 69 62 70 55 71 57 72 58 73 59 74 60 75 37 76 38 77 46 78
REMARK SMILES IDX 39 79 41 80 47 81 40 82 42 83 43 84 44 85 45 86
REMARK H PARENT 1 8 1 9 1 10 75 13 67 39 35 50
REMARK Flexibility Score: inf
ROOT
ATOM      1  C   UNL     1       2.309  -4.220  -1.359  1.00  0.00     0.275 C 
ENDROOT
BRANCH   1   2
ATOM      2  C   UNL     1       2.728  -2.992  -2.171  1.00  0.00     0.274 C 
BRANCH   2   3
ATOM      3  O   UNL     1       2.166  -1.780  -1.622  1.00  0.00    -0.458 OA
BRANCH   3   4
ATOM      4  C   UNL     1       1.385  -1.034  -2.467  1.00  0.00     0.368 C 
ATOM      5  O   UNL     1       1.166  -1.350  -3.625  1.00  0.00    -0.245 OA
BRANCH   4   6
ATOM      6  C   UNL     1       0.938   0.296  -1.814  1.00  0.00     0.326 C 
BRANCH   6   7
ATOM      7  N   UNL     1       1.294   0.332  -0.343  1.00  0.00    -0.343 N 
ATOM      8  H   UNL     1       2.275   0.080  -0.224  1.00  0.00     0.345 HD
ATOM      9  H   UNL     1       0.708  -0.331   0.164  1.00  0.00     0.345 HD
ATOM     10  H   UNL     1       1.137   1.272   0.021  1.00  0.00     0.345 HD
ENDBRANCH   6   7
BRANCH   6  11
ATOM     11  C   UNL     1      -0.556   0.683  -1.957  1.00  0.00     0.224 C 
BRANCH  11  12
ATOM     12  O   UNL     1      -0.703   2.049  -1.523  1.00  0.00    -0.381 OA
ATOM     13  H   UNL     1      -0.207   2.633  -2.118  1.00  0.00     0.211 HD
ENDBRANCH  11  12
BRANCH  11  14
ATOM     14  C   UNL     1      -1.210   0.509  -3.306  1.00  0.00     0.040 A 
ATOM     15  C   UNL     1      -1.637  -0.680  -3.882  1.00  0.00     0.018 A 
ATOM     16  S   UNL     1      -1.617   1.836  -4.319  1.00  0.00    -0.146 S 
ATOM     17  C   UNL     1      -2.292  -0.501  -5.131  1.00  0.00     0.012 A 
ATOM     18  C   UNL     1      -2.377   0.827  -5.470  1.00  0.00     0.065 A 
ENDBRANCH  11  14
ENDBRANCH   6  11
ENDBRANCH   4   6
ENDBRANCH   3   4
ENDBRANCH   2   3
ENDBRANCH   1   2
BRANCH   1  19
ATOM     19  O   UNL     1       0.880  -4.407  -1.370  1.00  0.00    -0.458 OA
BRANCH  19  20
ATOM     20  C   UNL     1       0.231  -3.843  -0.327  1.00  0.00     0.338 C 
ATOM     21  O   UNL     1       0.739  -3.226   0.605  1.00  0.00    -0.246 OA
BRANCH  20  22
ATOM     22  C   UNL     1      -1.218  -3.819  -0.577  1.00  0.00     0.060 A 
ATOM     23  C   UNL     1      -1.770  -2.554  -0.755  1.00  0.00     0.016 A 
ATOM     24  C   UNL     1      -2.044  -4.938  -0.556  1.00  0.00     0.016 A 
ATOM     25  C   UNL     1      -3.135  -2.374  -0.942  1.00  0.00     0.010 A 
ATOM     26  C   UNL     1      -3.430  -4.763  -0.720  1.00  0.00     0.010 A 
ATOM     27  C   UNL     1      -3.985  -3.480  -0.911  1.00  0.00    -0.014 A 
BRANCH  27  28
ATOM     28  C   UNL     1      -5.453  -3.264  -0.970  1.00  0.00     0.031 A 
ATOM     29  C   UNL     1      -6.267  -3.377   0.288  1.00  0.00     0.074 A 
ATOM     30  C   UNL     1      -6.057  -2.919  -2.124  1.00  0.00     0.049 A 
ATOM     31  N   UNL     1      -7.564  -3.325   0.444  1.00  0.00    -0.248 NA
ATOM     32  C   UNL     1      -5.515  -3.565   1.539  1.00  0.00     0.031 C 
ATOM     33  C   UNL     1      -5.378  -2.691  -3.398  1.00  0.00     0.029 A 
ATOM     34  N   UNL     1      -7.386  -2.718  -2.411  1.00  0.00    -0.354 N 
ATOM     35  C   UNL     1      -7.790  -3.520   1.800  1.00  0.00     0.074 A 
ATOM     36  C   UNL     1      -6.494  -3.683   2.425  1.00  0.00     0.031 C 
ATOM     37  C   UNL     1      -6.296  -2.413  -4.339  1.00  0.00     0.029 A 
ATOM     38  C   UNL     1      -7.629  -2.494  -3.746  1.00  0.00     0.049 A 
ATOM     39  H   UNL     1      -8.094  -2.732  -1.727  1.00  0.00     0.167 HD
ATOM     40  C   UNL     1      -8.968  -3.559   2.467  1.00  0.00     0.034 A 
ATOM     41  C   UNL     1      -8.793  -2.410  -4.422  1.00  0.00     0.034 A 
ATOM     42  C   UNL     1     -10.255  -3.377   1.850  1.00  0.00     0.049 A 
ATOM     43  C   UNL     1     -10.095  -2.530  -3.670  1.00  0.00     0.074 A 
ATOM     44  C   UNL     1     -11.504  -3.397   2.445  1.00  0.00     0.029 A 
ATOM     45  N   UNL     1     -10.462  -3.152   0.498  1.00  0.00    -0.354 N 
ATOM     46  N   UNL     1     -10.296  -2.675  -2.383  1.00  0.00    -0.248 NA
ATOM     47  C   UNL     1     -11.332  -2.455  -4.463  1.00  0.00     0.031 C 
ATOM     48  C   UNL     1     -12.468  -3.220   1.447  1.00  0.00     0.029 A 
ATOM     49  C   UNL     1     -11.818  -3.046   0.236  1.00  0.00     0.049 A 
ATOM     50  H   UNL     1      -9.749  -3.078  -0.177  1.00  0.00     0.167 HD
ATOM     51  C   UNL     1     -11.676  -2.671  -2.207  1.00  0.00     0.074 A 
ATOM     52  C   UNL     1     -12.263  -2.491  -3.519  1.00  0.00     0.031 C 
ATOM     53  C   UNL     1     -12.393  -2.815  -1.065  1.00  0.00     0.034 A 
BRANCH  40  54
ATOM     54  C   UNL     1      -8.918  -3.830   3.947  1.00  0.00     0.023 A 
ATOM     55  C   UNL     1      -8.455  -2.837   4.833  1.00  0.00     0.012 A 
ATOM     56  C   UNL     1      -9.362  -5.064   4.462  1.00  0.00     0.148 A 
ATOM     57  C   UNL     1      -8.397  -3.083   6.205  1.00  0.00     0.002 A 
ATOM     58  C   UNL     1      -9.345  -5.285   5.833  1.00  0.00     0.091 A 
ATOM     59  F   UNL     1      -9.779  -6.003   3.600  1.00  0.00    -0.205 F 
ATOM     60  C   UNL     1      -8.850  -4.301   6.705  1.00  0.00     0.022 A 
BRANCH  58  61
ATOM     61  S   UNL     1      -9.976  -6.792   6.578  1.00  0.00     0.127 S 
ATOM     62  O   UNL     1      -8.745  -7.428   7.045  1.00  0.00    -0.237 OA
ATOM     63  O   UNL     1     -10.835  -6.272   7.642  1.00  0.00    -0.237 OA
ATOM     64  O   UNL     1     -10.682  -7.500   5.519  1.00  0.00    -0.744 OA
ENDBRANCH  58  61
ENDBRANCH  40  54
BRANCH  41  65
ATOM     65  C   UNL     1      -8.788  -2.219  -5.902  1.00  0.00     0.023 A 
ATOM     66  C   UNL     1      -9.283  -1.023  -6.456  1.00  0.00     0.012 A 
ATOM     67  C   UNL     1      -8.298  -3.222  -6.762  1.00  0.00     0.148 A 
ATOM     68  C   UNL     1      -9.321  -0.843  -7.840  1.00  0.00     0.002 A 
ATOM     69  C   UNL     1      -8.283  -3.012  -8.135  1.00  0.00     0.091 A 
ATOM     70  F   UNL     1      -7.849  -4.362  -6.217  1.00  0.00    -0.205 F 
ATOM     71  C   UNL     1      -8.812  -1.831  -8.678  1.00  0.00     0.022 A 
BRANCH  69  72
ATOM     72  S   UNL     1      -7.534  -4.175  -9.281  1.00  0.00     0.127 S 
ATOM     73  O   UNL     1      -8.698  -4.661 -10.018  1.00  0.00    -0.237 OA
ATOM     74  O   UNL     1      -6.638  -3.306 -10.045  1.00  0.00    -0.237 OA
ATOM     75  O   UNL     1      -6.854  -5.163  -8.455  1.00  0.00    -0.744 OA
ENDBRANCH  69  72
ENDBRANCH  41  65
BRANCH  53  76
ATOM     76  C   UNL     1     -13.896  -2.737  -1.160  1.00  0.00     0.023 A 
ATOM     77  C   UNL     1     -14.623  -3.790  -1.750  1.00  0.00     0.012 A 
ATOM     78  C   UNL     1     -14.593  -1.652  -0.590  1.00  0.00     0.148 A 
ATOM     79  C   UNL     1     -16.017  -3.749  -1.800  1.00  0.00     0.002 A 
ATOM     80  C   UNL     1     -15.983  -1.643  -0.597  1.00  0.00     0.091 A 
ATOM     81  F   UNL     1     -13.884  -0.650  -0.048  1.00  0.00    -0.205 F 
ATOM     82  C   UNL     1     -16.696  -2.683  -1.213  1.00  0.00     0.022 A 
BRANCH  80  83
ATOM     83  S   UNL     1     -16.945  -0.364   0.221  1.00  0.00     0.127 S 
ATOM     84  O   UNL     1     -17.512   0.357  -0.917  1.00  0.00    -0.237 OA
ATOM     85  O   UNL     1     -17.912  -1.149   0.989  1.00  0.00    -0.237 OA
ATOM     86  O   UNL     1     -16.001   0.393   1.032  1.00  0.00    -0.744 OA
ENDBRANCH  80  83
ENDBRANCH  53  76
ENDBRANCH  27  28
ENDBRANCH  20  22
ENDBRANCH  19  20
ENDBRANCH   1  19
TORSDOF 18
