REMARK SMILES Cc1ccc(Cl)c(Nc2ccccc2C(=O)NCC(=O)OCCOC(=O)c2ccc(-c3c4nc(c(-c5cccc(S(=O)(=O)[O-])c5F)c5ccc([nH]5)c(-c5cccc(S(=O)(=O)[O-])c5F)c5nc(c(-c6cccc(S(=O)(=O)[O-])c6F)c6ccc3[nH]6)C=C5)C=C4)cc2)c1Cl
REMARK SMILES IDX 22 1 21 2 19 3 20 4 18 5 17 6 15 7 16 8 14 10 9 11 10 12
REMARK SMILES IDX 11 13 13 14 12 15 8 16 7 18 1 19 2 20 3 21 90 22 4 23 91 24
REMARK SMILES IDX 5 25 6 26 23 27 24 28 25 29 26 30 27 31 28 32 89 33 29 34
REMARK SMILES IDX 88 35 30 36 31 37 32 38 82 39 33 40 87 41 81 42 83 43 34 44
REMARK SMILES IDX 86 45 80 46 79 47 35 49 67 50 47 51 66 52 48 53 51 54 65 55
REMARK SMILES IDX 84 56 49 57 50 58 64 60 85 61 52 62 36 63 37 64 45 65 38 66
REMARK SMILES IDX 40 67 46 68 39 69 41 70 42 71 43 72 44 73 68 74 69 75 77 76
REMARK SMILES IDX 70 77 72 78 78 79 71 80 73 81 74 82 75 83 76 84 53 85 54 86
REMARK SMILES IDX 62 87 55 88 57 89 63 90 56 91 58 92 59 93 60 94 61 95
REMARK H PARENT 17 9 8 17 83 48 51 59
REMARK Flexibility Score: inf
ROOT
ATOM      1  C   UNL     1      -3.907  -2.445   3.325  1.00  0.00     0.274 C 
ENDROOT
BRANCH   1   2
ATOM      2  O   UNL     1      -2.514  -2.253   3.013  1.00  0.00    -0.461 OA
BRANCH   2   3
ATOM      3  C   UNL     1      -2.295  -1.970   1.705  1.00  0.00     0.325 C 
ATOM      4  O   UNL     1      -3.164  -1.968   0.836  1.00  0.00    -0.250 OA
BRANCH   3   5
ATOM      5  C   UNL     1      -0.903  -1.460   1.407  1.00  0.00     0.239 C 
BRANCH   5   6
ATOM      6  N   UNL     1       0.260  -1.736   2.220  1.00  0.00    -0.341 N 
ATOM      7  C   UNL     1       1.445  -2.345   1.882  1.00  0.00     0.253 C 
ATOM      8  O   UNL     1       2.395  -2.188   2.655  1.00  0.00    -0.269 OA
ATOM      9  H   UNL     1       0.192  -1.443   3.158  1.00  0.00     0.164 HD
BRANCH   7  10
ATOM     10  C   UNL     1       1.597  -3.328   0.761  1.00  0.00     0.063 A 
ATOM     11  C   UNL     1       1.203  -3.224  -0.590  1.00  0.00     0.051 A 
ATOM     12  C   UNL     1       1.352  -4.368  -1.413  1.00  0.00     0.027 A 
ATOM     13  C   UNL     1       1.954  -5.542  -0.959  1.00  0.00     0.002 A 
ATOM     14  C   UNL     1       2.237  -4.518   1.189  1.00  0.00     0.016 A 
ATOM     15  C   UNL     1       2.427  -5.606   0.339  1.00  0.00     0.001 A 
BRANCH  11  16
ATOM     16  N   UNL     1       0.776  -2.071  -1.283  1.00  0.00    -0.352 N 
ATOM     17  H   UNL     1       0.138  -2.274  -2.005  1.00  0.00     0.167 HD
BRANCH  16  18
ATOM     18  C   UNL     1       1.060  -0.688  -1.174  1.00  0.00     0.077 A 
ATOM     19  C   UNL     1       3.673   1.824   0.101  1.00  0.00     0.046 C 
ATOM     20  C   UNL     1       2.401   1.233  -0.441  1.00  0.00    -0.030 A 
ATOM     21  C   UNL     1       1.335   2.093  -0.736  1.00  0.00     0.006 A 
ATOM     22  C   UNL     1       2.271  -0.151  -0.692  1.00  0.00     0.069 A 
ATOM     23  C   UNL     1       0.169   1.595  -1.299  1.00  0.00     0.023 A 
ATOM     24  Cl  UNL     1       3.690  -1.150  -0.561  1.00  0.00    -0.082 Cl
ATOM     25  C   UNL     1       0.030   0.226  -1.507  1.00  0.00     0.066 A 
ATOM     26  Cl  UNL     1      -1.472  -0.335  -2.172  1.00  0.00    -0.082 Cl
ENDBRANCH  16  18
ENDBRANCH  11  16
ENDBRANCH   7  10
ENDBRANCH   5   6
ENDBRANCH   3   5
ENDBRANCH   2   3
ENDBRANCH   1   2
BRANCH   1  27
ATOM     27  C   UNL     1      -4.539  -1.143   3.820  1.00  0.00     0.275 C 
BRANCH  27  28
ATOM     28  O   UNL     1      -4.416  -0.082   2.850  1.00  0.00    -0.458 OA
BRANCH  28  29
ATOM     29  C   UNL     1      -3.613   0.947   3.210  1.00  0.00     0.338 C 
ATOM     30  O   UNL     1      -2.954   1.033   4.239  1.00  0.00    -0.246 OA
BRANCH  29  31
ATOM     31  C   UNL     1      -3.627   2.023   2.200  1.00  0.00     0.060 A 
ATOM     32  C   UNL     1      -3.269   1.776   0.877  1.00  0.00     0.016 A 
ATOM     33  C   UNL     1      -3.874   3.333   2.616  1.00  0.00     0.016 A 
ATOM     34  C   UNL     1      -3.069   2.855   0.002  1.00  0.00     0.010 A 
ATOM     35  C   UNL     1      -3.750   4.397   1.711  1.00  0.00     0.010 A 
ATOM     36  C   UNL     1      -3.287   4.188   0.400  1.00  0.00    -0.014 A 
BRANCH  36  37
ATOM     37  C   UNL     1      -2.985   5.358  -0.499  1.00  0.00     0.031 A 
ATOM     38  C   UNL     1      -2.168   6.531   0.012  1.00  0.00     0.074 A 
ATOM     39  C   UNL     1      -3.432   5.425  -1.772  1.00  0.00     0.049 A 
ATOM     40  N   UNL     1      -2.032   7.733  -0.493  1.00  0.00    -0.248 NA
ATOM     41  C   UNL     1      -1.422   6.330   1.265  1.00  0.00     0.031 C 
ATOM     42  C   UNL     1      -4.212   4.396  -2.455  1.00  0.00     0.029 A 
ATOM     43  N   UNL     1      -3.298   6.419  -2.719  1.00  0.00    -0.354 N 
ATOM     44  C   UNL     1      -1.298   8.462   0.438  1.00  0.00     0.074 A 
ATOM     45  C   UNL     1      -0.980   7.554   1.520  1.00  0.00     0.031 C 
ATOM     46  C   UNL     1      -4.449   4.786  -3.716  1.00  0.00     0.029 A 
ATOM     47  C   UNL     1      -3.942   6.142  -3.904  1.00  0.00     0.049 A 
ATOM     48  H   UNL     1      -2.790   7.247  -2.563  1.00  0.00     0.167 HD
ATOM     49  C   UNL     1      -0.919   9.764   0.402  1.00  0.00     0.034 A 
ATOM     50  C   UNL     1      -4.165   6.897  -5.001  1.00  0.00     0.034 A 
ATOM     51  C   UNL     1      -1.101  10.643  -0.724  1.00  0.00     0.049 A 
ATOM     52  C   UNL     1      -3.682   8.319  -5.052  1.00  0.00     0.074 A 
ATOM     53  C   UNL     1      -0.689  11.959  -0.862  1.00  0.00     0.029 A 
ATOM     54  N   UNL     1      -1.714  10.294  -1.915  1.00  0.00    -0.354 N 
ATOM     55  N   UNL     1      -3.004   8.991  -4.156  1.00  0.00    -0.248 NA
ATOM     56  C   UNL     1      -4.001   9.089  -6.265  1.00  0.00     0.031 C 
ATOM     57  C   UNL     1      -1.048  12.403  -2.139  1.00  0.00     0.029 A 
ATOM     58  C   UNL     1      -1.680  11.362  -2.797  1.00  0.00     0.049 A 
ATOM     59  H   UNL     1      -2.114   9.415  -2.108  1.00  0.00     0.167 HD
ATOM     60  C   UNL     1      -2.819  10.261  -4.692  1.00  0.00     0.074 A 
ATOM     61  C   UNL     1      -3.419  10.254  -6.010  1.00  0.00     0.031 C 
ATOM     62  C   UNL     1      -2.233  11.344  -4.126  1.00  0.00     0.034 A 
BRANCH  49  63
ATOM     63  C   UNL     1      -0.238  10.334   1.621  1.00  0.00     0.023 A 
ATOM     64  C   UNL     1       1.112  10.033   1.882  1.00  0.00     0.012 A 
ATOM     65  C   UNL     1      -0.921  11.235   2.463  1.00  0.00     0.148 A 
ATOM     66  C   UNL     1       1.763  10.597   2.980  1.00  0.00     0.002 A 
ATOM     67  C   UNL     1      -0.253  11.826   3.530  1.00  0.00     0.091 A 
ATOM     68  F   UNL     1      -2.213  11.494   2.214  1.00  0.00    -0.205 F 
ATOM     69  C   UNL     1       1.086  11.501   3.796  1.00  0.00     0.022 A 
BRANCH  67  70
ATOM     70  S   UNL     1      -1.036  13.067   4.568  1.00  0.00     0.127 S 
ATOM     71  O   UNL     1      -1.484  12.265   5.705  1.00  0.00    -0.237 OA
ATOM     72  O   UNL     1       0.072  13.978   4.865  1.00  0.00    -0.237 OA
ATOM     73  O   UNL     1      -2.087  13.653   3.748  1.00  0.00    -0.744 OA
ENDBRANCH  67  70
ENDBRANCH  49  63
BRANCH  50  74
ATOM     74  C   UNL     1      -4.906   6.301  -6.151  1.00  0.00     0.023 A 
ATOM     75  C   UNL     1      -4.220   6.010  -7.345  1.00  0.00     0.012 A 
ATOM     76  C   UNL     1      -6.261   5.937  -6.031  1.00  0.00     0.148 A 
ATOM     77  C   UNL     1      -4.870   5.362  -8.396  1.00  0.00     0.002 A 
ATOM     78  C   UNL     1      -6.879   5.222  -7.048  1.00  0.00     0.091 A 
ATOM     79  F   UNL     1      -6.909   6.261  -4.902  1.00  0.00    -0.205 F 
ATOM     80  C   UNL     1      -6.191   4.947  -8.239  1.00  0.00     0.022 A 
BRANCH  78  81
ATOM     81  S   UNL     1      -8.503   4.484  -6.832  1.00  0.00     0.127 S 
ATOM     82  O   UNL     1      -9.350   5.388  -7.605  1.00  0.00    -0.237 OA
ATOM     83  O   UNL     1      -8.317   3.157  -7.421  1.00  0.00    -0.237 OA
ATOM     84  O   UNL     1      -8.729   4.467  -5.393  1.00  0.00    -0.744 OA
ENDBRANCH  78  81
ENDBRANCH  50  74
BRANCH  62  85
ATOM     85  C   UNL     1      -2.201  12.622  -4.923  1.00  0.00     0.023 A 
ATOM     86  C   UNL     1      -3.373  13.395  -5.035  1.00  0.00     0.012 A 
ATOM     87  C   UNL     1      -1.006  13.090  -5.504  1.00  0.00     0.148 A 
ATOM     88  C   UNL     1      -3.364  14.602  -5.734  1.00  0.00     0.002 A 
ATOM     89  C   UNL     1      -0.996  14.312  -6.170  1.00  0.00     0.091 A 
ATOM     90  F   UNL     1       0.095  12.331  -5.407  1.00  0.00    -0.205 F 
ATOM     91  C   UNL     1      -2.175  15.066  -6.292  1.00  0.00     0.022 A 
BRANCH  89  92
ATOM     92  S   UNL     1       0.509  15.015  -6.856  1.00  0.00     0.127 S 
ATOM     93  O   UNL     1       0.360  14.712  -8.277  1.00  0.00    -0.237 OA
ATOM     94  O   UNL     1       0.378  16.433  -6.518  1.00  0.00    -0.237 OA
ATOM     95  O   UNL     1       1.605  14.337  -6.177  1.00  0.00    -0.744 OA
ENDBRANCH  89  92
ENDBRANCH  62  85
ENDBRANCH  36  37
ENDBRANCH  29  31
ENDBRANCH  28  29
ENDBRANCH  27  28
ENDBRANCH   1  27
TORSDOF 18
