REMARK SMILES O=C(CCCCCN1C(=O)[C@@H]2CC=CC[C@H]2C1=O)OCCOC(=O)c1ccc(-c2c3nc(c(-c4cccc(S(=O)(=O)[O-])c4F)c4ccc([nH]4)c(-c4cccc(S(=O)(=O)[O-])c4F)c4nc(c(-c5cccc(S(=O)(=O)[O-])c5F)c5ccc2[nH]5)C=C4)C=C3)cc1
REMARK SMILES IDX 20 1 19 2 2 3 1 4 3 5 4 6 5 7 6 8 7 9 8 10 9 11 17 12 10 13
REMARK SMILES IDX 11 14 16 15 18 16 12 17 15 18 13 19 14 20 21 21 22 22 23 23
REMARK SMILES IDX 24 24 25 25 26 26 87 27 27 28 86 29 28 30 29 31 30 32 80 33
REMARK SMILES IDX 31 34 85 35 79 36 81 37 32 38 84 39 78 40 77 41 33 43 65 44
REMARK SMILES IDX 45 45 64 46 46 47 49 48 63 49 82 50 47 51 48 52 62 54 83 55
REMARK SMILES IDX 50 56 34 57 35 58 43 59 36 60 38 61 44 62 37 63 39 64 40 65
REMARK SMILES IDX 41 66 42 67 66 68 67 69 75 70 68 71 70 72 76 73 69 74 71 75
REMARK SMILES IDX 72 76 73 77 74 78 51 79 52 80 60 81 53 82 55 83 61 84 54 85
REMARK SMILES IDX 56 86 57 87 58 88 59 89
REMARK H PARENT 81 42 49 53
REMARK Flexibility Score: inf
ROOT
ATOM      1  C   UNL     1       3.355  -1.101  -1.326  1.00  0.00     0.274 C 
ENDROOT
BRANCH   1   2
ATOM      2  O   UNL     1       2.119  -0.830  -0.646  1.00  0.00    -0.462 OA
BRANCH   2   3
ATOM      3  C   UNL     1       2.194  -0.672   0.704  1.00  0.00     0.305 C 
ATOM      4  O   UNL     1       1.689  -1.478   1.476  1.00  0.00    -0.252 OA
BRANCH   3   5
ATOM      5  C   UNL     1       2.802   0.642   1.151  1.00  0.00     0.123 C 
BRANCH   5   6
ATOM      6  C   UNL     1       3.860   0.508   2.241  1.00  0.00     0.012 C 
BRANCH   6   7
ATOM      7  C   UNL     1       5.112  -0.267   1.825  1.00  0.00     0.002 C 
BRANCH   7   8
ATOM      8  C   UNL     1       5.930   0.338   0.669  1.00  0.00     0.022 C 
BRANCH   8   9
ATOM      9  C   UNL     1       6.930   1.431   1.044  1.00  0.00     0.128 C 
BRANCH   9  10
ATOM     10  N   UNL     1       7.830   1.097   2.128  1.00  0.00    -0.282 N 
ATOM     11  C   UNL     1       8.382   2.067   2.938  1.00  0.00     0.233 C 
ATOM     12  C   UNL     1       8.365  -0.144   2.388  1.00  0.00     0.233 C 
ATOM     13  O   UNL     1       8.419   3.268   2.748  1.00  0.00    -0.274 OA
ATOM     14  C   UNL     1       8.880   1.332   4.139  1.00  0.00     0.095 C 
ATOM     15  C   UNL     1       9.341   0.026   3.510  1.00  0.00     0.095 C 
ATOM     16  O   UNL     1       8.195  -1.187   1.776  1.00  0.00    -0.274 OA
ATOM     17  C   UNL     1       9.988   1.891   5.002  1.00  0.00     0.041 C 
ATOM     18  C   UNL     1       9.393  -1.044   4.582  1.00  0.00     0.041 C 
ATOM     19  C   UNL     1      10.453   0.796   5.947  1.00  0.00    -0.030 C 
ATOM     20  C   UNL     1      10.155  -0.509   5.778  1.00  0.00    -0.030 C 
ENDBRANCH   9  10
ENDBRANCH   8   9
ENDBRANCH   7   8
ENDBRANCH   6   7
ENDBRANCH   5   6
ENDBRANCH   3   5
ENDBRANCH   2   3
ENDBRANCH   1   2
BRANCH   1  21
ATOM     21  C   UNL     1       3.638  -0.116  -2.466  1.00  0.00     0.275 C 
BRANCH  21  22
ATOM     22  O   UNL     1       3.418   1.243  -2.054  1.00  0.00    -0.458 OA
BRANCH  22  23
ATOM     23  C   UNL     1       2.151   1.685  -2.277  1.00  0.00     0.338 C 
ATOM     24  O   UNL     1       1.294   1.121  -2.932  1.00  0.00    -0.246 OA
BRANCH  23  25
ATOM     25  C   UNL     1       1.878   2.885  -1.452  1.00  0.00     0.060 A 
ATOM     26  C   UNL     1       0.619   2.968  -0.846  1.00  0.00     0.016 A 
ATOM     27  C   UNL     1       2.816   3.907  -1.269  1.00  0.00     0.016 A 
ATOM     28  C   UNL     1       0.273   4.097  -0.103  1.00  0.00     0.010 A 
ATOM     29  C   UNL     1       2.466   5.040  -0.523  1.00  0.00     0.010 A 
ATOM     30  C   UNL     1       1.179   5.157   0.030  1.00  0.00    -0.014 A 
BRANCH  30  31
ATOM     31  C   UNL     1       0.707   6.432   0.625  1.00  0.00     0.031 A 
ATOM     32  C   UNL     1       0.231   7.531  -0.287  1.00  0.00     0.074 A 
ATOM     33  C   UNL     1       0.653   6.599   1.960  1.00  0.00     0.049 A 
ATOM     34  N   UNL     1      -0.347   8.664   0.017  1.00  0.00    -0.248 NA
ATOM     35  C   UNL     1       0.427   7.324  -1.731  1.00  0.00     0.031 C 
ATOM     36  C   UNL     1       1.107   5.630   2.955  1.00  0.00     0.029 A 
ATOM     37  N   UNL     1       0.195   7.657   2.705  1.00  0.00    -0.354 N 
ATOM     38  C   UNL     1      -0.593   9.300  -1.193  1.00  0.00     0.074 A 
ATOM     39  C   UNL     1      -0.068   8.445  -2.236  1.00  0.00     0.031 C 
ATOM     40  C   UNL     1       0.922   6.148   4.183  1.00  0.00     0.029 A 
ATOM     41  C   UNL     1       0.329   7.479   4.061  1.00  0.00     0.049 A 
ATOM     42  H   UNL     1      -0.194   8.469   2.305  1.00  0.00     0.167 HD
ATOM     43  C   UNL     1      -1.230  10.472  -1.423  1.00  0.00     0.034 A 
ATOM     44  C   UNL     1       0.001   8.292   5.085  1.00  0.00     0.034 A 
ATOM     45  C   UNL     1      -1.763  11.323  -0.395  1.00  0.00     0.049 A 
ATOM     46  C   UNL     1      -0.692   9.602   4.801  1.00  0.00     0.074 A 
ATOM     47  C   UNL     1      -2.462  12.508  -0.536  1.00  0.00     0.029 A 
ATOM     48  N   UNL     1      -1.644  11.088   0.965  1.00  0.00    -0.354 N 
ATOM     49  N   UNL     1      -1.076  10.103   3.651  1.00  0.00    -0.248 NA
ATOM     50  C   UNL     1      -1.039  10.436   5.962  1.00  0.00     0.031 C 
ATOM     51  C   UNL     1      -2.756  12.998   0.741  1.00  0.00     0.029 A 
ATOM     52  C   UNL     1      -2.248  12.112   1.676  1.00  0.00     0.049 A 
ATOM     53  H   UNL     1      -1.197  10.309   1.367  1.00  0.00     0.167 HD
ATOM     54  C   UNL     1      -1.737  11.290   3.953  1.00  0.00     0.074 A 
ATOM     55  C   UNL     1      -1.727  11.419   5.395  1.00  0.00     0.031 C 
ATOM     56  C   UNL     1      -2.286  12.201   3.112  1.00  0.00     0.034 A 
BRANCH  43  57
ATOM     57  C   UNL     1      -1.447  10.874  -2.856  1.00  0.00     0.023 A 
ATOM     58  C   UNL     1      -2.457  10.229  -3.599  1.00  0.00     0.012 A 
ATOM     59  C   UNL     1      -0.712  11.920  -3.443  1.00  0.00     0.148 A 
ATOM     60  C   UNL     1      -2.720  10.607  -4.914  1.00  0.00     0.002 A 
ATOM     61  C   UNL     1      -1.002  12.314  -4.744  1.00  0.00     0.091 A 
ATOM     62  F   UNL     1       0.259  12.501  -2.725  1.00  0.00    -0.205 F 
ATOM     63  C   UNL     1      -2.001  11.655  -5.482  1.00  0.00     0.022 A 
BRANCH  61  64
ATOM     64  S   UNL     1      -0.175  13.691  -5.547  1.00  0.00     0.127 S 
ATOM     65  O   UNL     1       0.646  13.002  -6.541  1.00  0.00    -0.237 OA
ATOM     66  O   UNL     1      -1.300  14.445  -6.102  1.00  0.00    -0.237 OA
ATOM     67  O   UNL     1       0.561  14.383  -4.499  1.00  0.00    -0.744 OA
ENDBRANCH  61  64
ENDBRANCH  43  57
BRANCH  44  68
ATOM     68  C   UNL     1       0.262   7.870   6.490  1.00  0.00     0.023 A 
ATOM     69  C   UNL     1      -0.822   7.559   7.335  1.00  0.00     0.012 A 
ATOM     70  C   UNL     1       1.572   7.788   6.997  1.00  0.00     0.148 A 
ATOM     71  C   UNL     1      -0.606   7.211   8.669  1.00  0.00     0.002 A 
ATOM     72  C   UNL     1       1.783   7.391   8.313  1.00  0.00     0.091 A 
ATOM     73  F   UNL     1       2.591   8.112   6.188  1.00  0.00    -0.205 F 
ATOM     74  C   UNL     1       0.695   7.118   9.156  1.00  0.00     0.022 A 
BRANCH  72  75
ATOM     75  S   UNL     1       3.434   7.132   8.972  1.00  0.00     0.127 S 
ATOM     76  O   UNL     1       3.660   8.370   9.713  1.00  0.00    -0.237 OA
ATOM     77  O   UNL     1       3.254   5.941   9.803  1.00  0.00    -0.237 OA
ATOM     78  O   UNL     1       4.280   6.918   7.805  1.00  0.00    -0.744 OA
ENDBRANCH  72  75
ENDBRANCH  44  68
BRANCH  56  79
ATOM     79  C   UNL     1      -2.939  13.415   3.722  1.00  0.00     0.023 A 
ATOM     80  C   UNL     1      -2.134  14.427   4.281  1.00  0.00     0.012 A 
ATOM     81  C   UNL     1      -4.336  13.591   3.677  1.00  0.00     0.148 A 
ATOM     82  C   UNL     1      -2.710  15.579   4.816  1.00  0.00     0.002 A 
ATOM     83  C   UNL     1      -4.900  14.762   4.173  1.00  0.00     0.091 A 
ATOM     84  F   UNL     1      -5.091  12.611   3.160  1.00  0.00    -0.205 F 
ATOM     85  C   UNL     1      -4.090  15.752   4.752  1.00  0.00     0.022 A 
BRANCH  83  86
ATOM     86  S   UNL     1      -6.661  15.101   4.045  1.00  0.00     0.127 S 
ATOM     87  O   UNL     1      -7.130  14.760   5.386  1.00  0.00    -0.237 OA
ATOM     88  O   UNL     1      -6.687  16.531   3.736  1.00  0.00    -0.237 OA
ATOM     89  O   UNL     1      -7.147  14.248   2.969  1.00  0.00    -0.744 OA
ENDBRANCH  83  86
ENDBRANCH  56  79
ENDBRANCH  30  31
ENDBRANCH  23  25
ENDBRANCH  22  23
ENDBRANCH  21  22
ENDBRANCH   1  21
TORSDOF 19
