REMARK SMILES Cc1c(CC(=O)N[C@@H](CCO)C(=O)OCCOC(=O)c2ccc(-c3c4nc(c(-c5cccc(S(=O)(=O)[O-])c5F)c5ccc([nH]5)c(-c5cccc(S(=O)(=O)[O-])c5F)c5nc(c(-c6cccc(S(=O)(=O)[O-])c6F)c6ccc3[nH]6)C=C5)C=C4)cc2)cc(-c2ccc(S(C)(=O)=O)cc2)n1-c1ccc(F)cc1
REMARK SMILES IDX 15 1 14 2 12 3 13 4 8 5 7 6 5 7 6 8 4 10 3 11 1 12 2 13
REMARK SMILES IDX 95 14 83 15 84 16 96 17 97 18 102 19 98 20 101 21 99 22
REMARK SMILES IDX 100 23 85 24 86 25 94 26 87 27 93 28 88 29 89 30 90 31 91 32
REMARK SMILES IDX 92 33 9 34 10 35 11 36 16 38 17 39 18 40 19 41 20 42 21 43
REMARK SMILES IDX 82 44 22 45 81 46 23 47 24 48 25 49 75 50 26 51 80 52 74 53
REMARK SMILES IDX 76 54 27 55 79 56 73 57 72 58 28 60 60 61 40 62 59 63 41 64
REMARK SMILES IDX 44 65 58 66 77 67 42 68 43 69 57 71 78 72 45 73 29 74 30 75
REMARK SMILES IDX 38 76 31 77 33 78 39 79 32 80 34 81 35 82 36 83 37 84 61 85
REMARK SMILES IDX 62 86 70 87 63 88 65 89 71 90 64 91 66 92 67 93 68 94 69 95
REMARK SMILES IDX 46 96 47 97 55 98 48 99 50 100 56 101 49 102 51 103 52 104
REMARK SMILES IDX 53 105 54 106
REMARK H PARENT 7 9 11 37 76 59 44 70
REMARK Flexibility Score: inf
ROOT
ATOM      1  C   UNL     1      -2.528  -7.063   1.843  1.00  0.00     0.274 C 
ENDROOT
BRANCH   1   2
ATOM      2  O   UNL     1      -2.105  -5.751   1.375  1.00  0.00    -0.461 OA
BRANCH   2   3
ATOM      3  C   UNL     1      -2.594  -4.667   2.048  1.00  0.00     0.328 C 
ATOM      4  O   UNL     1      -3.356  -4.730   3.006  1.00  0.00    -0.250 OA
BRANCH   3   5
ATOM      5  C   UNL     1      -1.990  -3.339   1.532  1.00  0.00     0.194 C 
BRANCH   5   6
ATOM      6  N   UNL     1      -1.254  -3.413   0.266  1.00  0.00    -0.342 N 
ATOM      7  C   UNL     1       0.060  -3.138   0.015  1.00  0.00     0.225 C 
ATOM      8  O   UNL     1       0.430  -3.170  -1.162  1.00  0.00    -0.275 OA
ATOM      9  H   UNL     1      -1.782  -3.701  -0.513  1.00  0.00     0.164 HD
BRANCH   7  10
ATOM     10  C   UNL     1       1.024  -2.816   1.151  1.00  0.00     0.137 C 
BRANCH  10  11
ATOM     11  C   UNL     1       0.711  -1.520   1.849  1.00  0.00    -0.017 A 
ATOM     12  C   UNL     1       1.118   0.169  -0.060  1.00  0.00     0.065 C 
ATOM     13  C   UNL     1       0.676  -0.241   1.308  1.00  0.00     0.024 A 
ATOM     14  N   UNL     1       0.256   0.640   2.300  1.00  0.00    -0.314 N 
ATOM     15  C   UNL     1       0.420  -1.384   3.234  1.00  0.00     0.033 A 
ATOM     16  C   UNL     1       0.072  -0.072   3.489  1.00  0.00     0.053 A 
BRANCH  14  17
ATOM     17  C   UNL     1       0.025   2.033   2.143  1.00  0.00     0.046 A 
ATOM     18  C   UNL     1       0.599   2.936   3.050  1.00  0.00     0.029 A 
ATOM     19  C   UNL     1      -0.842   2.484   1.138  1.00  0.00     0.029 A 
ATOM     20  C   UNL     1       0.304   4.294   2.948  1.00  0.00     0.041 A 
ATOM     21  C   UNL     1      -1.139   3.844   1.052  1.00  0.00     0.041 A 
ATOM     22  C   UNL     1      -0.565   4.734   1.955  1.00  0.00     0.123 A 
ATOM     23  F   UNL     1      -0.863   6.037   1.874  1.00  0.00    -0.207 F 
ENDBRANCH  14  17
BRANCH  16  24
ATOM     24  C   UNL     1      -0.476   0.480   4.737  1.00  0.00    -0.001 A 
ATOM     25  C   UNL     1      -1.694   1.179   4.742  1.00  0.00     0.011 A 
ATOM     26  C   UNL     1       0.220   0.320   5.942  1.00  0.00     0.011 A 
ATOM     27  C   UNL     1      -2.169   1.778   5.911  1.00  0.00     0.021 A 
ATOM     28  C   UNL     1      -0.252   0.911   7.119  1.00  0.00     0.021 A 
ATOM     29  C   UNL     1      -1.429   1.662   7.088  1.00  0.00     0.067 A 
BRANCH  29  30
ATOM     30  S   UNL     1      -2.000   2.484   8.555  1.00  0.00     0.175 S 
ATOM     31  C   UNL     1      -1.831   4.207   8.164  1.00  0.00     0.163 C 
ATOM     32  O   UNL     1      -3.420   2.192   8.686  1.00  0.00    -0.224 OA
ATOM     33  O   UNL     1      -1.076   2.191   9.628  1.00  0.00    -0.224 OA
ENDBRANCH  29  30
ENDBRANCH  16  24
ENDBRANCH  10  11
ENDBRANCH   7  10
ENDBRANCH   5   6
BRANCH   5  34
ATOM     34  C   UNL     1      -2.977  -2.154   1.512  1.00  0.00     0.065 C 
BRANCH  34  35
ATOM     35  C   UNL     1      -4.022  -2.173   0.401  1.00  0.00     0.159 C 
BRANCH  35  36
ATOM     36  O   UNL     1      -4.934  -3.245   0.555  1.00  0.00    -0.396 OA
ATOM     37  H   UNL     1      -4.452  -4.087   0.515  1.00  0.00     0.210 HD
ENDBRANCH  35  36
ENDBRANCH  34  35
ENDBRANCH   5  34
ENDBRANCH   3   5
ENDBRANCH   2   3
ENDBRANCH   1   2
BRANCH   1  38
ATOM     38  C   UNL     1      -1.500  -8.160   1.454  1.00  0.00     0.275 C 
BRANCH  38  39
ATOM     39  O   UNL     1      -0.784  -8.864   2.528  1.00  0.00    -0.458 OA
BRANCH  39  40
ATOM     40  C   UNL     1       0.511  -8.479   2.768  1.00  0.00     0.338 C 
ATOM     41  O   UNL     1       0.937  -7.380   2.436  1.00  0.00    -0.246 OA
BRANCH  40  42
ATOM     42  C   UNL     1       1.330  -9.467   3.609  1.00  0.00     0.060 A 
ATOM     43  C   UNL     1       1.889  -8.992   4.781  1.00  0.00     0.016 A 
ATOM     44  C   UNL     1       1.736 -10.773   3.249  1.00  0.00     0.016 A 
ATOM     45  C   UNL     1       2.760  -9.810   5.571  1.00  0.00     0.010 A 
ATOM     46  C   UNL     1       2.717 -11.569   4.024  1.00  0.00     0.010 A 
ATOM     47  C   UNL     1       3.287 -11.116   5.224  1.00  0.00    -0.014 A 
BRANCH  47  48
ATOM     48  C   UNL     1       4.626 -11.620   6.052  1.00  0.00     0.031 A 
ATOM     49  C   UNL     1       5.316 -10.335   6.351  1.00  0.00     0.074 A 
ATOM     50  C   UNL     1       5.417 -12.715   6.450  1.00  0.00     0.049 A 
ATOM     51  N   UNL     1       5.575  -9.505   5.379  1.00  0.00    -0.248 NA
ATOM     52  C   UNL     1       5.365  -9.725   7.683  1.00  0.00     0.031 C 
ATOM     53  C   UNL     1       5.270 -14.138   6.093  1.00  0.00     0.029 A 
ATOM     54  N   UNL     1       6.591 -12.822   7.295  1.00  0.00    -0.354 N 
ATOM     55  C   UNL     1       6.195  -8.439   5.948  1.00  0.00     0.074 A 
ATOM     56  C   UNL     1       5.784  -8.499   7.343  1.00  0.00     0.031 C 
ATOM     57  C   UNL     1       6.141 -14.940   6.782  1.00  0.00     0.029 A 
ATOM     58  C   UNL     1       7.026 -14.161   7.651  1.00  0.00     0.049 A 
ATOM     59  H   UNL     1       7.071 -12.024   7.614  1.00  0.00     0.167 HD
ATOM     60  C   UNL     1       7.399  -8.109   5.402  1.00  0.00     0.034 A 
ATOM     61  C   UNL     1       8.053 -14.624   8.484  1.00  0.00     0.034 A 
ATOM     62  C   UNL     1       8.491  -8.360   6.296  1.00  0.00     0.049 A 
ATOM     63  C   UNL     1       9.072 -13.562   8.505  1.00  0.00     0.074 A 
ATOM     64  C   UNL     1       8.653  -8.211   7.661  1.00  0.00     0.029 A 
ATOM     65  N   UNL     1       9.415  -9.295   5.888  1.00  0.00    -0.354 N 
ATOM     66  N   UNL     1       9.919 -13.437   7.528  1.00  0.00    -0.248 NA
ATOM     67  C   UNL     1       9.341 -12.738   9.678  1.00  0.00     0.031 C 
ATOM     68  C   UNL     1       9.266  -9.411   8.085  1.00  0.00     0.029 A 
ATOM     69  C   UNL     1       9.793 -10.057   6.977  1.00  0.00     0.049 A 
ATOM     70  H   UNL     1       9.752  -9.402   4.969  1.00  0.00     0.167 HD
ATOM     71  C   UNL     1      10.468 -12.212   7.748  1.00  0.00     0.074 A 
ATOM     72  C   UNL     1      10.304 -11.967   9.168  1.00  0.00     0.031 C 
ATOM     73  C   UNL     1      10.396 -11.341   6.717  1.00  0.00     0.034 A 
BRANCH  60  74
ATOM     74  C   UNL     1       7.451  -8.223   3.889  1.00  0.00     0.023 A 
ATOM     75  C   UNL     1       7.518  -7.025   3.159  1.00  0.00     0.012 A 
ATOM     76  C   UNL     1       7.212  -9.434   3.185  1.00  0.00     0.148 A 
ATOM     77  C   UNL     1       7.279  -7.020   1.781  1.00  0.00     0.002 A 
ATOM     78  C   UNL     1       6.849  -9.404   1.842  1.00  0.00     0.091 A 
ATOM     79  F   UNL     1       7.325 -10.603   3.837  1.00  0.00    -0.205 F 
ATOM     80  C   UNL     1       6.899  -8.197   1.134  1.00  0.00     0.022 A 
BRANCH  78  81
ATOM     81  S   UNL     1       6.066 -10.819   1.035  1.00  0.00     0.127 S 
ATOM     82  O   UNL     1       4.995 -10.188   0.255  1.00  0.00    -0.237 OA
ATOM     83  O   UNL     1       7.146 -11.374   0.227  1.00  0.00    -0.237 OA
ATOM     84  O   UNL     1       5.569 -11.679   2.104  1.00  0.00    -0.744 OA
ENDBRANCH  78  81
ENDBRANCH  60  74
BRANCH  61  85
ATOM     85  C   UNL     1       8.719 -15.871   9.198  1.00  0.00     0.023 A 
ATOM     86  C   UNL     1      10.155 -16.009   9.127  1.00  0.00     0.012 A 
ATOM     87  C   UNL     1       8.129 -16.572  10.277  1.00  0.00     0.148 A 
ATOM     88  C   UNL     1      10.947 -16.653  10.100  1.00  0.00     0.002 A 
ATOM     89  C   UNL     1       8.930 -17.262  11.235  1.00  0.00     0.091 A 
ATOM     90  F   UNL     1       6.803 -16.481  10.439  1.00  0.00    -0.205 F 
ATOM     91  C   UNL     1      10.332 -17.271  11.166  1.00  0.00     0.022 A 
BRANCH  89  92
ATOM     92  S   UNL     1       8.263 -18.120  12.683  1.00  0.00     0.127 S 
ATOM     93  O   UNL     1       9.043 -19.359  12.710  1.00  0.00    -0.237 OA
ATOM     94  O   UNL     1       8.580 -17.186  13.762  1.00  0.00    -0.237 OA
ATOM     95  O   UNL     1       6.847 -18.305  12.402  1.00  0.00    -0.744 OA
ENDBRANCH  89  92
ENDBRANCH  61  85
BRANCH  73  96
ATOM     96  C   UNL     1      10.686 -11.866   5.327  1.00  0.00     0.023 A 
ATOM     97  C   UNL     1      10.091 -13.004   4.740  1.00  0.00     0.012 A 
ATOM     98  C   UNL     1      11.610 -11.142   4.559  1.00  0.00     0.148 A 
ATOM     99  C   UNL     1      10.426 -13.415   3.444  1.00  0.00     0.002 A 
ATOM    100  C   UNL     1      11.896 -11.512   3.250  1.00  0.00     0.091 A 
ATOM    101  F   UNL     1      12.206 -10.083   5.129  1.00  0.00    -0.205 F 
ATOM    102  C   UNL     1      11.315 -12.656   2.689  1.00  0.00     0.022 A 
BRANCH 100 103
ATOM    103  S   UNL     1      12.969 -10.489   2.244  1.00  0.00     0.127 S 
ATOM    104  O   UNL     1      14.260 -11.155   2.403  1.00  0.00    -0.237 OA
ATOM    105  O   UNL     1      12.385 -10.597   0.909  1.00  0.00    -0.237 OA
ATOM    106  O   UNL     1      12.876  -9.154   2.828  1.00  0.00    -0.744 OA
ENDBRANCH 100 103
ENDBRANCH  73  96
ENDBRANCH  47  48
ENDBRANCH  40  42
ENDBRANCH  39  40
ENDBRANCH  38  39
ENDBRANCH   1  38
TORSDOF 23
