REMARK SMILES Cc1cc(/C=C2\C(=O)N(Cc3ccco3)C(=O)N=C2OCCOC(=O)c2ccc(-c3c4nc(c(-c5cccc(S(=O)(=O)[O-])c5F)c5ccc([nH]5)c(-c5cccc(S(=O)(=O)[O-])c5F)c5nc(c(-c6cccc(S(=O)(=O)[O-])c6F)c6ccc3[nH]6)C=C5)C=C4)cc2)c(C)n1-c1ccc(Cl)c(C(=O)[O-])c1
REMARK SMILES IDX 22 1 21 2 20 3 19 4 5 5 6 6 7 7 8 8 9 9 18 10 16 11 17 12
REMARK SMILES IDX 4 13 1 14 2 15 3 16 91 17 89 18 90 19 92 20 93 21 101 22
REMARK SMILES IDX 94 23 97 24 95 25 96 26 98 27 99 28 100 29 10 30 11 31 12 32
REMARK SMILES IDX 15 33 13 34 14 35 23 36 24 37 25 38 26 39 27 40 88 41 28 42
REMARK SMILES IDX 87 43 29 44 30 45 31 46 81 47 32 48 86 49 80 50 82 51 33 52
REMARK SMILES IDX 85 53 79 54 78 55 34 57 66 58 46 59 65 60 47 61 50 62 64 63
REMARK SMILES IDX 83 64 48 65 49 66 63 68 84 69 51 70 35 71 36 72 44 73 37 74
REMARK SMILES IDX 39 75 45 76 38 77 40 78 41 79 42 80 43 81 67 82 68 83 76 84
REMARK SMILES IDX 69 85 71 86 77 87 70 88 72 89 73 90 74 91 75 92 52 93 53 94
REMARK SMILES IDX 61 95 54 96 56 97 62 98 55 99 57 100 58 101 59 102 60 103
REMARK H PARENT 82 56 50 67
REMARK Flexibility Score: inf
ROOT
ATOM      1  C   UNL     1      -3.802   8.664   3.285  1.00  0.00     0.274 C 
ENDROOT
BRANCH   1   2
ATOM      2  C   UNL     1      -4.514   7.896   2.095  1.00  0.00     0.273 C 
BRANCH   2   3
ATOM      3  O   UNL     1      -3.778   6.691   1.588  1.00  0.00    -0.473 OA
BRANCH   3   4
ATOM      4  C   UNL     1      -2.749   6.994   0.762  1.00  0.00     0.231 C 
ATOM      5  C   UNL     1      -1.720   4.628   0.679  1.00  0.00     0.029 C 
ATOM      6  C   UNL     1      -1.790   5.935   0.308  1.00  0.00     0.103 C 
ATOM      7  C   UNL     1      -0.796   6.522  -0.648  1.00  0.00     0.267 C 
ATOM      8  O   UNL     1      -0.335   5.901  -1.602  1.00  0.00    -0.268 OA
ATOM      9  N   UNL     1      -0.482   7.826  -0.342  1.00  0.00    -0.250 N 
ATOM     10  N   UNL     1      -2.635   8.229   0.468  1.00  0.00    -0.156 NA
ATOM     11  C   UNL     1      -1.433   8.732   0.091  1.00  0.00     0.354 C 
ATOM     12  O   UNL     1      -1.232   9.912   0.199  1.00  0.00    -0.245 OA
BRANCH   5  13
ATOM     13  C   UNL     1      -0.684   3.613   0.426  1.00  0.00    -0.003 A 
ATOM     14  C   UNL     1       0.636   0.109  -0.005  1.00  0.00     0.065 C 
ATOM     15  C   UNL     1       0.335   1.572   0.096  1.00  0.00     0.020 A 
ATOM     16  C   UNL     1      -0.894   2.208   0.255  1.00  0.00     0.031 A 
ATOM     17  N   UNL     1       1.315   2.550   0.141  1.00  0.00    -0.318 N 
ATOM     18  C   UNL     1       0.702   3.776   0.428  1.00  0.00     0.027 A 
ATOM     19  C   UNL     1       1.512   5.017   0.563  1.00  0.00     0.065 C 
BRANCH  17  20
ATOM     20  C   UNL     1       2.716   2.365  -0.097  1.00  0.00     0.046 A 
ATOM     21  C   UNL     1       3.642   2.814   0.848  1.00  0.00     0.028 A 
ATOM     22  C   UNL     1       3.166   1.873  -1.331  1.00  0.00     0.038 A 
ATOM     23  C   UNL     1       4.994   2.893   0.519  1.00  0.00     0.023 A 
ATOM     24  C   UNL     1       4.542   1.934  -1.665  1.00  0.00     0.018 A 
ATOM     25  C   UNL     1       5.447   2.481  -0.739  1.00  0.00     0.050 A 
ATOM     26  Cl  UNL     1       7.134   2.716  -1.042  1.00  0.00    -0.084 Cl
BRANCH  24  27
ATOM     27  C   UNL     1       5.002   1.460  -3.004  1.00  0.00     0.073 C 
ATOM     28  O   UNL     1       6.115   1.518  -3.490  1.00  0.00    -0.545 OA
ATOM     29  O   UNL     1       4.010   0.887  -3.714  1.00  0.00    -0.545 OA
ENDBRANCH  24  27
ENDBRANCH  17  20
ENDBRANCH   5  13
BRANCH   9  30
ATOM     30  C   UNL     1       0.873   8.314  -0.459  1.00  0.00     0.206 C 
BRANCH  30  31
ATOM     31  C   UNL     1       1.058   9.188  -1.635  1.00  0.00     0.123 A 
ATOM     32  C   UNL     1       0.711  10.495  -1.907  1.00  0.00     0.047 A 
ATOM     33  O   UNL     1       1.761   8.664  -2.676  1.00  0.00    -0.467 OA
ATOM     34  C   UNL     1       1.201  10.775  -3.198  1.00  0.00     0.042 A 
ATOM     35  C   UNL     1       1.845   9.636  -3.617  1.00  0.00     0.195 A 
ENDBRANCH  30  31
ENDBRANCH   9  30
ENDBRANCH   3   4
ENDBRANCH   2   3
ENDBRANCH   1   2
BRANCH   1  36
ATOM     36  O   UNL     1      -3.463  10.120   3.178  1.00  0.00    -0.458 OA
BRANCH  36  37
ATOM     37  C   UNL     1      -2.209  10.512   3.650  1.00  0.00     0.338 C 
ATOM     38  O   UNL     1      -1.305   9.691   3.792  1.00  0.00    -0.246 OA
BRANCH  37  39
ATOM     39  C   UNL     1      -1.933  12.022   3.959  1.00  0.00     0.060 A 
ATOM     40  C   UNL     1      -1.072  12.745   3.131  1.00  0.00     0.016 A 
ATOM     41  C   UNL     1      -2.171  12.660   5.201  1.00  0.00     0.016 A 
ATOM     42  C   UNL     1      -0.529  14.040   3.510  1.00  0.00     0.010 A 
ATOM     43  C   UNL     1      -1.573  13.963   5.604  1.00  0.00     0.010 A 
ATOM     44  C   UNL     1      -0.712  14.710   4.777  1.00  0.00    -0.014 A 
BRANCH  44  45
ATOM     45  C   UNL     1       0.411  15.835   5.202  1.00  0.00     0.031 A 
ATOM     46  C   UNL     1       1.692  15.202   4.770  1.00  0.00     0.074 A 
ATOM     47  C   UNL     1       0.629  17.063   5.862  1.00  0.00     0.049 A 
ATOM     48  N   UNL     1       1.995  13.971   5.086  1.00  0.00    -0.248 NA
ATOM     49  C   UNL     1       2.541  15.768   3.716  1.00  0.00     0.031 C 
ATOM     50  C   UNL     1      -0.342  17.900   6.590  1.00  0.00     0.029 A 
ATOM     51  N   UNL     1       1.810  17.892   6.044  1.00  0.00    -0.354 N 
ATOM     52  C   UNL     1       3.287  13.823   4.678  1.00  0.00     0.074 A 
ATOM     53  C   UNL     1       3.426  14.774   3.591  1.00  0.00     0.031 C 
ATOM     54  C   UNL     1       0.195  19.094   6.992  1.00  0.00     0.029 A 
ATOM     55  C   UNL     1       1.613  19.199   6.643  1.00  0.00     0.049 A 
ATOM     56  H   UNL     1       2.704  17.580   5.773  1.00  0.00     0.167 HD
ATOM     57  C   UNL     1       4.195  13.476   5.635  1.00  0.00     0.034 A 
ATOM     58  C   UNL     1       2.494  20.252   6.928  1.00  0.00     0.034 A 
ATOM     59  C   UNL     1       5.267  14.416   5.796  1.00  0.00     0.049 A 
ATOM     60  C   UNL     1       3.850  19.679   7.021  1.00  0.00     0.074 A 
ATOM     61  C   UNL     1       6.005  15.203   4.934  1.00  0.00     0.029 A 
ATOM     62  N   UNL     1       5.424  14.958   7.052  1.00  0.00    -0.354 N 
ATOM     63  N   UNL     1       4.241  19.093   8.113  1.00  0.00    -0.248 NA
ATOM     64  C   UNL     1       4.906  19.930   6.046  1.00  0.00     0.031 C 
ATOM     65  C   UNL     1       6.178  16.438   5.603  1.00  0.00     0.029 A 
ATOM     66  C   UNL     1       5.788  16.285   6.926  1.00  0.00     0.049 A 
ATOM     67  H   UNL     1       5.298  14.478   7.902  1.00  0.00     0.167 HD
ATOM     68  C   UNL     1       5.404  18.484   7.761  1.00  0.00     0.074 A 
ATOM     69  C   UNL     1       5.891  19.232   6.619  1.00  0.00     0.031 C 
ATOM     70  C   UNL     1       5.487  17.161   8.035  1.00  0.00     0.034 A 
BRANCH  57  71
ATOM     71  C   UNL     1       3.656  12.592   6.737  1.00  0.00     0.023 A 
ATOM     72  C   UNL     1       4.063  11.249   6.760  1.00  0.00     0.012 A 
ATOM     73  C   UNL     1       2.630  13.012   7.623  1.00  0.00     0.148 A 
ATOM     74  C   UNL     1       3.420  10.332   7.595  1.00  0.00     0.002 A 
ATOM     75  C   UNL     1       1.920  12.076   8.365  1.00  0.00     0.091 A 
ATOM     76  F   UNL     1       2.350  14.323   7.712  1.00  0.00    -0.205 F 
ATOM     77  C   UNL     1       2.325  10.734   8.363  1.00  0.00     0.022 A 
BRANCH  75  78
ATOM     78  S   UNL     1       0.343  12.471   9.145  1.00  0.00     0.127 S 
ATOM     79  O   UNL     1      -0.501  11.341   8.743  1.00  0.00    -0.237 OA
ATOM     80  O   UNL     1       0.675  12.495  10.565  1.00  0.00    -0.237 OA
ATOM     81  O   UNL     1      -0.087  13.745   8.580  1.00  0.00    -0.744 OA
ENDBRANCH  75  78
ENDBRANCH  57  71
BRANCH  58  82
ATOM     82  C   UNL     1       2.619  21.745   7.446  1.00  0.00     0.023 A 
ATOM     83  C   UNL     1       3.633  22.027   8.434  1.00  0.00     0.012 A 
ATOM     84  C   UNL     1       2.170  22.890   6.745  1.00  0.00     0.148 A 
ATOM     85  C   UNL     1       4.252  23.279   8.614  1.00  0.00     0.002 A 
ATOM     86  C   UNL     1       2.759  24.170   6.971  1.00  0.00     0.091 A 
ATOM     87  F   UNL     1       1.250  22.727   5.786  1.00  0.00    -0.205 F 
ATOM     88  C   UNL     1       3.821  24.354   7.871  1.00  0.00     0.022 A 
BRANCH  86  89
ATOM     89  S   UNL     1       2.266  25.679   6.101  1.00  0.00     0.127 S 
ATOM     90  O   UNL     1       2.328  26.696   7.154  1.00  0.00    -0.237 OA
ATOM     91  O   UNL     1       3.311  25.802   5.086  1.00  0.00    -0.237 OA
ATOM     92  O   UNL     1       0.923  25.411   5.606  1.00  0.00    -0.744 OA
ENDBRANCH  86  89
ENDBRANCH  58  82
BRANCH  70  93
ATOM     93  C   UNL     1       4.908  16.674   9.358  1.00  0.00     0.023 A 
ATOM     94  C   UNL     1       3.642  17.037   9.876  1.00  0.00     0.012 A 
ATOM     95  C   UNL     1       5.678  15.778  10.114  1.00  0.00     0.148 A 
ATOM     96  C   UNL     1       3.186  16.563  11.110  1.00  0.00     0.002 A 
ATOM     97  C   UNL     1       5.196  15.253  11.310  1.00  0.00     0.091 A 
ATOM     98  F   UNL     1       6.891  15.442   9.648  1.00  0.00    -0.205 F 
ATOM     99  C   UNL     1       3.956  15.652  11.822  1.00  0.00     0.022 A 
BRANCH  97 100
ATOM    100  S   UNL     1       6.139  14.003  12.181  1.00  0.00     0.127 S 
ATOM    101  O   UNL     1       6.948  14.811  13.091  1.00  0.00    -0.237 OA
ATOM    102  O   UNL     1       5.116  13.191  12.835  1.00  0.00    -0.237 OA
ATOM    103  O   UNL     1       6.880  13.301  11.136  1.00  0.00    -0.744 OA
ENDBRANCH  97 100
ENDBRANCH  70  93
ENDBRANCH  44  45
ENDBRANCH  37  39
ENDBRANCH  36  37
ENDBRANCH   1  36
TORSDOF 18
