REMARK SMILES O=C(N[C@@H](Cc1ccc(O)cc1)C(=O)N[C@@H](CO)C(=O)OCCOC(=O)c1ccc(-c2c3nc(c(-c4cccc(S(=O)(=O)[O-])c4F)c4ccc([nH]4)c(-c4cccc(S(=O)(=O)[O-])c4F)c4nc(c(-c5cccc(S(=O)(=O)[O-])c5F)c5ccc2[nH]5)C=C4)C=C3)cc1)c1ccc(F)cc1
REMARK SMILES IDX 22 1 21 2 19 3 20 4 16 5 15 6 13 7 14 8 4 10 3 11 1 12 2 13
REMARK SMILES IDX 90 15 91 16 96 17 92 18 95 19 93 20 94 21 5 22 6 23 7 24
REMARK SMILES IDX 12 25 8 26 11 27 9 28 10 29 17 31 18 32 23 34 24 35 25 36
REMARK SMILES IDX 26 37 27 38 28 39 89 40 29 41 88 42 30 43 31 44 32 45 82 46
REMARK SMILES IDX 33 47 87 48 81 49 83 50 34 51 86 52 80 53 79 54 35 56 67 57
REMARK SMILES IDX 47 58 66 59 48 60 51 61 65 62 84 63 49 64 50 65 64 67 85 68
REMARK SMILES IDX 52 69 36 70 37 71 45 72 38 73 40 74 46 75 39 76 41 77 42 78
REMARK SMILES IDX 43 79 44 80 68 81 69 82 77 83 70 84 72 85 78 86 71 87 73 88
REMARK SMILES IDX 74 89 75 90 76 91 53 92 54 93 62 94 55 95 57 96 63 97 56 98
REMARK SMILES IDX 58 99 59 100 60 101 61 102
REMARK H PARENT 15 9 3 14 10 30 18 33 83 55 51 66
REMARK Flexibility Score: inf
ROOT
ATOM      1  C   UNL     1       6.137   4.593   5.325  1.00  0.00     0.274 C 
ENDROOT
BRANCH   1   2
ATOM      2  O   UNL     1       5.041   3.689   5.084  1.00  0.00    -0.460 OA
BRANCH   2   3
ATOM      3  C   UNL     1       5.289   2.361   4.972  1.00  0.00     0.331 C 
ATOM      4  O   UNL     1       6.398   1.843   5.008  1.00  0.00    -0.250 OA
BRANCH   3   5
ATOM      5  C   UNL     1       3.983   1.589   4.771  1.00  0.00     0.218 C 
BRANCH   5   6
ATOM      6  N   UNL     1       4.260   0.328   4.105  1.00  0.00    -0.339 N 
ATOM      7  C   UNL     1       4.316   0.044   2.781  1.00  0.00     0.243 C 
ATOM      8  O   UNL     1       4.867  -1.036   2.524  1.00  0.00    -0.273 OA
ATOM      9  H   UNL     1       4.432  -0.433   4.705  1.00  0.00     0.164 HD
BRANCH   7  10
ATOM     10  C   UNL     1       3.615   0.852   1.638  1.00  0.00     0.176 C 
BRANCH  10  11
ATOM     11  N   UNL     1       2.302   0.315   1.301  1.00  0.00    -0.340 N 
ATOM     12  O   UNL     1       0.706  -0.644   0.052  1.00  0.00    -0.269 OA
ATOM     13  C   UNL     1       1.905  -0.427   0.213  1.00  0.00     0.251 C 
ATOM     14  H   UNL     1       1.591   0.513   1.952  1.00  0.00     0.164 HD
BRANCH  13  15
ATOM     15  C   UNL     1       2.868  -0.975  -0.779  1.00  0.00     0.040 A 
ATOM     16  C   UNL     1       3.912  -1.823  -0.392  1.00  0.00     0.017 A 
ATOM     17  C   UNL     1       2.628  -0.760  -2.144  1.00  0.00     0.017 A 
ATOM     18  C   UNL     1       4.744  -2.406  -1.353  1.00  0.00     0.040 A 
ATOM     19  C   UNL     1       3.450  -1.360  -3.106  1.00  0.00     0.040 A 
ATOM     20  C   UNL     1       4.502  -2.174  -2.701  1.00  0.00     0.123 A 
ATOM     21  F   UNL     1       5.275  -2.768  -3.620  1.00  0.00    -0.207 F 
ENDBRANCH  13  15
ENDBRANCH  10  11
BRANCH  10  22
ATOM     22  C   UNL     1       3.729   2.392   1.530  1.00  0.00     0.070 C 
BRANCH  22  23
ATOM     23  C   UNL     1       2.973   3.487   2.259  1.00  0.00    -0.045 A 
ATOM     24  C   UNL     1       3.620   4.740   2.345  1.00  0.00     0.007 A 
ATOM     25  C   UNL     1       1.749   3.348   2.916  1.00  0.00     0.007 A 
ATOM     26  C   UNL     1       3.175   5.749   3.195  1.00  0.00     0.046 A 
ATOM     27  C   UNL     1       1.308   4.353   3.792  1.00  0.00     0.046 A 
ATOM     28  C   UNL     1       2.045   5.522   3.957  1.00  0.00     0.115 A 
BRANCH  28  29
ATOM     29  O   UNL     1       1.639   6.422   4.896  1.00  0.00    -0.508 OA
ATOM     30  H   UNL     1       2.120   7.216   5.024  1.00  0.00     0.293 HD
ENDBRANCH  28  29
ENDBRANCH  22  23
ENDBRANCH  10  22
ENDBRANCH   7  10
ENDBRANCH   5   6
BRANCH   5  31
ATOM     31  C   UNL     1       3.181   1.441   6.059  1.00  0.00     0.193 C 
BRANCH  31  32
ATOM     32  O   UNL     1       3.888   0.724   7.064  1.00  0.00    -0.394 OA
ATOM     33  H   UNL     1       4.077  -0.174   6.749  1.00  0.00     0.210 HD
ENDBRANCH  31  32
ENDBRANCH   5  31
ENDBRANCH   3   5
ENDBRANCH   2   3
ENDBRANCH   1   2
BRANCH   1  34
ATOM     34  C   UNL     1       7.319   4.521   4.351  1.00  0.00     0.275 C 
BRANCH  34  35
ATOM     35  O   UNL     1       6.877   4.671   2.994  1.00  0.00    -0.458 OA
BRANCH  35  36
ATOM     36  C   UNL     1       7.878   4.565   2.073  1.00  0.00     0.338 C 
ATOM     37  O   UNL     1       9.050   4.348   2.278  1.00  0.00    -0.246 OA
BRANCH  36  38
ATOM     38  C   UNL     1       7.280   4.823   0.750  1.00  0.00     0.060 A 
ATOM     39  C   UNL     1       6.444   3.862   0.185  1.00  0.00     0.016 A 
ATOM     40  C   UNL     1       7.497   6.038   0.103  1.00  0.00     0.016 A 
ATOM     41  C   UNL     1       5.698   4.170  -0.950  1.00  0.00     0.010 A 
ATOM     42  C   UNL     1       6.808   6.318  -1.084  1.00  0.00     0.010 A 
ATOM     43  C   UNL     1       5.881   5.397  -1.599  1.00  0.00    -0.014 A 
BRANCH  43  44
ATOM     44  C   UNL     1       5.218   5.619  -2.906  1.00  0.00     0.031 A 
ATOM     45  C   UNL     1       5.777   4.917  -4.110  1.00  0.00     0.074 A 
ATOM     46  C   UNL     1       4.103   6.366  -3.011  1.00  0.00     0.049 A 
ATOM     47  N   UNL     1       5.392   4.979  -5.356  1.00  0.00    -0.248 NA
ATOM     48  C   UNL     1       6.895   3.988  -3.869  1.00  0.00     0.031 C 
ATOM     49  C   UNL     1       3.384   6.976  -1.893  1.00  0.00     0.029 A 
ATOM     50  N   UNL     1       3.373   6.731  -4.117  1.00  0.00    -0.354 N 
ATOM     51  C   UNL     1       6.226   4.110  -6.046  1.00  0.00     0.074 A 
ATOM     52  C   UNL     1       7.108   3.499  -5.079  1.00  0.00     0.031 C 
ATOM     53  C   UNL     1       2.328   7.659  -2.374  1.00  0.00     0.029 A 
ATOM     54  C   UNL     1       2.325   7.579  -3.833  1.00  0.00     0.049 A 
ATOM     55  H   UNL     1       3.581   6.417  -5.026  1.00  0.00     0.167 HD
ATOM     56  C   UNL     1       6.276   3.862  -7.374  1.00  0.00     0.034 A 
ATOM     57  C   UNL     1       1.492   8.241  -4.665  1.00  0.00     0.034 A 
ATOM     58  C   UNL     1       5.455   4.529  -8.342  1.00  0.00     0.049 A 
ATOM     59  C   UNL     1       1.670   8.064  -6.156  1.00  0.00     0.074 A 
ATOM     60  C   UNL     1       5.508   4.447  -9.720  1.00  0.00     0.029 A 
ATOM     61  N   UNL     1       4.447   5.427  -8.027  1.00  0.00    -0.354 N 
ATOM     62  N   UNL     1       2.463   7.242  -6.802  1.00  0.00    -0.248 NA
ATOM     63  C   UNL     1       0.844   8.908  -7.034  1.00  0.00     0.031 C 
ATOM     64  C   UNL     1       4.548   5.321 -10.241  1.00  0.00     0.029 A 
ATOM     65  C   UNL     1       3.879   5.922  -9.185  1.00  0.00     0.049 A 
ATOM     66  H   UNL     1       4.177   5.676  -7.114  1.00  0.00     0.167 HD
ATOM     67  C   UNL     1       2.219   7.455  -8.155  1.00  0.00     0.074 A 
ATOM     68  C   UNL     1       1.183   8.464  -8.237  1.00  0.00     0.031 C 
ATOM     69  C   UNL     1       2.812   6.889  -9.235  1.00  0.00     0.034 A 
BRANCH  56  70
ATOM     70  C   UNL     1       7.312   2.880  -7.838  1.00  0.00     0.023 A 
ATOM     71  C   UNL     1       7.095   1.498  -7.668  1.00  0.00     0.012 A 
ATOM     72  C   UNL     1       8.517   3.331  -8.408  1.00  0.00     0.148 A 
ATOM     73  C   UNL     1       8.079   0.580  -8.031  1.00  0.00     0.002 A 
ATOM     74  C   UNL     1       9.480   2.409  -8.796  1.00  0.00     0.091 A 
ATOM     75  F   UNL     1       8.712   4.652  -8.526  1.00  0.00    -0.205 F 
ATOM     76  C   UNL     1       9.267   1.034  -8.600  1.00  0.00     0.022 A 
BRANCH  74  77
ATOM     77  S   UNL     1      11.027   2.893  -9.567  1.00  0.00     0.127 S 
ATOM     78  O   UNL     1      11.995   2.545  -8.527  1.00  0.00    -0.237 OA
ATOM     79  O   UNL     1      11.062   2.032 -10.748  1.00  0.00    -0.237 OA
ATOM     80  O   UNL     1      10.907   4.316  -9.852  1.00  0.00    -0.744 OA
ENDBRANCH  74  77
ENDBRANCH  56  70
BRANCH  57  81
ATOM     81  C   UNL     1       0.439   9.159  -4.131  1.00  0.00     0.023 A 
ATOM     82  C   UNL     1      -0.921   8.887  -4.378  1.00  0.00     0.012 A 
ATOM     83  C   UNL     1       0.776  10.319  -3.405  1.00  0.00     0.148 A 
ATOM     84  C   UNL     1      -1.918   9.763  -3.939  1.00  0.00     0.002 A 
ATOM     85  C   UNL     1      -0.223  11.155  -2.918  1.00  0.00     0.091 A 
ATOM     86  F   UNL     1       2.074  10.595  -3.212  1.00  0.00    -0.205 F 
ATOM     87  C   UNL     1      -1.571  10.890  -3.199  1.00  0.00     0.022 A 
BRANCH  85  88
ATOM     88  S   UNL     1       0.141  12.553  -1.849  1.00  0.00     0.127 S 
ATOM     89  O   UNL     1      -0.020  13.681  -2.762  1.00  0.00    -0.237 OA
ATOM     90  O   UNL     1      -0.898  12.436  -0.825  1.00  0.00    -0.237 OA
ATOM     91  O   UNL     1       1.491  12.320  -1.354  1.00  0.00    -0.744 OA
ENDBRANCH  85  88
ENDBRANCH  57  81
BRANCH  69  92
ATOM     92  C   UNL     1       2.355   7.324 -10.602  1.00  0.00     0.023 A 
ATOM     93  C   UNL     1       2.762   8.573 -11.107  1.00  0.00     0.012 A 
ATOM     94  C   UNL     1       1.632   6.441 -11.428  1.00  0.00     0.148 A 
ATOM     95  C   UNL     1       2.443   8.946 -12.412  1.00  0.00     0.002 A 
ATOM     96  C   UNL     1       1.359   6.800 -12.742  1.00  0.00     0.091 A 
ATOM     97  F   UNL     1       1.241   5.264 -10.919  1.00  0.00    -0.205 F 
ATOM     98  C   UNL     1       1.756   8.054 -13.233  1.00  0.00     0.022 A 
BRANCH  96  99
ATOM     99  S   UNL     1       0.572   5.676 -13.902  1.00  0.00     0.127 S 
ATOM    100  O   UNL     1      -0.749   6.284 -14.056  1.00  0.00    -0.237 OA
ATOM    101  O   UNL     1       1.436   5.788 -15.077  1.00  0.00    -0.237 OA
ATOM    102  O   UNL     1       0.585   4.366 -13.264  1.00  0.00    -0.744 OA
ENDBRANCH  96  99
ENDBRANCH  69  92
ENDBRANCH  43  44
ENDBRANCH  36  38
ENDBRANCH  35  36
ENDBRANCH  34  35
ENDBRANCH   1  34
TORSDOF 23
