REMARK SMILES CC(C)=C1[C@H]2CC[C@@H]1[C@@H](C(=O)Nc1cc(C)cc(C)c1)[C@@H]2C(=O)OCCOC(=O)c1ccc(-c2c3nc(c(-c4cccc(S(=O)(=O)[O-])c4F)c4ccc([nH]4)c(-c4cccc(S(=O)(=O)[O-])c4F)c4nc(c(-c5cccc(S(=O)(=O)[O-])c5F)c5ccc2[nH]5)C=C4)C=C3)cc1
REMARK SMILES IDX 26 1 25 2 24 3 22 4 23 5 21 6 1 7 2 8 3 9 4 10 5 11 8 12
REMARK SMILES IDX 6 13 7 14 9 15 10 16 11 17 12 18 13 20 14 21 20 22 15 23
REMARK SMILES IDX 18 24 16 25 17 26 19 27 27 28 28 29 29 30 30 31 31 32 92 33
REMARK SMILES IDX 32 34 91 35 33 36 34 37 35 38 85 39 36 40 90 41 84 42 86 43
REMARK SMILES IDX 37 44 89 45 83 46 82 47 38 49 70 50 50 51 69 52 51 53 54 54
REMARK SMILES IDX 68 55 87 56 52 57 53 58 67 60 88 61 55 62 39 63 40 64 48 65
REMARK SMILES IDX 41 66 43 67 49 68 42 69 44 70 45 71 46 72 47 73 71 74 72 75
REMARK SMILES IDX 80 76 73 77 75 78 81 79 74 80 76 81 77 82 78 83 79 84 56 85
REMARK SMILES IDX 57 86 65 87 58 88 60 89 66 90 59 91 61 92 62 93 63 94 64 95
REMARK H PARENT 12 19 86 48 54 59
REMARK Flexibility Score: inf
ROOT
ATOM      1  C   UNL     1       2.755   4.604   7.336  1.00  0.00     0.275 C 
ENDROOT
BRANCH   1   2
ATOM      2  C   UNL     1       1.369   4.210   6.825  1.00  0.00     0.274 C 
BRANCH   2   3
ATOM      3  O   UNL     1       1.460   3.394   5.640  1.00  0.00    -0.462 OA
BRANCH   3   4
ATOM      4  C   UNL     1       0.976   3.932   4.494  1.00  0.00     0.310 C 
ATOM      5  O   UNL     1       0.442   5.033   4.414  1.00  0.00    -0.252 OA
BRANCH   4   6
ATOM      6  C   UNL     1       1.081   3.013   3.292  1.00  0.00     0.119 C 
ATOM      7  C   UNL     1       0.644  -0.586   0.349  1.00  0.00     0.039 C 
ATOM      8  C   UNL     1      -0.082   0.505   1.088  1.00  0.00    -0.077 C 
ATOM      9  C   UNL     1      -1.387   0.929   0.476  1.00  0.00     0.039 C 
ATOM     10  C   UNL     1       0.385   1.040   2.228  1.00  0.00    -0.064 C 
ATOM     11  C   UNL     1      -0.164   2.116   3.128  1.00  0.00     0.030 C 
ATOM     12  C   UNL     1       1.580   0.673   3.064  1.00  0.00     0.029 C 
ATOM     13  C   UNL     1      -0.397   1.239   4.362  1.00  0.00     0.009 C 
ATOM     14  C   UNL     1       0.834   0.309   4.366  1.00  0.00     0.009 C 
ATOM     15  C   UNL     1       2.269   2.044   3.227  1.00  0.00     0.101 C 
BRANCH  15  16
ATOM     16  C   UNL     1       3.409   2.185   2.199  1.00  0.00     0.228 C 
ATOM     17  O   UNL     1       4.553   1.886   2.582  1.00  0.00    -0.274 OA
ATOM     18  N   UNL     1       3.316   2.409   0.863  1.00  0.00    -0.326 N 
ATOM     19  H   UNL     1       4.152   2.195   0.388  1.00  0.00     0.169 HD
BRANCH  18  20
ATOM     20  C   UNL     1       2.320   2.872  -0.000  1.00  0.00     0.041 A 
ATOM     21  C   UNL     1       1.582   4.027   0.228  1.00  0.00     0.029 A 
ATOM     22  C   UNL     1       2.134   2.181  -1.200  1.00  0.00     0.029 A 
ATOM     23  C   UNL     1       0.512   4.374  -0.606  1.00  0.00    -0.049 A 
ATOM     24  C   UNL     1       1.101   2.534  -2.079  1.00  0.00    -0.049 A 
ATOM     25  C   UNL     1      -0.421   5.483  -0.218  1.00  0.00     0.044 C 
ATOM     26  C   UNL     1       0.269   3.611  -1.753  1.00  0.00     0.007 A 
ATOM     27  C   UNL     1       0.813   1.699  -3.290  1.00  0.00     0.044 C 
ENDBRANCH  18  20
ENDBRANCH  15  16
ENDBRANCH   4   6
ENDBRANCH   3   4
ENDBRANCH   2   3
ENDBRANCH   1   2
BRANCH   1  28
ATOM     28  O   UNL     1       3.454   5.417   6.377  1.00  0.00    -0.458 OA
BRANCH  28  29
ATOM     29  C   UNL     1       4.259   4.725   5.542  1.00  0.00     0.338 C 
ATOM     30  O   UNL     1       4.460   3.516   5.550  1.00  0.00    -0.246 OA
BRANCH  29  31
ATOM     31  C   UNL     1       4.806   5.618   4.514  1.00  0.00     0.060 A 
ATOM     32  C   UNL     1       4.405   5.426   3.191  1.00  0.00     0.016 A 
ATOM     33  C   UNL     1       5.782   6.563   4.830  1.00  0.00     0.016 A 
ATOM     34  C   UNL     1       5.014   6.141   2.164  1.00  0.00     0.010 A 
ATOM     35  C   UNL     1       6.376   7.300   3.800  1.00  0.00     0.010 A 
ATOM     36  C   UNL     1       6.018   7.073   2.459  1.00  0.00    -0.014 A 
BRANCH  36  37
ATOM     37  C   UNL     1       6.718   7.781   1.360  1.00  0.00     0.031 A 
ATOM     38  C   UNL     1       8.142   7.431   1.025  1.00  0.00     0.074 A 
ATOM     39  C   UNL     1       6.079   8.745   0.673  1.00  0.00     0.049 A 
ATOM     40  N   UNL     1       8.935   7.968   0.135  1.00  0.00    -0.248 NA
ATOM     41  C   UNL     1       8.756   6.338   1.797  1.00  0.00     0.031 C 
ATOM     42  C   UNL     1       4.703   9.181   0.914  1.00  0.00     0.029 A 
ATOM     43  N   UNL     1       6.510   9.546  -0.355  1.00  0.00    -0.354 N 
ATOM     44  C   UNL     1      10.152   7.310   0.264  1.00  0.00     0.074 A 
ATOM     45  C   UNL     1       9.995   6.336   1.323  1.00  0.00     0.031 C 
ATOM     46  C   UNL     1       4.406  10.179   0.066  1.00  0.00     0.029 A 
ATOM     47  C   UNL     1       5.575  10.470  -0.759  1.00  0.00     0.049 A 
ATOM     48  H   UNL     1       7.402   9.466  -0.763  1.00  0.00     0.167 HD
ATOM     49  C   UNL     1      11.291   7.487  -0.448  1.00  0.00     0.034 A 
ATOM     50  C   UNL     1       5.657  11.448  -1.682  1.00  0.00     0.034 A 
ATOM     51  C   UNL     1      11.432   8.422  -1.533  1.00  0.00     0.049 A 
ATOM     52  C   UNL     1       6.925  11.603  -2.477  1.00  0.00     0.074 A 
ATOM     53  C   UNL     1      12.532   8.644  -2.342  1.00  0.00     0.029 A 
ATOM     54  N   UNL     1      10.439   9.288  -1.964  1.00  0.00    -0.354 N 
ATOM     55  N   UNL     1       8.029  10.898  -2.415  1.00  0.00    -0.248 NA
ATOM     56  C   UNL     1       6.947  12.665  -3.493  1.00  0.00     0.031 C 
ATOM     57  C   UNL     1      12.205   9.647  -3.262  1.00  0.00     0.029 A 
ATOM     58  C   UNL     1      10.898  10.044  -3.030  1.00  0.00     0.049 A 
ATOM     59  H   UNL     1       9.539   9.356  -1.570  1.00  0.00     0.167 HD
ATOM     60  C   UNL     1       8.864  11.410  -3.402  1.00  0.00     0.074 A 
ATOM     61  C   UNL     1       8.129  12.469  -4.063  1.00  0.00     0.031 C 
ATOM     62  C   UNL     1      10.133  11.051  -3.719  1.00  0.00     0.034 A 
BRANCH  49  63
ATOM     63  C   UNL     1      12.470   6.613  -0.108  1.00  0.00     0.023 A 
ATOM     64  C   UNL     1      12.471   5.265  -0.519  1.00  0.00     0.012 A 
ATOM     65  C   UNL     1      13.594   7.134   0.561  1.00  0.00     0.148 A 
ATOM     66  C   UNL     1      13.562   4.441  -0.246  1.00  0.00     0.002 A 
ATOM     67  C   UNL     1      14.694   6.315   0.798  1.00  0.00     0.091 A 
ATOM     68  F   UNL     1      13.564   8.411   0.967  1.00  0.00    -0.205 F 
ATOM     69  C   UNL     1      14.676   4.968   0.402  1.00  0.00     0.022 A 
BRANCH  67  70
ATOM     70  S   UNL     1      16.200   6.926   1.564  1.00  0.00     0.127 S 
ATOM     71  O   UNL     1      16.082   6.391   2.919  1.00  0.00    -0.237 OA
ATOM     72  O   UNL     1      17.242   6.298   0.750  1.00  0.00    -0.237 OA
ATOM     73  O   UNL     1      16.142   8.377   1.452  1.00  0.00    -0.744 OA
ENDBRANCH  67  70
ENDBRANCH  49  63
BRANCH  50  74
ATOM     74  C   UNL     1       4.475  12.315  -1.945  1.00  0.00     0.023 A 
ATOM     75  C   UNL     1       3.770  12.169  -3.155  1.00  0.00     0.012 A 
ATOM     76  C   UNL     1       4.022  13.250  -0.995  1.00  0.00     0.148 A 
ATOM     77  C   UNL     1       2.648  12.954  -3.424  1.00  0.00     0.002 A 
ATOM     78  C   UNL     1       2.873  13.992  -1.246  1.00  0.00     0.091 A 
ATOM     79  F   UNL     1       4.719  13.392   0.142  1.00  0.00    -0.205 F 
ATOM     80  C   UNL     1       2.193  13.856  -2.466  1.00  0.00     0.022 A 
BRANCH  78  81
ATOM     81  S   UNL     1       2.147  15.073  -0.009  1.00  0.00     0.127 S 
ATOM     82  O   UNL     1       2.571  16.390  -0.475  1.00  0.00    -0.237 OA
ATOM     83  O   UNL     1       0.718  14.797  -0.158  1.00  0.00    -0.237 OA
ATOM     84  O   UNL     1       2.708  14.634   1.262  1.00  0.00    -0.744 OA
ENDBRANCH  78  81
ENDBRANCH  50  74
BRANCH  62  85
ATOM     85  C   UNL     1      10.803  11.789  -4.847  1.00  0.00     0.023 A 
ATOM     86  C   UNL     1      11.264  13.104  -4.638  1.00  0.00     0.012 A 
ATOM     87  C   UNL     1      11.032  11.165  -6.088  1.00  0.00     0.148 A 
ATOM     88  C   UNL     1      11.917  13.796  -5.657  1.00  0.00     0.002 A 
ATOM     89  C   UNL     1      11.720  11.847  -7.086  1.00  0.00     0.091 A 
ATOM     90  F   UNL     1      10.565   9.922  -6.279  1.00  0.00    -0.205 F 
ATOM     91  C   UNL     1      12.155  13.165  -6.876  1.00  0.00     0.022 A 
BRANCH  89  92
ATOM     92  S   UNL     1      12.136  11.066  -8.650  1.00  0.00     0.127 S 
ATOM     93  O   UNL     1      11.056  11.535  -9.517  1.00  0.00    -0.237 OA
ATOM     94  O   UNL     1      13.450  11.637  -8.952  1.00  0.00    -0.237 OA
ATOM     95  O   UNL     1      12.156   9.635  -8.377  1.00  0.00    -0.744 OA
ENDBRANCH  89  92
ENDBRANCH  62  85
ENDBRANCH  36  37
ENDBRANCH  29  31
ENDBRANCH  28  29
ENDBRANCH   1  28
TORSDOF 16
