REMARK SMILES CC[C@@H]1CCc2c(sc(NC(=O)COCC(=O)OCCOC(=O)c3ccc(-c4c5nc(c(-c6cccc(S(=O)(=O)[O-])c6F)c6ccc([nH]6)c(-c6cccc(S(=O)(=O)[O-])c6F)c6nc(c(-c7cccc(S(=O)(=O)[O-])c7F)c7ccc4[nH]7)C=C6)C=C5)cc3)c2C(N)=O)C1
REMARK SMILES IDX 19 1 18 2 16 3 17 4 15 5 14 6 13 7 11 8 10 9 12 11 9 12 3 13
REMARK SMILES IDX 4 14 91 15 5 16 7 17 6 18 8 19 87 20 2 21 1 22 88 23 89 24
REMARK SMILES IDX 90 25 20 28 21 29 22 30 23 31 24 32 25 33 86 34 26 35 85 36
REMARK SMILES IDX 27 37 28 38 29 39 79 40 30 41 84 42 78 43 80 44 31 45 83 46
REMARK SMILES IDX 77 47 76 48 32 50 64 51 44 52 63 53 45 54 48 55 62 56 81 57
REMARK SMILES IDX 46 58 47 59 61 61 82 62 49 63 33 64 34 65 42 66 35 67 37 68
REMARK SMILES IDX 43 69 36 70 38 71 39 72 40 73 41 74 65 75 66 76 74 77 67 78
REMARK SMILES IDX 69 79 75 80 68 81 70 82 71 83 72 84 73 85 50 86 51 87 59 88
REMARK SMILES IDX 52 89 54 90 60 91 53 92 55 93 56 94 57 95 58 96
REMARK H PARENT 10 10 89 26 89 27 80 49 48 60
REMARK Flexibility Score: inf
ROOT
ATOM      1  C   UNL     1      -5.885  -2.302  -9.430  1.00  0.00     0.274 C 
ENDROOT
BRANCH   1   2
ATOM      2  O   UNL     1      -4.997  -2.600  -8.340  1.00  0.00    -0.460 OA
BRANCH   2   3
ATOM      3  C   UNL     1      -5.586  -2.877  -7.144  1.00  0.00     0.332 C 
ATOM      4  O   UNL     1      -6.780  -2.753  -6.899  1.00  0.00    -0.250 OA
BRANCH   3   5
ATOM      5  C   UNL     1      -4.577  -3.382  -6.119  1.00  0.00     0.283 C 
BRANCH   5   6
ATOM      6  O   UNL     1      -3.331  -3.758  -6.674  1.00  0.00    -0.360 OA
BRANCH   6   7
ATOM      7  C   UNL     1      -3.103  -5.137  -6.806  1.00  0.00     0.261 C 
BRANCH   7   8
ATOM      8  C   UNL     1      -2.880  -5.945  -5.543  1.00  0.00     0.251 C 
ATOM      9  N   UNL     1      -2.135  -5.532  -4.497  1.00  0.00    -0.315 N 
ATOM     10  H   UNL     1      -2.172  -6.174  -3.752  1.00  0.00     0.170 HD
ATOM     11  O   UNL     1      -3.380  -7.073  -5.454  1.00  0.00    -0.272 OA
BRANCH   9  12
ATOM     12  C   UNL     1      -1.338  -4.455  -4.192  1.00  0.00     0.108 A 
ATOM     13  C   UNL     1       1.609  -1.514  -1.566  1.00  0.00    -0.006 C 
ATOM     14  C   UNL     1       2.057  -1.338  -3.035  1.00  0.00     0.009 C 
ATOM     15  C   UNL     1       0.924  -2.890  -1.359  1.00  0.00     0.050 C 
ATOM     16  C   UNL     1       0.879  -1.407  -4.015  1.00  0.00     0.038 C 
ATOM     17  C   UNL     1       0.105  -3.291  -2.552  1.00  0.00     0.011 A 
ATOM     18  C   UNL     1       0.061  -2.640  -3.763  1.00  0.00    -0.019 A 
ATOM     19  S   UNL     1      -0.822  -4.698  -2.562  1.00  0.00    -0.122 S 
ATOM     20  C   UNL     1      -0.831  -3.276  -4.719  1.00  0.00     0.077 A 
BRANCH  13  21
ATOM     21  C   UNL     1       0.704  -0.342  -1.128  1.00  0.00     0.000 C 
ATOM     22  C   UNL     1       0.799  -0.069   0.366  1.00  0.00     0.004 C 
ENDBRANCH  13  21
BRANCH  20  23
ATOM     23  C   UNL     1      -1.058  -2.629  -6.004  1.00  0.00     0.251 C 
ATOM     24  N   UNL     1      -0.623  -3.314  -7.102  1.00  0.00    -0.365 N 
ATOM     25  O   UNL     1      -1.480  -1.487  -6.106  1.00  0.00    -0.269 OA
ATOM     26  H   UNL     1      -0.285  -4.233  -7.006  1.00  0.00     0.159 HD
ATOM     27  H   UNL     1      -0.647  -2.888  -7.989  1.00  0.00     0.159 HD
ENDBRANCH  20  23
ENDBRANCH   9  12
ENDBRANCH   7   8
ENDBRANCH   6   7
ENDBRANCH   5   6
ENDBRANCH   3   5
ENDBRANCH   2   3
ENDBRANCH   1   2
BRANCH   1  28
ATOM     28  C   UNL     1      -5.973  -3.513 -10.355  1.00  0.00     0.275 C 
BRANCH  28  29
ATOM     29  O   UNL     1      -6.423  -4.659  -9.604  1.00  0.00    -0.458 OA
BRANCH  29  30
ATOM     30  C   UNL     1      -5.619  -5.746  -9.664  1.00  0.00     0.338 C 
ATOM     31  O   UNL     1      -4.619  -5.874 -10.354  1.00  0.00    -0.246 OA
BRANCH  30  32
ATOM     32  C   UNL     1      -6.044  -6.786  -8.701  1.00  0.00     0.060 A 
ATOM     33  C   UNL     1      -6.395  -6.448  -7.394  1.00  0.00     0.016 A 
ATOM     34  C   UNL     1      -5.872  -8.127  -9.046  1.00  0.00     0.016 A 
ATOM     35  C   UNL     1      -6.420  -7.438  -6.407  1.00  0.00     0.010 A 
ATOM     36  C   UNL     1      -6.029  -9.125  -8.077  1.00  0.00     0.010 A 
ATOM     37  C   UNL     1      -6.247  -8.795  -6.730  1.00  0.00    -0.014 A 
BRANCH  37  38
ATOM     38  C   UNL     1      -6.278  -9.862  -5.679  1.00  0.00     0.031 A 
ATOM     39  C   UNL     1      -5.166 -10.884  -5.571  1.00  0.00     0.074 A 
ATOM     40  C   UNL     1      -7.329  -9.959  -4.837  1.00  0.00     0.049 A 
ATOM     41  N   UNL     1      -5.136 -12.009  -4.897  1.00  0.00    -0.248 NA
ATOM     42  C   UNL     1      -3.940 -10.626  -6.343  1.00  0.00     0.031 C 
ATOM     43  C   UNL     1      -8.481  -9.058  -4.808  1.00  0.00     0.029 A 
ATOM     44  N   UNL     1      -7.608 -10.879  -3.853  1.00  0.00    -0.354 N 
ATOM     45  C   UNL     1      -3.936 -12.629  -5.231  1.00  0.00     0.074 A 
ATOM     46  C   UNL     1      -3.260 -11.751  -6.164  1.00  0.00     0.031 C 
ATOM     47  C   UNL     1      -9.326  -9.448  -3.845  1.00  0.00     0.029 A 
ATOM     48  C   UNL     1      -8.829 -10.682  -3.249  1.00  0.00     0.049 A 
ATOM     49  H   UNL     1      -6.994 -11.607  -3.604  1.00  0.00     0.167 HD
ATOM     50  C   UNL     1      -3.432 -13.810  -4.793  1.00  0.00     0.034 A 
ATOM     51  C   UNL     1      -9.508 -11.426  -2.355  1.00  0.00     0.034 A 
ATOM     52  C   UNL     1      -4.048 -14.634  -3.783  1.00  0.00     0.049 A 
ATOM     53  C   UNL     1      -8.914 -12.713  -1.861  1.00  0.00     0.074 A 
ATOM     54  C   UNL     1      -3.576 -15.813  -3.228  1.00  0.00     0.029 A 
ATOM     55  N   UNL     1      -5.253 -14.357  -3.156  1.00  0.00    -0.354 N 
ATOM     56  N   UNL     1      -7.761 -13.258  -2.158  1.00  0.00    -0.248 NA
ATOM     57  C   UNL     1      -9.714 -13.482  -0.897  1.00  0.00     0.031 C 
ATOM     58  C   UNL     1      -4.499 -16.252  -2.272  1.00  0.00     0.029 A 
ATOM     59  C   UNL     1      -5.540 -15.340  -2.222  1.00  0.00     0.049 A 
ATOM     60  H   UNL     1      -5.822 -13.577  -3.347  1.00  0.00     0.167 HD
ATOM     61  C   UNL     1      -7.688 -14.424  -1.407  1.00  0.00     0.074 A 
ATOM     62  C   UNL     1      -8.898 -14.488  -0.613  1.00  0.00     0.031 C 
ATOM     63  C   UNL     1      -6.719 -15.372  -1.397  1.00  0.00     0.034 A 
BRANCH  50  64
ATOM     64  C   UNL     1      -2.118 -14.282  -5.367  1.00  0.00     0.023 A 
ATOM     65  C   UNL     1      -0.917 -13.666  -4.962  1.00  0.00     0.012 A 
ATOM     66  C   UNL     1      -2.064 -15.393  -6.234  1.00  0.00     0.148 A 
ATOM     67  C   UNL     1       0.313 -14.128  -5.431  1.00  0.00     0.002 A 
ATOM     68  C   UNL     1      -0.831 -15.874  -6.666  1.00  0.00     0.091 A 
ATOM     69  F   UNL     1      -3.215 -15.959  -6.622  1.00  0.00    -0.205 F 
ATOM     70  C   UNL     1       0.357 -15.237  -6.273  1.00  0.00     0.022 A 
BRANCH  68  71
ATOM     71  S   UNL     1      -0.669 -17.347  -7.684  1.00  0.00     0.127 S 
ATOM     72  O   UNL     1      -0.335 -16.771  -8.986  1.00  0.00    -0.237 OA
ATOM     73  O   UNL     1       0.433 -18.056  -7.032  1.00  0.00    -0.237 OA
ATOM     74  O   UNL     1      -1.954 -18.028  -7.608  1.00  0.00    -0.744 OA
ENDBRANCH  68  71
ENDBRANCH  50  64
BRANCH  51  75
ATOM     75  C   UNL     1     -10.831 -10.953  -1.859  1.00  0.00     0.023 A 
ATOM     76  C   UNL     1     -10.952 -10.522  -0.524  1.00  0.00     0.012 A 
ATOM     77  C   UNL     1     -11.950 -10.876  -2.711  1.00  0.00     0.148 A 
ATOM     78  C   UNL     1     -12.169 -10.040  -0.042  1.00  0.00     0.002 A 
ATOM     79  C   UNL     1     -13.140 -10.334  -2.242  1.00  0.00     0.091 A 
ATOM     80  F   UNL     1     -11.823 -11.314  -3.971  1.00  0.00    -0.205 F 
ATOM     81  C   UNL     1     -13.257  -9.931  -0.903  1.00  0.00     0.022 A 
BRANCH  79  82
ATOM     82  S   UNL     1     -14.533 -10.012  -3.330  1.00  0.00     0.127 S 
ATOM     83  O   UNL     1     -15.441 -11.103  -2.986  1.00  0.00    -0.237 OA
ATOM     84  O   UNL     1     -14.968  -8.686  -2.888  1.00  0.00    -0.237 OA
ATOM     85  O   UNL     1     -13.983 -10.038  -4.679  1.00  0.00    -0.744 OA
ENDBRANCH  79  82
ENDBRANCH  51  75
BRANCH  63  86
ATOM     86  C   UNL     1      -6.919 -16.553  -0.483  1.00  0.00     0.023 A 
ATOM     87  C   UNL     1      -7.873 -17.535  -0.816  1.00  0.00     0.012 A 
ATOM     88  C   UNL     1      -6.144 -16.710   0.682  1.00  0.00     0.148 A 
ATOM     89  C   UNL     1      -8.081 -18.635   0.015  1.00  0.00     0.002 A 
ATOM     90  C   UNL     1      -6.326 -17.832   1.485  1.00  0.00     0.091 A 
ATOM     91  F   UNL     1      -5.257 -15.755   0.997  1.00  0.00    -0.205 F 
ATOM     92  C   UNL     1      -7.301 -18.788   1.159  1.00  0.00     0.022 A 
BRANCH  90  93
ATOM     93  S   UNL     1      -5.308 -18.147   2.931  1.00  0.00     0.127 S 
ATOM     94  O   UNL     1      -6.196 -17.738   4.018  1.00  0.00    -0.237 OA
ATOM     95  O   UNL     1      -5.076 -19.589   2.845  1.00  0.00    -0.237 OA
ATOM     96  O   UNL     1      -4.110 -17.336   2.755  1.00  0.00    -0.744 OA
ENDBRANCH  90  93
ENDBRANCH  63  86
ENDBRANCH  37  38
ENDBRANCH  30  32
ENDBRANCH  29  30
ENDBRANCH  28  29
ENDBRANCH   1  28
TORSDOF 20
