REMARK SMILES CC1(C)CCSC[C@]1(Nc1ccccc1Br)C(=O)OCCOC(=O)c1ccc(-c2c3nc(c(-c4cccc(S(=O)(=O)[O-])c4F)c4ccc([nH]4)c(-c4cccc(S(=O)(=O)[O-])c4F)c4nc(c(-c5cccc(S(=O)(=O)[O-])c5F)c5ccc2[nH]5)C=C4)C=C3)cc1
REMARK SMILES IDX 21 1 20 2 19 3 17 4 18 5 8 6 1 7 2 8 3 9 4 10 5 11 7 12 6 13
REMARK SMILES IDX 9 14 10 16 11 17 15 18 12 19 14 20 16 21 13 22 22 23 23 24
REMARK SMILES IDX 24 25 25 26 26 27 87 28 27 29 86 30 28 31 29 32 30 33 80 34
REMARK SMILES IDX 31 35 85 36 79 37 81 38 32 39 84 40 78 41 77 42 33 44 65 45
REMARK SMILES IDX 45 46 64 47 46 48 49 49 63 50 82 51 47 52 48 53 62 55 83 56
REMARK SMILES IDX 50 57 34 58 35 59 43 60 36 61 38 62 44 63 37 64 39 65 40 66
REMARK SMILES IDX 41 67 42 68 66 69 67 70 75 71 68 72 70 73 76 74 69 75 71 76
REMARK SMILES IDX 72 77 73 78 74 79 51 80 52 81 60 82 53 83 55 84 61 85 54 86
REMARK SMILES IDX 56 87 57 88 58 89 59 90
REMARK H PARENT 9 15 81 43 49 54
REMARK Flexibility Score: inf
ROOT
ATOM      1  C   UNL     1      -1.499   3.180   4.615  1.00  0.00     0.275 C 
ENDROOT
BRANCH   1   2
ATOM      2  C   UNL     1      -1.812   1.703   4.393  1.00  0.00     0.274 C 
BRANCH   2   3
ATOM      3  O   UNL     1      -1.042   1.156   3.301  1.00  0.00    -0.460 OA
BRANCH   3   4
ATOM      4  C   UNL     1      -1.674   1.101   2.098  1.00  0.00     0.333 C 
ATOM      5  O   UNL     1      -2.798   1.564   1.924  1.00  0.00    -0.249 OA
BRANCH   4   6
ATOM      6  C   UNL     1      -0.903   0.271   0.999  1.00  0.00     0.150 C 
ATOM      7  C   UNL     1       1.273  -0.781   0.068  1.00  0.00     0.014 C 
ATOM      8  C   UNL     1       0.655   0.061   1.224  1.00  0.00     0.000 C 
ATOM      9  C   UNL     1       1.012  -0.720   2.511  1.00  0.00     0.014 C 
ATOM     10  C   UNL     1       1.382   1.430   1.305  1.00  0.00     0.020 C 
ATOM     11  C   UNL     1       1.470   2.202   0.002  1.00  0.00     0.070 C 
ATOM     12  C   UNL     1      -1.123   1.041  -0.355  1.00  0.00     0.110 C 
ATOM     13  S   UNL     1      -0.104   2.486  -0.823  1.00  0.00    -0.159 SA
BRANCH   6  14
ATOM     14  N   UNL     1      -1.564  -1.099   0.831  1.00  0.00    -0.368 N 
ATOM     15  H   UNL     1      -1.216  -1.729   0.158  1.00  0.00     0.161 HD
BRANCH  14  16
ATOM     16  C   UNL     1      -2.660  -1.467   1.626  1.00  0.00     0.049 A 
ATOM     17  C   UNL     1      -2.425  -2.109   2.849  1.00  0.00     0.027 A 
ATOM     18  C   UNL     1      -3.997  -1.160   1.298  1.00  0.00     0.041 A 
ATOM     19  C   UNL     1      -3.468  -2.402   3.732  1.00  0.00     0.002 A 
ATOM     20  C   UNL     1      -5.037  -1.406   2.204  1.00  0.00     0.018 A 
ATOM     21  Br  UNL     1      -4.476  -0.421  -0.386  1.00  0.00    -0.049 Br
ATOM     22  C   UNL     1      -4.770  -2.025   3.422  1.00  0.00     0.001 A 
ENDBRANCH  14  16
ENDBRANCH   6  14
ENDBRANCH   4   6
ENDBRANCH   3   4
ENDBRANCH   2   3
ENDBRANCH   1   2
BRANCH   1  23
ATOM     23  O   UNL     1      -1.868   3.934   3.452  1.00  0.00    -0.458 OA
BRANCH  23  24
ATOM     24  C   UNL     1      -0.924   4.761   2.943  1.00  0.00     0.338 C 
ATOM     25  O   UNL     1       0.179   4.986   3.412  1.00  0.00    -0.246 OA
BRANCH  24  26
ATOM     26  C   UNL     1      -1.413   5.360   1.683  1.00  0.00     0.060 A 
ATOM     27  C   UNL     1      -2.126   4.589   0.769  1.00  0.00     0.016 A 
ATOM     28  C   UNL     1      -1.073   6.671   1.357  1.00  0.00     0.016 A 
ATOM     29  C   UNL     1      -2.408   5.079  -0.503  1.00  0.00     0.010 A 
ATOM     30  C   UNL     1      -1.467   7.203   0.123  1.00  0.00     0.010 A 
ATOM     31  C   UNL     1      -2.117   6.404  -0.835  1.00  0.00    -0.014 A 
BRANCH  31  32
ATOM     32  C   UNL     1      -2.499   6.956  -2.164  1.00  0.00     0.031 A 
ATOM     33  C   UNL     1      -1.469   7.636  -3.022  1.00  0.00     0.074 A 
ATOM     34  C   UNL     1      -3.779   6.887  -2.586  1.00  0.00     0.049 A 
ATOM     35  N   UNL     1      -1.642   8.439  -4.039  1.00  0.00    -0.248 NA
ATOM     36  C   UNL     1      -0.056   7.399  -2.680  1.00  0.00     0.031 C 
ATOM     37  C   UNL     1      -4.872   6.215  -1.881  1.00  0.00     0.029 A 
ATOM     38  N   UNL     1      -4.385   7.413  -3.702  1.00  0.00    -0.354 N 
ATOM     39  C   UNL     1      -0.373   8.880  -4.396  1.00  0.00     0.074 A 
ATOM     40  C   UNL     1       0.566   8.229  -3.508  1.00  0.00     0.031 C 
ATOM     41  C   UNL     1      -6.005   6.353  -2.582  1.00  0.00     0.029 A 
ATOM     42  C   UNL     1      -5.747   7.221  -3.721  1.00  0.00     0.049 A 
ATOM     43  H   UNL     1      -3.893   7.880  -4.416  1.00  0.00     0.167 HD
ATOM     44  C   UNL     1      -0.031   9.749  -5.376  1.00  0.00     0.034 A 
ATOM     45  C   UNL     1      -6.703   7.744  -4.515  1.00  0.00     0.034 A 
ATOM     46  C   UNL     1      -0.967  10.312  -6.312  1.00  0.00     0.049 A 
ATOM     47  C   UNL     1      -6.302   8.717  -5.583  1.00  0.00     0.074 A 
ATOM     48  C   UNL     1      -0.716  11.158  -7.379  1.00  0.00     0.029 A 
ATOM     49  N   UNL     1      -2.333  10.072  -6.305  1.00  0.00    -0.354 N 
ATOM     50  N   UNL     1      -5.101   9.123  -5.917  1.00  0.00    -0.248 NA
ATOM     51  C   UNL     1      -7.384   9.314  -6.376  1.00  0.00     0.031 C 
ATOM     52  C   UNL     1      -1.933  11.436  -8.011  1.00  0.00     0.029 A 
ATOM     53  C   UNL     1      -2.941  10.760  -7.341  1.00  0.00     0.049 A 
ATOM     54  H   UNL     1      -2.802   9.498  -5.657  1.00  0.00     0.167 HD
ATOM     55  C   UNL     1      -5.280  10.026  -6.956  1.00  0.00     0.074 A 
ATOM     56  C   UNL     1      -6.704  10.078  -7.222  1.00  0.00     0.031 C 
ATOM     57  C   UNL     1      -4.355  10.769  -7.610  1.00  0.00     0.034 A 
BRANCH  44  58
ATOM     58  C   UNL     1       1.418  10.135  -5.504  1.00  0.00     0.023 A 
ATOM     59  C   UNL     1       2.333   9.244  -6.096  1.00  0.00     0.012 A 
ATOM     60  C   UNL     1       1.859  11.412  -5.099  1.00  0.00     0.148 A 
ATOM     61  C   UNL     1       3.670   9.608  -6.265  1.00  0.00     0.002 A 
ATOM     62  C   UNL     1       3.184  11.781  -5.302  1.00  0.00     0.091 A 
ATOM     63  F   UNL     1       0.979  12.237  -4.513  1.00  0.00    -0.205 F 
ATOM     64  C   UNL     1       4.092  10.878  -5.878  1.00  0.00     0.022 A 
BRANCH  62  65
ATOM     65  S   UNL     1       3.801  13.420  -4.898  1.00  0.00     0.127 S 
ATOM     66  O   UNL     1       4.556  13.158  -3.673  1.00  0.00    -0.237 OA
ATOM     67  O   UNL     1       4.627  13.739  -6.064  1.00  0.00    -0.237 OA
ATOM     68  O   UNL     1       2.624  14.262  -4.744  1.00  0.00    -0.744 OA
ENDBRANCH  62  65
ENDBRANCH  44  58
BRANCH  45  69
ATOM     69  C   UNL     1      -8.128   7.368  -4.292  1.00  0.00     0.023 A 
ATOM     70  C   UNL     1      -8.784   6.560  -5.238  1.00  0.00     0.012 A 
ATOM     71  C   UNL     1      -8.807   7.731  -3.111  1.00  0.00     0.148 A 
ATOM     72  C   UNL     1     -10.091   6.122  -5.013  1.00  0.00     0.002 A 
ATOM     73  C   UNL     1     -10.082   7.235  -2.862  1.00  0.00     0.091 A 
ATOM     74  F   UNL     1      -8.182   8.529  -2.233  1.00  0.00    -0.205 F 
ATOM     75  C   UNL     1     -10.732   6.442  -3.818  1.00  0.00     0.022 A 
BRANCH  73  76
ATOM     76  S   UNL     1     -10.892   7.466  -1.274  1.00  0.00     0.127 S 
ATOM     77  O   UNL     1     -11.803   8.571  -1.557  1.00  0.00    -0.237 OA
ATOM     78  O   UNL     1     -11.542   6.171  -1.064  1.00  0.00    -0.237 OA
ATOM     79  O   UNL     1      -9.814   7.746  -0.333  1.00  0.00    -0.744 OA
ENDBRANCH  73  76
ENDBRANCH  45  69
BRANCH  57  80
ATOM     80  C   UNL     1      -4.854  11.711  -8.669  1.00  0.00     0.023 A 
ATOM     81  C   UNL     1      -5.449  12.926  -8.280  1.00  0.00     0.012 A 
ATOM     82  C   UNL     1      -4.673  11.430 -10.037  1.00  0.00     0.148 A 
ATOM     83  C   UNL     1      -5.876  13.844  -9.238  1.00  0.00     0.002 A 
ATOM     84  C   UNL     1      -5.067  12.366 -10.986  1.00  0.00     0.091 A 
ATOM     85  F   UNL     1      -4.122  10.258 -10.382  1.00  0.00    -0.205 F 
ATOM     86  C   UNL     1      -5.675  13.569 -10.588  1.00  0.00     0.022 A 
BRANCH  84  87
ATOM     87  S   UNL     1      -4.782  12.133 -12.743  1.00  0.00     0.127 S 
ATOM     88  O   UNL     1      -6.133  11.868 -13.233  1.00  0.00    -0.237 OA
ATOM     89  O   UNL     1      -4.231  13.428 -13.144  1.00  0.00    -0.237 OA
ATOM     90  O   UNL     1      -3.848  11.020 -12.854  1.00  0.00    -0.744 OA
ENDBRANCH  84  87
ENDBRANCH  57  80
ENDBRANCH  31  32
ENDBRANCH  24  26
ENDBRANCH  23  24
ENDBRANCH   1  23
TORSDOF 16
