REMARK SMILES CCc1ccsc1C(=O)N(CC(=O)OCCOC(=O)c1ccc(-c2c3nc(c(-c4cccc(S(=O)(=O)[O-])c4F)c4ccc([nH]4)c(-c4cccc(S(=O)(=O)[O-])c4F)c4nc(c(-c5cccc(S(=O)(=O)[O-])c5F)c5ccc2[nH]5)C=C4)C=C3)cc1)c1ccccc1N
REMARK SMILES IDX 15 1 14 2 12 3 13 4 11 5 10 6 8 7 9 8 7 9 3 10 4 11 5 12
REMARK SMILES IDX 6 13 2 14 1 15 83 16 84 17 88 18 85 19 87 20 86 21 89 22
REMARK SMILES IDX 16 25 17 26 18 27 19 28 20 29 21 30 82 31 22 32 81 33 23 34
REMARK SMILES IDX 24 35 25 36 75 37 26 38 80 39 74 40 76 41 27 42 79 43 73 44
REMARK SMILES IDX 72 45 28 47 60 48 40 49 59 50 41 51 44 52 58 53 77 54 42 55
REMARK SMILES IDX 43 56 57 58 78 59 45 60 29 61 30 62 38 63 31 64 33 65 39 66
REMARK SMILES IDX 32 67 34 68 35 69 36 70 37 71 61 72 62 73 70 74 63 75 65 76
REMARK SMILES IDX 71 77 64 78 66 79 67 80 68 81 69 82 46 83 47 84 55 85 48 86
REMARK SMILES IDX 50 87 56 88 49 89 51 90 52 91 53 92 54 93
REMARK H PARENT 89 23 89 24 76 46 44 57
REMARK Flexibility Score: inf
ROOT
ATOM      1  C   UNL     1      -2.893   1.625   0.253  1.00  0.00     0.274 C 
ENDROOT
BRANCH   1   2
ATOM      2  O   UNL     1      -1.579   1.471   0.825  1.00  0.00    -0.461 OA
BRANCH   2   3
ATOM      3  C   UNL     1      -0.714   0.793   0.027  1.00  0.00     0.326 C 
ATOM      4  O   UNL     1      -1.048   0.228  -1.013  1.00  0.00    -0.250 OA
BRANCH   3   5
ATOM      5  C   UNL     1       0.750   0.944   0.411  1.00  0.00     0.248 C 
BRANCH   5   6
ATOM      6  N   UNL     1       1.123   1.236   1.779  1.00  0.00    -0.294 N 
BRANCH   6   7
ATOM      7  C   UNL     1       1.407   0.278   2.772  1.00  0.00     0.269 C 
ATOM      8  O   UNL     1       1.800   0.739   3.857  1.00  0.00    -0.268 OA
BRANCH   7   9
ATOM      9  C   UNL     1       1.289  -1.223   2.635  1.00  0.00     0.096 A 
ATOM     10  C   UNL     1       0.983  -2.246   1.709  1.00  0.00    -0.025 A 
ATOM     11  C   UNL     1       1.119  -3.568   2.299  1.00  0.00     0.016 A 
ATOM     12  C   UNL     1       1.480  -3.569   3.612  1.00  0.00     0.066 A 
ATOM     13  S   UNL     1       1.691  -2.003   4.185  1.00  0.00    -0.138 S 
BRANCH  10  14
ATOM     14  C   UNL     1       0.518  -2.258   0.273  1.00  0.00     0.034 C 
ATOM     15  C   UNL     1       1.620  -2.164  -0.777  1.00  0.00     0.009 C 
ENDBRANCH  10  14
ENDBRANCH   7   9
ENDBRANCH   6   7
BRANCH   6  16
ATOM     16  C   UNL     1       1.572   2.609   1.940  1.00  0.00     0.068 A 
ATOM     17  C   UNL     1       0.669   3.649   1.653  1.00  0.00     0.028 A 
ATOM     18  C   UNL     1       2.942   2.925   2.124  1.00  0.00     0.056 A 
ATOM     19  C   UNL     1       1.107   4.964   1.489  1.00  0.00     0.002 A 
ATOM     20  C   UNL     1       3.368   4.244   1.895  1.00  0.00     0.028 A 
ATOM     21  C   UNL     1       2.459   5.258   1.588  1.00  0.00     0.002 A 
BRANCH  18  22
ATOM     22  N   UNL     1       3.922   1.942   2.318  1.00  0.00    -0.397 N 
ATOM     23  H   UNL     1       3.657   1.008   2.481  1.00  0.00     0.156 HD
ATOM     24  H   UNL     1       4.876   2.185   2.292  1.00  0.00     0.156 HD
ENDBRANCH  18  22
ENDBRANCH   6  16
ENDBRANCH   5   6
ENDBRANCH   3   5
ENDBRANCH   2   3
ENDBRANCH   1   2
BRANCH   1  25
ATOM     25  C   UNL     1      -2.953   2.832  -0.691  1.00  0.00     0.275 C 
BRANCH  25  26
ATOM     26  O   UNL     1      -1.930   2.754  -1.705  1.00  0.00    -0.458 OA
BRANCH  26  27
ATOM     27  C   UNL     1      -1.129   3.839  -1.827  1.00  0.00     0.338 C 
ATOM     28  O   UNL     1      -1.226   4.880  -1.198  1.00  0.00    -0.246 OA
BRANCH  27  29
ATOM     29  C   UNL     1      -0.085   3.627  -2.856  1.00  0.00     0.060 A 
ATOM     30  C   UNL     1       0.677   2.457  -2.920  1.00  0.00     0.016 A 
ATOM     31  C   UNL     1       0.207   4.682  -3.720  1.00  0.00     0.016 A 
ATOM     32  C   UNL     1       1.780   2.373  -3.772  1.00  0.00     0.010 A 
ATOM     33  C   UNL     1       1.250   4.561  -4.641  1.00  0.00     0.010 A 
ATOM     34  C   UNL     1       2.068   3.419  -4.657  1.00  0.00    -0.014 A 
BRANCH  34  35
ATOM     35  C   UNL     1       3.191   3.337  -5.629  1.00  0.00     0.031 A 
ATOM     36  C   UNL     1       4.285   4.370  -5.609  1.00  0.00     0.074 A 
ATOM     37  C   UNL     1       3.163   2.407  -6.603  1.00  0.00     0.049 A 
ATOM     38  N   UNL     1       5.199   4.622  -6.509  1.00  0.00    -0.248 NA
ATOM     39  C   UNL     1       4.342   5.250  -4.431  1.00  0.00     0.031 C 
ATOM     40  C   UNL     1       2.149   1.361  -6.745  1.00  0.00     0.029 A 
ATOM     41  N   UNL     1       3.982   2.227  -7.692  1.00  0.00    -0.354 N 
ATOM     42  C   UNL     1       5.893   5.733  -6.045  1.00  0.00     0.074 A 
ATOM     43  C   UNL     1       5.303   6.098  -4.774  1.00  0.00     0.031 C 
ATOM     44  C   UNL     1       2.380   0.675  -7.873  1.00  0.00     0.029 A 
ATOM     45  C   UNL     1       3.520   1.268  -8.564  1.00  0.00     0.049 A 
ATOM     46  H   UNL     1       4.814   2.733  -7.834  1.00  0.00     0.167 HD
ATOM     47  C   UNL     1       6.929   6.386  -6.623  1.00  0.00     0.034 A 
ATOM     48  C   UNL     1       3.926   0.935  -9.804  1.00  0.00     0.034 A 
ATOM     49  C   UNL     1       7.556   5.979  -7.853  1.00  0.00     0.049 A 
ATOM     50  C   UNL     1       5.098   1.651 -10.411  1.00  0.00     0.074 A 
ATOM     51  C   UNL     1       8.672   6.517  -8.470  1.00  0.00     0.029 A 
ATOM     52  N   UNL     1       7.121   4.934  -8.655  1.00  0.00    -0.354 N 
ATOM     53  N   UNL     1       5.814   2.627  -9.908  1.00  0.00    -0.248 NA
ATOM     54  C   UNL     1       5.535   1.206 -11.741  1.00  0.00     0.031 C 
ATOM     55  C   UNL     1       8.906   5.803  -9.651  1.00  0.00     0.029 A 
ATOM     56  C   UNL     1       7.940   4.816  -9.765  1.00  0.00     0.049 A 
ATOM     57  H   UNL     1       6.344   4.361  -8.462  1.00  0.00     0.167 HD
ATOM     58  C   UNL     1       6.797   2.903 -10.851  1.00  0.00     0.074 A 
ATOM     59  C   UNL     1       6.600   1.972 -11.944  1.00  0.00     0.031 C 
ATOM     60  C   UNL     1       7.762   3.855 -10.823  1.00  0.00     0.034 A 
BRANCH  47  61
ATOM     61  C   UNL     1       7.480   7.595  -5.915  1.00  0.00     0.023 A 
ATOM     62  C   UNL     1       8.289   7.427  -4.774  1.00  0.00     0.012 A 
ATOM     63  C   UNL     1       7.246   8.893  -6.410  1.00  0.00     0.148 A 
ATOM     64  C   UNL     1       8.835   8.532  -4.122  1.00  0.00     0.002 A 
ATOM     65  C   UNL     1       7.824   9.988  -5.776  1.00  0.00     0.091 A 
ATOM     66  F   UNL     1       6.451   9.039  -7.480  1.00  0.00    -0.205 F 
ATOM     67  C   UNL     1       8.612   9.810  -4.628  1.00  0.00     0.022 A 
BRANCH  65  68
ATOM     68  S   UNL     1       7.643  11.661  -6.407  1.00  0.00     0.127 S 
ATOM     69  O   UNL     1       6.575  12.184  -5.557  1.00  0.00    -0.237 OA
ATOM     70  O   UNL     1       8.963  12.240  -6.152  1.00  0.00    -0.237 OA
ATOM     71  O   UNL     1       7.316  11.513  -7.819  1.00  0.00    -0.744 OA
ENDBRANCH  65  68
ENDBRANCH  47  61
BRANCH  48  72
ATOM     72  C   UNL     1       3.211  -0.149 -10.533  1.00  0.00     0.023 A 
ATOM     73  C   UNL     1       3.832  -1.402 -10.688  1.00  0.00     0.012 A 
ATOM     74  C   UNL     1       1.887   0.025 -10.985  1.00  0.00     0.148 A 
ATOM     75  C   UNL     1       3.150  -2.462 -11.287  1.00  0.00     0.002 A 
ATOM     76  C   UNL     1       1.194  -1.051 -11.526  1.00  0.00     0.091 A 
ATOM     77  F   UNL     1       1.320   1.232 -10.844  1.00  0.00    -0.205 F 
ATOM     78  C   UNL     1       1.828  -2.292 -11.690  1.00  0.00     0.022 A 
BRANCH  76  79
ATOM     79  S   UNL     1      -0.557  -0.961 -11.922  1.00  0.00     0.127 S 
ATOM     80  O   UNL     1      -0.532  -0.909 -13.381  1.00  0.00    -0.237 OA
ATOM     81  O   UNL     1      -1.063  -2.213 -11.358  1.00  0.00    -0.237 OA
ATOM     82  O   UNL     1      -1.048   0.235 -11.251  1.00  0.00    -0.744 OA
ENDBRANCH  76  79
ENDBRANCH  48  72
BRANCH  60  83
ATOM     83  C   UNL     1       8.691   3.935 -12.003  1.00  0.00     0.023 A 
ATOM     84  C   UNL     1       8.235   4.513 -13.204  1.00  0.00     0.012 A 
ATOM     85  C   UNL     1      10.029   3.508 -11.905  1.00  0.00     0.148 A 
ATOM     86  C   UNL     1       9.090   4.641 -14.298  1.00  0.00     0.002 A 
ATOM     87  C   UNL     1      10.887   3.675 -12.986  1.00  0.00     0.091 A 
ATOM     88  F   UNL     1      10.438   2.939 -10.761  1.00  0.00    -0.205 F 
ATOM     89  C   UNL     1      10.417   4.234 -14.186  1.00  0.00     0.022 A 
BRANCH  87  90
ATOM     90  S   UNL     1      12.631   3.252 -12.894  1.00  0.00     0.127 S 
ATOM     91  O   UNL     1      12.664   1.965 -13.586  1.00  0.00    -0.237 OA
ATOM     92  O   UNL     1      13.262   4.353 -13.623  1.00  0.00    -0.237 OA
ATOM     93  O   UNL     1      12.952   3.213 -11.473  1.00  0.00    -0.744 OA
ENDBRANCH  87  90
ENDBRANCH  60  83
ENDBRANCH  34  35
ENDBRANCH  27  29
ENDBRANCH  26  27
ENDBRANCH  25  26
ENDBRANCH   1  25
TORSDOF 20
