REMARK SMILES Cc1ccccc1C(=O)Nc1cc(C(=O)OCCOC(=O)c2ccc(-c3c4nc(c(-c5cccc(S(=O)(=O)[O-])c5F)c5ccc([nH]5)c(-c5cccc(S(=O)(=O)[O-])c5F)c5nc(c(-c6cccc(S(=O)(=O)[O-])c6F)c6ccc3[nH]6)C=C5)C=C4)cc2)ccc1N1CC[NH+](CC(=O)Nc2ccc(F)cc2)CC1
REMARK SMILES IDX 17 1 16 2 14 3 15 4 13 5 11 6 12 7 87 8 86 9 85 10 10 11
REMARK SMILES IDX 8 12 9 13 7 15 1 16 2 17 3 18 4 19 6 20 5 21 88 22 89 23
REMARK SMILES IDX 104 24 90 25 103 26 91 27 92 29 93 30 94 31 95 32 96 34
REMARK SMILES IDX 97 35 102 36 98 37 101 38 99 39 100 40 18 41 19 42 20 43
REMARK SMILES IDX 21 44 22 45 23 46 84 47 24 48 83 49 25 50 26 51 27 52 77 53
REMARK SMILES IDX 28 54 82 55 76 56 78 57 29 58 81 59 75 60 74 61 30 63 62 64
REMARK SMILES IDX 42 65 61 66 43 67 46 68 60 69 79 70 44 71 45 72 59 74 80 75
REMARK SMILES IDX 47 76 31 77 32 78 40 79 33 80 35 81 41 82 34 83 36 84 37 85
REMARK SMILES IDX 38 86 39 87 63 88 64 89 72 90 65 91 67 92 73 93 66 94 68 95
REMARK SMILES IDX 69 96 70 97 71 98 48 99 49 100 57 101 50 102 52 103 58 104
REMARK SMILES IDX 51 105 53 106 54 107 55 108 56 109
REMARK H PARENT 10 14 91 28 95 33 78 62 46 73
REMARK Flexibility Score: inf
ROOT
ATOM      1  C   UNL     1       1.980  -1.775  -4.645  1.00  0.00     0.275 C 
ENDROOT
BRANCH   1   2
ATOM      2  O   UNL     1       2.577  -0.975  -3.625  1.00  0.00    -0.458 OA
BRANCH   2   3
ATOM      3  C   UNL     1       3.729  -0.336  -3.883  1.00  0.00     0.338 C 
ATOM      4  O   UNL     1       4.407  -0.398  -4.896  1.00  0.00    -0.246 OA
BRANCH   3   5
ATOM      5  C   UNL     1       4.058   0.477  -2.708  1.00  0.00     0.062 A 
ATOM      6  C   UNL     1       3.466   2.233  -1.167  1.00  0.00     0.065 A 
ATOM      7  C   UNL     1       3.147   1.436  -2.267  1.00  0.00     0.044 A 
ATOM      8  C   UNL     1       4.739   2.121  -0.510  1.00  0.00     0.061 A 
ATOM      9  C   UNL     1       5.596   1.099  -0.962  1.00  0.00     0.029 A 
ATOM     10  C   UNL     1       5.269   0.285  -2.050  1.00  0.00     0.018 A 
BRANCH   6  11
ATOM     11  N   UNL     1       2.531   3.189  -0.725  1.00  0.00    -0.320 N 
ATOM     12  C   UNL     1       1.169   3.148  -0.476  1.00  0.00     0.255 C 
ATOM     13  O   UNL     1       0.662   4.192  -0.049  1.00  0.00    -0.269 OA
ATOM     14  H   UNL     1       2.930   4.073  -0.557  1.00  0.00     0.170 HD
BRANCH  12  15
ATOM     15  C   UNL     1       0.295   1.948  -0.658  1.00  0.00     0.043 A 
ATOM     16  C   UNL     1       1.861   0.201   0.380  1.00  0.00     0.045 C 
ATOM     17  C   UNL     1       0.669   0.617  -0.433  1.00  0.00    -0.038 A 
ATOM     18  C   UNL     1      -0.188  -0.400  -0.885  1.00  0.00     0.004 A 
ATOM     19  C   UNL     1      -1.494  -0.136  -1.284  1.00  0.00     0.000 A 
ATOM     20  C   UNL     1      -1.047   2.205  -1.009  1.00  0.00     0.014 A 
ATOM     21  C   UNL     1      -1.948   1.170  -1.276  1.00  0.00     0.001 A 
ENDBRANCH  12  15
ENDBRANCH   6  11
BRANCH   8  22
ATOM     22  N   UNL     1       5.134   2.937   0.546  1.00  0.00    -0.359 N 
ATOM     23  C   UNL     1       6.530   3.036   1.048  1.00  0.00     0.178 C 
ATOM     24  C   UNL     1       4.193   3.272   1.607  1.00  0.00     0.178 C 
ATOM     25  C   UNL     1       6.767   4.372   1.855  1.00  0.00     0.284 C 
ATOM     26  C   UNL     1       4.415   4.776   1.883  1.00  0.00     0.284 C 
ATOM     27  N   UNL     1       5.654   4.988   2.610  1.00  0.00    -0.324 N 
ATOM     28  H   UNL     1       5.940   5.966   2.651  1.00  0.00     0.348 HD
BRANCH  27  29
ATOM     29  C   UNL     1       5.492   4.750   4.061  1.00  0.00     0.364 C 
BRANCH  29  30
ATOM     30  C   UNL     1       5.143   3.355   4.584  1.00  0.00     0.279 C 
ATOM     31  O   UNL     1       6.092   2.590   4.831  1.00  0.00    -0.268 OA
ATOM     32  N   UNL     1       3.911   2.890   4.963  1.00  0.00    -0.321 N 
ATOM     33  H   UNL     1       4.038   2.106   5.544  1.00  0.00     0.170 HD
BRANCH  32  34
ATOM     34  C   UNL     1       2.516   3.129   4.823  1.00  0.00     0.041 A 
ATOM     35  C   UNL     1       1.687   2.416   5.709  1.00  0.00     0.029 A 
ATOM     36  C   UNL     1       1.853   3.861   3.843  1.00  0.00     0.029 A 
ATOM     37  C   UNL     1       0.284   2.457   5.623  1.00  0.00     0.041 A 
ATOM     38  C   UNL     1       0.452   3.881   3.715  1.00  0.00     0.041 A 
ATOM     39  C   UNL     1      -0.324   3.190   4.620  1.00  0.00     0.123 A 
ATOM     40  F   UNL     1      -1.657   3.226   4.521  1.00  0.00    -0.207 F 
ENDBRANCH  32  34
ENDBRANCH  29  30
ENDBRANCH  27  29
ENDBRANCH   8  22
ENDBRANCH   3   5
ENDBRANCH   2   3
ENDBRANCH   1   2
BRANCH   1  41
ATOM     41  C   UNL     1       2.872  -2.717  -5.476  1.00  0.00     0.275 C 
BRANCH  41  42
ATOM     42  O   UNL     1       4.035  -3.428  -4.952  1.00  0.00    -0.458 OA
BRANCH  42  43
ATOM     43  C   UNL     1       4.531  -3.539  -3.699  1.00  0.00     0.338 C 
ATOM     44  O   UNL     1       5.719  -3.741  -3.485  1.00  0.00    -0.246 OA
BRANCH  43  45
ATOM     45  C   UNL     1       3.555  -3.554  -2.607  1.00  0.00     0.060 A 
ATOM     46  C   UNL     1       3.860  -2.998  -1.356  1.00  0.00     0.016 A 
ATOM     47  C   UNL     1       2.319  -4.141  -2.852  1.00  0.00     0.016 A 
ATOM     48  C   UNL     1       2.914  -3.042  -0.333  1.00  0.00     0.010 A 
ATOM     49  C   UNL     1       1.329  -4.010  -1.914  1.00  0.00     0.010 A 
ATOM     50  C   UNL     1       1.660  -3.575  -0.618  1.00  0.00    -0.014 A 
BRANCH  50  51
ATOM     51  C   UNL     1       0.737  -4.129   0.378  1.00  0.00     0.031 A 
ATOM     52  C   UNL     1      -0.314  -3.292   0.976  1.00  0.00     0.074 A 
ATOM     53  C   UNL     1       0.805  -5.474   0.343  1.00  0.00     0.049 A 
ATOM     54  N   UNL     1      -1.547  -3.206   0.580  1.00  0.00    -0.248 NA
ATOM     55  C   UNL     1       0.062  -2.354   2.040  1.00  0.00     0.031 C 
ATOM     56  C   UNL     1      -0.126  -6.513   0.710  1.00  0.00     0.029 A 
ATOM     57  N   UNL     1       1.977  -6.176   0.058  1.00  0.00    -0.354 N 
ATOM     58  C   UNL     1      -2.181  -2.294   1.439  1.00  0.00     0.074 A 
ATOM     59  C   UNL     1      -1.076  -1.669   2.183  1.00  0.00     0.031 C 
ATOM     60  C   UNL     1       0.579  -7.643   0.944  1.00  0.00     0.029 A 
ATOM     61  C   UNL     1       2.006  -7.311   0.849  1.00  0.00     0.049 A 
ATOM     62  H   UNL     1       2.665  -5.909  -0.594  1.00  0.00     0.167 HD
ATOM     63  C   UNL     1      -3.183  -2.742   2.252  1.00  0.00     0.034 A 
ATOM     64  C   UNL     1       2.886  -7.264   1.901  1.00  0.00     0.034 A 
ATOM     65  C   UNL     1      -2.910  -4.064   2.782  1.00  0.00     0.049 A 
ATOM     66  C   UNL     1       2.129  -7.042   3.194  1.00  0.00     0.074 A 
ATOM     67  C   UNL     1      -3.174  -5.340   2.328  1.00  0.00     0.029 A 
ATOM     68  N   UNL     1      -2.014  -4.187   3.833  1.00  0.00    -0.354 N 
ATOM     69  N   UNL     1       1.005  -6.384   3.289  1.00  0.00    -0.248 NA
ATOM     70  C   UNL     1       2.559  -7.621   4.459  1.00  0.00     0.031 C 
ATOM     71  C   UNL     1      -2.344  -6.231   3.060  1.00  0.00     0.029 A 
ATOM     72  C   UNL     1      -1.579  -5.494   3.952  1.00  0.00     0.049 A 
ATOM     73  H   UNL     1      -1.726  -3.446   4.414  1.00  0.00     0.167 HD
ATOM     74  C   UNL     1       0.542  -6.462   4.571  1.00  0.00     0.074 A 
ATOM     75  C   UNL     1       1.548  -7.255   5.263  1.00  0.00     0.031 C 
ATOM     76  C   UNL     1      -0.618  -5.869   4.981  1.00  0.00     0.034 A 
BRANCH  63  77
ATOM     77  C   UNL     1      -4.531  -2.072   2.167  1.00  0.00     0.023 A 
ATOM     78  C   UNL     1      -5.661  -2.818   2.558  1.00  0.00     0.012 A 
ATOM     79  C   UNL     1      -4.752  -0.745   1.713  1.00  0.00     0.148 A 
ATOM     80  C   UNL     1      -6.957  -2.304   2.461  1.00  0.00     0.002 A 
ATOM     81  C   UNL     1      -6.051  -0.233   1.612  1.00  0.00     0.091 A 
ATOM     82  F   UNL     1      -3.696   0.016   1.389  1.00  0.00    -0.205 F 
ATOM     83  C   UNL     1      -7.154  -1.017   1.980  1.00  0.00     0.022 A 
BRANCH  81  84
ATOM     84  S   UNL     1      -6.437   1.412   0.982  1.00  0.00     0.127 S 
ATOM     85  O   UNL     1      -7.288   1.106  -0.170  1.00  0.00    -0.237 OA
ATOM     86  O   UNL     1      -7.144   2.024   2.107  1.00  0.00    -0.237 OA
ATOM     87  O   UNL     1      -5.164   2.032   0.640  1.00  0.00    -0.744 OA
ENDBRANCH  81  84
ENDBRANCH  63  77
BRANCH  64  88
ATOM     88  C   UNL     1       4.200  -6.580   1.569  1.00  0.00     0.023 A 
ATOM     89  C   UNL     1       4.887  -7.002   0.398  1.00  0.00     0.012 A 
ATOM     90  C   UNL     1       4.622  -5.384   2.178  1.00  0.00     0.148 A 
ATOM     91  C   UNL     1       5.849  -6.197  -0.220  1.00  0.00     0.002 A 
ATOM     92  C   UNL     1       5.595  -4.588   1.560  1.00  0.00     0.091 A 
ATOM     93  F   UNL     1       4.057  -5.008   3.333  1.00  0.00    -0.205 F 
ATOM     94  C   UNL     1       6.187  -4.977   0.350  1.00  0.00     0.022 A 
BRANCH  92  95
ATOM     95  S   UNL     1       6.002  -2.958   2.213  1.00  0.00     0.127 S 
ATOM     96  O   UNL     1       7.061  -3.276   3.166  1.00  0.00    -0.237 OA
ATOM     97  O   UNL     1       6.445  -2.226   1.023  1.00  0.00    -0.237 OA
ATOM     98  O   UNL     1       4.747  -2.469   2.770  1.00  0.00    -0.744 OA
ENDBRANCH  92  95
ENDBRANCH  64  88
BRANCH  76  99
ATOM     99  C   UNL     1      -0.950  -5.629   6.433  1.00  0.00     0.023 A 
ATOM    100  C   UNL     1       0.062  -5.536   7.408  1.00  0.00     0.012 A 
ATOM    101  C   UNL     1      -2.267  -5.310   6.842  1.00  0.00     0.148 A 
ATOM    102  C   UNL     1      -0.222  -5.252   8.743  1.00  0.00     0.002 A 
ATOM    103  C   UNL     1      -2.522  -4.891   8.142  1.00  0.00     0.091 A 
ATOM    104  F   UNL     1      -3.284  -5.415   5.975  1.00  0.00    -0.205 F 
ATOM    105  C   UNL     1      -1.514  -4.908   9.107  1.00  0.00     0.022 A 
BRANCH 103 106
ATOM    106  S   UNL     1      -4.093  -4.132   8.571  1.00  0.00     0.127 S 
ATOM    107  O   UNL     1      -4.836  -5.264   9.119  1.00  0.00    -0.237 OA
ATOM    108  O   UNL     1      -3.692  -3.127   9.556  1.00  0.00    -0.237 OA
ATOM    109  O   UNL     1      -4.593  -3.574   7.321  1.00  0.00    -0.744 OA
ENDBRANCH 103 106
ENDBRANCH  76  99
ENDBRANCH  50  51
ENDBRANCH  43  45
ENDBRANCH  42  43
ENDBRANCH  41  42
ENDBRANCH   1  41
TORSDOF 20
