REMARK SMILES CN(C)c1ccc(F)c(C(=O)OCCOC(=O)c2ccc(-c3c4nc(c(-c5cccc(S(=O)(=O)[O-])c5F)c5ccc([nH]5)c(-c5cccc(S(=O)(=O)[O-])c5F)c5nc(c(-c6cccc(S(=O)(=O)[O-])c6F)c6ccc3[nH]6)C=C5)C=C4)cc2)c1
REMARK SMILES IDX 14 1 13 2 12 3 10 4 11 5 9 6 4 7 5 8 81 9 6 10 7 11 8 12
REMARK SMILES IDX 2 13 1 14 3 15 15 16 16 17 17 18 18 19 19 20 80 21 20 22
REMARK SMILES IDX 79 23 21 24 22 25 23 26 73 27 24 28 78 29 72 30 74 31 25 32
REMARK SMILES IDX 77 33 71 34 70 35 26 37 58 38 38 39 57 40 39 41 42 42 56 43
REMARK SMILES IDX 75 44 40 45 41 46 55 48 76 49 43 50 27 51 28 52 36 53 29 54
REMARK SMILES IDX 31 55 37 56 30 57 32 58 33 59 34 60 35 61 59 62 60 63 68 64
REMARK SMILES IDX 61 65 63 66 69 67 62 68 64 69 65 70 66 71 67 72 44 73 45 74
REMARK SMILES IDX 53 75 46 76 48 77 54 78 47 79 49 80 50 81 51 82 52 83
REMARK H PARENT 74 36 42 47
REMARK Flexibility Score: inf
ROOT
ATOM      1  C   UNL     1      -2.176  -4.466  -6.896  1.00  0.00     0.275 C 
ENDROOT
BRANCH   1   2
ATOM      2  C   UNL     1      -1.405  -3.187  -7.220  1.00  0.00     0.275 C 
BRANCH   2   3
ATOM      3  O   UNL     1      -0.354  -2.952  -6.259  1.00  0.00    -0.458 OA
BRANCH   3   4
ATOM      4  C   UNL     1      -0.555  -1.924  -5.396  1.00  0.00     0.341 C 
ATOM      5  O   UNL     1      -1.534  -1.202  -5.344  1.00  0.00    -0.246 OA
BRANCH   4   6
ATOM      6  C   UNL     1       0.551  -1.820  -4.425  1.00  0.00     0.097 A 
ATOM      7  C   UNL     1       1.260  -1.438  -2.111  1.00  0.00     0.037 A 
ATOM      8  C   UNL     1       2.584  -1.427  -2.559  1.00  0.00     0.029 A 
ATOM      9  C   UNL     1       0.253  -1.607  -3.069  1.00  0.00     0.044 A 
ATOM     10  C   UNL     1       2.894  -1.624  -3.910  1.00  0.00     0.042 A 
ATOM     11  C   UNL     1       1.875  -1.827  -4.837  1.00  0.00     0.137 A 
ATOM     12  F   UNL     1       2.201  -1.970  -6.130  1.00  0.00    -0.206 F 
BRANCH   7  13
ATOM     13  N   UNL     1       0.959  -1.257  -0.775  1.00  0.00    -0.378 N 
ATOM     14  C   UNL     1       1.213   0.040  -0.173  1.00  0.00     0.143 C 
ATOM     15  C   UNL     1       0.154  -2.240  -0.065  1.00  0.00     0.143 C 
ENDBRANCH   7  13
ENDBRANCH   4   6
ENDBRANCH   3   4
ENDBRANCH   2   3
ENDBRANCH   1   2
BRANCH   1  16
ATOM     16  O   UNL     1      -2.932  -4.298  -5.684  1.00  0.00    -0.458 OA
BRANCH  16  17
ATOM     17  C   UNL     1      -2.410  -4.903  -4.595  1.00  0.00     0.338 C 
ATOM     18  O   UNL     1      -1.421  -5.616  -4.543  1.00  0.00    -0.246 OA
BRANCH  17  19
ATOM     19  C   UNL     1      -3.160  -4.515  -3.394  1.00  0.00     0.060 A 
ATOM     20  C   UNL     1      -2.966  -3.237  -2.890  1.00  0.00     0.016 A 
ATOM     21  C   UNL     1      -3.875  -5.455  -2.657  1.00  0.00     0.016 A 
ATOM     22  C   UNL     1      -3.340  -2.942  -1.583  1.00  0.00     0.010 A 
ATOM     23  C   UNL     1      -4.373  -5.105  -1.394  1.00  0.00     0.010 A 
ATOM     24  C   UNL     1      -4.056  -3.865  -0.807  1.00  0.00    -0.014 A 
BRANCH  24  25
ATOM     25  C   UNL     1      -4.435  -3.542   0.607  1.00  0.00     0.031 A 
ATOM     26  C   UNL     1      -4.128  -4.507   1.731  1.00  0.00     0.074 A 
ATOM     27  C   UNL     1      -5.054  -2.377   0.902  1.00  0.00     0.049 A 
ATOM     28  N   UNL     1      -4.540  -4.482   2.974  1.00  0.00    -0.248 NA
ATOM     29  C   UNL     1      -3.264  -5.659   1.422  1.00  0.00     0.031 C 
ATOM     30  C   UNL     1      -5.408  -1.337  -0.066  1.00  0.00     0.029 A 
ATOM     31  N   UNL     1      -5.505  -1.871   2.100  1.00  0.00    -0.354 N 
ATOM     32  C   UNL     1      -4.074  -5.655   3.560  1.00  0.00     0.074 A 
ATOM     33  C   UNL     1      -3.323  -6.361   2.547  1.00  0.00     0.031 C 
ATOM     34  C   UNL     1      -5.978  -0.307   0.573  1.00  0.00     0.029 A 
ATOM     35  C   UNL     1      -6.149  -0.659   1.976  1.00  0.00     0.049 A 
ATOM     36  H   UNL     1      -5.381  -2.331   2.962  1.00  0.00     0.167 HD
ATOM     37  C   UNL     1      -4.255  -6.100   4.827  1.00  0.00     0.034 A 
ATOM     38  C   UNL     1      -6.861   0.069   2.861  1.00  0.00     0.034 A 
ATOM     39  C   UNL     1      -4.914  -5.349   5.863  1.00  0.00     0.049 A 
ATOM     40  C   UNL     1      -7.025  -0.437   4.263  1.00  0.00     0.074 A 
ATOM     41  C   UNL     1      -5.072  -5.691   7.195  1.00  0.00     0.029 A 
ATOM     42  N   UNL     1      -5.515  -4.113   5.694  1.00  0.00    -0.354 N 
ATOM     43  N   UNL     1      -6.542  -1.528   4.803  1.00  0.00    -0.248 NA
ATOM     44  C   UNL     1      -7.825   0.387   5.182  1.00  0.00     0.031 C 
ATOM     45  C   UNL     1      -5.799  -4.679   7.824  1.00  0.00     0.029 A 
ATOM     46  C   UNL     1      -6.056  -3.685   6.894  1.00  0.00     0.049 A 
ATOM     47  H   UNL     1      -5.551  -3.613   4.846  1.00  0.00     0.167 HD
ATOM     48  C   UNL     1      -6.965  -1.516   6.126  1.00  0.00     0.074 A 
ATOM     49  C   UNL     1      -7.720  -0.295   6.315  1.00  0.00     0.031 C 
ATOM     50  C   UNL     1      -6.761  -2.445   7.090  1.00  0.00     0.034 A 
BRANCH  37  51
ATOM     51  C   UNL     1      -3.724  -7.461   5.204  1.00  0.00     0.023 A 
ATOM     52  C   UNL     1      -2.345  -7.653   5.409  1.00  0.00     0.012 A 
ATOM     53  C   UNL     1      -4.620  -8.511   5.500  1.00  0.00     0.148 A 
ATOM     54  C   UNL     1      -1.863  -8.870   5.893  1.00  0.00     0.002 A 
ATOM     55  C   UNL     1      -4.138  -9.703   6.028  1.00  0.00     0.091 A 
ATOM     56  F   UNL     1      -5.928  -8.312   5.283  1.00  0.00    -0.205 F 
ATOM     57  C   UNL     1      -2.760  -9.887   6.217  1.00  0.00     0.022 A 
BRANCH  55  58
ATOM     58  S   UNL     1      -5.218 -11.033   6.571  1.00  0.00     0.127 S 
ATOM     59  O   UNL     1      -4.878 -12.094   5.624  1.00  0.00    -0.237 OA
ATOM     60  O   UNL     1      -4.752 -11.265   7.939  1.00  0.00    -0.237 OA
ATOM     61  O   UNL     1      -6.577 -10.521   6.467  1.00  0.00    -0.744 OA
ENDBRANCH  55  58
ENDBRANCH  37  51
BRANCH  38  62
ATOM     62  C   UNL     1      -7.489   1.347   2.417  1.00  0.00     0.023 A 
ATOM     63  C   UNL     1      -7.010   2.573   2.916  1.00  0.00     0.012 A 
ATOM     64  C   UNL     1      -8.507   1.354   1.441  1.00  0.00     0.148 A 
ATOM     65  C   UNL     1      -7.538   3.781   2.456  1.00  0.00     0.002 A 
ATOM     66  C   UNL     1      -8.973   2.559   0.933  1.00  0.00     0.091 A 
ATOM     67  F   UNL     1      -8.969   0.176   0.998  1.00  0.00    -0.205 F 
ATOM     68  C   UNL     1      -8.503   3.775   1.451  1.00  0.00     0.022 A 
BRANCH  66  69
ATOM     69  S   UNL     1     -10.080   2.639  -0.480  1.00  0.00     0.127 S 
ATOM     70  O   UNL     1     -11.322   3.093   0.139  1.00  0.00    -0.237 OA
ATOM     71  O   UNL     1      -9.415   3.628  -1.329  1.00  0.00    -0.237 OA
ATOM     72  O   UNL     1     -10.104   1.293  -1.037  1.00  0.00    -0.744 OA
ENDBRANCH  66  69
ENDBRANCH  38  62
BRANCH  50  73
ATOM     73  C   UNL     1      -7.325  -2.183   8.460  1.00  0.00     0.023 A 
ATOM     74  C   UNL     1      -8.710  -2.310   8.683  1.00  0.00     0.012 A 
ATOM     75  C   UNL     1      -6.466  -1.931   9.548  1.00  0.00     0.148 A 
ATOM     76  C   UNL     1      -9.233  -2.172   9.968  1.00  0.00     0.002 A 
ATOM     77  C   UNL     1      -6.989  -1.847  10.832  1.00  0.00     0.091 A 
ATOM     78  F   UNL     1      -5.154  -1.798   9.308  1.00  0.00    -0.205 F 
ATOM     79  C   UNL     1      -8.373  -1.956  11.043  1.00  0.00     0.022 A 
BRANCH  77  80
ATOM     80  S   UNL     1      -5.950  -1.676  12.288  1.00  0.00     0.127 S 
ATOM     81  O   UNL     1      -6.290  -0.327  12.739  1.00  0.00    -0.237 OA
ATOM     82  O   UNL     1      -6.446  -2.751  13.148  1.00  0.00    -0.237 OA
ATOM     83  O   UNL     1      -4.579  -1.849  11.829  1.00  0.00    -0.744 OA
ENDBRANCH  77  80
ENDBRANCH  50  73
ENDBRANCH  24  25
ENDBRANCH  17  19
ENDBRANCH  16  17
ENDBRANCH   1  16
TORSDOF 15
