REMARK SMILES Cc1cc(C)cc(-c2ccc([C@@H](C)C(=O)OCCOC(=O)c3ccc(-c4c5nc(c(-c6cccc(S(=O)(=O)[O-])c6F)c6ccc([nH]6)c(-c6cccc(S(=O)(=O)[O-])c6F)c6nc(c(-c7cccc(S(=O)(=O)[O-])c7F)c7ccc4[nH]7)C=C6)C=C5)cc3)cc2F)c1
REMARK SMILES IDX 18 1 17 2 16 3 14 4 15 5 12 6 13 7 11 8 8 9 9 10 86 11 10 12
REMARK SMILES IDX 85 13 87 14 7 15 1 16 2 17 3 18 88 19 4 20 5 21 6 22 19 23
REMARK SMILES IDX 20 24 21 25 22 26 23 27 84 28 24 29 83 30 25 31 26 32 27 33
REMARK SMILES IDX 77 34 28 35 82 36 76 37 78 38 29 39 81 40 75 41 74 42 30 44
REMARK SMILES IDX 62 45 42 46 61 47 43 48 46 49 60 50 79 51 44 52 45 53 59 55
REMARK SMILES IDX 80 56 47 57 31 58 32 59 40 60 33 61 35 62 41 63 34 64 36 65
REMARK SMILES IDX 37 66 38 67 39 68 63 69 64 70 72 71 65 72 67 73 73 74 66 75
REMARK SMILES IDX 68 76 69 77 70 78 71 79 48 80 49 81 57 82 50 83 52 84 58 85
REMARK SMILES IDX 51 86 53 87 54 88 55 89 56 90
REMARK H PARENT 78 43 46 54
REMARK Flexibility Score: inf
ROOT
ATOM      1  C   UNL     1       2.496  -7.777  -3.463  1.00  0.00     0.275 C 
ENDROOT
BRANCH   1   2
ATOM      2  C   UNL     1       1.042  -8.253  -3.436  1.00  0.00     0.274 C 
BRANCH   2   3
ATOM      3  O   UNL     1       0.292  -7.590  -2.399  1.00  0.00    -0.462 OA
BRANCH   3   4
ATOM      4  C   UNL     1       0.042  -8.309  -1.273  1.00  0.00     0.313 C 
ATOM      5  O   UNL     1       0.341  -9.490  -1.130  1.00  0.00    -0.252 OA
BRANCH   4   6
ATOM      6  C   UNL     1      -0.717  -7.534  -0.202  1.00  0.00     0.126 C 
ATOM      7  C   UNL     1      -2.192  -7.936  -0.228  1.00  0.00     0.025 C 
BRANCH   6   8
ATOM      8  C   UNL     1      -0.531  -6.024  -0.203  1.00  0.00    -0.031 A 
ATOM      9  C   UNL     1      -0.215  -3.195  -0.126  1.00  0.00     0.017 A 
ATOM     10  C   UNL     1      -0.928  -3.821  -1.162  1.00  0.00     0.012 A 
ATOM     11  C   UNL     1       0.354  -4.016   0.852  1.00  0.00     0.131 A 
ATOM     12  C   UNL     1      -1.085  -5.210  -1.200  1.00  0.00     0.005 A 
ATOM     13  C   UNL     1       0.196  -5.403   0.824  1.00  0.00     0.044 A 
ATOM     14  F   UNL     1       1.039  -3.479   1.874  1.00  0.00    -0.206 F 
BRANCH   9  15
ATOM     15  C   UNL     1      -0.121  -1.728  -0.067  1.00  0.00    -0.015 A 
ATOM     16  C   UNL     1       2.521   1.030   0.047  1.00  0.00     0.044 C 
ATOM     17  C   UNL     1       1.194   0.331   0.013  1.00  0.00    -0.050 A 
ATOM     18  C   UNL     1       0.011   1.081   0.020  1.00  0.00     0.006 A 
ATOM     19  C   UNL     1       1.118  -1.069  -0.027  1.00  0.00     0.012 A 
ATOM     20  C   UNL     1      -1.237   0.450  -0.007  1.00  0.00    -0.050 A 
ATOM     21  C   UNL     1      -2.496   1.263   0.009  1.00  0.00     0.044 C 
ATOM     22  C   UNL     1      -1.290  -0.948  -0.052  1.00  0.00     0.012 A 
ENDBRANCH   9  15
ENDBRANCH   6   8
ENDBRANCH   4   6
ENDBRANCH   3   4
ENDBRANCH   2   3
ENDBRANCH   1   2
BRANCH   1  23
ATOM     23  O   UNL     1       3.209  -8.204  -2.289  1.00  0.00    -0.458 OA
BRANCH  23  24
ATOM     24  C   UNL     1       3.266  -7.289  -1.293  1.00  0.00     0.338 C 
ATOM     25  O   UNL     1       2.828  -6.153  -1.310  1.00  0.00    -0.246 OA
BRANCH  24  26
ATOM     26  C   UNL     1       3.837  -7.905  -0.087  1.00  0.00     0.060 A 
ATOM     27  C   UNL     1       3.002  -8.062   1.020  1.00  0.00     0.016 A 
ATOM     28  C   UNL     1       5.190  -8.234  -0.007  1.00  0.00     0.016 A 
ATOM     29  C   UNL     1       3.518  -8.519   2.227  1.00  0.00     0.010 A 
ATOM     30  C   UNL     1       5.706  -8.710   1.204  1.00  0.00     0.010 A 
ATOM     31  C   UNL     1       4.878  -8.833   2.333  1.00  0.00    -0.014 A 
BRANCH  31  32
ATOM     32  C   UNL     1       5.426  -9.250   3.646  1.00  0.00     0.031 A 
ATOM     33  C   UNL     1       6.279  -8.302   4.439  1.00  0.00     0.074 A 
ATOM     34  C   UNL     1       5.130 -10.469   4.135  1.00  0.00     0.049 A 
ATOM     35  N   UNL     1       6.856  -8.488   5.597  1.00  0.00    -0.248 NA
ATOM     36  C   UNL     1       6.514  -6.971   3.857  1.00  0.00     0.031 C 
ATOM     37  C   UNL     1       4.299 -11.466   3.460  1.00  0.00     0.029 A 
ATOM     38  N   UNL     1       5.496 -11.076   5.310  1.00  0.00    -0.354 N 
ATOM     39  C   UNL     1       7.547  -7.314   5.870  1.00  0.00     0.074 A 
ATOM     40  C   UNL     1       7.324  -6.422   4.753  1.00  0.00     0.031 C 
ATOM     41  C   UNL     1       4.216 -12.561   4.233  1.00  0.00     0.029 A 
ATOM     42  C   UNL     1       5.014 -12.358   5.440  1.00  0.00     0.049 A 
ATOM     43  H   UNL     1       6.050 -10.637   5.995  1.00  0.00     0.167 HD
ATOM     44  C   UNL     1       8.283  -7.003   6.962  1.00  0.00     0.034 A 
ATOM     45  C   UNL     1       5.202 -13.269   6.415  1.00  0.00     0.034 A 
ATOM     46  C   UNL     1       8.462  -7.875   8.091  1.00  0.00     0.049 A 
ATOM     47  C   UNL     1       6.034 -12.900   7.613  1.00  0.00     0.074 A 
ATOM     48  C   UNL     1       9.160  -7.629   9.260  1.00  0.00     0.029 A 
ATOM     49  N   UNL     1       7.940  -9.154   8.196  1.00  0.00    -0.354 N 
ATOM     50  N   UNL     1       6.608 -11.755   7.894  1.00  0.00    -0.248 NA
ATOM     51  C   UNL     1       6.229 -13.935   8.639  1.00  0.00     0.031 C 
ATOM     52  C   UNL     1       9.069  -8.766  10.069  1.00  0.00     0.029 A 
ATOM     53  C   UNL     1       8.305  -9.715   9.407  1.00  0.00     0.049 A 
ATOM     54  H   UNL     1       7.391  -9.599   7.510  1.00  0.00     0.167 HD
ATOM     55  C   UNL     1       7.211 -11.923   9.135  1.00  0.00     0.074 A 
ATOM     56  C   UNL     1       6.917 -13.275   9.563  1.00  0.00     0.031 C 
ATOM     57  C   UNL     1       7.958 -11.043   9.845  1.00  0.00     0.034 A 
BRANCH  44  58
ATOM     58  C   UNL     1       8.917  -5.640   7.020  1.00  0.00     0.023 A 
ATOM     59  C   UNL     1       8.120  -4.520   7.328  1.00  0.00     0.012 A 
ATOM     60  C   UNL     1      10.308  -5.480   6.863  1.00  0.00     0.148 A 
ATOM     61  C   UNL     1       8.695  -3.258   7.465  1.00  0.00     0.002 A 
ATOM     62  C   UNL     1      10.879  -4.224   7.035  1.00  0.00     0.091 A 
ATOM     63  F   UNL     1      11.044  -6.556   6.547  1.00  0.00    -0.205 F 
ATOM     64  C   UNL     1      10.073  -3.112   7.330  1.00  0.00     0.022 A 
BRANCH  62  65
ATOM     65  S   UNL     1      12.652  -3.949   6.952  1.00  0.00     0.127 S 
ATOM     66  O   UNL     1      12.781  -3.240   5.679  1.00  0.00    -0.237 OA
ATOM     67  O   UNL     1      12.894  -3.123   8.136  1.00  0.00    -0.237 OA
ATOM     68  O   UNL     1      13.266  -5.268   6.998  1.00  0.00    -0.744 OA
ENDBRANCH  62  65
ENDBRANCH  44  58
BRANCH  45  69
ATOM     69  C   UNL     1       4.535 -14.598   6.314  1.00  0.00     0.023 A 
ATOM     70  C   UNL     1       3.464 -14.899   7.178  1.00  0.00     0.012 A 
ATOM     71  C   UNL     1       4.904 -15.531   5.325  1.00  0.00     0.148 A 
ATOM     72  C   UNL     1       2.779 -16.109   7.064  1.00  0.00     0.002 A 
ATOM     73  C   UNL     1       4.182 -16.710   5.182  1.00  0.00     0.091 A 
ATOM     74  F   UNL     1       5.941 -15.237   4.529  1.00  0.00    -0.205 F 
ATOM     75  C   UNL     1       3.127 -17.007   6.058  1.00  0.00     0.022 A 
BRANCH  73  76
ATOM     76  S   UNL     1       4.471 -17.853   3.825  1.00  0.00     0.127 S 
ATOM     77  O   UNL     1       5.132 -18.964   4.505  1.00  0.00    -0.237 OA
ATOM     78  O   UNL     1       3.110 -18.134   3.367  1.00  0.00    -0.237 OA
ATOM     79  O   UNL     1       5.285 -17.121   2.865  1.00  0.00    -0.744 OA
ENDBRANCH  73  76
ENDBRANCH  45  69
BRANCH  57  80
ATOM     80  C   UNL     1       8.516 -11.490  11.169  1.00  0.00     0.023 A 
ATOM     81  C   UNL     1       9.642 -12.335  11.191  1.00  0.00     0.012 A 
ATOM     82  C   UNL     1       8.015 -10.968  12.379  1.00  0.00     0.148 A 
ATOM     83  C   UNL     1      10.258 -12.660  12.399  1.00  0.00     0.002 A 
ATOM     84  C   UNL     1       8.659 -11.264  13.574  1.00  0.00     0.091 A 
ATOM     85  F   UNL     1       6.932 -10.177  12.334  1.00  0.00    -0.205 F 
ATOM     86  C   UNL     1       9.777 -12.114  13.587  1.00  0.00     0.022 A 
BRANCH  84  87
ATOM     87  S   UNL     1       8.170 -10.533  15.142  1.00  0.00     0.127 S 
ATOM     88  O   UNL     1       7.583 -11.679  15.834  1.00  0.00    -0.237 OA
ATOM     89  O   UNL     1       9.451 -10.081  15.687  1.00  0.00    -0.237 OA
ATOM     90  O   UNL     1       7.241  -9.460  14.813  1.00  0.00    -0.744 OA
ENDBRANCH  84  87
ENDBRANCH  57  80
ENDBRANCH  31  32
ENDBRANCH  24  26
ENDBRANCH  23  24
ENDBRANCH   1  23
TORSDOF 16
