REMARK SMILES Cc1ccc(NC(=O)CNC(=O)C(C)(C)C)c(C(=O)OCCOC(=O)c2ccc(-c3c4nc(c(-c5cccc(S(=O)(=O)[O-])c5F)c5ccc([nH]5)c(-c5cccc(S(=O)(=O)[O-])c5F)c5nc(c(-c6cccc(S(=O)(=O)[O-])c6F)c6ccc3[nH]6)C=C5)C=C4)cc2)c1
REMARK SMILES IDX 21 1 20 2 18 3 19 4 17 5 1 6 2 7 3 8 89 9 4 10 5 11 6 12
REMARK SMILES IDX 7 13 8 15 9 16 10 17 11 18 12 20 13 21 14 22 15 23 16 24
REMARK SMILES IDX 22 25 23 26 24 27 25 28 26 29 27 30 88 31 28 32 87 33 29 34
REMARK SMILES IDX 30 35 31 36 81 37 32 38 86 39 80 40 82 41 33 42 85 43 79 44
REMARK SMILES IDX 78 45 34 47 66 48 46 49 65 50 47 51 50 52 64 53 83 54 48 55
REMARK SMILES IDX 49 56 63 58 84 59 51 60 35 61 36 62 44 63 37 64 39 65 45 66
REMARK SMILES IDX 38 67 40 68 41 69 42 70 43 71 67 72 68 73 76 74 69 75 71 76
REMARK SMILES IDX 77 77 70 78 72 79 73 80 74 81 75 82 52 83 53 84 61 85 54 86
REMARK SMILES IDX 56 87 62 88 55 89 57 90 58 91 59 92 60 93
REMARK H PARENT 6 14 10 19 82 46 50 57
REMARK Flexibility Score: inf
ROOT
ATOM      1  C   UNL     1      -1.269   5.024  -1.688  1.00  0.00     0.275 C 
ENDROOT
BRANCH   1   2
ATOM      2  O   UNL     1      -0.910   3.695  -1.281  1.00  0.00    -0.458 OA
BRANCH   2   3
ATOM      3  C   UNL     1      -1.168   2.628  -2.060  1.00  0.00     0.340 C 
ATOM      4  O   UNL     1      -1.830   2.619  -3.083  1.00  0.00    -0.246 OA
BRANCH   3   5
ATOM      5  C   UNL     1      -0.458   1.435  -1.548  1.00  0.00     0.083 A 
ATOM      6  C   UNL     1       3.039   0.645  -0.211  1.00  0.00     0.044 C 
ATOM      7  C   UNL     1       1.685   0.511  -0.837  1.00  0.00    -0.050 A 
ATOM      8  C   UNL     1       1.239  -0.738  -1.251  1.00  0.00     0.005 A 
ATOM      9  C   UNL     1       0.845   1.609  -1.032  1.00  0.00     0.021 A 
ATOM     10  C   UNL     1      -0.071  -0.904  -1.702  1.00  0.00     0.027 A 
ATOM     11  C   UNL     1      -0.981   0.145  -1.731  1.00  0.00     0.055 A 
BRANCH  11  12
ATOM     12  N   UNL     1      -2.349  -0.095  -2.000  1.00  0.00    -0.324 N 
ATOM     13  C   UNL     1      -3.150  -1.183  -1.703  1.00  0.00     0.243 C 
ATOM     14  H   UNL     1      -2.808   0.634  -2.477  1.00  0.00     0.170 HD
ATOM     15  O   UNL     1      -4.249  -1.260  -2.269  1.00  0.00    -0.273 OA
BRANCH  13  16
ATOM     16  C   UNL     1      -2.714  -2.285  -0.703  1.00  0.00     0.216 C 
BRANCH  16  17
ATOM     17  N   UNL     1      -1.919  -3.368  -1.264  1.00  0.00    -0.347 N 
ATOM     18  C   UNL     1      -0.796  -3.975  -0.796  1.00  0.00     0.225 C 
ATOM     19  H   UNL     1      -2.249  -3.718  -2.123  1.00  0.00     0.164 HD
ATOM     20  O   UNL     1      -0.194  -4.660  -1.639  1.00  0.00    -0.275 OA
BRANCH  18  21
ATOM     21  C   UNL     1      -0.305  -3.952   0.681  1.00  0.00     0.041 C 
ATOM     22  C   UNL     1      -0.433  -2.658   1.492  1.00  0.00     0.021 C 
ATOM     23  C   UNL     1      -1.063  -5.061   1.422  1.00  0.00     0.021 C 
ATOM     24  C   UNL     1       1.203  -4.307   0.669  1.00  0.00     0.021 C 
ENDBRANCH  18  21
ENDBRANCH  16  17
ENDBRANCH  13  16
ENDBRANCH  11  12
ENDBRANCH   3   5
ENDBRANCH   2   3
ENDBRANCH   1   2
BRANCH   1  25
ATOM     25  C   UNL     1      -2.478   5.298  -2.608  1.00  0.00     0.275 C 
BRANCH  25  26
ATOM     26  O   UNL     1      -3.832   4.787  -2.428  1.00  0.00    -0.458 OA
BRANCH  26  27
ATOM     27  C   UNL     1      -4.241   3.728  -1.695  1.00  0.00     0.338 C 
ATOM     28  O   UNL     1      -5.075   2.918  -2.080  1.00  0.00    -0.246 OA
BRANCH  27  29
ATOM     29  C   UNL     1      -3.742   3.720  -0.323  1.00  0.00     0.060 A 
ATOM     30  C   UNL     1      -3.384   2.514   0.300  1.00  0.00     0.016 A 
ATOM     31  C   UNL     1      -3.552   4.954   0.291  1.00  0.00     0.016 A 
ATOM     32  C   UNL     1      -2.727   2.546   1.522  1.00  0.00     0.010 A 
ATOM     33  C   UNL     1      -2.827   4.992   1.449  1.00  0.00     0.010 A 
ATOM     34  C   UNL     1      -2.470   3.789   2.086  1.00  0.00    -0.014 A 
BRANCH  34  35
ATOM     35  C   UNL     1      -2.167   3.977   3.490  1.00  0.00     0.031 A 
ATOM     36  C   UNL     1      -0.811   3.898   4.034  1.00  0.00     0.074 A 
ATOM     37  C   UNL     1      -3.236   4.492   4.135  1.00  0.00     0.049 A 
ATOM     38  N   UNL     1      -0.553   4.014   5.288  1.00  0.00    -0.248 NA
ATOM     39  C   UNL     1       0.371   3.625   3.223  1.00  0.00     0.031 C 
ATOM     40  C   UNL     1      -3.322   5.335   5.307  1.00  0.00     0.029 A 
ATOM     41  N   UNL     1      -4.575   4.209   3.816  1.00  0.00    -0.354 N 
ATOM     42  C   UNL     1       0.812   4.151   5.416  1.00  0.00     0.074 A 
ATOM     43  C   UNL     1       1.342   3.745   4.138  1.00  0.00     0.031 C 
ATOM     44  C   UNL     1      -4.590   5.288   5.763  1.00  0.00     0.029 A 
ATOM     45  C   UNL     1      -5.266   4.224   5.023  1.00  0.00     0.049 A 
ATOM     46  H   UNL     1      -4.948   4.035   2.922  1.00  0.00     0.167 HD
ATOM     47  C   UNL     1       1.284   4.772   6.535  1.00  0.00     0.034 A 
ATOM     48  C   UNL     1      -5.771   3.072   5.563  1.00  0.00     0.034 A 
ATOM     49  C   UNL     1       0.184   4.952   7.500  1.00  0.00     0.049 A 
ATOM     50  C   UNL     1      -5.147   2.810   6.916  1.00  0.00     0.074 A 
ATOM     51  C   UNL     1      -0.645   6.030   7.764  1.00  0.00     0.029 A 
ATOM     52  N   UNL     1      -0.414   3.839   8.087  1.00  0.00    -0.354 N 
ATOM     53  N   UNL     1      -3.974   3.251   7.275  1.00  0.00    -0.248 NA
ATOM     54  C   UNL     1      -5.811   2.046   7.962  1.00  0.00     0.031 C 
ATOM     55  C   UNL     1      -1.817   5.528   8.396  1.00  0.00     0.029 A 
ATOM     56  C   UNL     1      -1.678   4.159   8.560  1.00  0.00     0.049 A 
ATOM     57  H   UNL     1       0.003   2.950   8.157  1.00  0.00     0.167 HD
ATOM     58  C   UNL     1      -3.707   2.856   8.553  1.00  0.00     0.074 A 
ATOM     59  C   UNL     1      -4.901   2.122   8.949  1.00  0.00     0.031 C 
ATOM     60  C   UNL     1      -2.525   3.142   9.176  1.00  0.00     0.034 A 
BRANCH  47  61
ATOM     61  C   UNL     1       2.617   5.504   6.678  1.00  0.00     0.023 A 
ATOM     62  C   UNL     1       2.767   6.322   7.825  1.00  0.00     0.012 A 
ATOM     63  C   UNL     1       3.684   5.559   5.748  1.00  0.00     0.148 A 
ATOM     64  C   UNL     1       3.857   7.184   8.008  1.00  0.00     0.002 A 
ATOM     65  C   UNL     1       4.784   6.408   5.936  1.00  0.00     0.091 A 
ATOM     66  F   UNL     1       3.656   4.813   4.646  1.00  0.00    -0.205 F 
ATOM     67  C   UNL     1       4.864   7.234   7.059  1.00  0.00     0.022 A 
BRANCH  65  68
ATOM     68  S   UNL     1       6.146   6.518   4.756  1.00  0.00     0.127 S 
ATOM     69  O   UNL     1       6.013   7.888   4.261  1.00  0.00    -0.237 OA
ATOM     70  O   UNL     1       7.315   6.289   5.605  1.00  0.00    -0.237 OA
ATOM     71  O   UNL     1       5.913   5.483   3.756  1.00  0.00    -0.744 OA
ENDBRANCH  65  68
ENDBRANCH  47  61
BRANCH  48  72
ATOM     72  C   UNL     1      -6.080   1.984   4.569  1.00  0.00     0.023 A 
ATOM     73  C   UNL     1      -6.969   2.281   3.502  1.00  0.00     0.012 A 
ATOM     74  C   UNL     1      -5.250   0.855   4.451  1.00  0.00     0.148 A 
ATOM     75  C   UNL     1      -6.935   1.557   2.307  1.00  0.00     0.002 A 
ATOM     76  C   UNL     1      -5.208   0.151   3.250  1.00  0.00     0.091 A 
ATOM     77  F   UNL     1      -4.461   0.521   5.480  1.00  0.00    -0.205 F 
ATOM     78  C   UNL     1      -6.033   0.511   2.171  1.00  0.00     0.022 A 
BRANCH  76  79
ATOM     79  S   UNL     1      -3.937  -1.069   2.915  1.00  0.00     0.127 S 
ATOM     80  O   UNL     1      -4.676  -2.324   2.993  1.00  0.00    -0.237 OA
ATOM     81  O   UNL     1      -3.523  -0.686   1.565  1.00  0.00    -0.237 OA
ATOM     82  O   UNL     1      -2.911  -0.863   3.924  1.00  0.00    -0.744 OA
ENDBRANCH  76  79
ENDBRANCH  48  72
BRANCH  60  83
ATOM     83  C   UNL     1      -2.077   2.492  10.461  1.00  0.00     0.023 A 
ATOM     84  C   UNL     1      -2.536   1.217  10.844  1.00  0.00     0.012 A 
ATOM     85  C   UNL     1      -1.049   3.069  11.245  1.00  0.00     0.148 A 
ATOM     86  C   UNL     1      -2.065   0.579  11.993  1.00  0.00     0.002 A 
ATOM     87  C   UNL     1      -0.498   2.376  12.316  1.00  0.00     0.091 A 
ATOM     88  F   UNL     1      -0.604   4.303  10.966  1.00  0.00    -0.205 F 
ATOM     89  C   UNL     1      -1.029   1.149  12.718  1.00  0.00     0.022 A 
BRANCH  87  90
ATOM     90  S   UNL     1       1.012   2.955  13.100  1.00  0.00     0.127 S 
ATOM     91  O   UNL     1       0.494   3.766  14.198  1.00  0.00    -0.237 OA
ATOM     92  O   UNL     1       1.652   1.704  13.515  1.00  0.00    -0.237 OA
ATOM     93  O   UNL     1       1.731   3.668  12.053  1.00  0.00    -0.744 OA
ENDBRANCH  87  90
ENDBRANCH  60  83
ENDBRANCH  34  35
ENDBRANCH  27  29
ENDBRANCH  26  27
ENDBRANCH  25  26
ENDBRANCH   1  25
TORSDOF 18
