REMARK SMILES O=C(COc1ccccc1/C=C1/SC(=S)N(c2ccc(F)c(Cl)c2)C1=O)OCCOC(=O)c1ccc(-c2c3nc(c(-c4cccc(S(=O)(=O)[O-])c4F)c4ccc([nH]4)c(-c4cccc(S(=O)(=O)[O-])c4F)c4nc(c(-c5cccc(S(=O)(=O)[O-])c5F)c5ccc2[nH]5)C=C4)C=C3)cc1
REMARK SMILES IDX 28 1 27 2 2 3 1 4 3 5 4 6 5 7 6 8 10 9 7 10 9 11 8 12 11 13
REMARK SMILES IDX 12 14 13 15 25 16 14 17 16 18 26 19 15 20 17 21 18 22 24 23
REMARK SMILES IDX 19 24 22 25 20 26 23 27 21 28 29 29 30 30 31 31 32 32 33 33
REMARK SMILES IDX 34 34 95 35 35 36 94 37 36 38 37 39 38 40 88 41 39 42 93 43
REMARK SMILES IDX 87 44 89 45 40 46 92 47 86 48 85 49 41 51 73 52 53 53 72 54
REMARK SMILES IDX 54 55 57 56 71 57 90 58 55 59 56 60 70 62 91 63 58 64 42 65
REMARK SMILES IDX 43 66 51 67 44 68 46 69 52 70 45 71 47 72 48 73 49 74 50 75
REMARK SMILES IDX 74 76 75 77 83 78 76 79 78 80 84 81 77 82 79 83 80 84 81 85
REMARK SMILES IDX 82 86 59 87 60 88 68 89 61 90 63 91 69 92 62 93 64 94 65 95
REMARK SMILES IDX 66 96 67 97
REMARK H PARENT 89 50 57 61
REMARK Flexibility Score: inf
ROOT
ATOM      1  C   UNL     1       4.620  -0.568   0.933  1.00  0.00     0.274 C 
ENDROOT
BRANCH   1   2
ATOM      2  O   UNL     1       3.231  -0.187   0.848  1.00  0.00    -0.460 OA
BRANCH   2   3
ATOM      3  C   UNL     1       2.517  -0.144  -0.306  1.00  0.00     0.344 C 
ATOM      4  O   UNL     1       1.288  -0.103  -0.270  1.00  0.00    -0.248 OA
BRANCH   3   5
ATOM      5  C   UNL     1       3.274  -0.051  -1.617  1.00  0.00     0.352 C 
BRANCH   5   6
ATOM      6  O   UNL     1       4.016   1.168  -1.667  1.00  0.00    -0.481 OA
BRANCH   6   7
ATOM      7  C   UNL     1       3.387   2.079  -2.482  1.00  0.00     0.127 A 
ATOM      8  C   UNL     1       3.743   2.087  -3.833  1.00  0.00     0.047 A 
ATOM      9  C   UNL     1       2.439   2.988  -1.974  1.00  0.00     0.018 A 
ATOM     10  C   UNL     1       3.108   2.965  -4.709  1.00  0.00     0.004 A 
ATOM     11  C   UNL     1       1.798   3.849  -2.873  1.00  0.00     0.012 A 
ATOM     12  C   UNL     1       2.130   3.837  -4.232  1.00  0.00     0.001 A 
BRANCH   9  13
ATOM     13  C   UNL     1       2.021   3.014  -0.563  1.00  0.00     0.033 C 
ATOM     14  C   UNL     1       2.818   3.168   0.506  1.00  0.00     0.081 C 
ATOM     15  S   UNL     1       2.276   2.925   2.119  1.00  0.00    -0.054 SA
ATOM     16  C   UNL     1       4.280   3.444   0.508  1.00  0.00     0.270 C 
ATOM     17  C   UNL     1       3.922   2.786   2.745  1.00  0.00     0.152 C 
ATOM     18  N   UNL     1       4.837   3.083   1.741  1.00  0.00    -0.261 N 
ATOM     19  O   UNL     1       4.860   3.939  -0.449  1.00  0.00    -0.268 OA
ATOM     20  S   UNL     1       4.173   2.461   4.369  1.00  0.00    -0.051 S 
BRANCH  18  21
ATOM     21  C   UNL     1       6.268   3.059   1.886  1.00  0.00     0.052 A 
ATOM     22  C   UNL     1       7.061   4.052   1.284  1.00  0.00     0.030 A 
ATOM     23  C   UNL     1       6.928   2.007   2.543  1.00  0.00     0.050 A 
ATOM     24  C   UNL     1       8.457   3.990   1.316  1.00  0.00     0.043 A 
ATOM     25  C   UNL     1       8.326   1.932   2.555  1.00  0.00     0.078 A 
ATOM     26  C   UNL     1       9.083   2.923   1.942  1.00  0.00     0.141 A 
ATOM     27  Cl  UNL     1       9.091   0.580   3.300  1.00  0.00    -0.081 Cl
ATOM     28  F   UNL     1      10.423   2.865   1.939  1.00  0.00    -0.205 F 
ENDBRANCH  18  21
ENDBRANCH   9  13
ENDBRANCH   6   7
ENDBRANCH   5   6
ENDBRANCH   3   5
ENDBRANCH   2   3
ENDBRANCH   1   2
BRANCH   1  29
ATOM     29  C   UNL     1       4.753  -2.023   1.373  1.00  0.00     0.275 C 
BRANCH  29  30
ATOM     30  O   UNL     1       4.322  -2.865   0.300  1.00  0.00    -0.458 OA
BRANCH  30  31
ATOM     31  C   UNL     1       3.018  -3.236   0.329  1.00  0.00     0.338 C 
ATOM     32  O   UNL     1       2.230  -3.093   1.246  1.00  0.00    -0.246 OA
BRANCH  31  33
ATOM     33  C   UNL     1       2.656  -3.619  -1.048  1.00  0.00     0.060 A 
ATOM     34  C   UNL     1       1.430  -3.184  -1.571  1.00  0.00     0.016 A 
ATOM     35  C   UNL     1       3.554  -4.344  -1.835  1.00  0.00     0.016 A 
ATOM     36  C   UNL     1       1.089  -3.492  -2.886  1.00  0.00     0.010 A 
ATOM     37  C   UNL     1       3.210  -4.660  -3.141  1.00  0.00     0.010 A 
ATOM     38  C   UNL     1       1.965  -4.264  -3.657  1.00  0.00    -0.014 A 
BRANCH  38  39
ATOM     39  C   UNL     1       1.530  -4.888  -4.921  1.00  0.00     0.031 A 
ATOM     40  C   UNL     1       1.019  -6.296  -4.844  1.00  0.00     0.074 A 
ATOM     41  C   UNL     1       1.746  -4.282  -6.099  1.00  0.00     0.049 A 
ATOM     42  N   UNL     1       0.791  -7.148  -5.805  1.00  0.00    -0.248 NA
ATOM     43  C   UNL     1       0.768  -6.825  -3.491  1.00  0.00     0.031 C 
ATOM     44  C   UNL     1       2.274  -2.930  -6.269  1.00  0.00     0.029 A 
ATOM     45  N   UNL     1       1.614  -4.762  -7.376  1.00  0.00    -0.354 N 
ATOM     46  C   UNL     1       0.418  -8.327  -5.173  1.00  0.00     0.074 A 
ATOM     47  C   UNL     1       0.453  -8.083  -3.749  1.00  0.00     0.031 C 
ATOM     48  C   UNL     1       2.485  -2.711  -7.578  1.00  0.00     0.029 A 
ATOM     49  C   UNL     1       2.132  -3.916  -8.327  1.00  0.00     0.049 A 
ATOM     50  H   UNL     1       1.191  -5.625  -7.590  1.00  0.00     0.167 HD
ATOM     51  C   UNL     1       0.075  -9.509  -5.732  1.00  0.00     0.034 A 
ATOM     52  C   UNL     1       2.337  -4.116  -9.644  1.00  0.00     0.034 A 
ATOM     53  C   UNL     1       0.039  -9.732  -7.149  1.00  0.00     0.049 A 
ATOM     54  C   UNL     1       1.924  -5.431 -10.254  1.00  0.00     0.074 A 
ATOM     55  C   UNL     1      -0.368 -10.861  -7.833  1.00  0.00     0.029 A 
ATOM     56  N   UNL     1       0.446  -8.806  -8.098  1.00  0.00    -0.354 N 
ATOM     57  N   UNL     1       1.422  -6.491  -9.665  1.00  0.00    -0.248 NA
ATOM     58  C   UNL     1       2.072  -5.569 -11.710  1.00  0.00     0.031 C 
ATOM     59  C   UNL     1      -0.185 -10.624  -9.200  1.00  0.00     0.029 A 
ATOM     60  C   UNL     1       0.312  -9.339  -9.365  1.00  0.00     0.049 A 
ATOM     61  H   UNL     1       0.781  -7.902  -7.898  1.00  0.00     0.167 HD
ATOM     62  C   UNL     1       1.161  -7.407 -10.679  1.00  0.00     0.074 A 
ATOM     63  C   UNL     1       1.553  -6.772 -11.922  1.00  0.00     0.031 C 
ATOM     64  C   UNL     1       0.653  -8.661 -10.591  1.00  0.00     0.034 A 
BRANCH  51  65
ATOM     65  C   UNL     1      -0.297 -10.628  -4.800  1.00  0.00     0.023 A 
ATOM     66  C   UNL     1      -1.513 -10.568  -4.088  1.00  0.00     0.012 A 
ATOM     67  C   UNL     1       0.554 -11.735  -4.623  1.00  0.00     0.148 A 
ATOM     68  C   UNL     1      -1.855 -11.570  -3.181  1.00  0.00     0.002 A 
ATOM     69  C   UNL     1       0.185 -12.752  -3.750  1.00  0.00     0.091 A 
ATOM     70  F   UNL     1       1.722 -11.758  -5.280  1.00  0.00    -0.205 F 
ATOM     71  C   UNL     1      -1.011 -12.665  -3.019  1.00  0.00     0.022 A 
BRANCH  69  72
ATOM     72  S   UNL     1       1.179 -14.232  -3.534  1.00  0.00     0.127 S 
ATOM     73  O   UNL     1       1.845 -13.959  -2.262  1.00  0.00    -0.237 OA
ATOM     74  O   UNL     1       0.162 -15.284  -3.475  1.00  0.00    -0.237 OA
ATOM     75  O   UNL     1       2.046 -14.300  -4.701  1.00  0.00    -0.744 OA
ENDBRANCH  69  72
ENDBRANCH  51  65
BRANCH  52  76
ATOM     76  C   UNL     1       2.930  -3.026 -10.467  1.00  0.00     0.023 A 
ATOM     77  C   UNL     1       2.114  -2.316 -11.368  1.00  0.00     0.012 A 
ATOM     78  C   UNL     1       4.278  -2.644 -10.312  1.00  0.00     0.148 A 
ATOM     79  C   UNL     1       2.633  -1.257 -12.114  1.00  0.00     0.002 A 
ATOM     80  C   UNL     1       4.774  -1.555 -11.019  1.00  0.00     0.091 A 
ATOM     81  F   UNL     1       5.039  -3.338  -9.455  1.00  0.00    -0.205 F 
ATOM     82  C   UNL     1       3.958  -0.869 -11.932  1.00  0.00     0.022 A 
BRANCH  80  83
ATOM     83  S   UNL     1       6.424  -0.895 -10.749  1.00  0.00     0.127 S 
ATOM     84  O   UNL     1       7.070  -1.170 -12.030  1.00  0.00    -0.237 OA
ATOM     85  O   UNL     1       6.141   0.518 -10.492  1.00  0.00    -0.237 OA
ATOM     86  O   UNL     1       6.958  -1.620  -9.605  1.00  0.00    -0.744 OA
ENDBRANCH  80  83
ENDBRANCH  52  76
BRANCH  64  87
ATOM     87  C   UNL     1       0.443  -9.430 -11.868  1.00  0.00     0.023 A 
ATOM     88  C   UNL     1       1.544 -10.005 -12.528  1.00  0.00     0.012 A 
ATOM     89  C   UNL     1      -0.862  -9.690 -12.334  1.00  0.00     0.148 A 
ATOM     90  C   UNL     1       1.352 -10.818 -13.645  1.00  0.00     0.002 A 
ATOM     91  C   UNL     1      -1.048 -10.538 -13.418  1.00  0.00     0.091 A 
ATOM     92  F   UNL     1      -1.893  -9.117 -11.697  1.00  0.00    -0.205 F 
ATOM     93  C   UNL     1       0.057 -11.096 -14.079  1.00  0.00     0.022 A 
BRANCH  91  94
ATOM     94  S   UNL     1      -2.681 -11.035 -13.979  1.00  0.00     0.127 S 
ATOM     95  O   UNL     1      -2.795 -10.307 -15.242  1.00  0.00    -0.237 OA
ATOM     96  O   UNL     1      -2.533 -12.484 -14.121  1.00  0.00    -0.237 OA
ATOM     97  O   UNL     1      -3.609 -10.622 -12.935  1.00  0.00    -0.744 OA
ENDBRANCH  91  94
ENDBRANCH  64  87
ENDBRANCH  38  39
ENDBRANCH  31  33
ENDBRANCH  30  31
ENDBRANCH  29  30
ENDBRANCH   1  29
TORSDOF 18
