REMARK SMILES CC(C)[C@H](NC(=O)[C@H]1CC(=O)N(c2ccc(F)cc2)C1)C(=O)N1CCC[C@@H]1C(=O)OCCOC(=O)c1ccc(-c2c3nc(c(-c4cccc(S(=O)(=O)[O-])c4F)c4ccc([nH]4)c(-c4cccc(S(=O)(=O)[O-])c4F)c4nc(c(-c5cccc(S(=O)(=O)[O-])c5F)c5ccc2[nH]5)C=C4)C=C3)cc1
REMARK SMILES IDX 31 1 30 2 28 3 29 4 27 5 23 6 24 7 25 8 26 9 21 10 22 11
REMARK SMILES IDX 4 12 2 13 1 14 3 15 5 16 6 17 7 19 8 20 9 21 20 22 10 23
REMARK SMILES IDX 12 24 11 25 13 26 14 27 19 28 15 29 18 30 16 31 17 32 32 33
REMARK SMILES IDX 33 34 34 35 35 36 36 37 37 38 98 39 38 40 97 41 39 42 40 43
REMARK SMILES IDX 41 44 91 45 42 46 96 47 90 48 92 49 43 50 95 51 89 52 88 53
REMARK SMILES IDX 44 55 76 56 56 57 75 58 57 59 60 60 74 61 93 62 58 63 59 64
REMARK SMILES IDX 73 66 94 67 61 68 45 69 46 70 54 71 47 72 49 73 55 74 48 75
REMARK SMILES IDX 50 76 51 77 52 78 53 79 77 80 78 81 86 82 79 83 81 84 87 85
REMARK SMILES IDX 80 86 82 87 83 88 84 89 85 90 62 91 63 92 71 93 64 94 66 95
REMARK SMILES IDX 72 96 65 97 67 98 68 99 69 100 70 101
REMARK H PARENT 5 18 92 54 60 65
REMARK Flexibility Score: inf
ROOT
ATOM      1  C   UNL     1      -1.707  -5.297   2.435  1.00  0.00     0.274 C 
ENDROOT
BRANCH   1   2
ATOM      2  O   UNL     1      -2.732  -4.920   1.493  1.00  0.00    -0.461 OA
BRANCH   2   3
ATOM      3  C   UNL     1      -2.293  -4.200   0.425  1.00  0.00     0.328 C 
ATOM      4  O   UNL     1      -1.142  -3.787   0.322  1.00  0.00    -0.250 OA
BRANCH   3   5
ATOM      5  C   UNL     1      -3.406  -3.829  -0.575  1.00  0.00     0.195 C 
ATOM      6  N   UNL     1      -3.775  -2.437  -0.351  1.00  0.00    -0.327 N 
ATOM      7  C   UNL     1      -5.208  -2.286  -0.206  1.00  0.00     0.120 C 
ATOM      8  C   UNL     1      -5.683  -3.665   0.215  1.00  0.00     0.024 C 
ATOM      9  C   UNL     1      -4.715  -4.614  -0.487  1.00  0.00     0.039 C 
BRANCH   6  10
ATOM     10  C   UNL     1      -2.867  -1.433  -0.607  1.00  0.00     0.246 C 
ATOM     11  O   UNL     1      -1.992  -1.550  -1.464  1.00  0.00    -0.272 OA
BRANCH  10  12
ATOM     12  C   UNL     1      -2.941  -0.172   0.283  1.00  0.00     0.174 C 
BRANCH  12  13
ATOM     13  C   UNL     1      -2.974  -0.582   1.790  1.00  0.00     0.015 C 
ATOM     14  C   UNL     1      -1.542  -0.669   2.336  1.00  0.00     0.010 C 
ATOM     15  C   UNL     1      -3.810   0.331   2.687  1.00  0.00     0.010 C 
ENDBRANCH  12  13
BRANCH  12  16
ATOM     16  N   UNL     1      -4.038   0.679  -0.161  1.00  0.00    -0.344 N 
ATOM     17  C   UNL     1      -4.065   1.533  -1.222  1.00  0.00     0.226 C 
ATOM     18  H   UNL     1      -4.863   0.631   0.373  1.00  0.00     0.164 HD
ATOM     19  O   UNL     1      -5.093   2.190  -1.395  1.00  0.00    -0.275 OA
BRANCH  17  20
ATOM     20  C   UNL     1      -2.855   1.678  -2.127  1.00  0.00     0.107 C 
ATOM     21  C   UNL     1      -3.269   1.675  -3.592  1.00  0.00     0.116 C 
ATOM     22  C   UNL     1      -2.183   3.022  -1.894  1.00  0.00     0.139 C 
ATOM     23  C   UNL     1      -2.583   2.864  -4.206  1.00  0.00     0.227 C 
ATOM     24  N   UNL     1      -1.929   3.577  -3.201  1.00  0.00    -0.312 N 
ATOM     25  O   UNL     1      -2.617   3.096  -5.406  1.00  0.00    -0.274 OA
BRANCH  24  26
ATOM     26  C   UNL     1      -1.187   4.772  -3.394  1.00  0.00     0.044 A 
ATOM     27  C   UNL     1      -1.433   5.606  -4.495  1.00  0.00     0.029 A 
ATOM     28  C   UNL     1      -0.187   5.154  -2.485  1.00  0.00     0.029 A 
ATOM     29  C   UNL     1      -0.712   6.790  -4.680  1.00  0.00     0.041 A 
ATOM     30  C   UNL     1       0.557   6.323  -2.686  1.00  0.00     0.041 A 
ATOM     31  C   UNL     1       0.281   7.134  -3.776  1.00  0.00     0.123 A 
ATOM     32  F   UNL     1       0.979   8.263  -3.957  1.00  0.00    -0.207 F 
ENDBRANCH  24  26
ENDBRANCH  17  20
ENDBRANCH  12  16
ENDBRANCH  10  12
ENDBRANCH   6  10
ENDBRANCH   3   5
ENDBRANCH   2   3
ENDBRANCH   1   2
BRANCH   1  33
ATOM     33  C   UNL     1      -1.227  -6.735   2.213  1.00  0.00     0.275 C 
BRANCH  33  34
ATOM     34  O   UNL     1      -0.616  -6.926   0.924  1.00  0.00    -0.458 OA
BRANCH  34  35
ATOM     35  C   UNL     1      -1.476  -7.267  -0.064  1.00  0.00     0.338 C 
ATOM     36  O   UNL     1      -2.683  -7.418   0.033  1.00  0.00    -0.246 OA
BRANCH  35  37
ATOM     37  C   UNL     1      -0.787  -7.301  -1.362  1.00  0.00     0.060 A 
ATOM     38  C   UNL     1      -1.171  -6.365  -2.323  1.00  0.00     0.016 A 
ATOM     39  C   UNL     1       0.119  -8.311  -1.681  1.00  0.00     0.016 A 
ATOM     40  C   UNL     1      -0.677  -6.442  -3.619  1.00  0.00     0.010 A 
ATOM     41  C   UNL     1       0.626  -8.384  -2.984  1.00  0.00     0.010 A 
ATOM     42  C   UNL     1       0.214  -7.463  -3.964  1.00  0.00    -0.014 A 
BRANCH  42  43
ATOM     43  C   UNL     1       0.670  -7.581  -5.368  1.00  0.00     0.031 A 
ATOM     44  C   UNL     1       0.167  -8.706  -6.226  1.00  0.00     0.074 A 
ATOM     45  C   UNL     1       1.516  -6.664  -5.873  1.00  0.00     0.049 A 
ATOM     46  N   UNL     1       0.505  -9.023  -7.447  1.00  0.00    -0.248 NA
ATOM     47  C   UNL     1      -0.850  -9.591  -5.634  1.00  0.00     0.031 C 
ATOM     48  C   UNL     1       2.041  -5.511  -5.140  1.00  0.00     0.029 A 
ATOM     49  N   UNL     1       2.090  -6.563  -7.114  1.00  0.00    -0.354 N 
ATOM     50  C   UNL     1      -0.219 -10.167  -7.756  1.00  0.00     0.074 A 
ATOM     51  C   UNL     1      -1.021 -10.488  -6.596  1.00  0.00     0.031 C 
ATOM     52  C   UNL     1       2.867  -4.823  -5.943  1.00  0.00     0.029 A 
ATOM     53  C   UNL     1       2.965  -5.509  -7.228  1.00  0.00     0.049 A 
ATOM     54  H   UNL     1       1.895  -7.185  -7.852  1.00  0.00     0.167 HD
ATOM     55  C   UNL     1      -0.221 -10.875  -8.909  1.00  0.00     0.034 A 
ATOM     56  C   UNL     1       3.775  -5.151  -8.244  1.00  0.00     0.034 A 
ATOM     57  C   UNL     1       0.539 -10.518 -10.076  1.00  0.00     0.049 A 
ATOM     58  C   UNL     1       3.758  -5.961  -9.511  1.00  0.00     0.074 A 
ATOM     59  C   UNL     1       0.576 -11.155 -11.303  1.00  0.00     0.029 A 
ATOM     60  N   UNL     1       1.390  -9.427 -10.165  1.00  0.00    -0.354 N 
ATOM     61  N   UNL     1       3.022  -7.003  -9.810  1.00  0.00    -0.248 NA
ATOM     62  C   UNL     1       4.668  -5.539 -10.586  1.00  0.00     0.031 C 
ATOM     63  C   UNL     1       1.458 -10.455 -12.132  1.00  0.00     0.029 A 
ATOM     64  C   UNL     1       1.961  -9.375 -11.424  1.00  0.00     0.049 A 
ATOM     65  H   UNL     1       1.562  -8.784  -9.439  1.00  0.00     0.167 HD
ATOM     66  C   UNL     1       3.362  -7.352 -11.112  1.00  0.00     0.074 A 
ATOM     67  C   UNL     1       4.356  -6.394 -11.553  1.00  0.00     0.031 C 
ATOM     68  C   UNL     1       2.909  -8.384 -11.865  1.00  0.00     0.034 A 
BRANCH  55  69
ATOM     69  C   UNL     1      -1.099 -12.094  -8.989  1.00  0.00     0.023 A 
ATOM     70  C   UNL     1      -2.486 -11.938  -9.180  1.00  0.00     0.012 A 
ATOM     71  C   UNL     1      -0.542 -13.387  -8.965  1.00  0.00     0.148 A 
ATOM     72  C   UNL     1      -3.309 -13.053  -9.333  1.00  0.00     0.002 A 
ATOM     73  C   UNL     1      -1.363 -14.493  -9.154  1.00  0.00     0.091 A 
ATOM     74  F   UNL     1       0.777 -13.512  -8.758  1.00  0.00    -0.205 F 
ATOM     75  C   UNL     1      -2.747 -14.328  -9.332  1.00  0.00     0.022 A 
BRANCH  73  76
ATOM     76  S   UNL     1      -0.726 -16.170  -9.239  1.00  0.00     0.127 S 
ATOM     77  O   UNL     1      -1.208 -16.733  -7.978  1.00  0.00    -0.237 OA
ATOM     78  O   UNL     1      -1.389 -16.694 -10.433  1.00  0.00    -0.237 OA
ATOM     79  O   UNL     1       0.721 -16.045  -9.353  1.00  0.00    -0.744 OA
ENDBRANCH  73  76
ENDBRANCH  55  69
BRANCH  56  80
ATOM     80  C   UNL     1       4.637  -3.944  -8.101  1.00  0.00     0.023 A 
ATOM     81  C   UNL     1       4.335  -2.786  -8.841  1.00  0.00     0.012 A 
ATOM     82  C   UNL     1       5.705  -3.913  -7.181  1.00  0.00     0.148 A 
ATOM     83  C   UNL     1       5.085  -1.621  -8.675  1.00  0.00     0.002 A 
ATOM     84  C   UNL     1       6.412  -2.733  -6.979  1.00  0.00     0.091 A 
ATOM     85  F   UNL     1       5.994  -5.033  -6.504  1.00  0.00    -0.205 F 
ATOM     86  C   UNL     1       6.111  -1.589  -7.734  1.00  0.00     0.022 A 
BRANCH  84  87
ATOM     87  S   UNL     1       7.649  -2.568  -5.686  1.00  0.00     0.127 S 
ATOM     88  O   UNL     1       8.890  -2.577  -6.456  1.00  0.00    -0.237 OA
ATOM     89  O   UNL     1       7.303  -1.276  -5.092  1.00  0.00    -0.237 OA
ATOM     90  O   UNL     1       7.442  -3.706  -4.801  1.00  0.00    -0.744 OA
ENDBRANCH  84  87
ENDBRANCH  56  80
BRANCH  68  91
ATOM     91  C   UNL     1       3.471  -8.546 -13.252  1.00  0.00     0.023 A 
ATOM     92  C   UNL     1       4.763  -9.083 -13.413  1.00  0.00     0.012 A 
ATOM     93  C   UNL     1       2.679  -8.287 -14.388  1.00  0.00     0.148 A 
ATOM     94  C   UNL     1       5.264  -9.349 -14.686  1.00  0.00     0.002 A 
ATOM     95  C   UNL     1       3.169  -8.594 -15.652  1.00  0.00     0.091 A 
ATOM     96  F   UNL     1       1.459  -7.760 -14.210  1.00  0.00    -0.205 F 
ATOM     97  C   UNL     1       4.463  -9.118 -15.803  1.00  0.00     0.022 A 
BRANCH  95  98
ATOM     98  S   UNL     1       2.173  -8.423 -17.137  1.00  0.00     0.127 S 
ATOM     99  O   UNL     1       2.766  -7.241 -17.760  1.00  0.00    -0.237 OA
ATOM    100  O   UNL     1       2.438  -9.680 -17.838  1.00  0.00    -0.237 OA
ATOM    101  O   UNL     1       0.798  -8.267 -16.681  1.00  0.00    -0.744 OA
ENDBRANCH  95  98
ENDBRANCH  68  91
ENDBRANCH  42  43
ENDBRANCH  35  37
ENDBRANCH  34  35
ENDBRANCH  33  34
ENDBRANCH   1  33
TORSDOF 20
