REMARK SMILES C[C@H](NS(=O)(=O)c1ccc(-c2cc(-c3ccccc3)c3cc([N+](=O)[O-])ccc3n2)cc1)C(=O)OCCOC(=O)c1ccc(-c2c3nc(c(-c4cccc(S(=O)(=O)[O-])c4F)c4ccc([nH]4)c(-c4cccc(S(=O)(=O)[O-])c4F)c4nc(c(-c5cccc(S(=O)(=O)[O-])c5F)c5ccc2[nH]5)C=C4)C=C3)cc1
REMARK SMILES IDX 35 1 34 2 32 3 33 4 2 5 1 6 3 7 4 9 5 10 6 11 7 12 8 13
REMARK SMILES IDX 31 14 9 15 30 16 10 17 11 18 12 19 29 20 13 21 28 22 20 23
REMARK SMILES IDX 27 24 21 25 26 26 22 27 14 28 15 29 19 30 16 31 18 32 17 33
REMARK SMILES IDX 23 34 24 35 25 36 36 37 37 38 38 39 39 40 40 41 41 42 102 43
REMARK SMILES IDX 42 44 101 45 43 46 44 47 45 48 95 49 46 50 100 51 94 52
REMARK SMILES IDX 96 53 47 54 99 55 93 56 92 57 48 59 80 60 60 61 79 62 61 63
REMARK SMILES IDX 64 64 78 65 97 66 62 67 63 68 77 70 98 71 65 72 49 73 50 74
REMARK SMILES IDX 58 75 51 76 53 77 59 78 52 79 54 80 55 81 56 82 57 83 81 84
REMARK SMILES IDX 82 85 90 86 83 87 85 88 91 89 84 90 86 91 87 92 88 93 89 94
REMARK SMILES IDX 66 95 67 96 75 97 68 98 70 99 76 100 69 101 71 102 72 103
REMARK SMILES IDX 73 104 74 105
REMARK H PARENT 3 8 96 58 64 69
REMARK Flexibility Score: inf
ROOT
ATOM      1  C   UNL     1      -2.994  -0.680   0.289  1.00  0.00     0.274 C 
ENDROOT
BRANCH   1   2
ATOM      2  O   UNL     1      -1.563  -0.810   0.432  1.00  0.00    -0.461 OA
BRANCH   2   3
ATOM      3  C   UNL     1      -0.979  -1.729  -0.365  1.00  0.00     0.324 C 
ATOM      4  O   UNL     1      -1.615  -2.450  -1.134  1.00  0.00    -0.250 OA
BRANCH   3   5
ATOM      5  C   UNL     1       0.524  -1.859  -0.253  1.00  0.00     0.176 C 
ATOM      6  C   UNL     1       0.834  -3.282   0.199  1.00  0.00     0.038 C 
BRANCH   5   7
ATOM      7  N   UNL     1       1.504  -0.880   0.266  1.00  0.00    -0.197 NA
ATOM      8  H   UNL     1       1.462  -0.105  -0.397  1.00  0.00     0.142 HD
BRANCH   7   9
ATOM      9  S   UNL     1       1.569  -0.141   1.761  1.00  0.00     0.241 S 
ATOM     10  O   UNL     1       2.537   0.926   1.620  1.00  0.00    -0.207 OA
ATOM     11  O   UNL     1       0.228   0.121   2.227  1.00  0.00    -0.207 OA
BRANCH   9  12
ATOM     12  C   UNL     1       2.303  -1.282   2.923  1.00  0.00     0.082 A 
ATOM     13  C   UNL     1       2.794  -2.517   2.518  1.00  0.00     0.022 A 
ATOM     14  C   UNL     1       2.037  -1.047   4.272  1.00  0.00     0.022 A 
ATOM     15  C   UNL     1       2.582  -3.621   3.353  1.00  0.00     0.012 A 
ATOM     16  C   UNL     1       1.964  -2.130   5.142  1.00  0.00     0.012 A 
ATOM     17  C   UNL     1       1.958  -3.436   4.598  1.00  0.00     0.000 A 
BRANCH  17  18
ATOM     18  C   UNL     1       0.730  -4.249   4.925  1.00  0.00     0.072 A 
ATOM     19  C   UNL     1       0.399  -4.516   6.244  1.00  0.00     0.038 A 
ATOM     20  N   UNL     1      -0.249  -3.864   4.069  1.00  0.00    -0.248 NA
ATOM     21  C   UNL     1      -0.749  -3.900   6.774  1.00  0.00    -0.007 A 
ATOM     22  C   UNL     1      -1.162  -3.033   4.564  1.00  0.00     0.072 A 
ATOM     23  C   UNL     1      -1.389  -2.934   5.947  1.00  0.00     0.015 A 
ATOM     24  C   UNL     1      -1.750  -2.123   3.699  1.00  0.00     0.036 A 
ATOM     25  C   UNL     1      -2.108  -1.813   6.432  1.00  0.00     0.096 A 
ATOM     26  C   UNL     1      -2.415  -0.993   4.176  1.00  0.00     0.088 A 
ATOM     27  C   UNL     1      -2.554  -0.823   5.550  1.00  0.00     0.270 A 
BRANCH  21  28
ATOM     28  C   UNL     1      -1.212  -4.173   8.153  1.00  0.00    -0.018 A 
ATOM     29  C   UNL     1      -2.593  -4.280   8.422  1.00  0.00     0.009 A 
ATOM     30  C   UNL     1      -0.330  -4.363   9.227  1.00  0.00     0.009 A 
ATOM     31  C   UNL     1      -3.075  -4.514   9.710  1.00  0.00     0.001 A 
ATOM     32  C   UNL     1      -0.811  -4.622  10.517  1.00  0.00     0.001 A 
ATOM     33  C   UNL     1      -2.181  -4.686  10.759  1.00  0.00     0.000 A 
ENDBRANCH  21  28
BRANCH  27  34
ATOM     34  N   UNL     1      -3.068   0.444   6.075  1.00  0.00     0.062 N 
ATOM     35  O   UNL     1      -2.804   0.723   7.254  1.00  0.00    -0.258 OA
ATOM     36  O   UNL     1      -3.725   1.163   5.310  1.00  0.00    -0.258 OA
ENDBRANCH  27  34
ENDBRANCH  17  18
ENDBRANCH   9  12
ENDBRANCH   7   9
ENDBRANCH   5   7
ENDBRANCH   3   5
ENDBRANCH   2   3
ENDBRANCH   1   2
BRANCH   1  37
ATOM     37  C   UNL     1      -3.382   0.540  -0.549  1.00  0.00     0.275 C 
BRANCH  37  38
ATOM     38  O   UNL     1      -3.006   0.394  -1.929  1.00  0.00    -0.458 OA
BRANCH  38  39
ATOM     39  C   UNL     1      -1.734   0.757  -2.211  1.00  0.00     0.338 C 
ATOM     40  O   UNL     1      -0.905   1.203  -1.432  1.00  0.00    -0.246 OA
BRANCH  39  41
ATOM     41  C   UNL     1      -1.391   0.402  -3.597  1.00  0.00     0.060 A 
ATOM     42  C   UNL     1      -0.130  -0.166  -3.815  1.00  0.00     0.016 A 
ATOM     43  C   UNL     1      -2.241   0.679  -4.670  1.00  0.00     0.016 A 
ATOM     44  C   UNL     1       0.294  -0.448  -5.106  1.00  0.00     0.010 A 
ATOM     45  C   UNL     1      -1.808   0.409  -5.971  1.00  0.00     0.010 A 
ATOM     46  C   UNL     1      -0.533  -0.138  -6.191  1.00  0.00    -0.014 A 
BRANCH  46  47
ATOM     47  C   UNL     1      -0.006  -0.317  -7.559  1.00  0.00     0.031 A 
ATOM     48  C   UNL     1       0.573   0.862  -8.284  1.00  0.00     0.074 A 
ATOM     49  C   UNL     1      -0.003  -1.540  -8.116  1.00  0.00     0.049 A 
ATOM     50  N   UNL     1       1.097   0.916  -9.479  1.00  0.00    -0.248 NA
ATOM     51  C   UNL     1       0.569   2.148  -7.566  1.00  0.00     0.031 C 
ATOM     52  C   UNL     1      -0.514  -2.754  -7.481  1.00  0.00     0.029 A 
ATOM     53  N   UNL     1       0.446  -1.961  -9.341  1.00  0.00    -0.354 N 
ATOM     54  C   UNL     1       1.464   2.241  -9.669  1.00  0.00     0.074 A 
ATOM     55  C   UNL     1       1.105   2.961  -8.466  1.00  0.00     0.031 C 
ATOM     56  C   UNL     1      -0.354  -3.787  -8.325  1.00  0.00     0.029 A 
ATOM     57  C   UNL     1       0.247  -3.302  -9.565  1.00  0.00     0.049 A 
ATOM     58  H   UNL     1       0.869  -1.361  -9.996  1.00  0.00     0.167 HD
ATOM     59  C   UNL     1       2.063   2.803 -10.744  1.00  0.00     0.034 A 
ATOM     60  C   UNL     1       0.516  -4.049 -10.653  1.00  0.00     0.034 A 
ATOM     61  C   UNL     1       2.443   2.077 -11.924  1.00  0.00     0.049 A 
ATOM     62  C   UNL     1       1.163  -3.393 -11.843  1.00  0.00     0.074 A 
ATOM     63  C   UNL     1       3.060   2.553 -13.067  1.00  0.00     0.029 A 
ATOM     64  N   UNL     1       2.242   0.718 -12.112  1.00  0.00    -0.354 N 
ATOM     65  N   UNL     1       1.573  -2.155 -11.979  1.00  0.00    -0.248 NA
ATOM     66  C   UNL     1       1.401  -4.239 -13.021  1.00  0.00     0.031 C 
ATOM     67  C   UNL     1       3.234   1.478 -13.947  1.00  0.00     0.029 A 
ATOM     68  C   UNL     1       2.721   0.335 -13.351  1.00  0.00     0.049 A 
ATOM     69  H   UNL     1       1.820   0.114 -11.459  1.00  0.00     0.167 HD
ATOM     70  C   UNL     1       2.131  -2.075 -13.249  1.00  0.00     0.074 A 
ATOM     71  C   UNL     1       2.031  -3.398 -13.833  1.00  0.00     0.031 C 
ATOM     72  C   UNL     1       2.656  -1.000 -13.887  1.00  0.00     0.034 A 
BRANCH  59  73
ATOM     73  C   UNL     1       2.380   4.269 -10.670  1.00  0.00     0.023 A 
ATOM     74  C   UNL     1       3.525   4.690  -9.965  1.00  0.00     0.012 A 
ATOM     75  C   UNL     1       1.573   5.223 -11.318  1.00  0.00     0.148 A 
ATOM     76  C   UNL     1       3.854   6.043  -9.893  1.00  0.00     0.002 A 
ATOM     77  C   UNL     1       1.923   6.568 -11.264  1.00  0.00     0.091 A 
ATOM     78  F   UNL     1       0.467   4.806 -11.951  1.00  0.00    -0.205 F 
ATOM     79  C   UNL     1       3.060   6.980 -10.550  1.00  0.00     0.022 A 
BRANCH  77  80
ATOM     80  S   UNL     1       0.978   7.831 -12.123  1.00  0.00     0.127 S 
ATOM     81  O   UNL     1       0.141   8.359 -11.047  1.00  0.00    -0.237 OA
ATOM     82  O   UNL     1       2.021   8.746 -12.588  1.00  0.00    -0.237 OA
ATOM     83  O   UNL     1       0.274   7.133 -13.190  1.00  0.00    -0.744 OA
ENDBRANCH  77  80
ENDBRANCH  59  73
BRANCH  60  84
ATOM     84  C   UNL     1       0.220  -5.508 -10.638  1.00  0.00     0.023 A 
ATOM     85  C   UNL     1       1.284  -6.427 -10.588  1.00  0.00     0.012 A 
ATOM     86  C   UNL     1      -1.104  -5.988 -10.615  1.00  0.00     0.148 A 
ATOM     87  C   UNL     1       1.036  -7.799 -10.526  1.00  0.00     0.002 A 
ATOM     88  C   UNL     1      -1.344  -7.353 -10.501  1.00  0.00     0.091 A 
ATOM     89  F   UNL     1      -2.107  -5.102 -10.695  1.00  0.00    -0.205 F 
ATOM     90  C   UNL     1      -0.277  -8.262 -10.468  1.00  0.00     0.022 A 
BRANCH  88  91
ATOM     91  S   UNL     1      -3.009  -7.994 -10.281  1.00  0.00     0.127 S 
ATOM     92  O   UNL     1      -3.386  -8.332 -11.650  1.00  0.00    -0.237 OA
ATOM     93  O   UNL     1      -2.791  -9.143  -9.401  1.00  0.00    -0.237 OA
ATOM     94  O   UNL     1      -3.749  -6.904  -9.657  1.00  0.00    -0.744 OA
ENDBRANCH  88  91
ENDBRANCH  60  84
BRANCH  72  95
ATOM     95  C   UNL     1       3.158  -1.205 -15.289  1.00  0.00     0.023 A 
ATOM     96  C   UNL     1       2.230  -1.256 -16.347  1.00  0.00     0.012 A 
ATOM     97  C   UNL     1       4.536  -1.259 -15.569  1.00  0.00     0.148 A 
ATOM     98  C   UNL     1       2.667  -1.376 -17.665  1.00  0.00     0.002 A 
ATOM     99  C   UNL     1       4.965  -1.345 -16.889  1.00  0.00     0.091 A 
ATOM    100  F   UNL     1       5.403  -1.234 -14.546  1.00  0.00    -0.205 F 
ATOM    101  C   UNL     1       4.033  -1.408 -17.938  1.00  0.00     0.022 A 
BRANCH  99 102
ATOM    102  S   UNL     1       6.710  -1.310 -17.315  1.00  0.00     0.127 S 
ATOM    103  O   UNL     1       7.022  -2.734 -17.421  1.00  0.00    -0.237 OA
ATOM    104  O   UNL     1       6.716  -0.589 -18.589  1.00  0.00    -0.237 OA
ATOM    105  O   UNL     1       7.360  -0.597 -16.223  1.00  0.00    -0.744 OA
ENDBRANCH  99 102
ENDBRANCH  72  95
ENDBRANCH  46  47
ENDBRANCH  39  41
ENDBRANCH  38  39
ENDBRANCH  37  38
ENDBRANCH   1  37
TORSDOF 20
