REMARK SMILES Cc1ccc(C)c(Oc2cccc(F)c2C(=O)OCCOC(=O)c2ccc(-c3c4nc(c(-c5cccc(S(=O)(=O)[O-])c5F)c5ccc([nH]5)c(-c5cccc(S(=O)(=O)[O-])c5F)c5nc(c(-c6cccc(S(=O)(=O)[O-])c6F)c6ccc3[nH]6)C=C5)C=C4)cc2)c1
REMARK SMILES IDX 20 1 19 2 18 3 16 4 17 5 15 6 9 7 10 8 11 9 13 10 12 11
REMARK SMILES IDX 14 12 8 13 7 14 1 15 2 16 3 17 87 18 4 19 5 20 6 21 21 22
REMARK SMILES IDX 22 23 23 24 24 25 25 26 86 27 26 28 85 29 27 30 28 31 29 32
REMARK SMILES IDX 79 33 30 34 84 35 78 36 80 37 31 38 83 39 77 40 76 41 32 43
REMARK SMILES IDX 64 44 44 45 63 46 45 47 48 48 62 49 81 50 46 51 47 52 61 54
REMARK SMILES IDX 82 55 49 56 33 57 34 58 42 59 35 60 37 61 43 62 36 63 38 64
REMARK SMILES IDX 39 65 40 66 41 67 65 68 66 69 74 70 67 71 69 72 75 73 68 74
REMARK SMILES IDX 70 75 71 76 72 77 73 78 50 79 51 80 59 81 52 82 54 83 60 84
REMARK SMILES IDX 53 85 55 86 56 87 57 88 58 89
REMARK H PARENT 80 42 48 53
REMARK Flexibility Score: inf
ROOT
ATOM      1  C   UNL     1      -5.550   4.781   3.545  1.00  0.00     0.275 C 
ENDROOT
BRANCH   1   2
ATOM      2  C   UNL     1      -4.744   4.524   4.821  1.00  0.00     0.275 C 
BRANCH   2   3
ATOM      3  O   UNL     1      -3.366   4.814   4.528  1.00  0.00    -0.458 OA
BRANCH   3   4
ATOM      4  C   UNL     1      -2.546   3.753   3.858  1.00  0.00     0.345 C 
ATOM      5  O   UNL     1      -3.120   2.732   4.325  1.00  0.00    -0.246 OA
BRANCH   4   6
ATOM      6  C   UNL     1      -0.934   4.056   2.440  1.00  0.00     0.138 A 
ATOM      7  C   UNL     1      -0.607   3.391   1.031  1.00  0.00     0.144 A 
ATOM      8  C   UNL     1       0.155   3.947  -0.077  1.00  0.00     0.048 A 
ATOM      9  C   UNL     1       0.892   5.090   0.024  1.00  0.00     0.007 A 
ATOM     10  C   UNL     1       0.180   5.145   2.380  1.00  0.00     0.141 A 
ATOM     11  C   UNL     1       0.952   5.637   1.271  1.00  0.00     0.040 A 
ATOM     12  F   UNL     1       0.626   5.833   3.453  1.00  0.00    -0.206 F 
BRANCH   7  13
ATOM     13  O   UNL     1      -1.161   2.199   0.501  1.00  0.00    -0.456 OA
BRANCH  13  14
ATOM     14  C   UNL     1      -0.401   1.056   0.298  1.00  0.00     0.130 A 
ATOM     15  C   UNL     1       3.151  -0.344   0.144  1.00  0.00     0.044 C 
ATOM     16  C   UNL     1       1.653  -0.249   0.135  1.00  0.00    -0.047 A 
ATOM     17  C   UNL     1       0.896  -1.404  -0.079  1.00  0.00     0.004 A 
ATOM     18  C   UNL     1       0.996   0.973   0.368  1.00  0.00     0.050 A 
ATOM     19  C   UNL     1      -0.492  -1.329  -0.155  1.00  0.00     0.007 A 
ATOM     20  C   UNL     1      -1.147  -0.098  -0.022  1.00  0.00    -0.008 A 
ATOM     21  C   UNL     1      -2.644  -0.071  -0.172  1.00  0.00     0.048 C 
ENDBRANCH  13  14
ENDBRANCH   7  13
ENDBRANCH   4   6
ENDBRANCH   3   4
ENDBRANCH   2   3
ENDBRANCH   1   2
BRANCH   1  22
ATOM     22  O   UNL     1      -5.292   3.830   2.476  1.00  0.00    -0.458 OA
BRANCH  22  23
ATOM     23  C   UNL     1      -4.459   4.221   1.474  1.00  0.00     0.338 C 
ATOM     24  O   UNL     1      -4.789   4.514   0.340  1.00  0.00    -0.246 OA
BRANCH  23  25
ATOM     25  C   UNL     1      -3.059   4.108   1.907  1.00  0.00     0.060 A 
ATOM     26  C   UNL     1      -2.431   2.450   2.332  1.00  0.00     0.016 A 
ATOM     27  C   UNL     1      -2.421   5.561   2.757  1.00  0.00     0.016 A 
ATOM     28  C   UNL     1      -1.132   2.249   3.618  1.00  0.00     0.010 A 
ATOM     29  C   UNL     1      -1.307   5.327   4.190  1.00  0.00     0.010 A 
ATOM     30  C   UNL     1      -0.664   3.675   4.624  1.00  0.00    -0.014 A 
BRANCH  30  31
ATOM     31  C   UNL     1      -0.110   3.535   6.003  1.00  0.00     0.031 A 
ATOM     32  C   UNL     1       1.094   4.370   6.178  1.00  0.00     0.074 A 
ATOM     33  C   UNL     1      -0.685   3.058   7.144  1.00  0.00     0.049 A 
ATOM     34  N   UNL     1       2.325   4.020   5.983  1.00  0.00    -0.248 NA
ATOM     35  C   UNL     1       0.895   5.813   6.382  1.00  0.00     0.031 C 
ATOM     36  C   UNL     1      -2.050   2.565   7.342  1.00  0.00     0.029 A 
ATOM     37  N   UNL     1      -0.189   3.037   8.440  1.00  0.00    -0.354 N 
ATOM     38  C   UNL     1       3.031   5.180   6.267  1.00  0.00     0.074 A 
ATOM     39  C   UNL     1       2.113   6.272   6.087  1.00  0.00     0.031 C 
ATOM     40  C   UNL     1      -2.342   2.515   8.666  1.00  0.00     0.029 A 
ATOM     41  C   UNL     1      -1.157   2.842   9.439  1.00  0.00     0.049 A 
ATOM     42  H   UNL     1       0.768   3.151   8.644  1.00  0.00     0.167 HD
ATOM     43  C   UNL     1       4.123   5.184   7.078  1.00  0.00     0.034 A 
ATOM     44  C   UNL     1      -1.009   2.965  10.790  1.00  0.00     0.034 A 
ATOM     45  C   UNL     1       4.494   3.861   7.486  1.00  0.00     0.049 A 
ATOM     46  C   UNL     1       0.430   2.843  11.096  1.00  0.00     0.074 A 
ATOM     47  C   UNL     1       5.047   2.739   6.915  1.00  0.00     0.029 A 
ATOM     48  N   UNL     1       3.908   3.479   8.662  1.00  0.00    -0.354 N 
ATOM     49  N   UNL     1       1.094   1.726  11.023  1.00  0.00    -0.248 NA
ATOM     50  C   UNL     1       1.227   4.041  11.338  1.00  0.00     0.031 C 
ATOM     51  C   UNL     1       4.689   1.644   7.752  1.00  0.00     0.029 A 
ATOM     52  C   UNL     1       3.943   2.123   8.826  1.00  0.00     0.049 A 
ATOM     53  H   UNL     1       3.510   4.105   9.311  1.00  0.00     0.167 HD
ATOM     54  C   UNL     1       2.374   2.141  10.728  1.00  0.00     0.074 A 
ATOM     55  C   UNL     1       2.444   3.532  11.144  1.00  0.00     0.031 C 
ATOM     56  C   UNL     1       3.107   1.464   9.806  1.00  0.00     0.034 A 
BRANCH  43  57
ATOM     57  C   UNL     1       4.591   6.384   7.864  1.00  0.00     0.023 A 
ATOM     58  C   UNL     1       5.940   6.417   8.260  1.00  0.00     0.012 A 
ATOM     59  C   UNL     1       3.749   7.395   8.377  1.00  0.00     0.148 A 
ATOM     60  C   UNL     1       6.435   7.446   9.069  1.00  0.00     0.002 A 
ATOM     61  C   UNL     1       4.266   8.485   9.061  1.00  0.00     0.091 A 
ATOM     62  F   UNL     1       2.420   7.242   8.336  1.00  0.00    -0.205 F 
ATOM     63  C   UNL     1       5.609   8.506   9.432  1.00  0.00     0.022 A 
BRANCH  61  64
ATOM     64  S   UNL     1       3.252   9.924   9.415  1.00  0.00     0.127 S 
ATOM     65  O   UNL     1       3.053   9.803  10.855  1.00  0.00    -0.237 OA
ATOM     66  O   UNL     1       4.131  11.018   8.999  1.00  0.00    -0.237 OA
ATOM     67  O   UNL     1       2.066   9.769   8.582  1.00  0.00    -0.744 OA
ENDBRANCH  61  64
ENDBRANCH  43  57
BRANCH  44  68
ATOM     68  C   UNL     1      -1.923   3.275  11.934  1.00  0.00     0.023 A 
ATOM     69  C   UNL     1      -1.465   3.041  13.259  1.00  0.00     0.012 A 
ATOM     70  C   UNL     1      -3.038   4.117  11.774  1.00  0.00     0.148 A 
ATOM     71  C   UNL     1      -2.017   3.706  14.361  1.00  0.00     0.002 A 
ATOM     72  C   UNL     1      -3.582   4.784  12.876  1.00  0.00     0.091 A 
ATOM     73  F   UNL     1      -3.502   4.339  10.538  1.00  0.00    -0.205 F 
ATOM     74  C   UNL     1      -3.060   4.599  14.165  1.00  0.00     0.022 A 
BRANCH  72  75
ATOM     75  S   UNL     1      -4.893   6.003  12.705  1.00  0.00     0.127 S 
ATOM     76  O   UNL     1      -5.789   5.650  13.807  1.00  0.00    -0.237 OA
ATOM     77  O   UNL     1      -4.163   7.254  12.887  1.00  0.00    -0.237 OA
ATOM     78  O   UNL     1      -5.460   5.785  11.380  1.00  0.00    -0.744 OA
ENDBRANCH  72  75
ENDBRANCH  44  68
BRANCH  56  79
ATOM     79  C   UNL     1       2.880  -0.011   9.669  1.00  0.00     0.023 A 
ATOM     80  C   UNL     1       1.671  -0.579   9.229  1.00  0.00     0.012 A 
ATOM     81  C   UNL     1       3.989  -0.844   9.892  1.00  0.00     0.148 A 
ATOM     82  C   UNL     1       1.574  -1.957   9.013  1.00  0.00     0.002 A 
ATOM     83  C   UNL     1       3.910  -2.198   9.612  1.00  0.00     0.091 A 
ATOM     84  F   UNL     1       5.117  -0.286  10.358  1.00  0.00    -0.205 F 
ATOM     85  C   UNL     1       2.700  -2.763   9.181  1.00  0.00     0.022 A 
BRANCH  83  86
ATOM     86  S   UNL     1       5.367  -3.242   9.661  1.00  0.00     0.127 S 
ATOM     87  O   UNL     1       5.139  -4.030  10.870  1.00  0.00    -0.237 OA
ATOM     88  O   UNL     1       5.255  -3.992   8.409  1.00  0.00    -0.237 OA
ATOM     89  O   UNL     1       6.508  -2.335   9.709  1.00  0.00    -0.744 OA
ENDBRANCH  83  86
ENDBRANCH  56  79
ENDBRANCH  30  31
ENDBRANCH  23  25
ENDBRANCH  22  23
ENDBRANCH   1  22
TORSDOF 16
