REMARK SMILES O=C(OCCOC(=O)c1cc(NC(=S)NC(=O)c2ccccc2Cl)c(Cl)cc1Cl)c1ccc(-c2c3nc(c(-c4cccc(S(=O)(=O)[O-])c4F)c4ccc([nH]4)c(-c4cccc(S(=O)(=O)[O-])c4F)c4nc(c(-c5cccc(S(=O)(=O)[O-])c5F)c5ccc2[nH]5)C=C4)C=C3)cc1
REMARK SMILES IDX 5 1 4 2 3 3 2 4 1 5 30 6 31 7 92 8 32 9 91 10 33 11 34 12
REMARK SMILES IDX 35 13 85 14 36 15 90 16 84 17 86 18 37 19 89 20 83 21 82 22
REMARK SMILES IDX 38 24 70 25 50 26 69 27 51 28 54 29 68 30 87 31 52 32 53 33
REMARK SMILES IDX 67 35 88 36 55 37 39 38 40 39 48 40 41 41 43 42 49 43 42 44
REMARK SMILES IDX 44 45 45 46 46 47 47 48 71 49 72 50 80 51 73 52 75 53 81 54
REMARK SMILES IDX 74 55 76 56 77 57 78 58 79 59 56 60 57 61 65 62 58 63 60 64
REMARK SMILES IDX 66 65 59 66 61 67 62 68 63 69 64 70 6 71 7 72 8 73 9 74
REMARK SMILES IDX 10 75 28 76 11 77 27 78 29 79 25 80 26 81 12 82 13 84 14 85
REMARK SMILES IDX 15 86 16 87 17 89 18 90 19 91 23 92 20 93 22 94 24 95 21 96
REMARK H PARENT 86 23 54 34 12 83 15 88
REMARK Flexibility Score: inf
ROOT
ATOM      1  C   UNL     1       2.911  -0.070   1.503  1.00  0.00     0.275 C 
ENDROOT
BRANCH   1   2
ATOM      2  C   UNL     1       4.109   0.872   1.297  1.00  0.00     0.275 C 
BRANCH   2   3
ATOM      3  O   UNL     1       4.239   1.636   0.088  1.00  0.00    -0.458 OA
BRANCH   3   4
ATOM      4  C   UNL     1       3.925   1.129  -1.122  1.00  0.00     0.338 C 
ATOM      5  O   UNL     1       3.026   1.628  -1.790  1.00  0.00    -0.246 OA
BRANCH   4   6
ATOM      6  C   UNL     1       4.793   0.036  -1.682  1.00  0.00     0.060 A 
ATOM      7  C   UNL     1       5.871  -0.595  -1.042  1.00  0.00     0.016 A 
ATOM      8  C   UNL     1       4.428  -0.434  -2.942  1.00  0.00     0.016 A 
ATOM      9  C   UNL     1       6.442  -1.792  -1.560  1.00  0.00     0.010 A 
ATOM     10  C   UNL     1       4.991  -1.612  -3.446  1.00  0.00     0.010 A 
ATOM     11  C   UNL     1       5.953  -2.370  -2.735  1.00  0.00    -0.014 A 
BRANCH  11  12
ATOM     12  C   UNL     1       6.362  -3.712  -3.305  1.00  0.00     0.031 A 
ATOM     13  C   UNL     1       6.825  -3.731  -4.742  1.00  0.00     0.074 A 
ATOM     14  C   UNL     1       6.207  -4.923  -2.699  1.00  0.00     0.049 A 
ATOM     15  N   UNL     1       7.117  -4.758  -5.495  1.00  0.00    -0.248 NA
ATOM     16  C   UNL     1       6.963  -2.430  -5.425  1.00  0.00     0.031 C 
ATOM     17  C   UNL     1       5.853  -5.178  -1.305  1.00  0.00     0.029 A 
ATOM     18  N   UNL     1       6.290  -6.210  -3.222  1.00  0.00    -0.354 N 
ATOM     19  C   UNL     1       7.496  -4.218  -6.711  1.00  0.00     0.074 A 
ATOM     20  C   UNL     1       7.209  -2.805  -6.667  1.00  0.00     0.031 C 
ATOM     21  C   UNL     1       5.635  -6.497  -1.120  1.00  0.00     0.029 A 
ATOM     22  C   UNL     1       5.855  -7.213  -2.368  1.00  0.00     0.049 A 
ATOM     23  H   UNL     1       6.630  -6.394  -4.127  1.00  0.00     0.167 HD
ATOM     24  C   UNL     1       8.168  -4.799  -7.726  1.00  0.00     0.034 A 
ATOM     25  C   UNL     1       5.683  -8.548  -2.547  1.00  0.00     0.034 A 
ATOM     26  C   UNL     1       8.542  -6.175  -7.774  1.00  0.00     0.049 A 
ATOM     27  C   UNL     1       6.275  -9.194  -3.775  1.00  0.00     0.074 A 
ATOM     28  C   UNL     1       9.354  -6.812  -8.693  1.00  0.00     0.029 A 
ATOM     29  N   UNL     1       8.097  -7.136  -6.888  1.00  0.00    -0.354 N 
ATOM     30  N   UNL     1       6.899  -8.630  -4.776  1.00  0.00    -0.248 NA
ATOM     31  C   UNL     1       6.271 -10.669  -3.826  1.00  0.00     0.031 C 
ATOM     32  C   UNL     1       9.349  -8.177  -8.398  1.00  0.00     0.029 A 
ATOM     33  C   UNL     1       8.565  -8.376  -7.274  1.00  0.00     0.049 A 
ATOM     34  H   UNL     1       7.531  -6.963  -6.101  1.00  0.00     0.167 HD
ATOM     35  C   UNL     1       7.451  -9.675  -5.508  1.00  0.00     0.074 A 
ATOM     36  C   UNL     1       7.069 -10.906  -4.857  1.00  0.00     0.031 C 
ATOM     37  C   UNL     1       8.235  -9.604  -6.609  1.00  0.00     0.034 A 
BRANCH  24  38
ATOM     38  C   UNL     1       8.622  -3.887  -8.820  1.00  0.00     0.023 A 
ATOM     39  C   UNL     1       9.662  -2.967  -8.566  1.00  0.00     0.012 A 
ATOM     40  C   UNL     1       8.002  -3.923 -10.075  1.00  0.00     0.148 A 
ATOM     41  C   UNL     1      10.043  -2.052  -9.540  1.00  0.00     0.002 A 
ATOM     42  C   UNL     1       8.422  -3.041 -11.058  1.00  0.00     0.091 A 
ATOM     43  F   UNL     1       7.003  -4.795 -10.269  1.00  0.00    -0.205 F 
ATOM     44  C   UNL     1       9.427  -2.094 -10.788  1.00  0.00     0.022 A 
BRANCH  42  45
ATOM     45  S   UNL     1       7.734  -3.051 -12.711  1.00  0.00     0.127 S 
ATOM     46  O   UNL     1       7.190  -1.696 -12.811  1.00  0.00    -0.237 OA
ATOM     47  O   UNL     1       8.922  -3.297 -13.526  1.00  0.00    -0.237 OA
ATOM     48  O   UNL     1       6.739  -4.114 -12.730  1.00  0.00    -0.744 OA
ENDBRANCH  42  45
ENDBRANCH  24  38
BRANCH  25  49
ATOM     49  C   UNL     1       5.056  -9.470  -1.540  1.00  0.00     0.023 A 
ATOM     50  C   UNL     1       5.870 -10.255  -0.698  1.00  0.00     0.012 A 
ATOM     51  C   UNL     1       3.670  -9.725  -1.554  1.00  0.00     0.148 A 
ATOM     52  C   UNL     1       5.321 -11.283   0.082  1.00  0.00     0.002 A 
ATOM     53  C   UNL     1       3.120 -10.718  -0.733  1.00  0.00     0.091 A 
ATOM     54  F   UNL     1       2.896  -9.014  -2.388  1.00  0.00    -0.205 F 
ATOM     55  C   UNL     1       3.946 -11.512   0.072  1.00  0.00     0.022 A 
BRANCH  53  56
ATOM     56  S   UNL     1       1.332 -10.835  -0.505  1.00  0.00     0.127 S 
ATOM     57  O   UNL     1       0.941 -11.777  -1.546  1.00  0.00    -0.237 OA
ATOM     58  O   UNL     1       1.194 -11.339   0.861  1.00  0.00    -0.237 OA
ATOM     59  O   UNL     1       0.883  -9.453  -0.669  1.00  0.00    -0.744 OA
ENDBRANCH  53  56
ENDBRANCH  25  49
BRANCH  37  60
ATOM     60  C   UNL     1       8.791 -10.879  -7.173  1.00  0.00     0.023 A 
ATOM     61  C   UNL     1       7.941 -11.794  -7.822  1.00  0.00     0.012 A 
ATOM     62  C   UNL     1      10.180 -11.114  -7.150  1.00  0.00     0.148 A 
ATOM     63  C   UNL     1       8.465 -12.937  -8.423  1.00  0.00     0.002 A 
ATOM     64  C   UNL     1      10.700 -12.221  -7.804  1.00  0.00     0.091 A 
ATOM     65  F   UNL     1      10.965 -10.239  -6.505  1.00  0.00    -0.205 F 
ATOM     66  C   UNL     1       9.843 -13.141  -8.430  1.00  0.00     0.022 A 
BRANCH  64  67
ATOM     67  S   UNL     1      12.466 -12.502  -7.968  1.00  0.00     0.127 S 
ATOM     68  O   UNL     1      12.646 -13.727  -7.189  1.00  0.00    -0.237 OA
ATOM     69  O   UNL     1      12.615 -12.669  -9.413  1.00  0.00    -0.237 OA
ATOM     70  O   UNL     1      13.118 -11.320  -7.421  1.00  0.00    -0.744 OA
ENDBRANCH  64  67
ENDBRANCH  37  60
ENDBRANCH  11  12
ENDBRANCH   4   6
ENDBRANCH   3   4
ENDBRANCH   2   3
ENDBRANCH   1   2
BRANCH   1  71
ATOM     71  O   UNL     1       2.412  -0.730   0.328  1.00  0.00    -0.458 OA
BRANCH  71  72
ATOM     72  C   UNL     1       1.330  -1.528   0.580  1.00  0.00     0.339 C 
ATOM     73  O   UNL     1       0.552  -1.341   1.509  1.00  0.00    -0.246 OA
BRANCH  72  74
ATOM     74  C   UNL     1       1.220  -2.837  -0.244  1.00  0.00     0.080 A 
ATOM     75  C   UNL     1       2.270  -4.572  -0.341  1.00  0.00     0.045 A 
ATOM     76  C   UNL     1      -0.384  -2.873  -1.092  1.00  0.00     0.057 A 
ATOM     77  C   UNL     1       1.668  -6.005  -1.012  1.00  0.00     0.060 A 
ATOM     78  C   UNL     1      -0.879  -4.391  -1.901  1.00  0.00     0.044 A 
ATOM     79  Cl  UNL     1      -1.405  -1.497  -1.192  1.00  0.00    -0.083 Cl
ATOM     80  C   UNL     1       0.120  -5.894  -1.845  1.00  0.00     0.066 A 
ATOM     81  Cl  UNL     1      -0.448  -7.233  -2.768  1.00  0.00    -0.082 Cl
BRANCH  77  82
ATOM     82  N   UNL     1       2.113  -7.076  -0.159  1.00  0.00    -0.331 N 
ATOM     83  H   UNL     1       1.817  -7.970  -0.447  1.00  0.00     0.169 HD
BRANCH  82  84
ATOM     84  C   UNL     1       2.885  -7.078   0.999  1.00  0.00     0.177 C 
ATOM     85  S   UNL     1       3.186  -8.495   1.850  1.00  0.00    -0.040 S 
BRANCH  84  86
ATOM     86  N   UNL     1       3.513  -6.002   1.690  1.00  0.00    -0.299 N 
ATOM     87  C   UNL     1       3.727  -4.589   1.992  1.00  0.00     0.258 C 
ATOM     88  H   UNL     1       4.146  -6.458   2.290  1.00  0.00     0.172 HD
ATOM     89  O   UNL     1       4.728  -4.199   2.587  1.00  0.00    -0.269 OA
BRANCH  87  90
ATOM     90  C   UNL     1       2.780  -3.570   1.443  1.00  0.00     0.058 A 
ATOM     91  C   UNL     1       3.537  -2.881  -0.042  1.00  0.00     0.015 A 
ATOM     92  C   UNL     1       1.191  -4.290   1.462  1.00  0.00     0.053 A 
ATOM     93  C   UNL     1       2.824  -3.063  -1.665  1.00  0.00     0.001 A 
ATOM     94  C   UNL     1       0.382  -4.560  -0.086  1.00  0.00     0.021 A 
ATOM     95  Cl  UNL     1       0.552  -5.033   2.874  1.00  0.00    -0.083 Cl
ATOM     96  C   UNL     1       1.278  -3.954  -1.807  1.00  0.00     0.002 A 
ENDBRANCH  87  90
ENDBRANCH  84  86
ENDBRANCH  82  84
ENDBRANCH  77  82
ENDBRANCH  72  74
ENDBRANCH  71  72
ENDBRANCH   1  71
TORSDOF 18
