REMARK SMILES O=C(OCCOC(=O)[C@H]1C[C@H]2CCCC[C@@H]2[N@@H+]1C1CCSCC1)c1ccc(-c2c3nc(c(-c4cccc(S(=O)(=O)[O-])c4F)c4ccc([nH]4)c(-c4cccc(S(=O)(=O)[O-])c4F)c4nc(c(-c5cccc(S(=O)(=O)[O-])c5F)c5ccc2[nH]5)C=C4)C=C3)cc1
REMARK SMILES IDX 4 1 3 2 2 3 1 4 24 5 25 6 86 7 26 8 85 9 27 10 28 11 29 12
REMARK SMILES IDX 79 13 30 14 84 15 78 16 80 17 31 18 83 19 77 20 76 21 32 23
REMARK SMILES IDX 64 24 44 25 63 26 45 27 48 28 62 29 81 30 46 31 47 32 61 34
REMARK SMILES IDX 82 35 49 36 33 37 34 38 42 39 35 40 37 41 43 42 36 43 38 44
REMARK SMILES IDX 39 45 40 46 41 47 65 48 66 49 74 50 67 51 69 52 75 53 68 54
REMARK SMILES IDX 70 55 71 56 72 57 73 58 50 59 51 60 59 61 52 62 54 63 60 64
REMARK SMILES IDX 53 65 55 66 56 67 57 68 58 69 5 70 6 71 7 72 8 73 9 74 10 75
REMARK SMILES IDX 17 76 11 77 16 78 12 80 15 81 13 82 14 83 18 84 19 85 23 86
REMARK SMILES IDX 20 87 22 88 21 89
REMARK H PARENT 80 22 48 33 17 79
REMARK Flexibility Score: inf
ROOT
ATOM      1  C   UNL     1       3.268  -0.552  -6.620  1.00  0.00     0.275 C 
ENDROOT
BRANCH   1   2
ATOM      2  O   UNL     1       4.217   0.477  -6.349  1.00  0.00    -0.458 OA
BRANCH   2   3
ATOM      3  C   UNL     1       3.973   1.780  -6.084  1.00  0.00     0.338 C 
ATOM      4  O   UNL     1       4.938   2.541  -6.010  1.00  0.00    -0.246 OA
BRANCH   3   5
ATOM      5  C   UNL     1       2.611   2.319  -5.739  1.00  0.00     0.060 A 
ATOM      6  C   UNL     1       1.351   1.753  -5.992  1.00  0.00     0.016 A 
ATOM      7  C   UNL     1       2.632   3.494  -4.992  1.00  0.00     0.016 A 
ATOM      8  C   UNL     1       0.172   2.236  -5.388  1.00  0.00     0.010 A 
ATOM      9  C   UNL     1       1.475   3.948  -4.367  1.00  0.00     0.010 A 
ATOM     10  C   UNL     1       0.223   3.318  -4.524  1.00  0.00    -0.014 A 
BRANCH  10  11
ATOM     11  C   UNL     1      -0.949   3.906  -3.792  1.00  0.00     0.031 A 
ATOM     12  C   UNL     1      -1.048   5.411  -3.829  1.00  0.00     0.074 A 
ATOM     13  C   UNL     1      -1.705   3.213  -2.906  1.00  0.00     0.049 A 
ATOM     14  N   UNL     1      -1.509   6.239  -2.934  1.00  0.00    -0.248 NA
ATOM     15  C   UNL     1      -0.368   6.062  -4.968  1.00  0.00     0.031 C 
ATOM     16  C   UNL     1      -1.673   1.768  -2.668  1.00  0.00     0.029 A 
ATOM     17  N   UNL     1      -2.549   3.685  -1.912  1.00  0.00    -0.354 N 
ATOM     18  C   UNL     1      -1.085   7.491  -3.360  1.00  0.00     0.074 A 
ATOM     19  C   UNL     1      -0.189   7.275  -4.473  1.00  0.00     0.031 C 
ATOM     20  C   UNL     1      -2.357   1.486  -1.541  1.00  0.00     0.029 A 
ATOM     21  C   UNL     1      -2.838   2.732  -0.949  1.00  0.00     0.049 A 
ATOM     22  H   UNL     1      -2.905   4.602  -1.893  1.00  0.00     0.167 HD
ATOM     23  C   UNL     1      -1.481   8.718  -2.949  1.00  0.00     0.034 A 
ATOM     24  C   UNL     1      -3.338   2.865   0.301  1.00  0.00     0.034 A 
ATOM     25  C   UNL     1      -2.486   8.905  -1.949  1.00  0.00     0.049 A 
ATOM     26  C   UNL     1      -3.814   4.222   0.761  1.00  0.00     0.074 A 
ATOM     27  C   UNL     1      -3.188  10.050  -1.626  1.00  0.00     0.029 A 
ATOM     28  N   UNL     1      -2.942   7.897  -1.117  1.00  0.00    -0.354 N 
ATOM     29  N   UNL     1      -3.619   5.395   0.212  1.00  0.00    -0.248 NA
ATOM     30  C   UNL     1      -4.663   4.261   1.964  1.00  0.00     0.031 C 
ATOM     31  C   UNL     1      -4.067   9.733  -0.585  1.00  0.00     0.029 A 
ATOM     32  C   UNL     1      -3.929   8.385  -0.288  1.00  0.00     0.049 A 
ATOM     33  H   UNL     1      -2.611   6.970  -1.118  1.00  0.00     0.167 HD
ATOM     34  C   UNL     1      -4.416   6.285   0.926  1.00  0.00     0.074 A 
ATOM     35  C   UNL     1      -5.043   5.532   1.989  1.00  0.00     0.031 C 
ATOM     36  C   UNL     1      -4.637   7.600   0.688  1.00  0.00     0.034 A 
BRANCH  23  37
ATOM     37  C   UNL     1      -0.922   9.907  -3.690  1.00  0.00     0.023 A 
ATOM     38  C   UNL     1      -1.131  10.017  -5.085  1.00  0.00     0.012 A 
ATOM     39  C   UNL     1      -0.163  10.891  -3.034  1.00  0.00     0.148 A 
ATOM     40  C   UNL     1      -0.484  10.997  -5.832  1.00  0.00     0.002 A 
ATOM     41  C   UNL     1       0.411  11.918  -3.777  1.00  0.00     0.091 A 
ATOM     42  F   UNL     1       0.022  10.788  -1.711  1.00  0.00    -0.205 F 
ATOM     43  C   UNL     1       0.285  11.949  -5.176  1.00  0.00     0.022 A 
BRANCH  41  44
ATOM     44  S   UNL     1       1.306  13.276  -3.018  1.00  0.00     0.127 S 
ATOM     45  O   UNL     1       2.685  12.975  -3.409  1.00  0.00    -0.237 OA
ATOM     46  O   UNL     1       0.724  14.438  -3.696  1.00  0.00    -0.237 OA
ATOM     47  O   UNL     1       1.023  13.200  -1.597  1.00  0.00    -0.744 OA
ENDBRANCH  41  44
ENDBRANCH  23  37
BRANCH  24  48
ATOM     48  C   UNL     1      -3.488   1.698   1.224  1.00  0.00     0.023 A 
ATOM     49  C   UNL     1      -4.742   1.062   1.320  1.00  0.00     0.012 A 
ATOM     50  C   UNL     1      -2.445   1.281   2.076  1.00  0.00     0.148 A 
ATOM     51  C   UNL     1      -4.967   0.065   2.272  1.00  0.00     0.002 A 
ATOM     52  C   UNL     1      -2.666   0.260   2.999  1.00  0.00     0.091 A 
ATOM     53  F   UNL     1      -1.266   1.909   1.994  1.00  0.00    -0.205 F 
ATOM     54  C   UNL     1      -3.931  -0.336   3.110  1.00  0.00     0.022 A 
BRANCH  52  55
ATOM     55  S   UNL     1      -1.385  -0.370   4.095  1.00  0.00     0.127 S 
ATOM     56  O   UNL     1      -2.001  -0.199   5.410  1.00  0.00    -0.237 OA
ATOM     57  O   UNL     1      -1.274  -1.757   3.643  1.00  0.00    -0.237 OA
ATOM     58  O   UNL     1      -0.211   0.453   3.848  1.00  0.00    -0.744 OA
ENDBRANCH  52  55
ENDBRANCH  24  48
BRANCH  36  59
ATOM     59  C   UNL     1      -5.737   8.302   1.433  1.00  0.00     0.023 A 
ATOM     60  C   UNL     1      -5.550   8.759   2.748  1.00  0.00     0.012 A 
ATOM     61  C   UNL     1      -6.901   8.666   0.724  1.00  0.00     0.148 A 
ATOM     62  C   UNL     1      -6.508   9.581   3.344  1.00  0.00     0.002 A 
ATOM     63  C   UNL     1      -7.819   9.531   1.301  1.00  0.00     0.091 A 
ATOM     64  F   UNL     1      -7.062   8.193  -0.521  1.00  0.00    -0.205 F 
ATOM     65  C   UNL     1      -7.628   9.984   2.615  1.00  0.00     0.022 A 
BRANCH  63  66
ATOM     66  S   UNL     1      -9.213  10.201   0.387  1.00  0.00     0.127 S 
ATOM     67  O   UNL     1     -10.346   9.604   1.091  1.00  0.00    -0.237 OA
ATOM     68  O   UNL     1      -9.053  11.640   0.597  1.00  0.00    -0.237 OA
ATOM     69  O   UNL     1      -9.043   9.766  -0.993  1.00  0.00    -0.744 OA
ENDBRANCH  63  66
ENDBRANCH  36  59
ENDBRANCH  10  11
ENDBRANCH   3   5
ENDBRANCH   2   3
ENDBRANCH   1   2
BRANCH   1  70
ATOM     70  C   UNL     1       2.624  -1.203  -5.383  1.00  0.00     0.274 C 
BRANCH  70  71
ATOM     71  O   UNL     1       2.386  -0.344  -4.239  1.00  0.00    -0.458 OA
BRANCH  71  72
ATOM     72  C   UNL     1       3.416  -0.281  -3.350  1.00  0.00     0.365 C 
ATOM     73  O   UNL     1       4.504  -0.814  -3.576  1.00  0.00    -0.245 OA
BRANCH  72  74
ATOM     74  C   UNL     1       3.183   0.486  -2.033  1.00  0.00     0.296 C 
ATOM     75  C   UNL     1       3.804   1.882  -2.065  1.00  0.00     0.087 C 
ATOM     76  N   UNL     1       1.786   0.647  -1.532  1.00  0.00    -0.318 N 
ATOM     77  C   UNL     1       2.997   2.651  -1.038  1.00  0.00     0.054 C 
ATOM     78  C   UNL     1       1.595   2.098  -1.250  1.00  0.00     0.188 C 
ATOM     79  H   UNL     1       1.157   0.330  -2.269  1.00  0.00     0.349 HD
ATOM     80  C   UNL     1       3.044   4.175  -1.136  1.00  0.00     0.010 C 
ATOM     81  C   UNL     1       0.694   2.689  -0.159  1.00  0.00     0.065 C 
ATOM     82  C   UNL     1       1.987   4.870  -0.267  1.00  0.00     0.001 C 
ATOM     83  C   UNL     1       0.608   4.211  -0.301  1.00  0.00     0.006 C 
BRANCH  76  84
ATOM     84  C   UNL     1       1.302  -0.278  -0.476  1.00  0.00     0.186 C 
ATOM     85  C   UNL     1       1.309  -1.762  -0.893  1.00  0.00     0.076 C 
ATOM     86  C   UNL     1       1.853  -0.167   0.960  1.00  0.00     0.076 C 
ATOM     87  C   UNL     1       2.634  -2.509  -0.788  1.00  0.00     0.075 C 
ATOM     88  C   UNL     1       3.285  -0.600   1.175  1.00  0.00     0.075 C 
ATOM     89  S   UNL     1       3.549  -2.353   0.776  1.00  0.00    -0.162 SA
ENDBRANCH  76  84
ENDBRANCH  72  74
ENDBRANCH  71  72
ENDBRANCH  70  71
ENDBRANCH   1  70
TORSDOF 15
