REMARK SMILES O=C(COc1ccc(/C=C/C(=O)c2ccc(F)cc2F)cc1[N+](=O)[O-])OCCOC(=O)c1ccc(-c2c3nc(c(-c4cccc(S(=O)(=O)[O-])c4F)c4ccc([nH]4)c(-c4cccc(S(=O)(=O)[O-])c4F)c4nc(c(-c5cccc(S(=O)(=O)[O-])c5F)c5ccc2[nH]5)C=C4)C=C3)cc1
REMARK SMILES IDX 27 1 26 2 2 3 1 4 3 5 4 6 5 7 6 8 22 9 7 10 21 11 8 12 23 13
REMARK SMILES IDX 24 14 25 15 9 16 10 17 11 18 12 19 13 20 14 21 19 22 15 23
REMARK SMILES IDX 18 24 20 25 16 26 17 27 28 28 29 29 30 30 31 31 32 32 33 33
REMARK SMILES IDX 94 34 34 35 93 36 35 37 36 38 37 39 87 40 38 41 92 42 86 43
REMARK SMILES IDX 88 44 39 45 91 46 85 47 84 48 40 50 72 51 52 52 71 53 53 54
REMARK SMILES IDX 56 55 70 56 89 57 54 58 55 59 69 61 90 62 57 63 41 64 42 65
REMARK SMILES IDX 50 66 43 67 45 68 51 69 44 70 46 71 47 72 48 73 49 74 73 75
REMARK SMILES IDX 74 76 82 77 75 78 77 79 83 80 76 81 78 82 79 83 80 84 81 85
REMARK SMILES IDX 58 86 59 87 67 88 60 89 62 90 68 91 61 92 63 93 64 94 65 95
REMARK SMILES IDX 66 96
REMARK H PARENT 88 49 56 60
REMARK Flexibility Score: inf
ROOT
ATOM      1  C   UNL     1       4.425   0.900   0.818  1.00  0.00     0.274 C 
ENDROOT
BRANCH   1   2
ATOM      2  O   UNL     1       3.018   0.939   0.503  1.00  0.00    -0.460 OA
BRANCH   2   3
ATOM      3  C   UNL     1       2.366  -0.040  -0.166  1.00  0.00     0.344 C 
ATOM      4  O   UNL     1       1.139  -0.022  -0.264  1.00  0.00    -0.248 OA
BRANCH   3   5
ATOM      5  C   UNL     1       3.177  -1.130  -0.847  1.00  0.00     0.352 C 
BRANCH   5   6
ATOM      6  O   UNL     1       3.910  -0.630  -1.965  1.00  0.00    -0.475 OA
BRANCH   6   7
ATOM      7  C   UNL     1       3.242  -0.882  -3.131  1.00  0.00     0.197 A 
ATOM      8  C   UNL     1       3.552  -2.073  -3.797  1.00  0.00     0.054 A 
ATOM      9  C   UNL     1       2.307  -0.006  -3.688  1.00  0.00     0.311 A 
ATOM     10  C   UNL     1       2.905  -2.402  -4.993  1.00  0.00     0.012 A 
ATOM     11  C   UNL     1       1.639  -0.345  -4.869  1.00  0.00     0.098 A 
ATOM     12  C   UNL     1       1.948  -1.538  -5.534  1.00  0.00    -0.018 A 
BRANCH   9  13
ATOM     13  N   UNL     1       2.033   1.304  -3.109  1.00  0.00     0.066 N 
ATOM     14  O   UNL     1       0.880   1.746  -3.221  1.00  0.00    -0.258 OA
ATOM     15  O   UNL     1       2.979   1.923  -2.601  1.00  0.00    -0.258 OA
ENDBRANCH   9  13
BRANCH  12  16
ATOM     16  C   UNL     1       1.253  -1.790  -6.795  1.00  0.00     0.012 C 
ATOM     17  C   UNL     1       1.884  -2.146  -7.924  1.00  0.00     0.053 C 
BRANCH  17  18
ATOM     18  C   UNL     1       1.188  -2.140  -9.236  1.00  0.00     0.188 C 
ATOM     19  O   UNL     1       1.496  -2.930 -10.120  1.00  0.00    -0.289 OA
BRANCH  18  20
ATOM     20  C   UNL     1       0.129  -1.139  -9.486  1.00  0.00     0.058 A 
ATOM     21  C   UNL     1      -1.059  -1.551 -10.100  1.00  0.00     0.018 A 
ATOM     22  C   UNL     1       0.300   0.206  -9.138  1.00  0.00     0.137 A 
ATOM     23  C   UNL     1      -2.079  -0.623 -10.319  1.00  0.00     0.040 A 
ATOM     24  C   UNL     1      -0.715   1.131  -9.352  1.00  0.00     0.079 A 
ATOM     25  F   UNL     1       1.446   0.640  -8.594  1.00  0.00    -0.206 F 
ATOM     26  C   UNL     1      -1.899   0.706  -9.938  1.00  0.00     0.126 A 
ATOM     27  F   UNL     1      -2.883   1.590 -10.147  1.00  0.00    -0.207 F 
ENDBRANCH  18  20
ENDBRANCH  17  18
ENDBRANCH  12  16
ENDBRANCH   6   7
ENDBRANCH   5   6
ENDBRANCH   3   5
ENDBRANCH   2   3
ENDBRANCH   1   2
BRANCH   1  28
ATOM     28  C   UNL     1       4.640   0.344   2.227  1.00  0.00     0.275 C 
BRANCH  28  29
ATOM     29  O   UNL     1       4.186  -1.020   2.290  1.00  0.00    -0.458 OA
BRANCH  29  30
ATOM     30  C   UNL     1       2.931  -1.199   2.777  1.00  0.00     0.338 C 
ATOM     31  O   UNL     1       2.215  -0.352   3.281  1.00  0.00    -0.246 OA
BRANCH  30  32
ATOM     32  C   UNL     1       2.475  -2.557   2.413  1.00  0.00     0.060 A 
ATOM     33  C   UNL     1       1.180  -2.709   1.899  1.00  0.00     0.016 A 
ATOM     34  C   UNL     1       3.311  -3.667   2.562  1.00  0.00     0.016 A 
ATOM     35  C   UNL     1       0.707  -3.979   1.562  1.00  0.00     0.010 A 
ATOM     36  C   UNL     1       2.832  -4.938   2.236  1.00  0.00     0.010 A 
ATOM     37  C   UNL     1       1.519  -5.103   1.762  1.00  0.00    -0.014 A 
BRANCH  37  38
ATOM     38  C   UNL     1       0.951  -6.467   1.647  1.00  0.00     0.031 A 
ATOM     39  C   UNL     1       0.429  -7.132   2.891  1.00  0.00     0.074 A 
ATOM     40  C   UNL     1       0.941  -7.123   0.474  1.00  0.00     0.049 A 
ATOM     41  N   UNL     1      -0.075  -8.328   3.039  1.00  0.00    -0.248 NA
ATOM     42  C   UNL     1       0.492  -6.343   4.133  1.00  0.00     0.031 C 
ATOM     43  C   UNL     1       1.431  -6.594  -0.797  1.00  0.00     0.029 A 
ATOM     44  N   UNL     1       0.529  -8.398   0.174  1.00  0.00    -0.354 N 
ATOM     45  C   UNL     1      -0.378  -8.443   4.390  1.00  0.00     0.074 A 
ATOM     46  C   UNL     1       0.017  -7.203   5.022  1.00  0.00     0.031 C 
ATOM     47  C   UNL     1       1.322  -7.551  -1.736  1.00  0.00     0.029 A 
ATOM     48  C   UNL     1       0.769  -8.762  -1.130  1.00  0.00     0.049 A 
ATOM     49  H   UNL     1       0.101  -8.994   0.830  1.00  0.00     0.167 HD
ATOM     50  C   UNL     1      -0.950  -9.479   5.046  1.00  0.00     0.034 A 
ATOM     51  C   UNL     1       0.579  -9.942  -1.754  1.00  0.00     0.034 A 
ATOM     52  C   UNL     1      -1.348 -10.710   4.423  1.00  0.00     0.049 A 
ATOM     53  C   UNL     1      -0.030 -11.093  -0.993  1.00  0.00     0.074 A 
ATOM     54  C   UNL     1      -1.981 -11.799   4.996  1.00  0.00     0.029 A 
ATOM     55  N   UNL     1      -1.136 -11.025   3.091  1.00  0.00    -0.354 N 
ATOM     56  N   UNL     1      -0.451 -11.134   0.248  1.00  0.00    -0.248 NA
ATOM     57  C   UNL     1      -0.220 -12.353  -1.730  1.00  0.00     0.031 C 
ATOM     58  C   UNL     1      -2.133 -12.782   4.012  1.00  0.00     0.029 A 
ATOM     59  C   UNL     1      -1.611 -12.297   2.824  1.00  0.00     0.049 A 
ATOM     60  H   UNL     1      -0.710 -10.431   2.431  1.00  0.00     0.167 HD
ATOM     61  C   UNL     1      -0.988 -12.405   0.429  1.00  0.00     0.074 A 
ATOM     62  C   UNL     1      -0.855 -13.098  -0.836  1.00  0.00     0.031 C 
ATOM     63  C   UNL     1      -1.527 -12.955   1.545  1.00  0.00     0.034 A 
BRANCH  50  64
ATOM     64  C   UNL     1      -1.212  -9.303   6.516  1.00  0.00     0.023 A 
ATOM     65  C   UNL     1      -2.275  -8.477   6.934  1.00  0.00     0.012 A 
ATOM     66  C   UNL     1      -0.437  -9.977   7.479  1.00  0.00     0.148 A 
ATOM     67  C   UNL     1      -2.545  -8.301   8.290  1.00  0.00     0.002 A 
ATOM     68  C   UNL     1      -0.736  -9.826   8.827  1.00  0.00     0.091 A 
ATOM     69  F   UNL     1       0.588 -10.733   7.060  1.00  0.00    -0.205 F 
ATOM     70  C   UNL     1      -1.783  -8.982   9.235  1.00  0.00     0.022 A 
BRANCH  68  71
ATOM     71  S   UNL     1       0.150 -10.712  10.114  1.00  0.00     0.127 S 
ATOM     72  O   UNL     1       0.978  -9.651  10.686  1.00  0.00    -0.237 OA
ATOM     73  O   UNL     1      -0.937 -11.170  10.980  1.00  0.00    -0.237 OA
ATOM     74  O   UNL     1       0.874 -11.778   9.438  1.00  0.00    -0.744 OA
ENDBRANCH  68  71
ENDBRANCH  50  64
BRANCH  51  75
ATOM     75  C   UNL     1       0.931 -10.088  -3.195  1.00  0.00     0.023 A 
ATOM     76  C   UNL     1      -0.096 -10.236  -4.146  1.00  0.00     0.012 A 
ATOM     77  C   UNL     1       2.271 -10.074  -3.627  1.00  0.00     0.148 A 
ATOM     78  C   UNL     1       0.206 -10.398  -5.499  1.00  0.00     0.002 A 
ATOM     79  C   UNL     1       2.563 -10.182  -4.981  1.00  0.00     0.091 A 
ATOM     80  F   UNL     1       3.235  -9.952  -2.703  1.00  0.00    -0.205 F 
ATOM     81  C   UNL     1       1.533 -10.361  -5.918  1.00  0.00     0.022 A 
BRANCH  79  82
ATOM     82  S   UNL     1       4.233 -10.016  -5.620  1.00  0.00     0.127 S 
ATOM     83  O   UNL     1       4.538 -11.386  -6.024  1.00  0.00    -0.237 OA
ATOM     84  O   UNL     1       4.042  -9.073  -6.723  1.00  0.00    -0.237 OA
ATOM     85  O   UNL     1       5.024  -9.488  -4.516  1.00  0.00    -0.744 OA
ENDBRANCH  79  82
ENDBRANCH  51  75
BRANCH  63  86
ATOM     86  C   UNL     1      -2.046 -14.367   1.457  1.00  0.00     0.023 A 
ATOM     87  C   UNL     1      -1.136 -15.442   1.405  1.00  0.00     0.012 A 
ATOM     88  C   UNL     1      -3.428 -14.635   1.520  1.00  0.00     0.148 A 
ATOM     89  C   UNL     1      -1.594 -16.759   1.390  1.00  0.00     0.002 A 
ATOM     90  C   UNL     1      -3.875 -15.951   1.551  1.00  0.00     0.091 A 
ATOM     91  F   UNL     1      -4.280 -13.599   1.550  1.00  0.00    -0.205 F 
ATOM     92  C   UNL     1      -2.961 -17.014   1.477  1.00  0.00     0.022 A 
BRANCH  90  93
ATOM     93  S   UNL     1      -5.611 -16.370   1.757  1.00  0.00     0.127 S 
ATOM     94  O   UNL     1      -5.981 -16.780   0.404  1.00  0.00    -0.237 OA
ATOM     95  O   UNL     1      -5.556 -17.460   2.732  1.00  0.00    -0.237 OA
ATOM     96  O   UNL     1      -6.257 -15.159   2.246  1.00  0.00    -0.744 OA
ENDBRANCH  90  93
ENDBRANCH  63  86
ENDBRANCH  37  38
ENDBRANCH  30  32
ENDBRANCH  29  30
ENDBRANCH  28  29
ENDBRANCH   1  28
TORSDOF 20
