REMARK SMILES O=C(CSc1nnc(-c2cccc(C(F)(F)F)c2F)o1)OCCOC(=O)c1ccc(-c2c3nc(c(-c4cccc(S(=O)(=O)[O-])c4F)c4ccc([nH]4)c(-c4cccc(S(=O)(=O)[O-])c4F)c4nc(c(-c5cccc(S(=O)(=O)[O-])c5F)c5ccc2[nH]5)C=C4)C=C3)cc1
REMARK SMILES IDX 22 1 21 2 2 3 1 4 3 5 4 6 5 7 6 8 20 9 7 10 8 11 9 12 10 13
REMARK SMILES IDX 18 14 11 15 13 16 19 17 12 18 14 19 15 20 16 21 17 22 23 23
REMARK SMILES IDX 24 24 25 25 26 26 27 27 28 28 89 29 29 30 88 31 30 32 31 33
REMARK SMILES IDX 32 34 82 35 33 36 87 37 81 38 83 39 34 40 86 41 80 42 79 43
REMARK SMILES IDX 35 45 67 46 47 47 66 48 48 49 51 50 65 51 84 52 49 53 50 54
REMARK SMILES IDX 64 56 85 57 52 58 36 59 37 60 45 61 38 62 40 63 46 64 39 65
REMARK SMILES IDX 41 66 42 67 43 68 44 69 68 70 69 71 77 72 70 73 72 74 78 75
REMARK SMILES IDX 71 76 73 77 74 78 75 79 76 80 53 81 54 82 62 83 55 84 57 85
REMARK SMILES IDX 63 86 56 87 58 88 59 89 60 90 61 91
REMARK H PARENT 83 44 51 55
REMARK Flexibility Score: inf
ROOT
ATOM      1  C   UNL     1       4.720   0.918   0.298  1.00  0.00     0.274 C 
ENDROOT
BRANCH   1   2
ATOM      2  O   UNL     1       3.431   0.890  -0.349  1.00  0.00    -0.461 OA
BRANCH   2   3
ATOM      3  C   UNL     1       2.856  -0.200  -0.913  1.00  0.00     0.316 C 
ATOM      4  O   UNL     1       1.736  -0.097  -1.414  1.00  0.00    -0.251 OA
BRANCH   3   5
ATOM      5  C   UNL     1       3.621  -1.507  -0.955  1.00  0.00     0.202 C 
BRANCH   5   6
ATOM      6  S   UNL     1       4.593  -1.643  -2.475  1.00  0.00    -0.054 SA
BRANCH   6   7
ATOM      7  C   UNL     1       3.271  -1.724  -3.592  1.00  0.00     0.277 A 
ATOM      8  N   UNL     1       2.338  -2.652  -3.586  1.00  0.00    -0.101 NA
ATOM      9  O   UNL     1       3.021  -0.731  -4.491  1.00  0.00    -0.411 OA
ATOM     10  N   UNL     1       1.395  -2.263  -4.515  1.00  0.00    -0.107 NA
ATOM     11  C   UNL     1       1.828  -1.128  -5.024  1.00  0.00     0.251 A 
BRANCH  11  12
ATOM     12  C   UNL     1       1.203  -0.235  -5.982  1.00  0.00     0.075 A 
ATOM     13  C   UNL     1      -0.177  -0.330  -6.217  1.00  0.00     0.017 A 
ATOM     14  C   UNL     1       1.938   0.731  -6.683  1.00  0.00     0.148 A 
ATOM     15  C   UNL     1      -0.803   0.524  -7.126  1.00  0.00     0.002 A 
ATOM     16  C   UNL     1       1.328   1.595  -7.593  1.00  0.00     0.092 A 
ATOM     17  F   UNL     1       3.263   0.824  -6.498  1.00  0.00    -0.205 F 
ATOM     18  C   UNL     1      -0.054   1.480  -7.812  1.00  0.00     0.016 A 
BRANCH  16  19
ATOM     19  C   UNL     1       2.136   2.603  -8.353  1.00  0.00     0.419 C 
ATOM     20  F   UNL     1       2.272   2.266  -9.667  1.00  0.00    -0.166 F 
ATOM     21  F   UNL     1       1.547   3.835  -8.356  1.00  0.00    -0.166 F 
ATOM     22  F   UNL     1       3.398   2.810  -7.889  1.00  0.00    -0.166 F 
ENDBRANCH  16  19
ENDBRANCH  11  12
ENDBRANCH   6   7
ENDBRANCH   5   6
ENDBRANCH   3   5
ENDBRANCH   2   3
ENDBRANCH   1   2
BRANCH   1  23
ATOM     23  C   UNL     1       4.583   0.738   1.811  1.00  0.00     0.275 C 
BRANCH  23  24
ATOM     24  O   UNL     1       4.108  -0.586   2.110  1.00  0.00    -0.458 OA
BRANCH  24  25
ATOM     25  C   UNL     1       2.778  -0.697   2.361  1.00  0.00     0.338 C 
ATOM     26  O   UNL     1       1.985   0.221   2.480  1.00  0.00    -0.246 OA
BRANCH  25  27
ATOM     27  C   UNL     1       2.386  -2.123   2.277  1.00  0.00     0.060 A 
ATOM     28  C   UNL     1       1.140  -2.432   1.717  1.00  0.00     0.016 A 
ATOM     29  C   UNL     1       3.236  -3.150   2.703  1.00  0.00     0.016 A 
ATOM     30  C   UNL     1       0.728  -3.763   1.613  1.00  0.00     0.010 A 
ATOM     31  C   UNL     1       2.822  -4.482   2.596  1.00  0.00     0.010 A 
ATOM     32  C   UNL     1       1.556  -4.795   2.076  1.00  0.00    -0.014 A 
BRANCH  32  33
ATOM     33  C   UNL     1       1.059  -6.193   2.121  1.00  0.00     0.031 A 
ATOM     34  C   UNL     1       0.562  -6.752   3.426  1.00  0.00     0.074 A 
ATOM     35  C   UNL     1       1.068  -6.968   1.020  1.00  0.00     0.049 A 
ATOM     36  N   UNL     1       0.088  -7.942   3.688  1.00  0.00    -0.248 NA
ATOM     37  C   UNL     1       0.607  -5.853   4.592  1.00  0.00     0.031 C 
ATOM     38  C   UNL     1       1.537  -6.555  -0.301  1.00  0.00     0.029 A 
ATOM     39  N   UNL     1       0.688  -8.277   0.850  1.00  0.00    -0.354 N 
ATOM     40  C   UNL     1      -0.211  -7.941   5.044  1.00  0.00     0.074 A 
ATOM     41  C   UNL     1       0.157  -6.641   5.559  1.00  0.00     0.031 C 
ATOM     42  C   UNL     1       1.438  -7.599  -1.143  1.00  0.00     0.029 A 
ATOM     43  C   UNL     1       0.910  -8.756  -0.420  1.00  0.00     0.049 A 
ATOM     44  H   UNL     1       0.294  -8.822   1.569  1.00  0.00     0.167 HD
ATOM     45  C   UNL     1      -0.766  -8.924   5.789  1.00  0.00     0.034 A 
ATOM     46  C   UNL     1       0.716  -9.986  -0.939  1.00  0.00     0.034 A 
ATOM     47  C   UNL     1      -1.158 -10.209   5.278  1.00  0.00     0.049 A 
ATOM     48  C   UNL     1       0.115 -11.070  -0.080  1.00  0.00     0.074 A 
ATOM     49  C   UNL     1      -1.783 -11.243   5.953  1.00  0.00     0.029 A 
ATOM     50  N   UNL     1      -0.956 -10.642   3.979  1.00  0.00    -0.354 N 
ATOM     51  N   UNL     1      -0.298 -11.006   1.163  1.00  0.00    -0.248 NA
ATOM     52  C   UNL     1      -0.079 -12.389  -0.705  1.00  0.00     0.031 C 
ATOM     53  C   UNL     1      -1.940 -12.311   5.066  1.00  0.00     0.029 A 
ATOM     54  C   UNL     1      -1.431 -11.934   3.834  1.00  0.00     0.049 A 
ATOM     55  H   UNL     1      -0.538 -10.110   3.264  1.00  0.00     0.167 HD
ATOM     56  C   UNL     1      -0.830 -12.259   1.456  1.00  0.00     0.074 A 
ATOM     57  C   UNL     1      -0.703 -13.059   0.257  1.00  0.00     0.031 C 
ATOM     58  C   UNL     1      -1.360 -12.707   2.621  1.00  0.00     0.034 A 
BRANCH  45  59
ATOM     59  C   UNL     1      -1.045  -8.637   7.239  1.00  0.00     0.023 A 
ATOM     60  C   UNL     1      -2.148  -7.828   7.578  1.00  0.00     0.012 A 
ATOM     61  C   UNL     1      -0.289  -9.245   8.258  1.00  0.00     0.148 A 
ATOM     62  C   UNL     1      -2.488  -7.619   8.913  1.00  0.00     0.002 A 
ATOM     63  C   UNL     1      -0.656  -9.062   9.585  1.00  0.00     0.091 A 
ATOM     64  F   UNL     1       0.768  -9.993   7.910  1.00  0.00    -0.205 F 
ATOM     65  C   UNL     1      -1.751  -8.245   9.914  1.00  0.00     0.022 A 
BRANCH  63  66
ATOM     66  S   UNL     1       0.181  -9.882  10.947  1.00  0.00     0.127 S 
ATOM     67  O   UNL     1       0.830  -8.755  11.615  1.00  0.00    -0.237 OA
ATOM     68  O   UNL     1      -0.937 -10.468  11.687  1.00  0.00    -0.237 OA
ATOM     69  O   UNL     1       1.084 -10.850  10.340  1.00  0.00    -0.744 OA
ENDBRANCH  63  66
ENDBRANCH  45  59
BRANCH  46  70
ATOM     70  C   UNL     1       1.040 -10.245  -2.370  1.00  0.00     0.023 A 
ATOM     71  C   UNL     1      -0.008 -10.452  -3.289  1.00  0.00     0.012 A 
ATOM     72  C   UNL     1       2.371 -10.267  -2.830  1.00  0.00     0.148 A 
ATOM     73  C   UNL     1       0.265 -10.698  -4.635  1.00  0.00     0.002 A 
ATOM     74  C   UNL     1       2.634 -10.463  -4.181  1.00  0.00     0.091 A 
ATOM     75  F   UNL     1       3.354 -10.091  -1.936  1.00  0.00    -0.205 F 
ATOM     76  C   UNL     1       1.583 -10.693  -5.083  1.00  0.00     0.022 A 
BRANCH  74  77
ATOM     77  S   UNL     1       4.292 -10.361  -4.865  1.00  0.00     0.127 S 
ATOM     78  O   UNL     1       4.574 -11.759  -5.178  1.00  0.00    -0.237 OA
ATOM     79  O   UNL     1       4.088  -9.498  -6.029  1.00  0.00    -0.237 OA
ATOM     80  O   UNL     1       5.113  -9.769  -3.817  1.00  0.00    -0.744 OA
ENDBRANCH  74  77
ENDBRANCH  46  70
BRANCH  58  81
ATOM     81  C   UNL     1      -1.870 -14.124   2.680  1.00  0.00     0.023 A 
ATOM     82  C   UNL     1      -0.952 -15.190   2.741  1.00  0.00     0.012 A 
ATOM     83  C   UNL     1      -3.248 -14.391   2.815  1.00  0.00     0.148 A 
ATOM     84  C   UNL     1      -1.396 -16.500   2.920  1.00  0.00     0.002 A 
ATOM     85  C   UNL     1      -3.681 -15.694   3.039  1.00  0.00     0.091 A 
ATOM     86  F   UNL     1      -4.108 -13.365   2.740  1.00  0.00    -0.205 F 
ATOM     87  C   UNL     1      -2.756 -16.750   3.084  1.00  0.00     0.022 A 
BRANCH  85  88
ATOM     88  S   UNL     1      -5.402 -16.098   3.365  1.00  0.00     0.127 S 
ATOM     89  O   UNL     1      -5.787 -16.777   2.129  1.00  0.00    -0.237 OA
ATOM     90  O   UNL     1      -5.300 -16.973   4.534  1.00  0.00    -0.237 OA
ATOM     91  O   UNL     1      -6.072 -14.830   3.616  1.00  0.00    -0.744 OA
ENDBRANCH  85  88
ENDBRANCH  58  81
ENDBRANCH  32  33
ENDBRANCH  25  27
ENDBRANCH  24  25
ENDBRANCH  23  24
ENDBRANCH   1  23
TORSDOF 18
