REMARK SMILES O=C(OCCOC(=O)c1cccc(S(=O)(=O)Cc2cccc(O)c2)c1)c1ccc(-c2c3nc(c(-c4cccc(S(=O)(=O)[O-])c4F)c4ccc([nH]4)c(-c4cccc(S(=O)(=O)[O-])c4F)c4nc(c(-c5cccc(S(=O)(=O)[O-])c5F)c5ccc2[nH]5)C=C4)C=C3)cc1
REMARK SMILES IDX 5 1 4 2 3 3 2 4 1 5 26 6 27 7 88 8 28 9 87 10 29 11 30 12
REMARK SMILES IDX 31 13 81 14 32 15 86 16 80 17 82 18 33 19 85 20 79 21 78 22
REMARK SMILES IDX 34 24 66 25 46 26 65 27 47 28 50 29 64 30 83 31 48 32 49 33
REMARK SMILES IDX 63 35 84 36 51 37 35 38 36 39 44 40 37 41 39 42 45 43 38 44
REMARK SMILES IDX 40 45 41 46 42 47 43 48 67 49 68 50 76 51 69 52 71 53 77 54
REMARK SMILES IDX 70 55 72 56 73 57 74 58 75 59 52 60 53 61 61 62 54 63 56 64
REMARK SMILES IDX 62 65 55 66 57 67 58 68 59 69 60 70 6 71 7 72 8 73 9 74
REMARK SMILES IDX 10 75 25 76 11 77 13 78 12 79 14 80 15 81 16 82 17 83 18 84
REMARK SMILES IDX 19 85 24 86 20 87 22 88 21 89 23 90
REMARK H PARENT 82 23 50 34 23 91
REMARK Flexibility Score: inf
ROOT
ATOM      1  C   UNL     1       3.989   0.346  -2.013  1.00  0.00     0.275 C 
ENDROOT
BRANCH   1   2
ATOM      2  C   UNL     1       4.030  -0.840  -1.050  1.00  0.00     0.275 C 
BRANCH   2   3
ATOM      3  O   UNL     1       2.828  -1.016  -0.277  1.00  0.00    -0.458 OA
BRANCH   3   4
ATOM      4  C   UNL     1       2.418  -0.516   0.912  1.00  0.00     0.338 C 
ATOM      5  O   UNL     1       1.338  -0.913   1.353  1.00  0.00    -0.246 OA
BRANCH   4   6
ATOM      6  C   UNL     1       3.137   0.529   1.720  1.00  0.00     0.060 A 
ATOM      7  C   UNL     1       4.486   0.860   1.625  1.00  0.00     0.016 A 
ATOM      8  C   UNL     1       2.379   1.201   2.707  1.00  0.00     0.016 A 
ATOM      9  C   UNL     1       5.049   1.828   2.468  1.00  0.00     0.010 A 
ATOM     10  C   UNL     1       2.934   2.194   3.533  1.00  0.00     0.010 A 
ATOM     11  C   UNL     1       4.285   2.512   3.419  1.00  0.00    -0.014 A 
BRANCH  11  12
ATOM     12  C   UNL     1       4.999   3.397   4.375  1.00  0.00     0.031 A 
ATOM     13  C   UNL     1       5.681   2.756   5.537  1.00  0.00     0.074 A 
ATOM     14  C   UNL     1       5.123   4.723   4.178  1.00  0.00     0.049 A 
ATOM     15  N   UNL     1       6.612   3.237   6.312  1.00  0.00    -0.248 NA
ATOM     16  C   UNL     1       5.251   1.388   5.869  1.00  0.00     0.031 C 
ATOM     17  C   UNL     1       4.432   5.462   3.136  1.00  0.00     0.029 A 
ATOM     18  N   UNL     1       5.893   5.679   4.809  1.00  0.00    -0.354 N 
ATOM     19  C   UNL     1       6.829   2.263   7.274  1.00  0.00     0.074 A 
ATOM     20  C   UNL     1       5.983   1.136   6.942  1.00  0.00     0.031 C 
ATOM     21  C   UNL     1       4.869   6.732   3.141  1.00  0.00     0.029 A 
ATOM     22  C   UNL     1       5.897   6.896   4.152  1.00  0.00     0.049 A 
ATOM     23  H   UNL     1       6.389   5.511   5.643  1.00  0.00     0.167 HD
ATOM     24  C   UNL     1       7.624   2.327   8.364  1.00  0.00     0.034 A 
ATOM     25  C   UNL     1       6.691   7.983   4.288  1.00  0.00     0.034 A 
ATOM     26  C   UNL     1       8.418   3.471   8.712  1.00  0.00     0.049 A 
ATOM     27  C   UNL     1       7.715   7.949   5.391  1.00  0.00     0.074 A 
ATOM     28  C   UNL     1       9.217   3.661   9.823  1.00  0.00     0.029 A 
ATOM     29  N   UNL     1       8.486   4.637   7.964  1.00  0.00    -0.354 N 
ATOM     30  N   UNL     1       8.051   6.952   6.175  1.00  0.00    -0.248 NA
ATOM     31  C   UNL     1       8.483   9.181   5.622  1.00  0.00     0.031 C 
ATOM     32  C   UNL     1       9.753   4.952   9.758  1.00  0.00     0.029 A 
ATOM     33  C   UNL     1       9.313   5.553   8.588  1.00  0.00     0.049 A 
ATOM     34  H   UNL     1       8.014   4.790   7.113  1.00  0.00     0.167 HD
ATOM     35  C   UNL     1       9.049   7.444   7.005  1.00  0.00     0.074 A 
ATOM     36  C   UNL     1       9.339   8.791   6.556  1.00  0.00     0.031 C 
ATOM     37  C   UNL     1       9.630   6.863   8.083  1.00  0.00     0.034 A 
BRANCH  24  38
ATOM     38  C   UNL     1       7.582   1.148   9.290  1.00  0.00     0.023 A 
ATOM     39  C   UNL     1       8.224  -0.056   8.939  1.00  0.00     0.012 A 
ATOM     40  C   UNL     1       6.854   1.226  10.492  1.00  0.00     0.148 A 
ATOM     41  C   UNL     1       8.109  -1.179   9.757  1.00  0.00     0.002 A 
ATOM     42  C   UNL     1       6.777   0.115  11.320  1.00  0.00     0.091 A 
ATOM     43  F   UNL     1       6.220   2.371  10.782  1.00  0.00    -0.205 F 
ATOM     44  C   UNL     1       7.391  -1.092  10.948  1.00  0.00     0.022 A 
BRANCH  42  45
ATOM     45  S   UNL     1       5.918   0.147  12.895  1.00  0.00     0.127 S 
ATOM     46  O   UNL     1       4.761  -0.702  12.616  1.00  0.00    -0.237 OA
ATOM     47  O   UNL     1       6.909  -0.447  13.793  1.00  0.00    -0.237 OA
ATOM     48  O   UNL     1       5.618   1.546  13.161  1.00  0.00    -0.744 OA
ENDBRANCH  42  45
ENDBRANCH  24  38
BRANCH  25  49
ATOM     49  C   UNL     1       6.713   9.102   3.276  1.00  0.00     0.023 A 
ATOM     50  C   UNL     1       7.925   9.355   2.588  1.00  0.00     0.012 A 
ATOM     51  C   UNL     1       5.598   9.897   2.951  1.00  0.00     0.148 A 
ATOM     52  C   UNL     1       8.030  10.343   1.608  1.00  0.00     0.002 A 
ATOM     53  C   UNL     1       5.693  10.852   1.936  1.00  0.00     0.091 A 
ATOM     54  F   UNL     1       4.463   9.715   3.639  1.00  0.00    -0.205 F 
ATOM     55  C   UNL     1       6.909  11.082   1.271  1.00  0.00     0.022 A 
BRANCH  53  56
ATOM     56  S   UNL     1       4.284  11.799   1.344  1.00  0.00     0.127 S 
ATOM     57  O   UNL     1       4.609  13.142   1.818  1.00  0.00    -0.237 OA
ATOM     58  O   UNL     1       4.391  11.617  -0.105  1.00  0.00    -0.237 OA
ATOM     59  O   UNL     1       3.112  11.186   1.951  1.00  0.00    -0.744 OA
ENDBRANCH  53  56
ENDBRANCH  25  49
BRANCH  37  60
ATOM     60  C   UNL     1      10.627   7.685   8.852  1.00  0.00     0.023 A 
ATOM     61  C   UNL     1      10.182   8.785   9.613  1.00  0.00     0.012 A 
ATOM     62  C   UNL     1      11.986   7.327   8.879  1.00  0.00     0.148 A 
ATOM     63  C   UNL     1      11.084   9.542  10.358  1.00  0.00     0.002 A 
ATOM     64  C   UNL     1      12.871   8.053   9.665  1.00  0.00     0.091 A 
ATOM     65  F   UNL     1      12.391   6.291   8.129  1.00  0.00    -0.205 F 
ATOM     66  C   UNL     1      12.425   9.169  10.394  1.00  0.00     0.022 A 
BRANCH  64  67
ATOM     67  S   UNL     1      14.592   7.578   9.851  1.00  0.00     0.127 S 
ATOM     68  O   UNL     1      15.267   8.568   9.014  1.00  0.00    -0.237 OA
ATOM     69  O   UNL     1      14.808   7.744  11.289  1.00  0.00    -0.237 OA
ATOM     70  O   UNL     1      14.675   6.200   9.386  1.00  0.00    -0.744 OA
ENDBRANCH  64  67
ENDBRANCH  37  60
ENDBRANCH  11  12
ENDBRANCH   4   6
ENDBRANCH   3   4
ENDBRANCH   2   3
ENDBRANCH   1   2
BRANCH   1  71
ATOM     71  O   UNL     1       3.502   1.541  -1.399  1.00  0.00    -0.458 OA
BRANCH  71  72
ATOM     72  C   UNL     1       2.173   1.774  -1.567  1.00  0.00     0.338 C 
ATOM     73  O   UNL     1       1.370   1.099  -2.185  1.00  0.00    -0.246 OA
BRANCH  72  74
ATOM     74  C   UNL     1       1.837   2.956  -0.763  1.00  0.00     0.061 A 
ATOM     75  C   UNL     1       0.876   2.841   0.246  1.00  0.00     0.016 A 
ATOM     76  C   UNL     1       2.514   4.156  -0.987  1.00  0.00     0.036 A 
ATOM     77  C   UNL     1       0.651   3.916   1.102  1.00  0.00     0.002 A 
ATOM     78  C   UNL     1       2.298   5.219  -0.121  1.00  0.00     0.068 A 
ATOM     79  C   UNL     1       1.370   5.102   0.928  1.00  0.00     0.020 A 
BRANCH  78  80
ATOM     80  S   UNL     1       3.037   6.802  -0.449  1.00  0.00     0.182 S 
ATOM     81  O   UNL     1       2.284   7.271  -1.603  1.00  0.00    -0.223 OA
ATOM     82  O   UNL     1       2.981   7.529   0.799  1.00  0.00    -0.223 OA
BRANCH  80  83
ATOM     83  C   UNL     1       4.726   6.660  -0.983  1.00  0.00     0.177 C 
BRANCH  83  84
ATOM     84  C   UNL     1       5.722   5.864  -0.167  1.00  0.00    -0.029 A 
ATOM     85  C   UNL     1       5.815   4.468  -0.247  1.00  0.00     0.005 A 
ATOM     86  C   UNL     1       6.748   6.531   0.530  1.00  0.00     0.051 A 
ATOM     87  C   UNL     1       6.862   3.767   0.368  1.00  0.00     0.004 A 
ATOM     88  C   UNL     1       7.764   5.819   1.174  1.00  0.00     0.115 A 
ATOM     89  C   UNL     1       7.827   4.439   1.105  1.00  0.00     0.046 A 
BRANCH  88  90
ATOM     90  O   UNL     1       8.727   6.497   1.858  1.00  0.00    -0.508 OA
ATOM     91  H   UNL     1       9.412   6.028   2.292  1.00  0.00     0.293 HD
ENDBRANCH  88  90
ENDBRANCH  83  84
ENDBRANCH  80  83
ENDBRANCH  78  80
ENDBRANCH  72  74
ENDBRANCH  71  72
ENDBRANCH   1  71
TORSDOF 18
