REMARK SMILES C[C@H]([C@@H](C)O)[N@H+]1CC[C@@](C)(C(=O)OCCOC(=O)c2ccc(-c3c4nc(c(-c5cccc(S(=O)(=O)[O-])c5F)c5ccc([nH]5)c(-c5cccc(S(=O)(=O)[O-])c5F)c5nc(c(-c6cccc(S(=O)(=O)[O-])c6F)c6ccc3[nH]6)C=C5)C=C4)cc2)C1
REMARK SMILES IDX 14 1 13 2 11 3 12 4 9 5 6 6 7 7 82 8 8 10 10 11 2 12 1 13
REMARK SMILES IDX 3 14 4 15 5 16 15 18 16 19 17 20 18 21 19 22 20 23 81 24
REMARK SMILES IDX 21 25 80 26 22 27 23 28 24 29 74 30 25 31 79 32 73 33 75 34
REMARK SMILES IDX 26 35 78 36 72 37 71 38 27 40 59 41 39 42 58 43 40 44 43 45
REMARK SMILES IDX 57 46 76 47 41 48 42 49 56 51 77 52 44 53 28 54 29 55 37 56
REMARK SMILES IDX 30 57 32 58 38 59 31 60 33 61 34 62 35 63 36 64 60 65 61 66
REMARK SMILES IDX 69 67 62 68 64 69 70 70 63 71 65 72 66 73 67 74 68 75 45 76
REMARK SMILES IDX 46 77 54 78 47 79 49 80 55 81 48 82 50 83 51 84 52 85 53 86
REMARK H PARENT 6 9 5 17 75 39 43 50
REMARK Flexibility Score: inf
ROOT
ATOM      1  C   UNL     1      -3.818   1.300   3.432  1.00  0.00     0.274 C 
ENDROOT
BRANCH   1   2
ATOM      2  O   UNL     1      -3.688   0.526   2.221  1.00  0.00    -0.461 OA
BRANCH   2   3
ATOM      3  C   UNL     1      -3.524   1.237   1.075  1.00  0.00     0.317 C 
ATOM      4  O   UNL     1      -3.522   2.462   1.022  1.00  0.00    -0.251 OA
BRANCH   3   5
ATOM      5  C   UNL     1      -3.278   0.361  -0.149  1.00  0.00     0.119 C 
ATOM      6  N   UNL     1      -1.519  -0.753  -1.258  1.00  0.00    -0.330 N 
ATOM      7  C   UNL     1      -2.343  -1.831  -0.730  1.00  0.00     0.263 C 
ATOM      8  C   UNL     1      -1.783   0.431  -0.452  1.00  0.00     0.281 C 
ATOM      9  H   UNL     1      -1.806  -0.611  -2.227  1.00  0.00     0.348 HD
ATOM     10  C   UNL     1      -3.504  -1.151   0.008  1.00  0.00     0.086 C 
ATOM     11  C   UNL     1      -4.132   0.904  -1.306  1.00  0.00     0.030 C 
BRANCH   6  12
ATOM     12  C   UNL     1      -0.088  -1.022  -1.512  1.00  0.00     0.209 C 
ATOM     13  C   UNL     1       0.086  -2.277  -2.381  1.00  0.00     0.078 C 
BRANCH  12  14
ATOM     14  C   UNL     1       0.912  -0.999  -0.305  1.00  0.00     0.169 C 
ATOM     15  C   UNL     1       0.636  -1.969   0.836  1.00  0.00     0.045 C 
BRANCH  14  16
ATOM     16  O   UNL     1       2.252  -1.215  -0.761  1.00  0.00    -0.387 OA
ATOM     17  H   UNL     1       2.330  -2.111  -1.124  1.00  0.00     0.211 HD
ENDBRANCH  14  16
ENDBRANCH  12  14
ENDBRANCH   6  12
ENDBRANCH   3   5
ENDBRANCH   2   3
ENDBRANCH   1   2
BRANCH   1  18
ATOM     18  C   UNL     1      -2.500   1.312   4.201  1.00  0.00     0.275 C 
BRANCH  18  19
ATOM     19  O   UNL     1      -1.473   1.922   3.401  1.00  0.00    -0.458 OA
BRANCH  19  20
ATOM     20  C   UNL     1      -0.294   1.263   3.359  1.00  0.00     0.338 C 
ATOM     21  O   UNL     1      -0.022   0.222   3.950  1.00  0.00    -0.246 OA
BRANCH  20  22
ATOM     22  C   UNL     1       0.668   1.945   2.467  1.00  0.00     0.060 A 
ATOM     23  C   UNL     1       0.256   2.541   1.274  1.00  0.00     0.016 A 
ATOM     24  C   UNL     1       2.030   1.868   2.768  1.00  0.00     0.016 A 
ATOM     25  C   UNL     1       1.209   2.933   0.330  1.00  0.00     0.010 A 
ATOM     26  C   UNL     1       2.975   2.376   1.871  1.00  0.00     0.010 A 
ATOM     27  C   UNL     1       2.584   2.872   0.618  1.00  0.00    -0.014 A 
BRANCH  27  28
ATOM     28  C   UNL     1       3.606   3.338  -0.369  1.00  0.00     0.031 A 
ATOM     29  C   UNL     1       4.737   2.438  -0.813  1.00  0.00     0.074 A 
ATOM     30  C   UNL     1       3.550   4.599  -0.846  1.00  0.00     0.049 A 
ATOM     31  N   UNL     1       5.787   2.730  -1.541  1.00  0.00    -0.248 NA
ATOM     32  C   UNL     1       4.692   1.035  -0.374  1.00  0.00     0.031 C 
ATOM     33  C   UNL     1       2.530   5.589  -0.498  1.00  0.00     0.029 A 
ATOM     34  N   UNL     1       4.378   5.270  -1.714  1.00  0.00    -0.354 N 
ATOM     35  C   UNL     1       6.547   1.566  -1.604  1.00  0.00     0.074 A 
ATOM     36  C   UNL     1       5.841   0.562  -0.838  1.00  0.00     0.031 C 
ATOM     37  C   UNL     1       2.775   6.728  -1.160  1.00  0.00     0.029 A 
ATOM     38  C   UNL     1       4.015   6.582  -1.914  1.00  0.00     0.049 A 
ATOM     39  H   UNL     1       5.157   4.853  -2.149  1.00  0.00     0.167 HD
ATOM     40  C   UNL     1       7.714   1.342  -2.256  1.00  0.00     0.034 A 
ATOM     41  C   UNL     1       4.623   7.578  -2.588  1.00  0.00     0.034 A 
ATOM     42  C   UNL     1       8.389   2.311  -3.078  1.00  0.00     0.049 A 
ATOM     43  C   UNL     1       5.923   7.311  -3.286  1.00  0.00     0.074 A 
ATOM     44  C   UNL     1       9.545   2.150  -3.824  1.00  0.00     0.029 A 
ATOM     45  N   UNL     1       7.971   3.618  -3.268  1.00  0.00    -0.354 N 
ATOM     46  N   UNL     1       6.584   6.185  -3.392  1.00  0.00    -0.248 NA
ATOM     47  C   UNL     1       6.562   8.451  -3.959  1.00  0.00     0.031 C 
ATOM     48  C   UNL     1       9.830   3.365  -4.459  1.00  0.00     0.029 A 
ATOM     49  C   UNL     1       8.852   4.280  -4.108  1.00  0.00     0.049 A 
ATOM     50  H   UNL     1       7.166   4.017  -2.866  1.00  0.00     0.167 HD
ATOM     51  C   UNL     1       7.714   6.478  -4.145  1.00  0.00     0.074 A 
ATOM     52  C   UNL     1       7.630   7.880  -4.500  1.00  0.00     0.031 C 
ATOM     53  C   UNL     1       8.743   5.664  -4.486  1.00  0.00     0.034 A 
BRANCH  40  54
ATOM     54  C   UNL     1       8.323  -0.033  -2.159  1.00  0.00     0.023 A 
ATOM     55  C   UNL     1       7.808  -1.072  -2.958  1.00  0.00     0.012 A 
ATOM     56  C   UNL     1       9.450  -0.275  -1.349  1.00  0.00     0.148 A 
ATOM     57  C   UNL     1       8.396  -2.337  -2.944  1.00  0.00     0.002 A 
ATOM     58  C   UNL     1      10.048  -1.531  -1.361  1.00  0.00     0.091 A 
ATOM     59  F   UNL     1       9.910   0.719  -0.576  1.00  0.00    -0.205 F 
ATOM     60  C   UNL     1       9.521  -2.563  -2.155  1.00  0.00     0.022 A 
BRANCH  58  61
ATOM     61  S   UNL     1      11.538  -1.895  -0.422  1.00  0.00     0.127 S 
ATOM     62  O   UNL     1      10.996  -2.629   0.720  1.00  0.00    -0.237 OA
ATOM     63  O   UNL     1      12.309  -2.712  -1.360  1.00  0.00    -0.237 OA
ATOM     64  O   UNL     1      12.137  -0.604  -0.116  1.00  0.00    -0.744 OA
ENDBRANCH  58  61
ENDBRANCH  40  54
BRANCH  41  65
ATOM     65  C   UNL     1       3.977   8.920  -2.635  1.00  0.00     0.023 A 
ATOM     66  C   UNL     1       3.408   9.371  -3.840  1.00  0.00     0.012 A 
ATOM     67  C   UNL     1       3.839   9.705  -1.473  1.00  0.00     0.148 A 
ATOM     68  C   UNL     1       2.711  10.579  -3.885  1.00  0.00     0.002 A 
ATOM     69  C   UNL     1       3.086  10.872  -1.511  1.00  0.00     0.091 A 
ATOM     70  F   UNL     1       4.417   9.279  -0.340  1.00  0.00    -0.205 F 
ATOM     71  C   UNL     1       2.531  11.319  -2.718  1.00  0.00     0.022 A 
BRANCH  69  72
ATOM     72  S   UNL     1       2.671  11.758  -0.004  1.00  0.00     0.127 S 
ATOM     73  O   UNL     1       3.720  12.772   0.051  1.00  0.00    -0.237 OA
ATOM     74  O   UNL     1       1.332  12.273  -0.296  1.00  0.00    -0.237 OA
ATOM     75  O   UNL     1       2.697  10.745   1.044  1.00  0.00    -0.744 OA
ENDBRANCH  69  72
ENDBRANCH  41  65
BRANCH  53  76
ATOM     76  C   UNL     1       9.874   6.272  -5.269  1.00  0.00     0.023 A 
ATOM     77  C   UNL     1      10.815   7.077  -4.597  1.00  0.00     0.012 A 
ATOM     78  C   UNL     1      10.040   6.010  -6.642  1.00  0.00     0.148 A 
ATOM     79  C   UNL     1      11.893   7.631  -5.285  1.00  0.00     0.002 A 
ATOM     80  C   UNL     1      11.137   6.539  -7.314  1.00  0.00     0.091 A 
ATOM     81  F   UNL     1       9.121   5.263  -7.270  1.00  0.00    -0.205 F 
ATOM     82  C   UNL     1      12.060   7.355  -6.640  1.00  0.00     0.022 A 
BRANCH  80  83
ATOM     83  S   UNL     1      11.458   6.166  -9.043  1.00  0.00     0.127 S 
ATOM     84  O   UNL     1      10.899   7.339  -9.712  1.00  0.00    -0.237 OA
ATOM     85  O   UNL     1      12.919   6.080  -9.085  1.00  0.00    -0.237 OA
ATOM     86  O   UNL     1      10.778   4.903  -9.301  1.00  0.00    -0.744 OA
ENDBRANCH  80  83
ENDBRANCH  53  76
ENDBRANCH  27  28
ENDBRANCH  20  22
ENDBRANCH  19  20
ENDBRANCH  18  19
ENDBRANCH   1  18
TORSDOF 17
