REMARK SMILES O=CN1CCN(S(=O)(=O)c2ccc(C(=O)OCCOC(=O)c3ccc(-c4c5nc(c(-c6cccc(S(=O)(=O)[O-])c6F)c6ccc([nH]6)c(-c6cccc(S(=O)(=O)[O-])c6F)c6nc(c(-c7cccc(S(=O)(=O)[O-])c7F)c7ccc4[nH]7)C=C6)C=C5)cc3)cc2)CC1
REMARK SMILES IDX 18 1 17 2 16 3 14 4 15 5 13 6 10 7 11 8 86 9 12 10 85 11
REMARK SMILES IDX 7 12 8 13 9 14 6 15 1 16 2 17 3 18 4 19 88 20 5 21 87 22
REMARK SMILES IDX 19 23 20 24 21 25 22 26 23 27 84 28 24 29 83 30 25 31 26 32
REMARK SMILES IDX 27 33 77 34 28 35 82 36 76 37 78 38 29 39 81 40 75 41 74 42
REMARK SMILES IDX 30 44 62 45 42 46 61 47 43 48 46 49 60 50 79 51 44 52 45 53
REMARK SMILES IDX 59 55 80 56 47 57 31 58 32 59 40 60 33 61 35 62 41 63 34 64
REMARK SMILES IDX 36 65 37 66 38 67 39 68 63 69 64 70 72 71 65 72 67 73 73 74
REMARK SMILES IDX 66 75 68 76 69 77 70 78 71 79 48 80 49 81 57 82 50 83 52 84
REMARK SMILES IDX 58 85 51 86 53 87 54 88 55 89 56 90
REMARK H PARENT 78 43 46 54
REMARK Flexibility Score: inf
ROOT
ATOM      1  C   UNL     1       3.503   4.342 -11.554  1.00  0.00     0.275 C 
ENDROOT
BRANCH   1   2
ATOM      2  C   UNL     1       2.363   3.578 -10.884  1.00  0.00     0.275 C 
BRANCH   2   3
ATOM      3  O   UNL     1       2.757   3.100  -9.582  1.00  0.00    -0.458 OA
BRANCH   3   4
ATOM      4  C   UNL     1       3.073   1.783  -9.517  1.00  0.00     0.338 C 
ATOM      5  O   UNL     1       3.016   0.979 -10.432  1.00  0.00    -0.246 OA
BRANCH   4   6
ATOM      6  C   UNL     1       3.579   1.419  -8.170  1.00  0.00     0.060 A 
ATOM      7  C   UNL     1       4.523   0.595  -5.679  1.00  0.00     0.082 A 
ATOM      8  C   UNL     1       4.904  -0.111  -6.819  1.00  0.00     0.022 A 
ATOM      9  C   UNL     1       3.717   1.737  -5.776  1.00  0.00     0.022 A 
ATOM     10  C   UNL     1       4.410   0.291  -8.059  1.00  0.00     0.017 A 
ATOM     11  C   UNL     1       3.237   2.145  -7.023  1.00  0.00     0.017 A 
BRANCH   7  12
ATOM     12  S   UNL     1       5.077   0.034  -4.089  1.00  0.00     0.243 S 
ATOM     13  O   UNL     1       5.057   1.170  -3.186  1.00  0.00    -0.207 OA
ATOM     14  O   UNL     1       6.280  -0.738  -4.273  1.00  0.00    -0.207 OA
BRANCH  12  15
ATOM     15  N   UNL     1       3.838  -1.048  -3.620  1.00  0.00    -0.194 NA
ATOM     16  O   UNL     1       1.239   0.506   0.453  1.00  0.00    -0.279 OA
ATOM     17  C   UNL     1       2.231  -0.179   0.241  1.00  0.00     0.340 C 
ATOM     18  N   UNL     1       2.799  -0.406  -0.992  1.00  0.00    -0.343 N 
ATOM     19  C   UNL     1       4.080  -1.105  -1.123  1.00  0.00     0.136 C 
ATOM     20  C   UNL     1       2.296   0.309  -2.164  1.00  0.00     0.136 C 
ATOM     21  C   UNL     1       4.187  -1.897  -2.435  1.00  0.00     0.124 C 
ATOM     22  C   UNL     1       2.454  -0.501  -3.456  1.00  0.00     0.124 C 
ENDBRANCH  12  15
ENDBRANCH   7  12
ENDBRANCH   4   6
ENDBRANCH   3   4
ENDBRANCH   2   3
ENDBRANCH   1   2
BRANCH   1  23
ATOM     23  O   UNL     1       4.625   3.469 -11.774  1.00  0.00    -0.458 OA
BRANCH  23  24
ATOM     24  C   UNL     1       5.753   3.785 -11.097  1.00  0.00     0.338 C 
ATOM     25  O   UNL     1       5.934   4.746 -10.367  1.00  0.00    -0.246 OA
BRANCH  24  26
ATOM     26  C   UNL     1       6.777   2.753 -11.320  1.00  0.00     0.060 A 
ATOM     27  C   UNL     1       6.595   1.492 -10.761  1.00  0.00     0.016 A 
ATOM     28  C   UNL     1       7.981   3.074 -11.943  1.00  0.00     0.016 A 
ATOM     29  C   UNL     1       7.646   0.578 -10.733  1.00  0.00     0.010 A 
ATOM     30  C   UNL     1       9.002   2.116 -12.003  1.00  0.00     0.010 A 
ATOM     31  C   UNL     1       8.867   0.871 -11.360  1.00  0.00    -0.014 A 
BRANCH  31  32
ATOM     32  C   UNL     1      10.004  -0.098 -11.310  1.00  0.00     0.031 A 
ATOM     33  C   UNL     1      11.349   0.329 -10.774  1.00  0.00     0.074 A 
ATOM     34  C   UNL     1       9.851  -1.360 -11.762  1.00  0.00     0.049 A 
ATOM     35  N   UNL     1      12.496  -0.301 -10.818  1.00  0.00    -0.248 NA
ATOM     36  C   UNL     1      11.421   1.648 -10.123  1.00  0.00     0.031 C 
ATOM     37  C   UNL     1       8.615  -1.919 -12.311  1.00  0.00     0.029 A 
ATOM     38  N   UNL     1      10.748  -2.399 -11.847  1.00  0.00    -0.354 N 
ATOM     39  C   UNL     1      13.437   0.578 -10.292  1.00  0.00     0.074 A 
ATOM     40  C   UNL     1      12.724   1.780  -9.917  1.00  0.00     0.031 C 
ATOM     41  C   UNL     1       8.823  -3.198 -12.657  1.00  0.00     0.029 A 
ATOM     42  C   UNL     1      10.227  -3.528 -12.437  1.00  0.00     0.049 A 
ATOM     43  H   UNL     1      11.674  -2.341 -11.518  1.00  0.00     0.167 HD
ATOM     44  C   UNL     1      14.770   0.400 -10.128  1.00  0.00     0.034 A 
ATOM     45  C   UNL     1      10.812  -4.685 -12.807  1.00  0.00     0.034 A 
ATOM     46  C   UNL     1      15.464  -0.832 -10.401  1.00  0.00     0.049 A 
ATOM     47  C   UNL     1      12.281  -4.879 -12.565  1.00  0.00     0.074 A 
ATOM     48  C   UNL     1      16.799  -1.131 -10.188  1.00  0.00     0.029 A 
ATOM     49  N   UNL     1      14.880  -1.971 -10.931  1.00  0.00    -0.354 N 
ATOM     50  N   UNL     1      13.140  -4.059 -12.011  1.00  0.00    -0.248 NA
ATOM     51  C   UNL     1      12.862  -6.162 -12.989  1.00  0.00     0.031 C 
ATOM     52  C   UNL     1      17.024  -2.449 -10.602  1.00  0.00     0.029 A 
ATOM     53  C   UNL     1      15.827  -2.974 -11.057  1.00  0.00     0.049 A 
ATOM     54  H   UNL     1      13.931  -2.055 -11.182  1.00  0.00     0.167 HD
ATOM     55  C   UNL     1      14.358  -4.728 -12.007  1.00  0.00     0.074 A 
ATOM     56  C   UNL     1      14.119  -6.035 -12.584  1.00  0.00     0.031 C 
ATOM     57  C   UNL     1      15.570  -4.289 -11.587  1.00  0.00     0.034 A 
BRANCH  44  58
ATOM     58  C   UNL     1      15.578   1.561  -9.605  1.00  0.00     0.023 A 
ATOM     59  C   UNL     1      15.496   1.923  -8.246  1.00  0.00     0.012 A 
ATOM     60  C   UNL     1      16.466   2.254 -10.453  1.00  0.00     0.148 A 
ATOM     61  C   UNL     1      16.260   2.978  -7.746  1.00  0.00     0.002 A 
ATOM     62  C   UNL     1      17.256   3.276  -9.937  1.00  0.00     0.091 A 
ATOM     63  F   UNL     1      16.515   1.911 -11.748  1.00  0.00    -0.205 F 
ATOM     64  C   UNL     1      17.147   3.646  -8.588  1.00  0.00     0.022 A 
BRANCH  62  65
ATOM     65  S   UNL     1      18.484   4.136 -10.929  1.00  0.00     0.127 S 
ATOM     66  O   UNL     1      17.811   5.406 -11.197  1.00  0.00    -0.237 OA
ATOM     67  O   UNL     1      19.618   4.230 -10.009  1.00  0.00    -0.237 OA
ATOM     68  O   UNL     1      18.719   3.289 -12.091  1.00  0.00    -0.744 OA
ENDBRANCH  62  65
ENDBRANCH  44  58
BRANCH  45  69
ATOM     69  C   UNL     1       9.986  -5.750 -13.446  1.00  0.00     0.023 A 
ATOM     70  C   UNL     1       9.713  -6.936 -12.738  1.00  0.00     0.012 A 
ATOM     71  C   UNL     1       9.414  -5.563 -14.720  1.00  0.00     0.148 A 
ATOM     72  C   UNL     1       8.892  -7.919 -13.292  1.00  0.00     0.002 A 
ATOM     73  C   UNL     1       8.544  -6.516 -15.236  1.00  0.00     0.091 A 
ATOM     74  F   UNL     1       9.708  -4.440 -15.390  1.00  0.00    -0.205 F 
ATOM     75  C   UNL     1       8.294  -7.702 -14.531  1.00  0.00     0.022 A 
BRANCH  73  76
ATOM     76  S   UNL     1       7.608  -6.236 -16.744  1.00  0.00     0.127 S 
ATOM     77  O   UNL     1       8.297  -7.107 -17.691  1.00  0.00    -0.237 OA
ATOM     78  O   UNL     1       6.268  -6.683 -16.358  1.00  0.00    -0.237 OA
ATOM     79  O   UNL     1       7.706  -4.806 -17.003  1.00  0.00    -0.744 OA
ENDBRANCH  73  76
ENDBRANCH  45  69
BRANCH  57  80
ATOM     80  C   UNL     1      16.736  -5.233 -11.716  1.00  0.00     0.023 A 
ATOM     81  C   UNL     1      17.298  -5.472 -12.986  1.00  0.00     0.012 A 
ATOM     82  C   UNL     1      17.316  -5.827 -10.579  1.00  0.00     0.148 A 
ATOM     83  C   UNL     1      18.403  -6.311 -13.124  1.00  0.00     0.002 A 
ATOM     84  C   UNL     1      18.443  -6.628 -10.720  1.00  0.00     0.091 A 
ATOM     85  F   UNL     1      16.753  -5.604  -9.382  1.00  0.00    -0.205 F 
ATOM     86  C   UNL     1      18.982  -6.879 -11.992  1.00  0.00     0.022 A 
BRANCH  84  87
ATOM     87  S   UNL     1      19.304  -7.329  -9.306  1.00  0.00     0.127 S 
ATOM     88  O   UNL     1      18.882  -8.727  -9.364  1.00  0.00    -0.237 OA
ATOM     89  O   UNL     1      20.708  -7.101  -9.649  1.00  0.00    -0.237 OA
ATOM     90  O   UNL     1      18.839  -6.580  -8.146  1.00  0.00    -0.744 OA
ENDBRANCH  84  87
ENDBRANCH  57  80
ENDBRANCH  31  32
ENDBRANCH  24  26
ENDBRANCH  23  24
ENDBRANCH   1  23
TORSDOF 16
