REMARK SMILES CC1=C(C)C[C@@H](C(=O)OCCOC(=O)c2ccc(-c3c4nc(c(-c5cccc(S(=O)(=O)[O-])c5F)c5ccc([nH]5)c(-c5cccc(S(=O)(=O)[O-])c5F)c5nc(c(-c6cccc(S(=O)(=O)[O-])c6F)c6ccc3[nH]6)C=C5)C=C4)cc2)[C@@H](C(=O)N2CCN(c3cccc(C(F)(F)F)c3)CC2)C1
REMARK SMILES IDX 10 1 9 2 7 3 8 4 6 5 1 6 2 7 3 8 97 9 4 10 5 11 78 12 79 13
REMARK SMILES IDX 80 14 81 15 82 16 96 17 83 18 95 19 84 20 85 21 86 22 94 23
REMARK SMILES IDX 87 24 89 25 88 26 90 27 91 28 92 29 93 30 11 31 12 32 13 33
REMARK SMILES IDX 14 34 15 35 16 36 77 37 17 38 76 39 18 40 19 41 20 42 70 43
REMARK SMILES IDX 21 44 75 45 69 46 71 47 22 48 74 49 68 50 67 51 23 53 55 54
REMARK SMILES IDX 35 55 54 56 36 57 39 58 53 59 72 60 37 61 38 62 52 64 73 65
REMARK SMILES IDX 40 66 24 67 25 68 33 69 26 70 28 71 34 72 27 73 29 74 30 75
REMARK SMILES IDX 31 76 32 77 56 78 57 79 65 80 58 81 60 82 66 83 59 84 61 85
REMARK SMILES IDX 62 86 63 87 64 88 41 89 42 90 50 91 43 92 45 93 51 94 44 95
REMARK SMILES IDX 46 96 47 97 48 98 49 99
REMARK H PARENT 71 52 39 63
REMARK Flexibility Score: inf
ROOT
ATOM      1  C   UNL     1       1.772  -5.414   4.854  1.00  0.00     0.274 C 
ENDROOT
BRANCH   1   2
ATOM      2  O   UNL     1       1.159  -4.388   4.032  1.00  0.00    -0.462 OA
BRANCH   2   3
ATOM      3  C   UNL     1       0.956  -4.676   2.735  1.00  0.00     0.310 C 
ATOM      4  O   UNL     1       1.262  -5.756   2.239  1.00  0.00    -0.252 OA
BRANCH   3   5
ATOM      5  C   UNL     1       0.330  -3.553   1.905  1.00  0.00     0.116 C 
ATOM      6  C   UNL     1       0.758   0.283  -0.338  1.00  0.00     0.039 C 
ATOM      7  C   UNL     1       0.584  -1.070   0.300  1.00  0.00    -0.074 C 
ATOM      8  C   UNL     1       1.279  -2.154  -0.092  1.00  0.00    -0.073 C 
ATOM      9  C   UNL     1      -0.431  -1.155   1.417  1.00  0.00     0.045 C 
ATOM     10  C   UNL     1       2.212  -2.200  -1.278  1.00  0.00     0.039 C 
ATOM     11  C   UNL     1       1.167  -3.475   0.613  1.00  0.00     0.046 C 
ATOM     12  C   UNL     1      -0.119  -2.198   2.508  1.00  0.00     0.097 C 
BRANCH  12  13
ATOM     13  C   UNL     1       0.624  -1.468   3.633  1.00  0.00     0.227 C 
ATOM     14  O   UNL     1       0.022  -0.815   4.487  1.00  0.00    -0.275 OA
ATOM     15  N   UNL     1       1.984  -1.423   3.562  1.00  0.00    -0.339 N 
ATOM     16  C   UNL     1       2.750  -2.070   4.600  1.00  0.00     0.141 C 
ATOM     17  C   UNL     1       2.737  -0.356   2.918  1.00  0.00     0.141 C 
ATOM     18  C   UNL     1       3.816  -2.880   3.873  1.00  0.00     0.138 C 
ATOM     19  C   UNL     1       4.044  -0.905   2.296  1.00  0.00     0.138 C 
ATOM     20  N   UNL     1       4.678  -1.970   3.102  1.00  0.00    -0.368 N 
BRANCH  20  21
ATOM     21  C   UNL     1       5.968  -1.950   3.582  1.00  0.00     0.037 A 
ATOM     22  C   UNL     1       6.760  -3.095   3.410  1.00  0.00     0.026 A 
ATOM     23  C   UNL     1       6.404  -0.950   4.449  1.00  0.00     0.039 A 
ATOM     24  C   UNL     1       7.937  -3.272   4.127  1.00  0.00     0.003 A 
ATOM     25  C   UNL     1       7.572  -1.127   5.206  1.00  0.00     0.058 A 
ATOM     26  C   UNL     1       8.335  -2.295   5.033  1.00  0.00     0.013 A 
BRANCH  25  27
ATOM     27  C   UNL     1       7.981  -0.103   6.228  1.00  0.00     0.416 C 
ATOM     28  F   UNL     1       8.350  -0.663   7.415  1.00  0.00    -0.166 F 
ATOM     29  F   UNL     1       9.047   0.640   5.820  1.00  0.00    -0.166 F 
ATOM     30  F   UNL     1       6.998   0.790   6.533  1.00  0.00    -0.166 F 
ENDBRANCH  25  27
ENDBRANCH  20  21
ENDBRANCH  12  13
ENDBRANCH   3   5
ENDBRANCH   2   3
ENDBRANCH   1   2
BRANCH   1  31
ATOM     31  C   UNL     1       1.397  -5.176   6.323  1.00  0.00     0.275 C 
BRANCH  31  32
ATOM     32  O   UNL     1       0.053  -5.614   6.541  1.00  0.00    -0.458 OA
BRANCH  32  33
ATOM     33  C   UNL     1      -0.892  -4.851   5.940  1.00  0.00     0.338 C 
ATOM     34  O   UNL     1      -0.833  -3.668   5.655  1.00  0.00    -0.246 OA
BRANCH  33  35
ATOM     35  C   UNL     1      -1.855  -5.798   5.375  1.00  0.00     0.060 A 
ATOM     36  C   UNL     1      -2.142  -5.727   4.005  1.00  0.00     0.016 A 
ATOM     37  C   UNL     1      -2.370  -6.813   6.177  1.00  0.00     0.016 A 
ATOM     38  C   UNL     1      -2.958  -6.683   3.421  1.00  0.00     0.010 A 
ATOM     39  C   UNL     1      -3.185  -7.766   5.598  1.00  0.00     0.010 A 
ATOM     40  C   UNL     1      -3.495  -7.687   4.228  1.00  0.00    -0.014 A 
BRANCH  40  41
ATOM     41  C   UNL     1      -4.533  -8.592   3.720  1.00  0.00     0.031 A 
ATOM     42  C   UNL     1      -5.931  -8.346   4.191  1.00  0.00     0.074 A 
ATOM     43  C   UNL     1      -4.182  -9.658   2.986  1.00  0.00     0.049 A 
ATOM     44  N   UNL     1      -6.970  -9.128   4.145  1.00  0.00    -0.248 NA
ATOM     45  C   UNL     1      -6.175  -7.050   4.854  1.00  0.00     0.031 C 
ATOM     46  C   UNL     1      -2.832  -9.940   2.495  1.00  0.00     0.029 A 
ATOM     47  N   UNL     1      -4.924 -10.729   2.575  1.00  0.00    -0.354 N 
ATOM     48  C   UNL     1      -7.972  -8.452   4.829  1.00  0.00     0.074 A 
ATOM     49  C   UNL     1      -7.415  -7.201   5.290  1.00  0.00     0.031 C 
ATOM     50  C   UNL     1      -2.834 -11.134   1.879  1.00  0.00     0.029 A 
ATOM     51  C   UNL     1      -4.169 -11.712   1.980  1.00  0.00     0.049 A 
ATOM     52  H   UNL     1      -5.900 -10.791   2.693  1.00  0.00     0.167 HD
ATOM     53  C   UNL     1      -9.246  -8.852   5.045  1.00  0.00     0.034 A 
ATOM     54  C   UNL     1      -4.527 -12.953   1.603  1.00  0.00     0.034 A 
ATOM     55  C   UNL     1      -9.754 -10.101   4.551  1.00  0.00     0.049 A 
ATOM     56  C   UNL     1      -5.953 -13.370   1.840  1.00  0.00     0.074 A 
ATOM     57  C   UNL     1     -11.029 -10.619   4.649  1.00  0.00     0.029 A 
ATOM     58  N   UNL     1      -8.989 -11.035   3.860  1.00  0.00    -0.354 N 
ATOM     59  N   UNL     1      -6.924 -12.699   2.418  1.00  0.00    -0.248 NA
ATOM     60  C   UNL     1      -6.344 -14.697   1.352  1.00  0.00     0.031 C 
ATOM     61  C   UNL     1     -11.030 -11.878   4.037  1.00  0.00     0.029 A 
ATOM     62  C   UNL     1      -9.764 -12.128   3.524  1.00  0.00     0.049 A 
ATOM     63  H   UNL     1      -8.035 -10.932   3.642  1.00  0.00     0.167 HD
ATOM     64  C   UNL     1      -8.052 -13.503   2.328  1.00  0.00     0.074 A 
ATOM     65  C   UNL     1      -7.642 -14.706   1.627  1.00  0.00     0.031 C 
ATOM     66  C   UNL     1      -9.311 -13.282   2.785  1.00  0.00     0.034 A 
BRANCH  53  67
ATOM     67  C   UNL     1     -10.142  -7.929   5.830  1.00  0.00     0.023 A 
ATOM     68  C   UNL     1     -10.520  -6.683   5.285  1.00  0.00     0.012 A 
ATOM     69  C   UNL     1     -10.602  -8.283   7.113  1.00  0.00     0.148 A 
ATOM     70  C   UNL     1     -11.293  -5.785   6.021  1.00  0.00     0.002 A 
ATOM     71  C   UNL     1     -11.417  -7.405   7.821  1.00  0.00     0.091 A 
ATOM     72  F   UNL     1     -10.214  -9.457   7.632  1.00  0.00    -0.205 F 
ATOM     73  C   UNL     1     -11.748  -6.150   7.285  1.00  0.00     0.022 A 
BRANCH  71  74
ATOM     74  S   UNL     1     -12.119  -7.809   9.424  1.00  0.00     0.127 S 
ATOM     75  O   UNL     1     -11.393  -6.894  10.305  1.00  0.00    -0.237 OA
ATOM     76  O   UNL     1     -13.531  -7.478   9.232  1.00  0.00    -0.237 OA
ATOM     77  O   UNL     1     -11.850  -9.224   9.637  1.00  0.00    -0.744 OA
ENDBRANCH  71  74
ENDBRANCH  53  67
BRANCH  54  78
ATOM     78  C   UNL     1      -3.543 -13.838   0.919  1.00  0.00     0.023 A 
ATOM     79  C   UNL     1      -3.705 -14.103  -0.454  1.00  0.00     0.012 A 
ATOM     80  C   UNL     1      -2.422 -14.364   1.591  1.00  0.00     0.148 A 
ATOM     81  C   UNL     1      -2.784 -14.894  -1.142  1.00  0.00     0.002 A 
ATOM     82  C   UNL     1      -1.481 -15.111   0.889  1.00  0.00     0.091 A 
ATOM     83  F   UNL     1      -2.285 -14.105   2.899  1.00  0.00    -0.205 F 
ATOM     84  C   UNL     1      -1.668 -15.389  -0.474  1.00  0.00     0.022 A 
BRANCH  82  85
ATOM     85  S   UNL     1       0.052 -15.687   1.631  1.00  0.00     0.127 S 
ATOM     86  O   UNL     1      -0.152 -17.133   1.655  1.00  0.00    -0.237 OA
ATOM     87  O   UNL     1       1.048 -15.222   0.665  1.00  0.00    -0.237 OA
ATOM     88  O   UNL     1       0.128 -15.040   2.933  1.00  0.00    -0.744 OA
ENDBRANCH  82  85
ENDBRANCH  54  78
BRANCH  66  89
ATOM     89  C   UNL     1     -10.337 -14.341   2.493  1.00  0.00     0.023 A 
ATOM     90  C   UNL     1     -10.310 -15.562   3.194  1.00  0.00     0.012 A 
ATOM     91  C   UNL     1     -11.374 -14.085   1.575  1.00  0.00     0.148 A 
ATOM     92  C   UNL     1     -11.285 -16.529   2.959  1.00  0.00     0.002 A 
ATOM     93  C   UNL     1     -12.373 -15.029   1.389  1.00  0.00     0.091 A 
ATOM     94  F   UNL     1     -11.366 -12.921   0.908  1.00  0.00    -0.205 F 
ATOM     95  C   UNL     1     -12.322 -16.258   2.068  1.00  0.00     0.022 A 
BRANCH  93  96
ATOM     96  S   UNL     1     -13.801 -14.721   0.347  1.00  0.00     0.127 S 
ATOM     97  O   UNL     1     -13.539 -15.606  -0.786  1.00  0.00    -0.237 OA
ATOM     98  O   UNL     1     -14.907 -15.142   1.208  1.00  0.00    -0.237 OA
ATOM     99  O   UNL     1     -13.780 -13.296   0.045  1.00  0.00    -0.744 OA
ENDBRANCH  93  96
ENDBRANCH  66  89
ENDBRANCH  40  41
ENDBRANCH  33  35
ENDBRANCH  32  33
ENDBRANCH  31  32
ENDBRANCH   1  31
TORSDOF 17
