REMARK SMILES C[N@H+]1CCCN(c2nc3ccccc3c(=O)n2CC(=O)OCCOC(=O)c2ccc(-c3c4nc(c(-c5cccc(S(=O)(=O)[O-])c5F)c5ccc([nH]5)c(-c5cccc(S(=O)(=O)[O-])c5F)c5nc(c(-c6cccc(S(=O)(=O)[O-])c6F)c6ccc3[nH]6)C=C5)C=C4)cc2)CC1
REMARK SMILES IDX 21 1 19 2 20 3 18 4 17 5 7 6 8 7 9 8 15 9 10 10 14 11 16 12
REMARK SMILES IDX 11 13 13 14 12 15 6 16 90 17 91 18 2 19 1 20 3 22 5 24 4 25
REMARK SMILES IDX 22 27 23 28 24 29 25 30 26 31 27 32 28 33 89 34 29 35 88 36
REMARK SMILES IDX 30 37 31 38 32 39 82 40 33 41 87 42 81 43 83 44 34 45 86 46
REMARK SMILES IDX 80 47 79 48 35 50 67 51 47 52 66 53 48 54 51 55 65 56 84 57
REMARK SMILES IDX 49 58 50 59 64 61 85 62 52 63 36 64 37 65 45 66 38 67 40 68
REMARK SMILES IDX 46 69 39 70 41 71 42 72 43 73 44 74 68 75 69 76 77 77 70 78
REMARK SMILES IDX 72 79 78 80 71 81 73 82 74 83 75 84 76 85 53 86 54 87 62 88
REMARK SMILES IDX 55 89 57 90 63 91 56 92 58 93 59 94 60 95 61 96
REMARK H PARENT 2 21 83 49 51 60
REMARK Flexibility Score: 80.00
ROOT
ATOM      1  O   UNL     1      -1.572  -6.485   3.194  1.00  0.00    -0.461 OA
ENDROOT
BRANCH   1   2
ATOM      2  C   UNL     1      -0.521  -5.744   3.640  1.00  0.00     0.326 C 
ATOM      3  O   UNL     1      -0.457  -5.243   4.760  1.00  0.00    -0.250 OA
BRANCH   2   4
ATOM      4  C   UNL     1       0.555  -5.489   2.595  1.00  0.00     0.251 C 
BRANCH   4   5
ATOM      5  N   UNL     1       0.463  -6.258   1.356  1.00  0.00    -0.267 N 
ATOM      6  C   UNL     1       0.110  -5.678   0.152  1.00  0.00     0.209 A 
ATOM      7  N   UNL     1      -0.120  -6.381  -0.921  1.00  0.00    -0.214 NA
ATOM      8  C   UNL     1       0.030  -7.774  -0.865  1.00  0.00     0.080 A 
ATOM      9  C   UNL     1       0.847  -7.588   1.421  1.00  0.00     0.263 A 
ATOM     10  C   UNL     1      -0.279  -8.546  -1.988  1.00  0.00     0.029 A 
ATOM     11  C   UNL     1       0.510  -8.423   0.266  1.00  0.00     0.066 A 
ATOM     12  O   UNL     1       1.467  -8.070   2.361  1.00  0.00    -0.268 OA
ATOM     13  C   UNL     1      -0.132  -9.939  -1.962  1.00  0.00     0.002 A 
ATOM     14  C   UNL     1       0.659  -9.815   0.311  1.00  0.00     0.016 A 
ATOM     15  C   UNL     1       0.331 -10.574  -0.809  1.00  0.00     0.001 A 
BRANCH   6  16
ATOM     16  N   UNL     1       0.036  -4.304   0.089  1.00  0.00    -0.336 N 
BRANCH  16  17
ATOM     17  C   UNL     1       1.292  -3.533   0.105  1.00  0.00     0.181 C 
BRANCH  17  18
ATOM     18  C   UNL     1       1.265  -2.165  -0.589  1.00  0.00     0.283 C 
BRANCH  18  19
ATOM     19  N   UNL     1       0.565  -1.124   0.189  1.00  0.00    -0.336 N 
ATOM     20  C   UNL     1       1.038   0.204  -0.213  1.00  0.00     0.332 C 
ATOM     21  H   UNL     1       0.782  -1.296   1.171  1.00  0.00     0.347 HD
BRANCH  19  22
ATOM     22  C   UNL     1      -0.895  -1.190   0.055  1.00  0.00     0.263 CG0
ATOM     23  G   UNL     1      -1.534  -2.482   0.559  1.00  0.00     0.000 G0
ENDBRANCH  19  22
ENDBRANCH  18  19
ENDBRANCH  17  18
ENDBRANCH  16  17
BRANCH  16  24
ATOM     24  C   UNL     1      -1.209  -3.681  -0.320  1.00  0.00     0.125 C 
BRANCH  24  25
ATOM     25  C   UNL     1      -1.534  -2.482   0.559  1.00  0.00     0.083 CG0
ATOM     26  G   UNL     1      -0.895  -1.190   0.055  1.00  0.00     0.000 G0
ENDBRANCH  24  25
ENDBRANCH  16  24
ENDBRANCH   6  16
ENDBRANCH   4   5
ENDBRANCH   2   4
ENDBRANCH   1   2
BRANCH   1  27
ATOM     27  C   UNL     1      -2.607  -6.723   4.169  1.00  0.00     0.274 C 
BRANCH  27  28
ATOM     28  C   UNL     1      -2.443  -8.091   4.826  1.00  0.00     0.275 C 
BRANCH  28  29
ATOM     29  O   UNL     1      -1.152  -8.188   5.446  1.00  0.00    -0.458 OA
BRANCH  29  30
ATOM     30  C   UNL     1      -0.282  -9.038   4.848  1.00  0.00     0.338 C 
ATOM     31  O   UNL     1      -0.508  -9.790   3.918  1.00  0.00    -0.246 OA
BRANCH  30  32
ATOM     32  C   UNL     1       1.003  -8.949   5.561  1.00  0.00     0.060 A 
ATOM     33  C   UNL     1       1.343  -9.933   6.483  1.00  0.00     0.016 A 
ATOM     34  C   UNL     1       1.898  -7.918   5.271  1.00  0.00     0.016 A 
ATOM     35  C   UNL     1       2.579  -9.861   7.128  1.00  0.00     0.010 A 
ATOM     36  C   UNL     1       3.159  -7.888   5.855  1.00  0.00     0.010 A 
ATOM     37  C   UNL     1       3.502  -8.846   6.810  1.00  0.00    -0.014 A 
BRANCH  37  38
ATOM     38  C   UNL     1       4.838  -8.817   7.450  1.00  0.00     0.031 A 
ATOM     39  C   UNL     1       5.234  -7.696   8.371  1.00  0.00     0.074 A 
ATOM     40  C   UNL     1       5.711  -9.806   7.173  1.00  0.00     0.049 A 
ATOM     41  N   UNL     1       6.311  -7.586   9.104  1.00  0.00    -0.248 NA
ATOM     42  C   UNL     1       4.321  -6.544   8.477  1.00  0.00     0.031 C 
ATOM     43  C   UNL     1       5.492 -10.873   6.194  1.00  0.00     0.029 A 
ATOM     44  N   UNL     1       6.954 -10.073   7.686  1.00  0.00    -0.354 N 
ATOM     45  C   UNL     1       6.211  -6.360   9.748  1.00  0.00     0.074 A 
ATOM     46  C   UNL     1       4.987  -5.740   9.296  1.00  0.00     0.031 C 
ATOM     47  C   UNL     1       6.551 -11.697   6.200  1.00  0.00     0.029 A 
ATOM     48  C   UNL     1       7.524 -11.215   7.176  1.00  0.00     0.049 A 
ATOM     49  H   UNL     1       7.396  -9.502   8.354  1.00  0.00     0.167 HD
ATOM     50  C   UNL     1       7.046  -5.822  10.667  1.00  0.00     0.034 A 
ATOM     51  C   UNL     1       8.689 -11.820   7.478  1.00  0.00     0.034 A 
ATOM     52  C   UNL     1       8.234  -6.468  11.152  1.00  0.00     0.049 A 
ATOM     53  C   UNL     1       9.550 -11.250   8.567  1.00  0.00     0.074 A 
ATOM     54  C   UNL     1       9.088  -6.045  12.155  1.00  0.00     0.029 A 
ATOM     55  N   UNL     1       8.734  -7.667  10.674  1.00  0.00    -0.354 N 
ATOM     56  N   UNL     1       9.348 -10.180   9.296  1.00  0.00    -0.248 NA
ATOM     57  C   UNL     1      10.777 -11.985   8.906  1.00  0.00     0.031 C 
ATOM     58  C   UNL     1      10.109  -6.990  12.283  1.00  0.00     0.029 A 
ATOM     59  C   UNL     1       9.885  -8.002  11.363  1.00  0.00     0.049 A 
ATOM     60  H   UNL     1       8.330  -8.201   9.953  1.00  0.00     0.167 HD
ATOM     61  C   UNL     1      10.411 -10.118  10.187  1.00  0.00     0.074 A 
ATOM     62  C   UNL     1      11.246 -11.272   9.924  1.00  0.00     0.031 C 
ATOM     63  C   UNL     1      10.678  -9.178  11.124  1.00  0.00     0.034 A 
BRANCH  50  64
ATOM     64  C   UNL     1       6.665  -4.514  11.302  1.00  0.00     0.023 A 
ATOM     65  C   UNL     1       5.705  -4.521  12.334  1.00  0.00     0.012 A 
ATOM     66  C   UNL     1       7.350  -3.323  10.996  1.00  0.00     0.148 A 
ATOM     67  C   UNL     1       5.433  -3.360  13.055  1.00  0.00     0.002 A 
ATOM     68  C   UNL     1       7.093  -2.176  11.738  1.00  0.00     0.091 A 
ATOM     69  F   UNL     1       8.257  -3.345  10.008  1.00  0.00    -0.205 F 
ATOM     70  C   UNL     1       6.134  -2.193  12.766  1.00  0.00     0.022 A 
BRANCH  68  71
ATOM     71  S   UNL     1       7.977  -0.632  11.491  1.00  0.00     0.127 S 
ATOM     72  O   UNL     1       6.886   0.283  11.155  1.00  0.00    -0.237 OA
ATOM     73  O   UNL     1       8.575  -0.409  12.806  1.00  0.00    -0.237 OA
ATOM     74  O   UNL     1       8.925  -0.875  10.413  1.00  0.00    -0.744 OA
ENDBRANCH  68  71
ENDBRANCH  50  64
BRANCH  51  75
ATOM     75  C   UNL     1       9.048 -13.087   6.787  1.00  0.00     0.023 A 
ATOM     76  C   UNL     1       8.901 -14.311   7.466  1.00  0.00     0.012 A 
ATOM     77  C   UNL     1       9.458 -13.087   5.441  1.00  0.00     0.148 A 
ATOM     78  C   UNL     1       9.169 -15.517   6.818  1.00  0.00     0.002 A 
ATOM     79  C   UNL     1       9.685 -14.293   4.789  1.00  0.00     0.091 A 
ATOM     80  F   UNL     1       9.594 -11.907   4.820  1.00  0.00    -0.205 F 
ATOM     81  C   UNL     1       9.551 -15.509   5.479  1.00  0.00     0.022 A 
BRANCH  79  82
ATOM     82  S   UNL     1      10.079 -14.389   3.039  1.00  0.00     0.127 S 
ATOM     83  O   UNL     1      11.453 -14.884   3.070  1.00  0.00    -0.237 OA
ATOM     84  O   UNL     1       9.088 -15.354   2.561  1.00  0.00    -0.237 OA
ATOM     85  O   UNL     1       9.908 -13.039   2.520  1.00  0.00    -0.744 OA
ENDBRANCH  79  82
ENDBRANCH  51  75
BRANCH  63  86
ATOM     86  C   UNL     1      11.923  -9.334  11.950  1.00  0.00     0.023 A 
ATOM     87  C   UNL     1      13.162  -8.956  11.399  1.00  0.00     0.012 A 
ATOM     88  C   UNL     1      11.845  -9.711  13.305  1.00  0.00     0.148 A 
ATOM     89  C   UNL     1      14.312  -8.954  12.186  1.00  0.00     0.002 A 
ATOM     90  C   UNL     1      12.990  -9.675  14.092  1.00  0.00     0.091 A 
ATOM     91  F   UNL     1      10.652 -10.071  13.800  1.00  0.00    -0.205 F 
ATOM     92  C   UNL     1      14.224  -9.301  13.533  1.00  0.00     0.022 A 
BRANCH  90  93
ATOM     93  S   UNL     1      12.967 -10.028  15.853  1.00  0.00     0.127 S 
ATOM     94  O   UNL     1      13.752 -11.261  15.919  1.00  0.00    -0.237 OA
ATOM     95  O   UNL     1      13.630  -8.851  16.413  1.00  0.00    -0.237 OA
ATOM     96  O   UNL     1      11.564 -10.169  16.220  1.00  0.00    -0.744 OA
ENDBRANCH  90  93
ENDBRANCH  63  86
ENDBRANCH  37  38
ENDBRANCH  30  32
ENDBRANCH  29  30
ENDBRANCH  28  29
ENDBRANCH  27  28
ENDBRANCH   1  27
TORSDOF 16
