REMARK SMILES Cc1ccc(-n2nc(C(=O)OCCOC(=O)c3ccc(-c4c5nc(c(-c6cccc(S(=O)(=O)[O-])c6F)c6ccc([nH]6)c(-c6cccc(S(=O)(=O)[O-])c6F)c6nc(c(-c7cccc(S(=O)(=O)[O-])c7F)c7ccc4[nH]7)C=C6)C=C5)cc3)c(C)c(C#N)c2=O)cc1Cl
REMARK SMILES IDX 13 1 12 2 11 3 9 4 10 5 8 6 6 7 7 8 85 9 82 10 86 11 80 12
REMARK SMILES IDX 81 13 5 14 1 15 2 16 3 17 88 18 4 19 87 20 89 21 83 22 84 23
REMARK SMILES IDX 14 24 15 25 16 26 17 27 18 28 79 29 19 30 78 31 20 32 21 33
REMARK SMILES IDX 22 34 72 35 23 36 77 37 71 38 73 39 24 40 76 41 70 42 69 43
REMARK SMILES IDX 25 45 57 46 37 47 56 48 38 49 41 50 55 51 74 52 39 53 40 54
REMARK SMILES IDX 54 56 75 57 42 58 26 59 27 60 35 61 28 62 30 63 36 64 29 65
REMARK SMILES IDX 31 66 32 67 33 68 34 69 58 70 59 71 67 72 60 73 62 74 68 75
REMARK SMILES IDX 61 76 63 77 64 78 65 79 66 80 43 81 44 82 52 83 45 84 47 85
REMARK SMILES IDX 53 86 46 87 48 88 49 89 50 90 51 91
REMARK H PARENT 73 44 41 55
REMARK Flexibility Score: inf
ROOT
ATOM      1  C   UNL     1      -2.386  -7.932   3.418  1.00  0.00     0.275 C 
ENDROOT
BRANCH   1   2
ATOM      2  C   UNL     1      -3.766  -7.289   3.253  1.00  0.00     0.275 C 
BRANCH   2   3
ATOM      3  O   UNL     1      -3.791  -6.486   2.053  1.00  0.00    -0.457 OA
BRANCH   3   4
ATOM      4  C   UNL     1      -4.015  -5.168   2.204  1.00  0.00     0.359 C 
ATOM      5  O   UNL     1      -4.315  -4.589   3.232  1.00  0.00    -0.244 OA
BRANCH   4   6
ATOM      6  C   UNL     1      -3.873  -4.404   0.873  1.00  0.00     0.173 A 
ATOM      7  N   UNL     1      -3.046  -2.573  -0.236  1.00  0.00    -0.195 N 
ATOM      8  N   UNL     1      -3.058  -3.392   0.862  1.00  0.00    -0.157 NA
ATOM      9  C   UNL     1      -3.916  -2.710  -1.310  1.00  0.00     0.289 A 
ATOM     10  C   UNL     1      -4.730  -3.958  -1.312  1.00  0.00     0.125 A 
ATOM     11  O   UNL     1      -4.017  -1.917  -2.245  1.00  0.00    -0.266 OA
ATOM     12  C   UNL     1      -4.727  -4.810  -0.272  1.00  0.00     0.007 A 
ATOM     13  C   UNL     1      -5.497  -6.095  -0.191  1.00  0.00     0.049 C 
BRANCH   7  14
ATOM     14  C   UNL     1      -2.193  -1.442  -0.123  1.00  0.00     0.070 A 
ATOM     15  C   UNL     1       0.382   2.043  -0.012  1.00  0.00     0.046 C 
ATOM     16  C   UNL     1      -0.497   0.821  -0.055  1.00  0.00    -0.032 A 
ATOM     17  C   UNL     1      -1.890   0.968  -0.020  1.00  0.00     0.007 A 
ATOM     18  C   UNL     1       0.030  -0.477  -0.137  1.00  0.00     0.046 A 
ATOM     19  C   UNL     1      -2.729  -0.151  -0.082  1.00  0.00     0.029 A 
ATOM     20  C   UNL     1      -0.805  -1.603  -0.127  1.00  0.00     0.049 A 
ATOM     21  Cl  UNL     1       1.723  -0.734  -0.344  1.00  0.00    -0.084 Cl
ENDBRANCH   7  14
BRANCH  10  22
ATOM     22  C   UNL     1      -5.509  -4.208  -2.479  1.00  0.00     0.105 C 
ATOM     23  N   UNL     1      -6.172  -4.479  -3.388  1.00  0.00    -0.192 NA
ENDBRANCH  10  22
ENDBRANCH   4   6
ENDBRANCH   3   4
ENDBRANCH   2   3
ENDBRANCH   1   2
BRANCH   1  24
ATOM     24  O   UNL     1      -1.404  -6.932   3.738  1.00  0.00    -0.458 OA
BRANCH  24  25
ATOM     25  C   UNL     1      -0.871  -6.306   2.664  1.00  0.00     0.338 C 
ATOM     26  O   UNL     1      -1.071  -6.554   1.486  1.00  0.00    -0.246 OA
BRANCH  25  27
ATOM     27  C   UNL     1      -0.122  -5.132   3.114  1.00  0.00     0.060 A 
ATOM     28  C   UNL     1      -0.734  -3.890   2.978  1.00  0.00     0.016 A 
ATOM     29  C   UNL     1       1.199  -5.229   3.534  1.00  0.00     0.016 A 
ATOM     30  C   UNL     1       0.003  -2.729   3.130  1.00  0.00     0.010 A 
ATOM     31  C   UNL     1       1.913  -4.054   3.789  1.00  0.00     0.010 A 
ATOM     32  C   UNL     1       1.337  -2.795   3.539  1.00  0.00    -0.014 A 
BRANCH  32  33
ATOM     33  C   UNL     1       2.117  -1.539   3.661  1.00  0.00     0.031 A 
ATOM     34  C   UNL     1       3.345  -1.327   2.819  1.00  0.00     0.074 A 
ATOM     35  C   UNL     1       1.693  -0.572   4.499  1.00  0.00     0.049 A 
ATOM     36  N   UNL     1       4.171  -0.314   2.811  1.00  0.00    -0.248 NA
ATOM     37  C   UNL     1       3.690  -2.388   1.857  1.00  0.00     0.031 C 
ATOM     38  C   UNL     1       0.499  -0.652   5.345  1.00  0.00     0.029 A 
ATOM     39  N   UNL     1       2.216   0.664   4.783  1.00  0.00    -0.354 N 
ATOM     40  C   UNL     1       5.139  -0.622   1.862  1.00  0.00     0.074 A 
ATOM     41  C   UNL     1       4.817  -1.928   1.333  1.00  0.00     0.031 C 
ATOM     42  C   UNL     1       0.374   0.486   6.041  1.00  0.00     0.029 A 
ATOM     43  C   UNL     1       1.517   1.344   5.753  1.00  0.00     0.049 A 
ATOM     44  H   UNL     1       3.013   1.029   4.336  1.00  0.00     0.167 HD
ATOM     45  C   UNL     1       6.188   0.127   1.452  1.00  0.00     0.034 A 
ATOM     46  C   UNL     1       1.783   2.508   6.375  1.00  0.00     0.034 A 
ATOM     47  C   UNL     1       6.493   1.431   1.974  1.00  0.00     0.049 A 
ATOM     48  C   UNL     1       3.008   3.277   5.970  1.00  0.00     0.074 A 
ATOM     49  C   UNL     1       7.531   2.273   1.623  1.00  0.00     0.029 A 
ATOM     50  N   UNL     1       5.772   2.076   2.969  1.00  0.00    -0.354 N 
ATOM     51  N   UNL     1       3.874   3.005   5.025  1.00  0.00    -0.248 NA
ATOM     52  C   UNL     1       3.285   4.520   6.702  1.00  0.00     0.031 C 
ATOM     53  C   UNL     1       7.469   3.404   2.441  1.00  0.00     0.029 A 
ATOM     54  C   UNL     1       6.362   3.292   3.268  1.00  0.00     0.049 A 
ATOM     55  H   UNL     1       4.961   1.721   3.399  1.00  0.00     0.167 HD
ATOM     56  C   UNL     1       4.789   4.051   5.031  1.00  0.00     0.074 A 
ATOM     57  C   UNL     1       4.352   4.976   6.058  1.00  0.00     0.031 C 
ATOM     58  C   UNL     1       5.896   4.221   4.268  1.00  0.00     0.034 A 
BRANCH  45  59
ATOM     59  C   UNL     1       7.085  -0.442   0.384  1.00  0.00     0.023 A 
ATOM     60  C   UNL     1       6.627  -0.535  -0.946  1.00  0.00     0.012 A 
ATOM     61  C   UNL     1       8.407  -0.824   0.687  1.00  0.00     0.148 A 
ATOM     62  C   UNL     1       7.461  -1.023  -1.951  1.00  0.00     0.002 A 
ATOM     63  C   UNL     1       9.247  -1.264  -0.328  1.00  0.00     0.091 A 
ATOM     64  F   UNL     1       8.816  -0.752   1.962  1.00  0.00    -0.205 F 
ATOM     65  C   UNL     1       8.773  -1.375  -1.645  1.00  0.00     0.022 A 
BRANCH  63  66
ATOM     66  S   UNL     1      10.976  -1.664  -0.051  1.00  0.00     0.127 S 
ATOM     67  O   UNL     1      10.988  -3.107  -0.293  1.00  0.00    -0.237 OA
ATOM     68  O   UNL     1      11.643  -0.868  -1.081  1.00  0.00    -0.237 OA
ATOM     69  O   UNL     1      11.271  -1.263   1.317  1.00  0.00    -0.744 OA
ENDBRANCH  63  66
ENDBRANCH  45  59
BRANCH  46  70
ATOM     70  C   UNL     1       0.855   3.006   7.430  1.00  0.00     0.023 A 
ATOM     71  C   UNL     1       0.082   4.157   7.188  1.00  0.00     0.012 A 
ATOM     72  C   UNL     1       0.675   2.298   8.637  1.00  0.00     0.148 A 
ATOM     73  C   UNL     1      -0.845   4.600   8.132  1.00  0.00     0.002 A 
ATOM     74  C   UNL     1      -0.295   2.708   9.544  1.00  0.00     0.091 A 
ATOM     75  F   UNL     1       1.429   1.212   8.854  1.00  0.00    -0.205 F 
ATOM     76  C   UNL     1      -1.045   3.869   9.301  1.00  0.00     0.022 A 
BRANCH  74  77
ATOM     77  S   UNL     1      -0.725   1.751  11.002  1.00  0.00     0.127 S 
ATOM     78  O   UNL     1      -0.347   2.661  12.080  1.00  0.00    -0.237 OA
ATOM     79  O   UNL     1      -2.166   1.570  10.825  1.00  0.00    -0.237 OA
ATOM     80  O   UNL     1       0.053   0.523  10.917  1.00  0.00    -0.744 OA
ENDBRANCH  74  77
ENDBRANCH  46  70
BRANCH  58  81
ATOM     81  C   UNL     1       6.725   5.458   4.495  1.00  0.00     0.023 A 
ATOM     82  C   UNL     1       7.497   5.576   5.667  1.00  0.00     0.012 A 
ATOM     83  C   UNL     1       6.827   6.447   3.496  1.00  0.00     0.148 A 
ATOM     84  C   UNL     1       8.341   6.670   5.852  1.00  0.00     0.002 A 
ATOM     85  C   UNL     1       7.714   7.504   3.661  1.00  0.00     0.091 A 
ATOM     86  F   UNL     1       6.073   6.324   2.394  1.00  0.00    -0.205 F 
ATOM     87  C   UNL     1       8.461   7.624   4.844  1.00  0.00     0.022 A 
BRANCH  85  88
ATOM     88  S   UNL     1       8.023   8.719   2.375  1.00  0.00     0.127 S 
ATOM     89  O   UNL     1       7.472   9.934   2.975  1.00  0.00    -0.237 OA
ATOM     90  O   UNL     1       9.482   8.696   2.274  1.00  0.00    -0.237 OA
ATOM     91  O   UNL     1       7.323   8.241   1.190  1.00  0.00    -0.744 OA
ENDBRANCH  85  88
ENDBRANCH  58  81
ENDBRANCH  32  33
ENDBRANCH  25  27
ENDBRANCH  24  25
ENDBRANCH   1  24
TORSDOF 16
