REMARK SMILES Cc1ccc(CNc2ccc(C(=O)OCCOC(=O)c3ccc(-c4c5nc(c(-c6cccc(S(=O)(=O)[O-])c6F)c6ccc([nH]6)c(-c6cccc(S(=O)(=O)[O-])c6F)c6nc(c(-c7cccc(S(=O)(=O)[O-])c7F)c7ccc4[nH]7)C=C6)C=C5)cc3)cc2Br)cc1
REMARK SMILES IDX 15 1 14 2 12 3 13 4 11 5 8 6 9 7 84 8 10 9 83 10 85 11 7 12
REMARK SMILES IDX 6 14 5 15 1 16 2 17 3 18 87 19 4 20 86 21 16 22 17 23 18 24
REMARK SMILES IDX 19 25 20 26 21 27 82 28 22 29 81 30 23 31 24 32 25 33 75 34
REMARK SMILES IDX 26 35 80 36 74 37 76 38 27 39 79 40 73 41 72 42 28 44 60 45
REMARK SMILES IDX 40 46 59 47 41 48 44 49 58 50 77 51 42 52 43 53 57 55 78 56
REMARK SMILES IDX 45 57 29 58 30 59 38 60 31 61 33 62 39 63 32 64 34 65 35 66
REMARK SMILES IDX 36 67 37 68 61 69 62 70 70 71 63 72 65 73 71 74 64 75 66 76
REMARK SMILES IDX 67 77 68 78 69 79 46 80 47 81 55 82 48 83 50 84 56 85 49 86
REMARK SMILES IDX 51 87 52 88 53 89 54 90
REMARK H PARENT 7 13 76 43 44 54
REMARK Flexibility Score: inf
ROOT
ATOM      1  C   UNL     1     -10.136  -5.048  -0.572  1.00  0.00     0.275 C 
ENDROOT
BRANCH   1   2
ATOM      2  O   UNL     1      -8.934  -4.282  -0.597  1.00  0.00    -0.458 OA
BRANCH   2   3
ATOM      3  C   UNL     1      -8.798  -3.373  -1.585  1.00  0.00     0.338 C 
ATOM      4  O   UNL     1      -9.563  -3.163  -2.498  1.00  0.00    -0.246 OA
BRANCH   3   5
ATOM      5  C   UNL     1      -7.512  -2.672  -1.383  1.00  0.00     0.061 A 
ATOM      6  C   UNL     1      -5.097  -1.241  -1.070  1.00  0.00     0.049 A 
ATOM      7  C   UNL     1      -6.041  -1.302  -0.035  1.00  0.00     0.028 A 
ATOM      8  C   UNL     1      -5.407  -1.921  -2.271  1.00  0.00     0.042 A 
ATOM      9  C   UNL     1      -7.233  -2.025  -0.178  1.00  0.00     0.018 A 
ATOM     10  C   UNL     1      -6.602  -2.626  -2.434  1.00  0.00     0.033 A 
ATOM     11  Br  UNL     1      -4.193  -1.905  -3.740  1.00  0.00    -0.049 Br
BRANCH   6  12
ATOM     12  N   UNL     1      -3.924  -0.508  -0.970  1.00  0.00    -0.380 N 
ATOM     13  H   UNL     1      -3.434  -0.321  -1.803  1.00  0.00     0.160 HD
BRANCH  12  14
ATOM     14  C   UNL     1      -3.360   0.003   0.264  1.00  0.00     0.148 C 
BRANCH  14  15
ATOM     15  C   UNL     1      -1.853   0.034   0.148  1.00  0.00    -0.029 A 
ATOM     16  C   UNL     1       2.459  -0.009  -0.075  1.00  0.00     0.044 C 
ATOM     17  C   UNL     1       0.961   0.022  -0.019  1.00  0.00    -0.051 A 
ATOM     18  C   UNL     1       0.248  -1.181   0.006  1.00  0.00     0.004 A 
ATOM     19  C   UNL     1       0.257   1.232   0.018  1.00  0.00     0.004 A 
ATOM     20  C   UNL     1      -1.144  -1.175   0.090  1.00  0.00     0.006 A 
ATOM     21  C   UNL     1      -1.141   1.238   0.098  1.00  0.00     0.006 A 
ENDBRANCH  14  15
ENDBRANCH  12  14
ENDBRANCH   6  12
ENDBRANCH   3   5
ENDBRANCH   2   3
ENDBRANCH   1   2
BRANCH   1  22
ATOM     22  C   UNL     1     -10.547  -5.849  -1.826  1.00  0.00     0.275 C 
BRANCH  22  23
ATOM     23  O   UNL     1      -9.652  -6.103  -2.949  1.00  0.00    -0.458 OA
BRANCH  23  24
ATOM     24  C   UNL     1      -8.390  -6.587  -3.031  1.00  0.00     0.338 C 
ATOM     25  O   UNL     1      -7.864  -6.868  -4.099  1.00  0.00    -0.246 OA
BRANCH  24  26
ATOM     26  C   UNL     1      -7.650  -6.714  -1.779  1.00  0.00     0.060 A 
ATOM     27  C   UNL     1      -6.412  -6.068  -1.616  1.00  0.00     0.016 A 
ATOM     28  C   UNL     1      -8.251  -7.412  -0.744  1.00  0.00     0.016 A 
ATOM     29  C   UNL     1      -5.816  -6.028  -0.356  1.00  0.00     0.010 A 
ATOM     30  C   UNL     1      -7.730  -7.268   0.515  1.00  0.00     0.010 A 
ATOM     31  C   UNL     1      -6.492  -6.619   0.708  1.00  0.00    -0.014 A 
BRANCH  31  32
ATOM     32  C   UNL     1      -5.881  -6.967   1.984  1.00  0.00     0.031 A 
ATOM     33  C   UNL     1      -5.785  -6.090   3.159  1.00  0.00     0.074 A 
ATOM     34  C   UNL     1      -5.715  -8.304   2.080  1.00  0.00     0.049 A 
ATOM     35  N   UNL     1      -5.128  -6.421   4.218  1.00  0.00    -0.248 NA
ATOM     36  C   UNL     1      -6.403  -4.775   3.252  1.00  0.00     0.031 C 
ATOM     37  C   UNL     1      -5.714  -9.160   3.248  1.00  0.00     0.029 A 
ATOM     38  N   UNL     1      -5.458  -9.173   1.012  1.00  0.00    -0.354 N 
ATOM     39  C   UNL     1      -5.454  -5.528   5.217  1.00  0.00     0.074 A 
ATOM     40  C   UNL     1      -6.177  -4.473   4.540  1.00  0.00     0.031 C 
ATOM     41  C   UNL     1      -5.237 -10.364   2.884  1.00  0.00     0.029 A 
ATOM     42  C   UNL     1      -4.715 -10.229   1.528  1.00  0.00     0.049 A 
ATOM     43  H   UNL     1      -5.747  -9.058   0.078  1.00  0.00     0.167 HD
ATOM     44  C   UNL     1      -5.206  -5.879   6.514  1.00  0.00     0.034 A 
ATOM     45  C   UNL     1      -3.433 -10.462   1.120  1.00  0.00     0.034 A 
ATOM     46  C   UNL     1      -4.566  -7.205   6.574  1.00  0.00     0.049 A 
ATOM     47  C   UNL     1      -2.466 -10.361   2.279  1.00  0.00     0.074 A 
ATOM     48  C   UNL     1      -5.083  -8.476   6.773  1.00  0.00     0.029 A 
ATOM     49  N   UNL     1      -3.262  -7.377   6.126  1.00  0.00    -0.354 N 
ATOM     50  N   UNL     1      -2.771  -9.846   3.437  1.00  0.00    -0.248 NA
ATOM     51  C   UNL     1      -1.083 -10.818   2.223  1.00  0.00     0.031 C 
ATOM     52  C   UNL     1      -4.107  -9.417   6.351  1.00  0.00     0.029 A 
ATOM     53  C   UNL     1      -2.984  -8.723   5.932  1.00  0.00     0.049 A 
ATOM     54  H   UNL     1      -2.623  -6.644   5.968  1.00  0.00     0.167 HD
ATOM     55  C   UNL     1      -1.665  -9.798   4.235  1.00  0.00     0.074 A 
ATOM     56  C   UNL     1      -0.649 -10.486   3.453  1.00  0.00     0.031 C 
ATOM     57  C   UNL     1      -1.676  -9.148   5.439  1.00  0.00     0.034 A 
BRANCH  44  58
ATOM     58  C   UNL     1      -5.811  -5.226   7.753  1.00  0.00     0.023 A 
ATOM     59  C   UNL     1      -5.897  -6.022   8.923  1.00  0.00     0.012 A 
ATOM     60  C   UNL     1      -6.346  -3.922   7.860  1.00  0.00     0.148 A 
ATOM     61  C   UNL     1      -6.562  -5.606  10.082  1.00  0.00     0.002 A 
ATOM     62  C   UNL     1      -7.055  -3.519   9.002  1.00  0.00     0.091 A 
ATOM     63  F   UNL     1      -6.119  -3.034   6.888  1.00  0.00    -0.205 F 
ATOM     64  C   UNL     1      -7.171  -4.364  10.111  1.00  0.00     0.022 A 
BRANCH  62  65
ATOM     65  S   UNL     1      -7.922  -1.942   9.113  1.00  0.00     0.127 S 
ATOM     66  O   UNL     1      -9.283  -2.364   9.452  1.00  0.00    -0.237 OA
ATOM     67  O   UNL     1      -7.210  -1.264  10.194  1.00  0.00    -0.237 OA
ATOM     68  O   UNL     1      -7.802  -1.320   7.799  1.00  0.00    -0.744 OA
ENDBRANCH  62  65
ENDBRANCH  44  58
BRANCH  45  69
ATOM     69  C   UNL     1      -3.146 -10.005  -0.283  1.00  0.00     0.023 A 
ATOM     70  C   UNL     1      -3.925 -10.573  -1.325  1.00  0.00     0.012 A 
ATOM     71  C   UNL     1      -2.464  -8.802  -0.543  1.00  0.00     0.148 A 
ATOM     72  C   UNL     1      -4.116  -9.902  -2.537  1.00  0.00     0.002 A 
ATOM     73  C   UNL     1      -2.668  -8.135  -1.754  1.00  0.00     0.091 A 
ATOM     74  F   UNL     1      -1.690  -8.275   0.414  1.00  0.00    -0.205 F 
ATOM     75  C   UNL     1      -3.510  -8.668  -2.741  1.00  0.00     0.022 A 
BRANCH  73  76
ATOM     76  S   UNL     1      -1.982  -6.490  -2.006  1.00  0.00     0.127 S 
ATOM     77  O   UNL     1      -2.795  -5.958  -3.101  1.00  0.00    -0.237 OA
ATOM     78  O   UNL     1      -2.205  -5.822  -0.731  1.00  0.00    -0.237 OA
ATOM     79  O   UNL     1      -0.599  -6.793  -2.359  1.00  0.00    -0.744 OA
ENDBRANCH  73  76
ENDBRANCH  45  69
BRANCH  57  80
ATOM     80  C   UNL     1      -0.449  -8.845   6.268  1.00  0.00     0.023 A 
ATOM     81  C   UNL     1       0.839  -8.775   5.704  1.00  0.00     0.012 A 
ATOM     82  C   UNL     1      -0.572  -8.460   7.628  1.00  0.00     0.148 A 
ATOM     83  C   UNL     1       1.958  -8.411   6.458  1.00  0.00     0.002 A 
ATOM     84  C   UNL     1       0.524  -7.981   8.338  1.00  0.00     0.091 A 
ATOM     85  F   UNL     1      -1.753  -8.570   8.253  1.00  0.00    -0.205 F 
ATOM     86  C   UNL     1       1.798  -7.988   7.770  1.00  0.00     0.022 A 
BRANCH  84  87
ATOM     87  S   UNL     1       0.294  -7.182   9.932  1.00  0.00     0.127 S 
ATOM     88  O   UNL     1       0.406  -8.306  10.858  1.00  0.00    -0.237 OA
ATOM     89  O   UNL     1       1.415  -6.240   9.980  1.00  0.00    -0.237 OA
ATOM     90  O   UNL     1      -1.013  -6.545   9.841  1.00  0.00    -0.744 OA
ENDBRANCH  84  87
ENDBRANCH  57  80
ENDBRANCH  31  32
ENDBRANCH  24  26
ENDBRANCH  23  24
ENDBRANCH  22  23
ENDBRANCH   1  22
TORSDOF 17
