REMARK SMILES C[C@H](c1ccoc1)[NH+]1CC[NH+]([C@@H](C)C(=O)OCCOC(=O)c2ccc(-c3c4nc(c(-c5cccc(S(=O)(=O)[O-])c5F)c5ccc([nH]5)c(-c5cccc(S(=O)(=O)[O-])c5F)c5nc(c(-c6cccc(S(=O)(=O)[O-])c6F)c6ccc3[nH]6)C=C5)C=C4)cc2)CC1
REMARK SMILES IDX 17 1 16 2 14 3 15 4 12 5 13 6 11 7 8 8 9 9 86 10 10 12 85 13
REMARK SMILES IDX 2 15 1 16 3 17 4 18 7 19 5 20 6 21 18 22 19 23 20 24 21 25
REMARK SMILES IDX 22 26 23 27 84 28 24 29 83 30 25 31 26 32 27 33 77 34 28 35
REMARK SMILES IDX 82 36 76 37 78 38 29 39 81 40 75 41 74 42 30 44 62 45 42 46
REMARK SMILES IDX 61 47 43 48 46 49 60 50 79 51 44 52 45 53 59 55 80 56 47 57
REMARK SMILES IDX 31 58 32 59 40 60 33 61 35 62 41 63 34 64 36 65 37 66 38 67
REMARK SMILES IDX 39 68 63 69 64 70 72 71 65 72 67 73 73 74 66 75 68 76 69 77
REMARK SMILES IDX 70 78 71 79 48 80 49 81 57 82 50 83 52 84 58 85 51 86 53 87
REMARK SMILES IDX 54 88 55 89 56 90
REMARK H PARENT 8 11 11 14 78 43 46 54
REMARK Flexibility Score: inf
ROOT
ATOM      1  C   UNL     1      -4.012   0.534   6.815  1.00  0.00     0.274 C 
ENDROOT
BRANCH   1   2
ATOM      2  O   UNL     1      -3.503   0.597   5.472  1.00  0.00    -0.458 OA
BRANCH   2   3
ATOM      3  C   UNL     1      -4.279   1.219   4.546  1.00  0.00     0.364 C 
ATOM      4  O   UNL     1      -5.421   1.612   4.764  1.00  0.00    -0.245 OA
BRANCH   3   5
ATOM      5  C   UNL     1      -3.624   1.330   3.152  1.00  0.00     0.292 C 
ATOM      6  C   UNL     1      -4.223   0.263   2.244  1.00  0.00     0.088 C 
BRANCH   5   7
ATOM      7  N   UNL     1      -2.148   1.475   3.200  1.00  0.00    -0.314 N 
ATOM      8  N   UNL     1      -0.445   0.071   1.125  1.00  0.00    -0.320 N 
ATOM      9  C   UNL     1      -0.972  -0.612   2.311  1.00  0.00     0.325 C 
ATOM     10  C   UNL     1      -1.184   1.307   0.834  1.00  0.00     0.325 C 
ATOM     11  H   UNL     1      -0.640  -0.522   0.318  1.00  0.00     0.348 HD
ATOM     12  C   UNL     1      -1.343   0.287   3.507  1.00  0.00     0.325 C 
ATOM     13  C   UNL     1      -1.572   2.185   2.048  1.00  0.00     0.325 C 
ATOM     14  H   UNL     1      -2.073   2.059   4.033  1.00  0.00     0.349 HD
BRANCH   8  15
ATOM     15  C   UNL     1       1.020   0.128   1.058  1.00  0.00     0.215 C 
ATOM     16  C   UNL     1       1.705   1.341   1.690  1.00  0.00     0.081 C 
BRANCH  15  17
ATOM     17  C   UNL     1       1.414  -0.074  -0.386  1.00  0.00     0.047 A 
ATOM     18  C   UNL     1       1.381   0.856  -1.468  1.00  0.00     0.052 A 
ATOM     19  C   UNL     1       1.886  -1.248  -0.946  1.00  0.00     0.204 A 
ATOM     20  C   UNL     1       1.811   0.181  -2.586  1.00  0.00     0.195 A 
ATOM     21  O   UNL     1       2.130  -1.099  -2.272  1.00  0.00    -0.472 OA
ENDBRANCH  15  17
ENDBRANCH   8  15
ENDBRANCH   5   7
ENDBRANCH   3   5
ENDBRANCH   2   3
ENDBRANCH   1   2
BRANCH   1  22
ATOM     22  C   UNL     1      -3.323   1.583   7.688  1.00  0.00     0.275 C 
BRANCH  22  23
ATOM     23  O   UNL     1      -3.702   2.907   7.276  1.00  0.00    -0.458 OA
BRANCH  23  24
ATOM     24  C   UNL     1      -2.777   3.598   6.572  1.00  0.00     0.338 C 
ATOM     25  O   UNL     1      -1.627   3.266   6.322  1.00  0.00    -0.246 OA
BRANCH  24  26
ATOM     26  C   UNL     1      -3.409   4.813   6.037  1.00  0.00     0.060 A 
ATOM     27  C   UNL     1      -3.604   4.912   4.657  1.00  0.00     0.016 A 
ATOM     28  C   UNL     1      -3.791   5.854   6.885  1.00  0.00     0.016 A 
ATOM     29  C   UNL     1      -4.209   6.046   4.118  1.00  0.00     0.010 A 
ATOM     30  C   UNL     1      -4.389   6.995   6.341  1.00  0.00     0.010 A 
ATOM     31  C   UNL     1      -4.604   7.098   4.956  1.00  0.00    -0.014 A 
BRANCH  31  32
ATOM     32  C   UNL     1      -5.232   8.315   4.385  1.00  0.00     0.031 A 
ATOM     33  C   UNL     1      -4.450   9.593   4.294  1.00  0.00     0.074 A 
ATOM     34  C   UNL     1      -6.515   8.276   3.977  1.00  0.00     0.049 A 
ATOM     35  N   UNL     1      -4.846  10.777   3.905  1.00  0.00    -0.248 NA
ATOM     36  C   UNL     1      -3.035   9.532   4.694  1.00  0.00     0.031 C 
ATOM     37  C   UNL     1      -7.374   7.093   4.015  1.00  0.00     0.029 A 
ATOM     38  N   UNL     1      -7.325   9.264   3.477  1.00  0.00    -0.354 N 
ATOM     39  C   UNL     1      -3.745  11.611   4.047  1.00  0.00     0.074 A 
ATOM     40  C   UNL     1      -2.661  10.797   4.556  1.00  0.00     0.031 C 
ATOM     41  C   UNL     1      -8.599   7.428   3.576  1.00  0.00     0.029 A 
ATOM     42  C   UNL     1      -8.621   8.855   3.263  1.00  0.00     0.049 A 
ATOM     43  H   UNL     1      -7.010  10.178   3.289  1.00  0.00     0.167 HD
ATOM     44  C   UNL     1      -3.643  12.933   3.768  1.00  0.00     0.034 A 
ATOM     45  C   UNL     1      -9.709   9.555   2.886  1.00  0.00     0.034 A 
ATOM     46  C   UNL     1      -4.713  13.733   3.234  1.00  0.00     0.049 A 
ATOM     47  C   UNL     1      -9.572  11.028   2.604  1.00  0.00     0.074 A 
ATOM     48  C   UNL     1      -4.690  15.068   2.871  1.00  0.00     0.029 A 
ATOM     49  N   UNL     1      -6.000  13.277   2.995  1.00  0.00    -0.354 N 
ATOM     50  N   UNL     1      -8.498  11.778   2.639  1.00  0.00    -0.248 NA
ATOM     51  C   UNL     1     -10.794  11.746   2.211  1.00  0.00     0.031 C 
ATOM     52  C   UNL     1      -5.969  15.424   2.429  1.00  0.00     0.029 A 
ATOM     53  C   UNL     1      -6.785  14.306   2.503  1.00  0.00     0.049 A 
ATOM     54  H   UNL     1      -6.311  12.356   3.152  1.00  0.00     0.167 HD
ATOM     55  C   UNL     1      -8.908  13.050   2.256  1.00  0.00     0.074 A 
ATOM     56  C   UNL     1     -10.324  12.962   1.964  1.00  0.00     0.031 C 
ATOM     57  C   UNL     1      -8.183  14.194   2.175  1.00  0.00     0.034 A 
BRANCH  44  58
ATOM     58  C   UNL     1      -2.313  13.595   4.006  1.00  0.00     0.023 A 
ATOM     59  C   UNL     1      -1.253  13.370   3.105  1.00  0.00     0.012 A 
ATOM     60  C   UNL     1      -2.127  14.482   5.085  1.00  0.00     0.148 A 
ATOM     61  C   UNL     1      -0.021  13.996   3.288  1.00  0.00     0.002 A 
ATOM     62  C   UNL     1      -0.907  15.130   5.240  1.00  0.00     0.091 A 
ATOM     63  F   UNL     1      -3.140  14.664   5.945  1.00  0.00    -0.205 F 
ATOM     64  C   UNL     1       0.148  14.883   4.348  1.00  0.00     0.022 A 
BRANCH  62  65
ATOM     65  S   UNL     1      -0.615  16.339   6.537  1.00  0.00     0.127 S 
ATOM     66  O   UNL     1       0.238  15.586   7.455  1.00  0.00    -0.237 OA
ATOM     67  O   UNL     1       0.068  17.412   5.813  1.00  0.00    -0.237 OA
ATOM     68  O   UNL     1      -1.929  16.698   7.052  1.00  0.00    -0.744 OA
ENDBRANCH  62  65
ENDBRANCH  44  58
BRANCH  45  69
ATOM     69  C   UNL     1     -11.020   8.863   2.732  1.00  0.00     0.023 A 
ATOM     70  C   UNL     1     -11.566   8.696   1.445  1.00  0.00     0.012 A 
ATOM     71  C   UNL     1     -11.710   8.342   3.844  1.00  0.00     0.148 A 
ATOM     72  C   UNL     1     -12.785   8.039   1.270  1.00  0.00     0.002 A 
ATOM     73  C   UNL     1     -12.895   7.640   3.658  1.00  0.00     0.091 A 
ATOM     74  F   UNL     1     -11.188   8.536   5.064  1.00  0.00    -0.205 F 
ATOM     75  C   UNL     1     -13.442   7.499   2.374  1.00  0.00     0.022 A 
BRANCH  73  76
ATOM     76  S   UNL     1     -13.733   6.802   5.008  1.00  0.00     0.127 S 
ATOM     77  O   UNL     1     -14.872   7.683   5.247  1.00  0.00    -0.237 OA
ATOM     78  O   UNL     1     -14.068   5.511   4.406  1.00  0.00    -0.237 OA
ATOM     79  O   UNL     1     -12.753   6.722   6.083  1.00  0.00    -0.744 OA
ENDBRANCH  73  76
ENDBRANCH  45  69
BRANCH  57  80
ATOM     80  C   UNL     1      -8.904  15.446   1.748  1.00  0.00     0.023 A 
ATOM     81  C   UNL     1      -9.769  16.090   2.655  1.00  0.00     0.012 A 
ATOM     82  C   UNL     1      -8.673  16.023   0.484  1.00  0.00     0.148 A 
ATOM     83  C   UNL     1     -10.415  17.273   2.300  1.00  0.00     0.002 A 
ATOM     84  C   UNL     1      -9.287  17.226   0.153  1.00  0.00     0.091 A 
ATOM     85  F   UNL     1      -7.863  15.385  -0.373  1.00  0.00    -0.205 F 
ATOM     86  C   UNL     1     -10.165  17.847   1.056  1.00  0.00     0.022 A 
BRANCH  84  87
ATOM     87  S   UNL     1      -8.955  18.080  -1.392  1.00  0.00     0.127 S 
ATOM     88  O   UNL     1     -10.171  17.803  -2.154  1.00  0.00    -0.237 OA
ATOM     89  O   UNL     1      -8.812  19.470  -0.957  1.00  0.00    -0.237 OA
ATOM     90  O   UNL     1      -7.733  17.487  -1.920  1.00  0.00    -0.744 OA
ENDBRANCH  84  87
ENDBRANCH  57  80
ENDBRANCH  31  32
ENDBRANCH  24  26
ENDBRANCH  23  24
ENDBRANCH  22  23
ENDBRANCH   1  22
TORSDOF 17
