REMARK SMILES C/C(=C/C[N@H+]1C[C@H]2CCC[N@H+]2C[C@@H]1C)C(=O)OCCOC(=O)c1ccc(-c2c3nc(c(-c4cccc(S(=O)(=O)[O-])c4F)c4ccc([nH]4)c(-c4cccc(S(=O)(=O)[O-])c4F)c4nc(c(-c5cccc(S(=O)(=O)[O-])c5F)c5ccc2[nH]5)C=C4)C=C3)cc1
REMARK SMILES IDX 19 1 18 2 17 3 15 4 16 5 2 6 1 7 3 8 4 9 5 10 6 11 13 12
REMARK SMILES IDX 7 14 12 15 14 16 8 17 11 18 9 19 10 20 20 22 21 23 22 24
REMARK SMILES IDX 23 25 24 26 85 27 25 28 84 29 26 30 27 31 28 32 78 33 29 34
REMARK SMILES IDX 83 35 77 36 79 37 30 38 82 39 76 40 75 41 31 43 63 44 43 45
REMARK SMILES IDX 62 46 44 47 47 48 61 49 80 50 45 51 46 52 60 54 81 55 48 56
REMARK SMILES IDX 32 57 33 58 41 59 34 60 36 61 42 62 35 63 37 64 38 65 39 66
REMARK SMILES IDX 40 67 64 68 65 69 73 70 66 71 68 72 74 73 67 74 69 75 70 76
REMARK SMILES IDX 71 77 72 78 49 79 50 80 58 81 51 82 53 83 59 84 52 85 54 86
REMARK SMILES IDX 55 87 56 88 57 89
REMARK H PARENT 5 13 11 21 79 42 47 53
REMARK Flexibility Score: inf
ROOT
ATOM      1  C   UNL     1       0.538   4.498  -2.759  1.00  0.00     0.275 C 
ENDROOT
BRANCH   1   2
ATOM      2  C   UNL     1       1.065   3.256  -3.478  1.00  0.00     0.275 C 
BRANCH   2   3
ATOM      3  O   UNL     1       0.428   2.087  -2.930  1.00  0.00    -0.459 OA
BRANCH   3   4
ATOM      4  C   UNL     1       1.216   1.126  -2.391  1.00  0.00     0.333 C 
ATOM      5  O   UNL     1       2.432   1.136  -2.332  1.00  0.00    -0.247 OA
BRANCH   4   6
ATOM      6  C   UNL     1       0.371   0.067  -1.766  1.00  0.00     0.036 C 
ATOM      7  C   UNL     1       0.837  -0.503  -0.458  1.00  0.00     0.052 C 
ATOM      8  C   UNL     1      -0.658  -0.508  -2.416  1.00  0.00     0.044 C 
BRANCH   8   9
ATOM      9  C   UNL     1      -1.040  -0.319  -3.856  1.00  0.00     0.292 C 
BRANCH   9  10
ATOM     10  N   UNL     1      -0.540  -1.405  -4.709  1.00  0.00    -0.320 N 
ATOM     11  C   UNL     1       0.915  -1.595  -4.590  1.00  0.00     0.328 C 
ATOM     12  C   UNL     1      -1.287  -2.670  -4.555  1.00  0.00     0.237 C 
ATOM     13  H   UNL     1      -0.719  -1.098  -5.665  1.00  0.00     0.348 HD
ATOM     14  C   UNL     1       1.444  -2.642  -5.585  1.00  0.00     0.240 C 
ATOM     15  C   UNL     1      -0.420  -3.964  -4.683  1.00  0.00     0.328 C 
ATOM     16  C   UNL     1      -2.435  -2.660  -5.566  1.00  0.00     0.081 C 
ATOM     17  C   UNL     1       2.897  -3.019  -5.289  1.00  0.00     0.077 C 
ATOM     18  N   UNL     1       0.690  -3.915  -5.648  1.00  0.00    -0.323 N 
ATOM     19  C   UNL     1       2.997  -4.436  -5.811  1.00  0.00     0.068 C 
ATOM     20  C   UNL     1       1.643  -5.015  -5.441  1.00  0.00     0.263 C 
ATOM     21  H   UNL     1       0.249  -4.000  -6.564  1.00  0.00     0.348 HD
ENDBRANCH   9  10
ENDBRANCH   8   9
ENDBRANCH   4   6
ENDBRANCH   3   4
ENDBRANCH   2   3
ENDBRANCH   1   2
BRANCH   1  22
ATOM     22  O   UNL     1       1.063   4.540  -1.420  1.00  0.00    -0.458 OA
BRANCH  22  23
ATOM     23  C   UNL     1       0.286   3.954  -0.486  1.00  0.00     0.338 C 
ATOM     24  O   UNL     1      -0.848   3.515  -0.620  1.00  0.00    -0.246 OA
BRANCH  23  25
ATOM     25  C   UNL     1       1.072   3.758   0.734  1.00  0.00     0.060 A 
ATOM     26  C   UNL     1       1.695   2.526   0.905  1.00  0.00     0.016 A 
ATOM     27  C   UNL     1       1.099   4.708   1.747  1.00  0.00     0.016 A 
ATOM     28  C   UNL     1       2.249   2.179   2.127  1.00  0.00     0.010 A 
ATOM     29  C   UNL     1       1.749   4.398   2.946  1.00  0.00     0.010 A 
ATOM     30  C   UNL     1       2.294   3.116   3.163  1.00  0.00    -0.014 A 
BRANCH  30  31
ATOM     31  C   UNL     1       2.888   2.743   4.473  1.00  0.00     0.031 A 
ATOM     32  C   UNL     1       2.053   2.816   5.723  1.00  0.00     0.074 A 
ATOM     33  C   UNL     1       4.174   2.345   4.542  1.00  0.00     0.049 A 
ATOM     34  N   UNL     1       2.421   2.690   6.971  1.00  0.00    -0.248 NA
ATOM     35  C   UNL     1       0.615   3.080   5.548  1.00  0.00     0.031 C 
ATOM     36  C   UNL     1       5.081   2.205   3.400  1.00  0.00     0.029 A 
ATOM     37  N   UNL     1       4.948   2.000   5.622  1.00  0.00    -0.354 N 
ATOM     38  C   UNL     1       1.283   2.934   7.730  1.00  0.00     0.074 A 
ATOM     39  C   UNL     1       0.207   3.207   6.803  1.00  0.00     0.031 C 
ATOM     40  C   UNL     1       6.282   1.799   3.836  1.00  0.00     0.029 A 
ATOM     41  C   UNL     1       6.256   1.729   5.292  1.00  0.00     0.049 A 
ATOM     42  H   UNL     1       4.602   1.951   6.542  1.00  0.00     0.167 HD
ATOM     43  C   UNL     1       1.147   2.925   9.078  1.00  0.00     0.034 A 
ATOM     44  C   UNL     1       7.329   1.498   6.073  1.00  0.00     0.034 A 
ATOM     45  C   UNL     1       2.211   2.594   9.989  1.00  0.00     0.049 A 
ATOM     46  C   UNL     1       7.152   1.501   7.564  1.00  0.00     0.074 A 
ATOM     47  C   UNL     1       2.167   2.513  11.369  1.00  0.00     0.029 A 
ATOM     48  N   UNL     1       3.510   2.286   9.611  1.00  0.00    -0.354 N 
ATOM     49  N   UNL     1       6.059   1.682   8.265  1.00  0.00    -0.248 NA
ATOM     50  C   UNL     1       8.352   1.252   8.374  1.00  0.00     0.031 C 
ATOM     51  C   UNL     1       3.446   2.181  11.828  1.00  0.00     0.029 A 
ATOM     52  C   UNL     1       4.279   2.022  10.732  1.00  0.00     0.049 A 
ATOM     53  H   UNL     1       3.836   2.259   8.683  1.00  0.00     0.167 HD
ATOM     54  C   UNL     1       6.431   1.540   9.596  1.00  0.00     0.074 A 
ATOM     55  C   UNL     1       7.848   1.233   9.601  1.00  0.00     0.031 C 
ATOM     56  C   UNL     1       5.675   1.668  10.714  1.00  0.00     0.034 A 
BRANCH  43  57
ATOM     57  C   UNL     1      -0.202   3.276   9.650  1.00  0.00     0.023 A 
ATOM     58  C   UNL     1      -1.277   2.373   9.534  1.00  0.00     0.012 A 
ATOM     59  C   UNL     1      -0.390   4.487  10.348  1.00  0.00     0.148 A 
ATOM     60  C   UNL     1      -2.527   2.683  10.069  1.00  0.00     0.002 A 
ATOM     61  C   UNL     1      -1.626   4.768  10.919  1.00  0.00     0.091 A 
ATOM     62  F   UNL     1       0.637   5.344  10.431  1.00  0.00    -0.205 F 
ATOM     63  C   UNL     1      -2.698   3.874  10.770  1.00  0.00     0.022 A 
BRANCH  61  64
ATOM     64  S   UNL     1      -1.924   6.238  11.908  1.00  0.00     0.127 S 
ATOM     65  O   UNL     1      -2.795   7.015  11.027  1.00  0.00    -0.237 OA
ATOM     66  O   UNL     1      -2.588   5.685  13.089  1.00  0.00    -0.237 OA
ATOM     67  O   UNL     1      -0.615   6.822  12.166  1.00  0.00    -0.744 OA
ENDBRANCH  61  64
ENDBRANCH  43  57
BRANCH  44  68
ATOM     68  C   UNL     1       8.661   1.242   5.453  1.00  0.00     0.023 A 
ATOM     69  C   UNL     1       9.240  -0.036   5.557  1.00  0.00     0.012 A 
ATOM     70  C   UNL     1       9.338   2.246   4.732  1.00  0.00     0.148 A 
ATOM     71  C   UNL     1      10.481  -0.304   4.977  1.00  0.00     0.002 A 
ATOM     72  C   UNL     1      10.544   1.956   4.105  1.00  0.00     0.091 A 
ATOM     73  F   UNL     1       8.779   3.462   4.658  1.00  0.00    -0.205 F 
ATOM     74  C   UNL     1      11.126   0.687   4.242  1.00  0.00     0.022 A 
BRANCH  72  75
ATOM     75  S   UNL     1      11.373   3.127   3.024  1.00  0.00     0.127 S 
ATOM     76  O   UNL     1      12.543   3.490   3.820  1.00  0.00    -0.237 OA
ATOM     77  O   UNL     1      11.658   2.303   1.849  1.00  0.00    -0.237 OA
ATOM     78  O   UNL     1      10.411   4.194   2.789  1.00  0.00    -0.744 OA
ENDBRANCH  72  75
ENDBRANCH  44  68
BRANCH  56  79
ATOM     79  C   UNL     1       6.352   1.432  12.038  1.00  0.00     0.023 A 
ATOM     80  C   UNL     1       7.259   2.384  12.544  1.00  0.00     0.012 A 
ATOM     81  C   UNL     1       6.038   0.296  12.809  1.00  0.00     0.148 A 
ATOM     82  C   UNL     1       7.871   2.191  13.781  1.00  0.00     0.002 A 
ATOM     83  C   UNL     1       6.612   0.136  14.063  1.00  0.00     0.091 A 
ATOM     84  F   UNL     1       5.188  -0.608  12.300  1.00  0.00    -0.205 F 
ATOM     85  C   UNL     1       7.538   1.074  14.546  1.00  0.00     0.022 A 
BRANCH  83  86
ATOM     86  S   UNL     1       6.168  -1.219  15.157  1.00  0.00     0.127 S 
ATOM     87  O   UNL     1       7.368  -2.053  15.100  1.00  0.00    -0.237 OA
ATOM     88  O   UNL     1       5.962  -0.533  16.433  1.00  0.00    -0.237 OA
ATOM     89  O   UNL     1       4.965  -1.814  14.591  1.00  0.00    -0.744 OA
ENDBRANCH  83  86
ENDBRANCH  56  79
ENDBRANCH  30  31
ENDBRANCH  23  25
ENDBRANCH  22  23
ENDBRANCH   1  22
TORSDOF 16
