REMARK SMILES O=C(OCCOC(=O)[C@@H](CO)NS(=O)(=O)c1cc[nH]c1)c1ccc(-c2c3nc(c(-c4cccc(S(=O)(=O)[O-])c4F)c4ccc([nH]4)c(-c4cccc(S(=O)(=O)[O-])c4F)c4nc(c(-c5cccc(S(=O)(=O)[O-])c5F)c5ccc2[nH]5)C=C4)C=C3)cc1
REMARK SMILES IDX 4 1 3 2 2 3 1 4 21 5 22 6 83 7 23 8 82 9 24 10 25 11 26 12
REMARK SMILES IDX 76 13 27 14 81 15 75 16 77 17 28 18 80 19 74 20 73 21 29 23
REMARK SMILES IDX 61 24 41 25 60 26 42 27 45 28 59 29 78 30 43 31 44 32 58 34
REMARK SMILES IDX 79 35 46 36 30 37 31 38 39 39 32 40 34 41 40 42 33 43 35 44
REMARK SMILES IDX 36 45 37 46 38 47 62 48 63 49 71 50 64 51 66 52 72 53 65 54
REMARK SMILES IDX 67 55 68 56 69 57 70 58 47 59 48 60 56 61 49 62 51 63 57 64
REMARK SMILES IDX 50 65 52 66 53 67 54 68 55 69 5 70 6 71 7 72 8 73 9 74 10 75
REMARK SMILES IDX 11 76 12 78 13 80 14 81 15 82 16 83 17 84 20 85 18 86 19 87
REMARK H PARENT 77 22 45 33 11 77 12 79 19 88
REMARK Flexibility Score: inf
ROOT
ATOM      1  C   UNL     1       4.530  -1.164   0.488  1.00  0.00     0.275 C 
ENDROOT
BRANCH   1   2
ATOM      2  O   UNL     1       3.221  -1.006   1.064  1.00  0.00    -0.458 OA
BRANCH   2   3
ATOM      3  C   UNL     1       2.421   0.005   0.652  1.00  0.00     0.338 C 
ATOM      4  O   UNL     1       1.388  -0.183   0.022  1.00  0.00    -0.246 OA
BRANCH   3   5
ATOM      5  C   UNL     1       2.734   1.333   1.224  1.00  0.00     0.060 A 
ATOM      6  C   UNL     1       4.003   1.919   1.155  1.00  0.00     0.016 A 
ATOM      7  C   UNL     1       1.652   2.068   1.728  1.00  0.00     0.016 A 
ATOM      8  C   UNL     1       4.205   3.206   1.631  1.00  0.00     0.010 A 
ATOM      9  C   UNL     1       1.848   3.359   2.199  1.00  0.00     0.010 A 
ATOM     10  C   UNL     1       3.122   3.926   2.142  1.00  0.00    -0.014 A 
BRANCH  10  11
ATOM     11  C   UNL     1       3.328   5.353   2.456  1.00  0.00     0.031 A 
ATOM     12  C   UNL     1       3.236   6.204   1.145  1.00  0.00     0.074 A 
ATOM     13  C   UNL     1       3.617   5.615   3.775  1.00  0.00     0.049 A 
ATOM     14  N   UNL     1       3.957   7.207   0.739  1.00  0.00    -0.248 NA
ATOM     15  C   UNL     1       2.296   5.790   0.058  1.00  0.00     0.031 C 
ATOM     16  C   UNL     1       3.579   4.613   4.875  1.00  0.00     0.029 A 
ATOM     17  N   UNL     1       3.986   6.740   4.487  1.00  0.00    -0.354 N 
ATOM     18  C   UNL     1       3.372   7.705  -0.465  1.00  0.00     0.074 A 
ATOM     19  C   UNL     1       2.489   6.680  -0.923  1.00  0.00     0.031 C 
ATOM     20  C   UNL     1       3.996   5.143   6.050  1.00  0.00     0.029 A 
ATOM     21  C   UNL     1       4.327   6.542   5.858  1.00  0.00     0.049 A 
ATOM     22  H   UNL     1       4.011   7.631   4.070  1.00  0.00     0.167 HD
ATOM     23  C   UNL     1       3.492   9.013  -0.867  1.00  0.00     0.034 A 
ATOM     24  C   UNL     1       4.875   7.437   6.750  1.00  0.00     0.034 A 
ATOM     25  C   UNL     1       4.201   9.712   0.153  1.00  0.00     0.049 A 
ATOM     26  C   UNL     1       4.844   8.720   6.040  1.00  0.00     0.074 A 
ATOM     27  C   UNL     1       5.512   9.712   0.543  1.00  0.00     0.029 A 
ATOM     28  N   UNL     1       3.403  10.207   1.160  1.00  0.00    -0.354 N 
ATOM     29  N   UNL     1       3.759   9.392   5.792  1.00  0.00    -0.248 NA
ATOM     30  C   UNL     1       6.079   9.207   5.417  1.00  0.00     0.031 C 
ATOM     31  C   UNL     1       5.397   9.703   1.946  1.00  0.00     0.029 A 
ATOM     32  C   UNL     1       4.090  10.040   2.328  1.00  0.00     0.049 A 
ATOM     33  H   UNL     1       2.509  10.605   1.058  1.00  0.00     0.167 HD
ATOM     34  C   UNL     1       4.129  10.112   4.686  1.00  0.00     0.074 A 
ATOM     35  C   UNL     1       5.574  10.228   4.733  1.00  0.00     0.031 C 
ATOM     36  C   UNL     1       3.358  10.066   3.567  1.00  0.00     0.034 A 
BRANCH  23  37
ATOM     37  C   UNL     1       2.827   9.930  -1.884  1.00  0.00     0.023 A 
ATOM     38  C   UNL     1       3.474  11.196  -2.058  1.00  0.00     0.012 A 
ATOM     39  C   UNL     1       1.522   9.813  -2.385  1.00  0.00     0.148 A 
ATOM     40  C   UNL     1       2.813  12.328  -2.531  1.00  0.00     0.002 A 
ATOM     41  C   UNL     1       0.880  10.942  -2.918  1.00  0.00     0.091 A 
ATOM     42  F   UNL     1       0.884   8.644  -2.280  1.00  0.00    -0.205 F 
ATOM     43  C   UNL     1       1.502  12.203  -2.943  1.00  0.00     0.022 A 
BRANCH  41  44
ATOM     44  S   UNL     1      -0.789  10.911  -3.587  1.00  0.00     0.127 S 
ATOM     45  O   UNL     1      -1.524  11.705  -2.606  1.00  0.00    -0.237 OA
ATOM     46  O   UNL     1      -0.603  11.571  -4.882  1.00  0.00    -0.237 OA
ATOM     47  O   UNL     1      -1.152   9.504  -3.679  1.00  0.00    -0.744 OA
ENDBRANCH  41  44
ENDBRANCH  23  37
BRANCH  24  48
ATOM     48  C   UNL     1       5.560   7.439   8.110  1.00  0.00     0.023 A 
ATOM     49  C   UNL     1       5.512   6.388   9.034  1.00  0.00     0.012 A 
ATOM     50  C   UNL     1       6.408   8.538   8.479  1.00  0.00     0.148 A 
ATOM     51  C   UNL     1       6.335   6.385  10.186  1.00  0.00     0.002 A 
ATOM     52  C   UNL     1       7.315   8.473   9.532  1.00  0.00     0.091 A 
ATOM     53  F   UNL     1       6.313   9.700   7.825  1.00  0.00    -0.205 F 
ATOM     54  C   UNL     1       7.274   7.395  10.406  1.00  0.00     0.022 A 
BRANCH  52  55
ATOM     55  S   UNL     1       8.659   9.669   9.711  1.00  0.00     0.127 S 
ATOM     56  O   UNL     1       8.512  10.105  11.098  1.00  0.00    -0.237 OA
ATOM     57  O   UNL     1       9.830   8.831   9.452  1.00  0.00    -0.237 OA
ATOM     58  O   UNL     1       8.425  10.703   8.711  1.00  0.00    -0.744 OA
ENDBRANCH  52  55
ENDBRANCH  24  48
BRANCH  36  59
ATOM     59  C   UNL     1       1.872   9.751   3.788  1.00  0.00     0.023 A 
ATOM     60  C   UNL     1       1.173  10.585   4.685  1.00  0.00     0.012 A 
ATOM     61  C   UNL     1       1.150   8.653   3.253  1.00  0.00     0.148 A 
ATOM     62  C   UNL     1      -0.155  10.340   5.050  1.00  0.00     0.002 A 
ATOM     63  C   UNL     1      -0.175   8.390   3.636  1.00  0.00     0.091 A 
ATOM     64  F   UNL     1       1.751   7.865   2.366  1.00  0.00    -0.205 F 
ATOM     65  C   UNL     1      -0.829   9.242   4.531  1.00  0.00     0.022 A 
BRANCH  63  66
ATOM     66  S   UNL     1      -1.120   6.944   3.098  1.00  0.00     0.127 S 
ATOM     67  O   UNL     1      -1.571   6.370   4.367  1.00  0.00    -0.237 OA
ATOM     68  O   UNL     1      -2.188   7.546   2.303  1.00  0.00    -0.237 OA
ATOM     69  O   UNL     1      -0.193   6.095   2.360  1.00  0.00    -0.744 OA
ENDBRANCH  63  66
ENDBRANCH  36  59
ENDBRANCH  10  11
ENDBRANCH   3   5
ENDBRANCH   2   3
ENDBRANCH   1   2
BRANCH   1  70
ATOM     70  C   UNL     1       4.584  -1.173  -1.044  1.00  0.00     0.274 C 
BRANCH  70  71
ATOM     71  O   UNL     1       4.009   0.013  -1.622  1.00  0.00    -0.461 OA
BRANCH  71  72
ATOM     72  C   UNL     1       2.942  -0.180  -2.453  1.00  0.00     0.326 C 
ATOM     73  O   UNL     1       2.524  -1.293  -2.772  1.00  0.00    -0.250 OA
BRANCH  72  74
ATOM     74  C   UNL     1       2.382   1.109  -3.069  1.00  0.00     0.205 C 
BRANCH  74  75
ATOM     75  C   UNL     1       2.483   2.389  -2.238  1.00  0.00     0.188 C 
BRANCH  75  76
ATOM     76  O   UNL     1       3.833   2.763  -1.979  1.00  0.00    -0.394 OA
ATOM     77  H   UNL     1       4.271   2.062  -1.471  1.00  0.00     0.210 HD
ENDBRANCH  75  76
ENDBRANCH  74  75
BRANCH  74  78
ATOM     78  N   UNL     1       3.038   1.235  -4.411  1.00  0.00    -0.194 NA
ATOM     79  H   UNL     1       3.060   0.304  -4.827  1.00  0.00     0.142 HD
BRANCH  78  80
ATOM     80  S   UNL     1       2.337   2.270  -5.540  1.00  0.00     0.242 S 
ATOM     81  O   UNL     1       2.819   3.593  -5.245  1.00  0.00    -0.207 OA
ATOM     82  O   UNL     1       2.528   1.666  -6.847  1.00  0.00    -0.207 OA
BRANCH  80  83
ATOM     83  C   UNL     1       0.623   2.339  -5.336  1.00  0.00     0.099 A 
ATOM     84  C   UNL     1      -0.139   3.522  -5.157  1.00  0.00     0.041 A 
ATOM     85  C   UNL     1      -0.252   1.270  -5.262  1.00  0.00     0.104 A 
ATOM     86  C   UNL     1      -1.447   3.138  -4.957  1.00  0.00     0.083 A 
ATOM     87  N   UNL     1      -1.504   1.770  -5.011  1.00  0.00    -0.366 N 
ATOM     88  H   UNL     1      -2.317   1.230  -4.888  1.00  0.00     0.165 HD
ENDBRANCH  80  83
ENDBRANCH  78  80
ENDBRANCH  74  78
ENDBRANCH  72  74
ENDBRANCH  71  72
ENDBRANCH  70  71
ENDBRANCH   1  70
TORSDOF 19
