REMARK SMILES CC(C)CCOc1ccc(/C=C2\SC(=S)N(CC(=O)OCCOC(=O)c3ccc(-c4c5nc(c(-c6cccc(S(=O)(=O)[O-])c6F)c6ccc([nH]6)c(-c6cccc(S(=O)(=O)[O-])c6F)c6nc(c(-c7cccc(S(=O)(=O)[O-])c7F)c7ccc4[nH]7)C=C6)C=C5)cc3)C2=O)cc1
REMARK SMILES IDX 20 1 18 2 19 3 17 4 16 5 11 6 12 7 13 8 89 9 14 10 90 11
REMARK SMILES IDX 15 12 10 13 7 14 8 15 92 16 9 17 91 18 6 19 5 20 4 21 2 22
REMARK SMILES IDX 1 23 3 24 21 25 22 26 23 27 24 28 25 29 26 30 27 31 88 32
REMARK SMILES IDX 28 33 87 34 29 35 30 36 31 37 81 38 32 39 86 40 80 41 82 42
REMARK SMILES IDX 33 43 85 44 79 45 78 46 34 48 66 49 46 50 65 51 47 52 50 53
REMARK SMILES IDX 64 54 83 55 48 56 49 57 63 59 84 60 51 61 35 62 36 63 44 64
REMARK SMILES IDX 37 65 39 66 45 67 38 68 40 69 41 70 42 71 43 72 67 73 68 74
REMARK SMILES IDX 76 75 69 76 71 77 77 78 70 79 72 80 73 81 74 82 75 83 52 84
REMARK SMILES IDX 53 85 61 86 54 87 56 88 62 89 55 90 57 91 58 92 59 93 60 94
REMARK H PARENT 82 47 50 58
REMARK Flexibility Score: inf
ROOT
ATOM      1  O   UNL     1       8.155  -5.999   4.961  1.00  0.00    -0.461 OA
ENDROOT
BRANCH   1   2
ATOM      2  C   UNL     1       8.970  -4.958   5.293  1.00  0.00     0.326 C 
ATOM      3  O   UNL     1      10.166  -5.055   5.541  1.00  0.00    -0.250 OA
BRANCH   2   4
ATOM      4  C   UNL     1       8.231  -3.625   5.345  1.00  0.00     0.250 C 
BRANCH   4   5
ATOM      5  N   UNL     1       6.824  -3.754   4.980  1.00  0.00    -0.282 N 
ATOM      6  C   UNL     1       4.375  -3.591   2.326  1.00  0.00     0.029 C 
ATOM      7  C   UNL     1       5.003  -3.801   3.493  1.00  0.00     0.081 C 
ATOM      8  S   UNL     1       4.304  -4.224   5.009  1.00  0.00    -0.054 SA
ATOM      9  C   UNL     1       6.466  -3.599   3.652  1.00  0.00     0.266 C 
ATOM     10  C   UNL     1       5.821  -4.064   5.868  1.00  0.00     0.148 C 
ATOM     11  O   UNL     1       7.217  -3.265   2.748  1.00  0.00    -0.268 OA
ATOM     12  S   UNL     1       5.931  -4.271   7.519  1.00  0.00    -0.052 S 
BRANCH   6  13
ATOM     13  C   UNL     1       2.918  -3.520   2.139  1.00  0.00    -0.024 A 
ATOM     14  C   UNL     1       0.202  -3.101   1.651  1.00  0.00     0.119 A 
ATOM     15  C   UNL     1       0.932  -3.938   0.808  1.00  0.00     0.047 A 
ATOM     16  C   UNL     1       0.787  -2.550   2.783  1.00  0.00     0.047 A 
ATOM     17  C   UNL     1       2.295  -4.146   1.052  1.00  0.00     0.012 A 
ATOM     18  C   UNL     1       2.150  -2.713   2.991  1.00  0.00     0.012 A 
BRANCH  14  19
ATOM     19  O   UNL     1      -1.096  -2.775   1.379  1.00  0.00    -0.494 OA
BRANCH  19  20
ATOM     20  C   UNL     1      -1.176  -1.683   0.440  1.00  0.00     0.230 C 
BRANCH  20  21
ATOM     21  C   UNL     1      -0.911  -0.308   1.083  1.00  0.00     0.044 C 
BRANCH  21  22
ATOM     22  C   UNL     1       0.535   0.214   0.914  1.00  0.00    -0.014 C 
ATOM     23  C   UNL     1       0.822   0.665  -0.518  1.00  0.00     0.007 C 
ATOM     24  C   UNL     1       0.804   1.363   1.889  1.00  0.00     0.007 C 
ENDBRANCH  21  22
ENDBRANCH  20  21
ENDBRANCH  19  20
ENDBRANCH  14  19
ENDBRANCH   6  13
ENDBRANCH   4   5
ENDBRANCH   2   4
ENDBRANCH   1   2
BRANCH   1  25
ATOM     25  C   UNL     1       8.781  -7.289   4.838  1.00  0.00     0.274 C 
BRANCH  25  26
ATOM     26  C   UNL     1       8.916  -7.676   3.368  1.00  0.00     0.275 C 
BRANCH  26  27
ATOM     27  O   UNL     1       9.698  -6.689   2.675  1.00  0.00    -0.458 OA
BRANCH  27  28
ATOM     28  C   UNL     1       9.027  -5.955   1.755  1.00  0.00     0.338 C 
ATOM     29  O   UNL     1       7.862  -6.075   1.421  1.00  0.00    -0.246 OA
BRANCH  28  30
ATOM     30  C   UNL     1       9.945  -4.953   1.190  1.00  0.00     0.060 A 
ATOM     31  C   UNL     1      10.260  -3.811   1.928  1.00  0.00     0.016 A 
ATOM     32  C   UNL     1      10.419  -5.107  -0.110  1.00  0.00     0.016 A 
ATOM     33  C   UNL     1      11.000  -2.784   1.345  1.00  0.00     0.010 A 
ATOM     34  C   UNL     1      11.213  -4.104  -0.672  1.00  0.00     0.010 A 
ATOM     35  C   UNL     1      11.482  -2.919   0.037  1.00  0.00    -0.014 A 
BRANCH  35  36
ATOM     36  C   UNL     1      12.229  -1.810  -0.613  1.00  0.00     0.031 A 
ATOM     37  C   UNL     1      11.649  -1.121  -1.819  1.00  0.00     0.074 A 
ATOM     38  C   UNL     1      13.439  -1.444  -0.147  1.00  0.00     0.049 A 
ATOM     39  N   UNL     1      12.200  -0.240  -2.613  1.00  0.00    -0.248 NA
ATOM     40  C   UNL     1      10.269  -1.480  -2.190  1.00  0.00     0.031 C 
ATOM     41  C   UNL     1      14.111  -2.026   1.017  1.00  0.00     0.029 A 
ATOM     42  N   UNL     1      14.333  -0.510  -0.613  1.00  0.00    -0.354 N 
ATOM     43  C   UNL     1      11.265   0.013  -3.609  1.00  0.00     0.074 A 
ATOM     44  C   UNL     1      10.105  -0.802  -3.318  1.00  0.00     0.031 C 
ATOM     45  C   UNL     1      15.312  -1.446   1.167  1.00  0.00     0.029 A 
ATOM     46  C   UNL     1      15.519  -0.490   0.084  1.00  0.00     0.049 A 
ATOM     47  H   UNL     1      14.142   0.087  -1.372  1.00  0.00     0.167 HD
ATOM     48  C   UNL     1      11.358   0.857  -4.664  1.00  0.00     0.034 A 
ATOM     49  C   UNL     1      16.657   0.196  -0.143  1.00  0.00     0.034 A 
ATOM     50  C   UNL     1      12.483   1.718  -4.914  1.00  0.00     0.049 A 
ATOM     51  C   UNL     1      16.725   1.137  -1.315  1.00  0.00     0.074 A 
ATOM     52  C   UNL     1      12.644   2.651  -5.924  1.00  0.00     0.029 A 
ATOM     53  N   UNL     1      13.635   1.759  -4.144  1.00  0.00    -0.354 N 
ATOM     54  N   UNL     1      15.797   1.430  -2.194  1.00  0.00    -0.248 NA
ATOM     55  C   UNL     1      17.989   1.861  -1.514  1.00  0.00     0.031 C 
ATOM     56  C   UNL     1      13.899   3.250  -5.770  1.00  0.00     0.029 A 
ATOM     57  C   UNL     1      14.512   2.700  -4.657  1.00  0.00     0.049 A 
ATOM     58  H   UNL     1      13.804   1.202  -3.350  1.00  0.00     0.167 HD
ATOM     59  C   UNL     1      16.353   2.394  -3.027  1.00  0.00     0.074 A 
ATOM     60  C   UNL     1      17.690   2.652  -2.535  1.00  0.00     0.031 C 
ATOM     61  C   UNL     1      15.813   2.996  -4.115  1.00  0.00     0.034 A 
BRANCH  48  62
ATOM     62  C   UNL     1      10.197   0.924  -5.620  1.00  0.00     0.023 A 
ATOM     63  C   UNL     1       9.025   1.611  -5.245  1.00  0.00     0.012 A 
ATOM     64  C   UNL     1      10.296   0.379  -6.915  1.00  0.00     0.148 A 
ATOM     65  C   UNL     1       7.961   1.736  -6.137  1.00  0.00     0.002 A 
ATOM     66  C   UNL     1       9.246   0.540  -7.812  1.00  0.00     0.091 A 
ATOM     67  F   UNL     1      11.411  -0.290  -7.244  1.00  0.00    -0.205 F 
ATOM     68  C   UNL     1       8.075   1.211  -7.422  1.00  0.00     0.022 A 
BRANCH  66  69
ATOM     69  S   UNL     1       9.328  -0.035  -9.512  1.00  0.00     0.127 S 
ATOM     70  O   UNL     1       8.405  -1.169  -9.485  1.00  0.00    -0.237 OA
ATOM     71  O   UNL     1       8.841   1.129 -10.255  1.00  0.00    -0.237 OA
ATOM     72  O   UNL     1      10.724  -0.369  -9.756  1.00  0.00    -0.744 OA
ENDBRANCH  66  69
ENDBRANCH  48  62
BRANCH  49  73
ATOM     73  C   UNL     1      17.816   0.043   0.781  1.00  0.00     0.023 A 
ATOM     74  C   UNL     1      18.186   1.121   1.609  1.00  0.00     0.012 A 
ATOM     75  C   UNL     1      18.541  -1.162   0.860  1.00  0.00     0.148 A 
ATOM     76  C   UNL     1      19.273   1.010   2.477  1.00  0.00     0.002 A 
ATOM     77  C   UNL     1      19.587  -1.284   1.768  1.00  0.00     0.091 A 
ATOM     78  F   UNL     1      18.193  -2.170   0.047  1.00  0.00    -0.205 F 
ATOM     79  C   UNL     1      19.965  -0.194   2.566  1.00  0.00     0.022 A 
BRANCH  77  80
ATOM     80  S   UNL     1      20.436  -2.844   2.035  1.00  0.00     0.127 S 
ATOM     81  O   UNL     1      21.673  -2.646   1.284  1.00  0.00    -0.237 OA
ATOM     82  O   UNL     1      20.596  -2.864   3.490  1.00  0.00    -0.237 OA
ATOM     83  O   UNL     1      19.533  -3.866   1.523  1.00  0.00    -0.744 OA
ENDBRANCH  77  80
ENDBRANCH  49  73
BRANCH  61  84
ATOM     84  C   UNL     1      16.646   4.026  -4.829  1.00  0.00     0.023 A 
ATOM     85  C   UNL     1      17.722   3.614  -5.639  1.00  0.00     0.012 A 
ATOM     86  C   UNL     1      16.316   5.394  -4.760  1.00  0.00     0.148 A 
ATOM     87  C   UNL     1      18.475   4.549  -6.347  1.00  0.00     0.002 A 
ATOM     88  C   UNL     1      17.043   6.316  -5.503  1.00  0.00     0.091 A 
ATOM     89  F   UNL     1      15.301   5.769  -3.967  1.00  0.00    -0.205 F 
ATOM     90  C   UNL     1      18.128   5.898  -6.289  1.00  0.00     0.022 A 
BRANCH  88  91
ATOM     91  S   UNL     1      16.606   8.059  -5.557  1.00  0.00     0.127 S 
ATOM     92  O   UNL     1      17.616   8.647  -4.680  1.00  0.00    -0.237 OA
ATOM     93  O   UNL     1      16.768   8.379  -6.976  1.00  0.00    -0.237 OA
ATOM     94  O   UNL     1      15.232   8.138  -5.077  1.00  0.00    -0.744 OA
ENDBRANCH  88  91
ENDBRANCH  61  84
ENDBRANCH  35  36
ENDBRANCH  28  30
ENDBRANCH  27  28
ENDBRANCH  26  27
ENDBRANCH  25  26
ENDBRANCH   1  25
TORSDOF 20
