REMARK SMILES C[C@H](C(=O)OCCOC(=O)c1ccc(-c2c3nc(c(-c4cccc(S(=O)(=O)[O-])c4F)c4ccc([nH]4)c(-c4cccc(S(=O)(=O)[O-])c4F)c4nc(c(-c5cccc(S(=O)(=O)[O-])c5F)c5ccc2[nH]5)C=C4)C=C3)cc1)[C@@H](C)[N@@H+](C)C[C@H]1C[C@H](O)C1
REMARK SMILES IDX 6 1 5 2 3 3 4 4 2 5 1 6 74 7 75 8 76 9 77 10 78 12 79 13
REMARK SMILES IDX 83 14 80 15 81 16 82 17 7 19 8 20 9 21 10 22 11 23 12 24
REMARK SMILES IDX 73 25 13 26 72 27 14 28 15 29 16 30 66 31 17 32 71 33 65 34
REMARK SMILES IDX 67 35 18 36 70 37 64 38 63 39 19 41 51 42 31 43 50 44 32 45
REMARK SMILES IDX 35 46 49 47 68 48 33 49 34 50 48 52 69 53 36 54 20 55 21 56
REMARK SMILES IDX 29 57 22 58 24 59 30 60 23 61 25 62 26 63 27 64 28 65 52 66
REMARK SMILES IDX 53 67 61 68 54 69 56 70 62 71 55 72 57 73 58 74 59 75 60 76
REMARK SMILES IDX 37 77 38 78 46 79 39 80 41 81 47 82 40 83 42 84 43 85 44 86
REMARK SMILES IDX 45 87
REMARK H PARENT 76 11 82 18 67 40 35 51
REMARK Flexibility Score: inf
ROOT
ATOM      1  C   UNL     1       0.714   1.944   1.059  1.00  0.00     0.274 C 
ENDROOT
BRANCH   1   2
ATOM      2  O   UNL     1       0.180   0.631   0.782  1.00  0.00    -0.462 OA
BRANCH   2   3
ATOM      3  C   UNL     1       0.684   0.031  -0.327  1.00  0.00     0.314 C 
ATOM      4  O   UNL     1       1.591   0.489  -1.015  1.00  0.00    -0.252 OA
BRANCH   3   5
ATOM      5  C   UNL     1       0.014  -1.282  -0.671  1.00  0.00     0.154 C 
ATOM      6  C   UNL     1       0.497  -2.421   0.232  1.00  0.00     0.026 C 
BRANCH   5   7
ATOM      7  C   UNL     1      -1.534  -1.264  -0.757  1.00  0.00     0.194 C 
ATOM      8  C   UNL     1      -2.229   0.076  -1.058  1.00  0.00     0.076 C 
BRANCH   7   9
ATOM      9  N   UNL     1      -2.036  -2.379  -1.603  1.00  0.00    -0.334 N 
ATOM     10  C   UNL     1      -3.478  -2.571  -1.552  1.00  0.00     0.332 C 
ATOM     11  H   UNL     1      -1.606  -3.157  -1.103  1.00  0.00     0.348 HD
BRANCH   9  12
ATOM     12  C   UNL     1      -1.461  -2.587  -2.946  1.00  0.00     0.265 C 
BRANCH  12  13
ATOM     13  C   UNL     1      -1.577  -1.417  -3.924  1.00  0.00     0.049 C 
ATOM     14  C   UNL     1      -1.073  -1.723  -5.366  1.00  0.00     0.041 C 
ATOM     15  C   UNL     1      -0.515  -0.265  -3.926  1.00  0.00     0.041 C 
ATOM     16  C   UNL     1      -0.626  -0.246  -5.464  1.00  0.00     0.115 C 
BRANCH  16  17
ATOM     17  O   UNL     1      -1.575   0.681  -6.030  1.00  0.00    -0.393 OA
ATOM     18  H   UNL     1      -2.433   0.575  -5.590  1.00  0.00     0.210 HD
ENDBRANCH  16  17
ENDBRANCH  12  13
ENDBRANCH   9  12
ENDBRANCH   7   9
ENDBRANCH   5   7
ENDBRANCH   3   5
ENDBRANCH   2   3
ENDBRANCH   1   2
BRANCH   1  19
ATOM     19  C   UNL     1       1.617   1.924   2.284  1.00  0.00     0.275 C 
BRANCH  19  20
ATOM     20  O   UNL     1       2.672   0.970   2.095  1.00  0.00    -0.458 OA
BRANCH  20  21
ATOM     21  C   UNL     1       2.590  -0.134   2.869  1.00  0.00     0.338 C 
ATOM     22  O   UNL     1       1.768  -0.366   3.746  1.00  0.00    -0.246 OA
BRANCH  21  23
ATOM     23  C   UNL     1       3.644  -1.085   2.499  1.00  0.00     0.060 A 
ATOM     24  C   UNL     1       3.674  -1.623   1.214  1.00  0.00     0.016 A 
ATOM     25  C   UNL     1       4.514  -1.554   3.481  1.00  0.00     0.016 A 
ATOM     26  C   UNL     1       4.488  -2.720   0.940  1.00  0.00     0.010 A 
ATOM     27  C   UNL     1       5.413  -2.576   3.168  1.00  0.00     0.010 A 
ATOM     28  C   UNL     1       5.377  -3.204   1.910  1.00  0.00    -0.014 A 
BRANCH  28  29
ATOM     29  C   UNL     1       6.258  -4.374   1.636  1.00  0.00     0.031 A 
ATOM     30  C   UNL     1       6.205  -5.584   2.535  1.00  0.00     0.074 A 
ATOM     31  C   UNL     1       7.138  -4.338   0.616  1.00  0.00     0.049 A 
ATOM     32  N   UNL     1       7.033  -6.594   2.610  1.00  0.00    -0.248 NA
ATOM     33  C   UNL     1       5.087  -5.657   3.490  1.00  0.00     0.031 C 
ATOM     34  C   UNL     1       7.286  -3.238  -0.338  1.00  0.00     0.029 A 
ATOM     35  N   UNL     1       8.092  -5.245   0.225  1.00  0.00    -0.354 N 
ATOM     36  C   UNL     1       6.589  -7.372   3.673  1.00  0.00     0.074 A 
ATOM     37  C   UNL     1       5.405  -6.730   4.202  1.00  0.00     0.031 C 
ATOM     38  C   UNL     1       8.259  -3.538  -1.211  1.00  0.00     0.029 A 
ATOM     39  C   UNL     1       8.859  -4.811  -0.832  1.00  0.00     0.049 A 
ATOM     40  H   UNL     1       8.216  -6.120   0.659  1.00  0.00     0.167 HD
ATOM     41  C   UNL     1       7.116  -8.521   4.159  1.00  0.00     0.034 A 
ATOM     42  C   UNL     1       9.951  -5.352  -1.407  1.00  0.00     0.034 A 
ATOM     43  C   UNL     1       8.235  -9.207   3.571  1.00  0.00     0.049 A 
ATOM     44  C   UNL     1      10.495  -6.645  -0.870  1.00  0.00     0.074 A 
ATOM     45  C   UNL     1       8.807 -10.407   3.955  1.00  0.00     0.029 A 
ATOM     46  N   UNL     1       8.940  -8.764   2.463  1.00  0.00    -0.354 N 
ATOM     47  N   UNL     1      10.037  -7.388   0.108  1.00  0.00    -0.248 NA
ATOM     48  C   UNL     1      11.702  -7.177  -1.517  1.00  0.00     0.031 C 
ATOM     49  C   UNL     1       9.859 -10.691   3.076  1.00  0.00     0.029 A 
ATOM     50  C   UNL     1       9.939  -9.668   2.145  1.00  0.00     0.049 A 
ATOM     51  H   UNL     1       8.757  -7.929   1.974  1.00  0.00     0.167 HD
ATOM     52  C   UNL     1      10.888  -8.483   0.184  1.00  0.00     0.074 A 
ATOM     53  C   UNL     1      11.873  -8.320  -0.866  1.00  0.00     0.031 C 
ATOM     54  C   UNL     1      10.874  -9.517   1.060  1.00  0.00     0.034 A 
BRANCH  41  55
ATOM     55  C   UNL     1       6.467  -9.136   5.371  1.00  0.00     0.023 A 
ATOM     56  C   UNL     1       5.255  -9.839   5.233  1.00  0.00     0.012 A 
ATOM     57  C   UNL     1       7.090  -9.070   6.633  1.00  0.00     0.148 A 
ATOM     58  C   UNL     1       4.660 -10.449   6.338  1.00  0.00     0.002 A 
ATOM     59  C   UNL     1       6.509  -9.710   7.723  1.00  0.00     0.091 A 
ATOM     60  F   UNL     1       8.229  -8.373   6.751  1.00  0.00    -0.205 F 
ATOM     61  C   UNL     1       5.291 -10.394   7.578  1.00  0.00     0.022 A 
BRANCH  59  62
ATOM     62  S   UNL     1       7.290  -9.750   9.341  1.00  0.00     0.127 S 
ATOM     63  O   UNL     1       6.524  -8.736  10.064  1.00  0.00    -0.237 OA
ATOM     64  O   UNL     1       7.041 -11.125   9.776  1.00  0.00    -0.237 OA
ATOM     65  O   UNL     1       8.693  -9.437   9.110  1.00  0.00    -0.744 OA
ENDBRANCH  59  62
ENDBRANCH  41  55
BRANCH  42  66
ATOM     66  C   UNL     1      10.579  -4.675  -2.577  1.00  0.00     0.023 A 
ATOM     67  C   UNL     1      10.469  -5.264  -3.851  1.00  0.00     0.012 A 
ATOM     68  C   UNL     1      11.225  -3.430  -2.450  1.00  0.00     0.148 A 
ATOM     69  C   UNL     1      11.001  -4.632  -4.975  1.00  0.00     0.002 A 
ATOM     70  C   UNL     1      11.699  -2.777  -3.582  1.00  0.00     0.091 A 
ATOM     71  F   UNL     1      11.347  -2.896  -1.226  1.00  0.00    -0.205 F 
ATOM     72  C   UNL     1      11.601  -3.382  -4.844  1.00  0.00     0.022 A 
BRANCH  70  73
ATOM     73  S   UNL     1      12.343  -1.101  -3.506  1.00  0.00     0.127 S 
ATOM     74  O   UNL     1      13.784  -1.331  -3.511  1.00  0.00    -0.237 OA
ATOM     75  O   UNL     1      11.809  -0.507  -4.734  1.00  0.00    -0.237 OA
ATOM     76  O   UNL     1      11.786  -0.534  -2.284  1.00  0.00    -0.744 OA
ENDBRANCH  70  73
ENDBRANCH  42  66
BRANCH  54  77
ATOM     77  C   UNL     1      11.944 -10.563   0.914  1.00  0.00     0.023 A 
ATOM     78  C   UNL     1      13.247 -10.285   1.369  1.00  0.00     0.012 A 
ATOM     79  C   UNL     1      11.646 -11.838   0.396  1.00  0.00     0.148 A 
ATOM     80  C   UNL     1      14.246 -11.254   1.289  1.00  0.00     0.002 A 
ATOM     81  C   UNL     1      12.638 -12.811   0.355  1.00  0.00     0.091 A 
ATOM     82  F   UNL     1      10.405 -12.074  -0.054  1.00  0.00    -0.205 F 
ATOM     83  C   UNL     1      13.939 -12.519   0.793  1.00  0.00     0.022 A 
BRANCH  81  84
ATOM     84  S   UNL     1      12.300 -14.488  -0.193  1.00  0.00     0.127 S 
ATOM     85  O   UNL     1      12.800 -14.461  -1.566  1.00  0.00    -0.237 OA
ATOM     86  O   UNL     1      13.101 -15.292   0.732  1.00  0.00    -0.237 OA
ATOM     87  O   UNL     1      10.861 -14.667  -0.047  1.00  0.00    -0.744 OA
ENDBRANCH  81  84
ENDBRANCH  54  77
ENDBRANCH  28  29
ENDBRANCH  21  23
ENDBRANCH  20  21
ENDBRANCH  19  20
ENDBRANCH   1  19
TORSDOF 19
