REMARK SMILES CC(C)C[C@H](NC(=O)[C@H](Cc1ccccc1)NC(=O)CNC(=O)CNC(=O)OCc1ccccc1)C(=O)OCCOC(=O)c1ccc(-c2c3nc(c(-c4cccc(S(=O)(=O)[O-])c4F)c4ccc([nH]4)c(-c4cccc(S(=O)(=O)[O-])c4F)c4nc(c(-c5cccc(S(=O)(=O)[O-])c5F)c5ccc2[nH]5)C=C4)C=C3)cc1
REMARK SMILES IDX 5 1 4 2 2 3 1 4 3 5 36 6 37 7 38 8 39 9 40 10 41 11 42 12
REMARK SMILES IDX 43 13 44 14 45 15 106 16 46 17 105 18 47 19 48 20 49 21
REMARK SMILES IDX 99 22 50 23 104 24 98 25 100 26 51 27 103 28 97 29 96 30
REMARK SMILES IDX 52 32 84 33 64 34 83 35 65 36 68 37 82 38 101 39 66 40 67 41
REMARK SMILES IDX 81 43 102 44 69 45 53 46 54 47 62 48 55 49 57 50 63 51 56 52
REMARK SMILES IDX 58 53 59 54 60 55 61 56 85 57 86 58 94 59 87 60 89 61 95 62
REMARK SMILES IDX 88 63 90 64 91 65 92 66 93 67 70 68 71 69 79 70 72 71 74 72
REMARK SMILES IDX 80 73 73 74 75 75 76 76 77 77 78 78 6 79 7 80 8 82 9 83
REMARK SMILES IDX 17 84 18 85 19 87 20 88 21 89 22 90 23 92 24 93 25 94 26 95
REMARK SMILES IDX 27 97 28 98 29 99 30 100 31 101 35 102 32 103 34 104 33 105
REMARK SMILES IDX 10 106 11 107 12 108 16 109 13 110 15 111 14 112
REMARK H PARENT 100 31 68 42 6 81 17 86 21 91 25 96
REMARK Flexibility Score: inf
ROOT
ATOM      1  C   UNL     1      -5.312   1.451  -1.450  1.00  0.00     0.192 C 
ENDROOT
BRANCH   1   2
ATOM      2  C   UNL     1      -4.135   0.724  -2.111  1.00  0.00     0.040 C 
BRANCH   2   3
ATOM      3  C   UNL     1      -2.730   1.334  -2.243  1.00  0.00    -0.015 C 
ATOM      4  C   UNL     1      -1.952   1.289  -0.921  1.00  0.00     0.007 C 
ATOM      5  C   UNL     1      -1.927   0.503  -3.258  1.00  0.00     0.007 C 
ENDBRANCH   2   3
ENDBRANCH   1   2
BRANCH   1   6
ATOM      6  C   UNL     1      -4.927   2.893  -1.088  1.00  0.00     0.328 C 
ATOM      7  O   UNL     1      -4.279   3.158  -0.082  1.00  0.00    -0.250 OA
BRANCH   6   8
ATOM      8  O   UNL     1      -5.269   3.815  -2.021  1.00  0.00    -0.461 OA
BRANCH   8   9
ATOM      9  C   UNL     1      -4.811   5.155  -1.726  1.00  0.00     0.274 C 
BRANCH   9  10
ATOM     10  C   UNL     1      -5.879   5.995  -1.013  1.00  0.00     0.275 C 
BRANCH  10  11
ATOM     11  O   UNL     1      -6.187   5.494   0.302  1.00  0.00    -0.458 OA
BRANCH  11  12
ATOM     12  C   UNL     1      -7.125   4.516   0.329  1.00  0.00     0.338 C 
ATOM     13  O   UNL     1      -7.766   4.098  -0.623  1.00  0.00    -0.246 OA
BRANCH  12  14
ATOM     14  C   UNL     1      -7.096   3.821   1.629  1.00  0.00     0.060 A 
ATOM     15  C   UNL     1      -6.945   2.432   1.589  1.00  0.00     0.016 A 
ATOM     16  C   UNL     1      -7.249   4.474   2.849  1.00  0.00     0.016 A 
ATOM     17  C   UNL     1      -6.897   1.683   2.751  1.00  0.00     0.010 A 
ATOM     18  C   UNL     1      -7.252   3.716   4.026  1.00  0.00     0.010 A 
ATOM     19  C   UNL     1      -7.080   2.318   3.978  1.00  0.00    -0.014 A 
BRANCH  19  20
ATOM     20  C   UNL     1      -7.260   1.474   5.176  1.00  0.00     0.031 A 
ATOM     21  C   UNL     1      -8.642   1.315   5.735  1.00  0.00     0.074 A 
ATOM     22  C   UNL     1      -6.217   0.805   5.700  1.00  0.00     0.049 A 
ATOM     23  N   UNL     1      -9.031   0.707   6.822  1.00  0.00    -0.248 NA
ATOM     24  C   UNL     1      -9.737   1.926   4.961  1.00  0.00     0.031 C 
ATOM     25  C   UNL     1      -4.852   0.821   5.171  1.00  0.00     0.029 A 
ATOM     26  N   UNL     1      -6.142  -0.013   6.797  1.00  0.00    -0.354 N 
ATOM     27  C   UNL     1     -10.402   0.918   6.900  1.00  0.00     0.074 A 
ATOM     28  C   UNL     1     -10.780   1.701   5.745  1.00  0.00     0.031 C 
ATOM     29  C   UNL     1      -4.070   0.063   5.957  1.00  0.00     0.029 A 
ATOM     30  C   UNL     1      -4.865  -0.439   7.072  1.00  0.00     0.049 A 
ATOM     31  H   UNL     1      -6.926  -0.269   7.335  1.00  0.00     0.167 HD
ATOM     32  C   UNL     1     -11.263   0.495   7.853  1.00  0.00     0.034 A 
ATOM     33  C   UNL     1      -4.390  -1.120   8.133  1.00  0.00     0.034 A 
ATOM     34  C   UNL     1     -10.865  -0.308   8.976  1.00  0.00     0.049 A 
ATOM     35  C   UNL     1      -5.361  -1.535   9.206  1.00  0.00     0.074 A 
ATOM     36  C   UNL     1     -11.648  -0.807  10.001  1.00  0.00     0.029 A 
ATOM     37  N   UNL     1      -9.565  -0.726   9.224  1.00  0.00    -0.354 N 
ATOM     38  N   UNL     1      -6.660  -1.357   9.259  1.00  0.00    -0.248 NA
ATOM     39  C   UNL     1      -4.807  -2.264  10.355  1.00  0.00     0.031 C 
ATOM     40  C   UNL     1     -10.813  -1.492  10.889  1.00  0.00     0.029 A 
ATOM     41  C   UNL     1      -9.518  -1.465  10.391  1.00  0.00     0.049 A 
ATOM     42  H   UNL     1      -8.789  -0.526   8.651  1.00  0.00     0.167 HD
ATOM     43  C   UNL     1      -7.085  -1.984  10.424  1.00  0.00     0.074 A 
ATOM     44  C   UNL     1      -5.905  -2.563  11.036  1.00  0.00     0.031 C 
ATOM     45  C   UNL     1      -8.333  -2.068  10.949  1.00  0.00     0.034 A 
BRANCH  32  46
ATOM     46  C   UNL     1     -12.701   0.925   7.732  1.00  0.00     0.023 A 
ATOM     47  C   UNL     1     -13.522   0.397   6.715  1.00  0.00     0.012 A 
ATOM     48  C   UNL     1     -13.242   1.856   8.641  1.00  0.00     0.148 A 
ATOM     49  C   UNL     1     -14.844   0.822   6.577  1.00  0.00     0.002 A 
ATOM     50  C   UNL     1     -14.574   2.235   8.530  1.00  0.00     0.091 A 
ATOM     51  F   UNL     1     -12.440   2.368   9.585  1.00  0.00    -0.205 F 
ATOM     52  C   UNL     1     -15.371   1.732   7.489  1.00  0.00     0.022 A 
BRANCH  50  53
ATOM     53  S   UNL     1     -15.367   3.342   9.701  1.00  0.00     0.127 S 
ATOM     54  O   UNL     1     -15.601   4.527   8.876  1.00  0.00    -0.237 OA
ATOM     55  O   UNL     1     -16.575   2.597  10.055  1.00  0.00    -0.237 OA
ATOM     56  O   UNL     1     -14.420   3.520  10.792  1.00  0.00    -0.744 OA
ENDBRANCH  50  53
ENDBRANCH  32  46
BRANCH  33  57
ATOM     57  C   UNL     1      -2.939  -1.448   8.233  1.00  0.00     0.023 A 
ATOM     58  C   UNL     1      -2.522  -2.792   8.170  1.00  0.00     0.012 A 
ATOM     59  C   UNL     1      -1.968  -0.436   8.380  1.00  0.00     0.148 A 
ATOM     60  C   UNL     1      -1.171  -3.124   8.285  1.00  0.00     0.002 A 
ATOM     61  C   UNL     1      -0.620  -0.770   8.437  1.00  0.00     0.091 A 
ATOM     62  F   UNL     1      -2.383   0.836   8.453  1.00  0.00    -0.205 F 
ATOM     63  C   UNL     1      -0.221  -2.115   8.409  1.00  0.00     0.022 A 
BRANCH  61  64
ATOM     64  S   UNL     1       0.682   0.467   8.475  1.00  0.00     0.127 S 
ATOM     65  O   UNL     1       1.228   0.284   9.818  1.00  0.00    -0.237 OA
ATOM     66  O   UNL     1       1.554   0.019   7.389  1.00  0.00    -0.237 OA
ATOM     67  O   UNL     1       0.024   1.743   8.232  1.00  0.00    -0.744 OA
ENDBRANCH  61  64
ENDBRANCH  33  57
BRANCH  45  68
ATOM     68  C   UNL     1      -8.496  -2.864  12.216  1.00  0.00     0.023 A 
ATOM     69  C   UNL     1      -8.000  -2.366  13.437  1.00  0.00     0.012 A 
ATOM     70  C   UNL     1      -9.204  -4.082  12.201  1.00  0.00     0.148 A 
ATOM     71  C   UNL     1      -8.170  -3.089  14.616  1.00  0.00     0.002 A 
ATOM     72  C   UNL     1      -9.421  -4.767  13.389  1.00  0.00     0.091 A 
ATOM     73  F   UNL     1      -9.653  -4.547  11.025  1.00  0.00    -0.205 F 
ATOM     74  C   UNL     1      -8.891  -4.281  14.594  1.00  0.00     0.022 A 
BRANCH  72  75
ATOM     75  S   UNL     1     -10.428  -6.251  13.471  1.00  0.00     0.127 S 
ATOM     76  O   UNL     1      -9.421  -7.281  13.720  1.00  0.00    -0.237 OA
ATOM     77  O   UNL     1     -11.305  -5.966  14.607  1.00  0.00    -0.237 OA
ATOM     78  O   UNL     1     -11.112  -6.346  12.188  1.00  0.00    -0.744 OA
ENDBRANCH  72  75
ENDBRANCH  45  68
ENDBRANCH  19  20
ENDBRANCH  12  14
ENDBRANCH  11  12
ENDBRANCH  10  11
ENDBRANCH   9  10
ENDBRANCH   8   9
ENDBRANCH   6   8
ENDBRANCH   1   6
BRANCH   1  79
ATOM     79  N   UNL     1      -6.601   1.285  -2.181  1.00  0.00    -0.341 N 
ATOM     80  C   UNL     1      -7.473   0.221  -2.310  1.00  0.00     0.243 C 
ATOM     81  H   UNL     1      -6.887   2.092  -2.666  1.00  0.00     0.164 HD
ATOM     82  O   UNL     1      -8.569   0.466  -2.828  1.00  0.00    -0.273 OA
BRANCH  80  83
ATOM     83  C   UNL     1      -7.038  -1.272  -2.093  1.00  0.00     0.175 C 
BRANCH  83  84
ATOM     84  N   UNL     1      -6.046  -1.456  -1.063  1.00  0.00    -0.342 N 
ATOM     85  C   UNL     1      -4.856  -2.125  -1.130  1.00  0.00     0.240 C 
ATOM     86  H   UNL     1      -6.255  -1.044  -0.193  1.00  0.00     0.164 HD
ATOM     87  O   UNL     1      -4.175  -2.143  -0.100  1.00  0.00    -0.273 OA
BRANCH  85  88
ATOM     88  C   UNL     1      -4.261  -2.647  -2.457  1.00  0.00     0.216 C 
BRANCH  88  89
ATOM     89  N   UNL     1      -5.149  -3.262  -3.431  1.00  0.00    -0.346 N 
ATOM     90  C   UNL     1      -5.481  -2.881  -4.701  1.00  0.00     0.239 C 
ATOM     91  H   UNL     1      -5.584  -4.091  -3.124  1.00  0.00     0.164 HD
ATOM     92  O   UNL     1      -6.320  -3.559  -5.301  1.00  0.00    -0.273 OA
BRANCH  90  93
ATOM     93  C   UNL     1      -4.944  -1.579  -5.322  1.00  0.00     0.219 C 
BRANCH  93  94
ATOM     94  N   UNL     1      -5.992  -0.568  -5.445  1.00  0.00    -0.312 N 
ATOM     95  C   UNL     1      -5.824   0.776  -5.629  1.00  0.00     0.407 C 
ATOM     96  H   UNL     1      -6.921  -0.890  -5.388  1.00  0.00     0.167 HD
ATOM     97  O   UNL     1      -6.757   1.483  -5.997  1.00  0.00    -0.225 OA
BRANCH  95  98
ATOM     98  O   UNL     1      -4.578   1.185  -5.364  1.00  0.00    -0.445 OA
BRANCH  98  99
ATOM     99  C   UNL     1      -4.040   2.521  -5.521  1.00  0.00     0.270 C 
BRANCH  99 100
ATOM    100  C   UNL     1      -4.790   3.838  -5.571  1.00  0.00    -0.011 A 
ATOM    101  C   UNL     1      -4.113   4.940  -6.137  1.00  0.00     0.007 A 
ATOM    102  C   UNL     1      -6.017   4.085  -4.952  1.00  0.00     0.007 A 
ATOM    103  C   UNL     1      -4.658   6.226  -6.115  1.00  0.00     0.000 A 
ATOM    104  C   UNL     1      -6.573   5.372  -4.939  1.00  0.00     0.000 A 
ATOM    105  C   UNL     1      -5.895   6.441  -5.518  1.00  0.00     0.000 A 
ENDBRANCH  99 100
ENDBRANCH  98  99
ENDBRANCH  95  98
ENDBRANCH  93  94
ENDBRANCH  90  93
ENDBRANCH  88  89
ENDBRANCH  85  88
ENDBRANCH  83  84
BRANCH  83 106
ATOM    106  C   UNL     1      -8.242  -2.283  -2.003  1.00  0.00     0.070 C 
BRANCH 106 107
ATOM    107  C   UNL     1      -8.233  -3.616  -1.235  1.00  0.00    -0.045 A 
ATOM    108  C   UNL     1      -9.369  -4.443  -1.338  1.00  0.00     0.004 A 
ATOM    109  C   UNL     1      -7.239  -4.069  -0.360  1.00  0.00     0.004 A 
ATOM    110  C   UNL     1      -9.501  -5.621  -0.580  1.00  0.00     0.000 A 
ATOM    111  C   UNL     1      -7.350  -5.249   0.383  1.00  0.00     0.000 A 
ATOM    112  C   UNL     1      -8.492  -6.021   0.288  1.00  0.00     0.000 A 
ENDBRANCH 106 107
ENDBRANCH  83 106
ENDBRANCH  80  83
ENDBRANCH   1  79
TORSDOF 28
