REMARK SMILES C[C@@](NC(=O)CCOC1CC[NH2+]CC1)(C(=O)OCCOC(=O)c1ccc(-c2c3nc(c(-c4cccc(S(=O)(=O)[O-])c4F)c4ccc([nH]4)c(-c4cccc(S(=O)(=O)[O-])c4F)c4nc(c(-c5cccc(S(=O)(=O)[O-])c5F)c5ccc2[nH]5)C=C4)C=C3)cc1)C(F)(F)F
REMARK SMILES IDX 18 1 17 2 15 3 16 4 2 5 1 6 3 7 4 8 5 10 6 11 7 12 8 13 9 14
REMARK SMILES IDX 10 15 14 16 11 17 13 18 12 19 86 22 87 23 88 24 89 25 19 26
REMARK SMILES IDX 20 27 21 28 22 29 23 30 24 31 85 32 25 33 84 34 26 35 27 36
REMARK SMILES IDX 28 37 78 38 29 39 83 40 77 41 79 42 30 43 82 44 76 45 75 46
REMARK SMILES IDX 31 48 63 49 43 50 62 51 44 52 47 53 61 54 80 55 45 56 46 57
REMARK SMILES IDX 60 59 81 60 48 61 32 62 33 63 41 64 34 65 36 66 42 67 35 68
REMARK SMILES IDX 37 69 38 70 39 71 40 72 64 73 65 74 73 75 66 76 68 77 74 78
REMARK SMILES IDX 67 79 69 80 70 81 71 82 72 83 49 84 50 85 58 86 51 87 53 88
REMARK SMILES IDX 59 89 52 90 54 91 55 92 56 93 57 94
REMARK H PARENT 3 9 12 20 12 21 79 47 47 58
REMARK Flexibility Score: inf
ROOT
ATOM      1  C   UNL     1      -4.071  -1.209   1.296  1.00  0.00     0.274 C 
ENDROOT
BRANCH   1   2
ATOM      2  O   UNL     1      -2.636  -1.168   1.376  1.00  0.00    -0.460 OA
BRANCH   2   3
ATOM      3  C   UNL     1      -1.889  -2.219   1.849  1.00  0.00     0.341 C 
ATOM      4  O   UNL     1      -2.346  -3.156   2.458  1.00  0.00    -0.249 OA
BRANCH   3   5
ATOM      5  C   UNL     1      -0.403  -1.913   1.582  1.00  0.00     0.231 C 
ATOM      6  C   UNL     1      -0.347  -0.972   0.360  1.00  0.00     0.058 C 
BRANCH   5   7
ATOM      7  N   UNL     1       0.247  -1.473   2.871  1.00  0.00    -0.333 N 
ATOM      8  C   UNL     1       0.116  -0.455   3.745  1.00  0.00     0.223 C 
ATOM      9  H   UNL     1       0.957  -2.097   3.148  1.00  0.00     0.164 HD
ATOM     10  O   UNL     1       0.891  -0.407   4.703  1.00  0.00    -0.275 OA
BRANCH   8  11
ATOM     11  C   UNL     1      -0.912   0.611   3.541  1.00  0.00     0.128 C 
BRANCH  11  12
ATOM     12  C   UNL     1      -0.331   1.733   2.694  1.00  0.00     0.170 C 
BRANCH  12  13
ATOM     13  O   UNL     1       0.465   1.184   1.649  1.00  0.00    -0.377 OA
BRANCH  13  14
ATOM     14  C   UNL     1       1.771   1.728   1.468  1.00  0.00     0.129 C 
ATOM     15  C   UNL     1       1.693   2.748   0.346  1.00  0.00     0.093 C 
ATOM     16  C   UNL     1       2.793   0.614   1.157  1.00  0.00     0.093 C 
ATOM     17  C   UNL     1       1.556   2.061  -1.008  1.00  0.00     0.263 C 
ATOM     18  C   UNL     1       2.978   0.212  -0.316  1.00  0.00     0.263 C 
ATOM     19  N   UNL     1       2.750   1.272  -1.293  1.00  0.00    -0.346 N 
ATOM     20  H   UNL     1       3.559   1.894  -1.293  1.00  0.00     0.346 HD
ATOM     21  H   UNL     1       2.613   0.827  -2.201  1.00  0.00     0.346 HD
ENDBRANCH  13  14
ENDBRANCH  12  13
ENDBRANCH  11  12
ENDBRANCH   8  11
ENDBRANCH   5   7
BRANCH   5  22
ATOM     22  C   UNL     1       0.396  -3.166   1.141  1.00  0.00     0.422 C 
ATOM     23  F   UNL     1       0.449  -3.329  -0.196  1.00  0.00    -0.168 F 
ATOM     24  F   UNL     1       1.703  -3.013   1.519  1.00  0.00    -0.168 F 
ATOM     25  F   UNL     1      -0.022  -4.311   1.704  1.00  0.00    -0.168 F 
ENDBRANCH   5  22
ENDBRANCH   3   5
ENDBRANCH   2   3
ENDBRANCH   1   2
BRANCH   1  26
ATOM     26  C   UNL     1      -4.428  -1.149  -0.192  1.00  0.00     0.275 C 
BRANCH  26  27
ATOM     27  O   UNL     1      -4.032  -2.405  -0.769  1.00  0.00    -0.458 OA
BRANCH  27  28
ATOM     28  C   UNL     1      -3.390  -2.381  -1.960  1.00  0.00     0.338 C 
ATOM     29  O   UNL     1      -3.275  -1.432  -2.718  1.00  0.00    -0.246 OA
BRANCH  28  30
ATOM     30  C   UNL     1      -2.699  -3.679  -2.127  1.00  0.00     0.060 A 
ATOM     31  C   UNL     1      -2.009  -4.183  -1.036  1.00  0.00     0.016 A 
ATOM     32  C   UNL     1      -2.605  -4.343  -3.345  1.00  0.00     0.016 A 
ATOM     33  C   UNL     1      -1.131  -5.247  -1.179  1.00  0.00     0.010 A 
ATOM     34  C   UNL     1      -1.854  -5.533  -3.429  1.00  0.00     0.010 A 
ATOM     35  C   UNL     1      -1.077  -5.994  -2.348  1.00  0.00    -0.014 A 
BRANCH  35  36
ATOM     36  C   UNL     1      -0.211  -7.216  -2.405  1.00  0.00     0.031 A 
ATOM     37  C   UNL     1       0.632  -7.478  -3.626  1.00  0.00     0.074 A 
ATOM     38  C   UNL     1      -0.160  -8.103  -1.380  1.00  0.00     0.049 A 
ATOM     39  N   UNL     1       1.137  -8.605  -4.053  1.00  0.00    -0.248 NA
ATOM     40  C   UNL     1       0.922  -6.327  -4.498  1.00  0.00     0.031 C 
ATOM     41  C   UNL     1      -0.834  -7.973  -0.082  1.00  0.00     0.029 A 
ATOM     42  N   UNL     1       0.484  -9.318  -1.273  1.00  0.00    -0.354 N 
ATOM     43  C   UNL     1       1.682  -8.328  -5.301  1.00  0.00     0.074 A 
ATOM     44  C   UNL     1       1.493  -6.914  -5.541  1.00  0.00     0.031 C 
ATOM     45  C   UNL     1      -0.537  -9.020   0.695  1.00  0.00     0.029 A 
ATOM     46  C   UNL     1       0.187  -9.990  -0.105  1.00  0.00     0.049 A 
ATOM     47  H   UNL     1       1.095  -9.670  -1.961  1.00  0.00     0.167 HD
ATOM     48  C   UNL     1       2.266  -9.187  -6.169  1.00  0.00     0.034 A 
ATOM     49  C   UNL     1       0.356 -11.276   0.256  1.00  0.00     0.034 A 
ATOM     50  C   UNL     1       2.539 -10.567  -5.862  1.00  0.00     0.049 A 
ATOM     51  C   UNL     1       0.979 -12.216  -0.730  1.00  0.00     0.074 A 
ATOM     52  C   UNL     1       3.158 -11.518  -6.654  1.00  0.00     0.029 A 
ATOM     53  N   UNL     1       2.227 -11.187  -4.662  1.00  0.00    -0.354 N 
ATOM     54  N   UNL     1       1.446 -11.961  -1.928  1.00  0.00    -0.248 NA
ATOM     55  C   UNL     1       1.093 -13.622  -0.322  1.00  0.00     0.031 C 
ATOM     56  C   UNL     1       3.195 -12.721  -5.942  1.00  0.00     0.029 A 
ATOM     57  C   UNL     1       2.634 -12.510  -4.694  1.00  0.00     0.049 A 
ATOM     58  H   UNL     1       1.783 -10.751  -3.900  1.00  0.00     0.167 HD
ATOM     59  C   UNL     1       1.928 -13.170  -2.409  1.00  0.00     0.074 A 
ATOM     60  C   UNL     1       1.726 -14.149  -1.360  1.00  0.00     0.031 C 
ATOM     61  C   UNL     1       2.468 -13.453  -3.619  1.00  0.00     0.034 A 
BRANCH  48  62
ATOM     62  C   UNL     1       2.629  -8.684  -7.542  1.00  0.00     0.023 A 
ATOM     63  C   UNL     1       3.733  -7.830  -7.728  1.00  0.00     0.012 A 
ATOM     64  C   UNL     1       1.907  -9.135  -8.667  1.00  0.00     0.148 A 
ATOM     65  C   UNL     1       4.098  -7.415  -9.009  1.00  0.00     0.002 A 
ATOM     66  C   UNL     1       2.306  -8.756  -9.943  1.00  0.00     0.091 A 
ATOM     67  F   UNL     1       0.847  -9.931  -8.467  1.00  0.00    -0.205 F 
ATOM     68  C   UNL     1       3.394  -7.887 -10.115  1.00  0.00     0.022 A 
BRANCH  66  69
ATOM     69  S   UNL     1       1.516  -9.377 -11.433  1.00  0.00     0.127 S 
ATOM     70  O   UNL     1       0.914  -8.161 -11.976  1.00  0.00    -0.237 OA
ATOM     71  O   UNL     1       2.658  -9.885 -12.194  1.00  0.00    -0.237 OA
ATOM     72  O   UNL     1       0.571 -10.395 -10.997  1.00  0.00    -0.744 OA
ENDBRANCH  66  69
ENDBRANCH  48  62
BRANCH  49  73
ATOM     73  C   UNL     1      -0.151 -11.764   1.575  1.00  0.00     0.023 A 
ATOM     74  C   UNL     1       0.760 -12.219   2.547  1.00  0.00     0.012 A 
ATOM     75  C   UNL     1      -1.529 -11.757   1.881  1.00  0.00     0.148 A 
ATOM     76  C   UNL     1       0.307 -12.680   3.784  1.00  0.00     0.002 A 
ATOM     77  C   UNL     1      -1.966 -12.148   3.141  1.00  0.00     0.091 A 
ATOM     78  F   UNL     1      -2.390 -11.350   0.937  1.00  0.00    -0.205 F 
ATOM     79  C   UNL     1      -1.051 -12.631   4.087  1.00  0.00     0.022 A 
BRANCH  77  80
ATOM     80  S   UNL     1      -3.676 -11.964   3.660  1.00  0.00     0.127 S 
ATOM     81  O   UNL     1      -4.150 -13.345   3.628  1.00  0.00    -0.237 OA
ATOM     82  O   UNL     1      -3.529 -11.394   5.000  1.00  0.00    -0.237 OA
ATOM     83  O   UNL     1      -4.282 -11.059   2.692  1.00  0.00    -0.744 OA
ENDBRANCH  77  80
ENDBRANCH  49  73
BRANCH  61  84
ATOM     84  C   UNL     1       2.927 -14.865  -3.850  1.00  0.00     0.023 A 
ATOM     85  C   UNL     1       1.981 -15.892  -4.033  1.00  0.00     0.012 A 
ATOM     86  C   UNL     1       4.301 -15.161  -3.933  1.00  0.00     0.148 A 
ATOM     87  C   UNL     1       2.397 -17.203  -4.257  1.00  0.00     0.002 A 
ATOM     88  C   UNL     1       4.707 -16.458  -4.211  1.00  0.00     0.091 A 
ATOM     89  F   UNL     1       5.182 -14.170  -3.735  1.00  0.00    -0.205 F 
ATOM     90  C   UNL     1       3.758 -17.483  -4.358  1.00  0.00     0.022 A 
BRANCH  88  91
ATOM     91  S   UNL     1       6.431 -16.893  -4.455  1.00  0.00     0.127 S 
ATOM     92  O   UNL     1       6.712 -17.683  -3.258  1.00  0.00    -0.237 OA
ATOM     93  O   UNL     1       6.381 -17.664  -5.698  1.00  0.00    -0.237 OA
ATOM     94  O   UNL     1       7.155 -15.633  -4.554  1.00  0.00    -0.744 OA
ENDBRANCH  88  91
ENDBRANCH  61  84
ENDBRANCH  35  36
ENDBRANCH  28  30
ENDBRANCH  27  28
ENDBRANCH  26  27
ENDBRANCH   1  26
TORSDOF 20
