REMARK SMILES O=C(OCCOC(=O)C1(Cc2nccs2)CC1)c1ccc(-c2c3nc(c(-c4cccc(S(=O)(=O)[O-])c4F)c4ccc([nH]4)c(-c4cccc(S(=O)(=O)[O-])c4F)c4nc(c(-c5cccc(S(=O)(=O)[O-])c5F)c5ccc2[nH]5)C=C4)C=C3)cc1
REMARK SMILES IDX 4 1 3 2 2 3 1 4 18 5 19 6 80 7 20 8 79 9 21 10 22 11 23 12
REMARK SMILES IDX 73 13 24 14 78 15 72 16 74 17 25 18 77 19 71 20 70 21 26 23
REMARK SMILES IDX 58 24 38 25 57 26 39 27 42 28 56 29 75 30 40 31 41 32 55 34
REMARK SMILES IDX 76 35 43 36 27 37 28 38 36 39 29 40 31 41 37 42 30 43 32 44
REMARK SMILES IDX 33 45 34 46 35 47 59 48 60 49 68 50 61 51 63 52 69 53 62 54
REMARK SMILES IDX 64 55 65 56 66 57 67 58 44 59 45 60 53 61 46 62 48 63 54 64
REMARK SMILES IDX 47 65 49 66 50 67 51 68 52 69 5 70 6 71 7 72 8 73 9 74 16 75
REMARK SMILES IDX 17 76 10 77 11 78 12 79 15 80 13 81 14 82
REMARK H PARENT 74 22 42 33
REMARK Flexibility Score: inf
ROOT
ATOM      1  C   UNL     1       4.397  -0.785   1.210  1.00  0.00     0.275 C 
ENDROOT
BRANCH   1   2
ATOM      2  O   UNL     1       3.457   0.289   1.348  1.00  0.00    -0.458 OA
BRANCH   2   3
ATOM      3  C   UNL     1       3.384   1.453   0.662  1.00  0.00     0.338 C 
ATOM      4  O   UNL     1       2.705   2.369   1.126  1.00  0.00    -0.246 OA
BRANCH   3   5
ATOM      5  C   UNL     1       3.978   1.649  -0.697  1.00  0.00     0.060 A 
ATOM      6  C   UNL     1       5.189   1.123  -1.159  1.00  0.00     0.016 A 
ATOM      7  C   UNL     1       3.254   2.488  -1.563  1.00  0.00     0.016 A 
ATOM      8  C   UNL     1       5.638   1.370  -2.464  1.00  0.00     0.010 A 
ATOM      9  C   UNL     1       3.686   2.726  -2.870  1.00  0.00     0.010 A 
ATOM     10  C   UNL     1       4.891   2.174  -3.324  1.00  0.00    -0.014 A 
BRANCH  10  11
ATOM     11  C   UNL     1       5.448   2.620  -4.620  1.00  0.00     0.031 A 
ATOM     12  C   UNL     1       5.987   4.018  -4.691  1.00  0.00     0.074 A 
ATOM     13  C   UNL     1       5.415   1.838  -5.715  1.00  0.00     0.049 A 
ATOM     14  N   UNL     1       6.461   4.671  -5.716  1.00  0.00    -0.248 NA
ATOM     15  C   UNL     1       5.989   4.783  -3.431  1.00  0.00     0.031 C 
ATOM     16  C   UNL     1       4.934   0.461  -5.761  1.00  0.00     0.029 A 
ATOM     17  N   UNL     1       5.746   2.115  -7.018  1.00  0.00    -0.354 N 
ATOM     18  C   UNL     1       6.800   5.926  -5.229  1.00  0.00     0.074 A 
ATOM     19  C   UNL     1       6.433   5.961  -3.832  1.00  0.00     0.031 C 
ATOM     20  C   UNL     1       4.901   0.044  -7.038  1.00  0.00     0.029 A 
ATOM     21  C   UNL     1       5.386   1.119  -7.897  1.00  0.00     0.049 A 
ATOM     22  H   UNL     1       6.196   2.945  -7.296  1.00  0.00     0.167 HD
ATOM     23  C   UNL     1       7.402   6.948  -5.879  1.00  0.00     0.034 A 
ATOM     24  C   UNL     1       5.438   1.085  -9.243  1.00  0.00     0.034 A 
ATOM     25  C   UNL     1       7.769   6.895  -7.263  1.00  0.00     0.049 A 
ATOM     26  C   UNL     1       6.081   2.242  -9.962  1.00  0.00     0.074 A 
ATOM     27  C   UNL     1       8.441   7.837  -8.016  1.00  0.00     0.029 A 
ATOM     28  N   UNL     1       7.470   5.835  -8.108  1.00  0.00    -0.354 N 
ATOM     29  N   UNL     1       6.556   3.357  -9.460  1.00  0.00    -0.248 NA
ATOM     30  C   UNL     1       6.260   2.113 -11.415  1.00  0.00     0.031 C 
ATOM     31  C   UNL     1       8.529   7.355  -9.326  1.00  0.00     0.029 A 
ATOM     32  C   UNL     1       7.933   6.103  -9.381  1.00  0.00     0.049 A 
ATOM     33  H   UNL     1       6.998   5.014  -7.839  1.00  0.00     0.167 HD
ATOM     34  C   UNL     1       7.146   4.034 -10.520  1.00  0.00     0.074 A 
ATOM     35  C   UNL     1       6.958   3.208 -11.696  1.00  0.00     0.031 C 
ATOM     36  C   UNL     1       7.789   5.228 -10.519  1.00  0.00     0.034 A 
BRANCH  23  37
ATOM     37  C   UNL     1       7.707   8.173  -5.063  1.00  0.00     0.023 A 
ATOM     38  C   UNL     1       8.712   8.114  -4.074  1.00  0.00     0.012 A 
ATOM     39  C   UNL     1       6.961   9.354  -5.223  1.00  0.00     0.148 A 
ATOM     40  C   UNL     1       8.924   9.189  -3.212  1.00  0.00     0.002 A 
ATOM     41  C   UNL     1       7.208  10.437  -4.388  1.00  0.00     0.091 A 
ATOM     42  F   UNL     1       5.992   9.381  -6.149  1.00  0.00    -0.205 F 
ATOM     43  C   UNL     1       8.174  10.351  -3.371  1.00  0.00     0.022 A 
BRANCH  41  44
ATOM     44  S   UNL     1       6.333  11.996  -4.553  1.00  0.00     0.127 S 
ATOM     45  O   UNL     1       5.405  11.935  -3.425  1.00  0.00    -0.237 OA
ATOM     46  O   UNL     1       7.412  12.973  -4.404  1.00  0.00    -0.237 OA
ATOM     47  O   UNL     1       5.722  11.970  -5.875  1.00  0.00    -0.744 OA
ENDBRANCH  41  44
ENDBRANCH  23  37
BRANCH  24  48
ATOM     48  C   UNL     1       4.941  -0.114  -9.977  1.00  0.00     0.023 A 
ATOM     49  C   UNL     1       5.864  -1.011 -10.549  1.00  0.00     0.012 A 
ATOM     50  C   UNL     1       3.563  -0.394 -10.074  1.00  0.00     0.148 A 
ATOM     51  C   UNL     1       5.425  -2.150 -11.227  1.00  0.00     0.002 A 
ATOM     52  C   UNL     1       3.133  -1.550 -10.717  1.00  0.00     0.091 A 
ATOM     53  F   UNL     1       2.700   0.472  -9.523  1.00  0.00    -0.205 F 
ATOM     54  C   UNL     1       4.062  -2.422 -11.306  1.00  0.00     0.022 A 
BRANCH  52  55
ATOM     55  S   UNL     1       1.405  -2.043 -10.787  1.00  0.00     0.127 S 
ATOM     56  O   UNL     1       1.119  -1.929 -12.214  1.00  0.00    -0.237 OA
ATOM     57  O   UNL     1       1.465  -3.414 -10.279  1.00  0.00    -0.237 OA
ATOM     58  O   UNL     1       0.692  -1.111  -9.925  1.00  0.00    -0.744 OA
ENDBRANCH  52  55
ENDBRANCH  24  48
BRANCH  36  59
ATOM     59  C   UNL     1       8.396   5.705 -11.809  1.00  0.00     0.023 A 
ATOM     60  C   UNL     1       7.573   6.247 -12.813  1.00  0.00     0.012 A 
ATOM     61  C   UNL     1       9.797   5.753 -11.953  1.00  0.00     0.148 A 
ATOM     62  C   UNL     1       8.137   6.828 -13.948  1.00  0.00     0.002 A 
ATOM     63  C   UNL     1      10.352   6.378 -13.060  1.00  0.00     0.091 A 
ATOM     64  F   UNL     1      10.556   5.210 -10.990  1.00  0.00    -0.205 F 
ATOM     65  C   UNL     1       9.524   6.909 -14.063  1.00  0.00     0.022 A 
BRANCH  63  66
ATOM     66  S   UNL     1      12.122   6.632 -13.234  1.00  0.00     0.127 S 
ATOM     67  O   UNL     1      12.445   5.727 -14.336  1.00  0.00    -0.237 OA
ATOM     68  O   UNL     1      12.197   8.054 -13.569  1.00  0.00    -0.237 OA
ATOM     69  O   UNL     1      12.709   6.281 -11.948  1.00  0.00    -0.744 OA
ENDBRANCH  63  66
ENDBRANCH  36  59
ENDBRANCH  10  11
ENDBRANCH   3   5
ENDBRANCH   2   3
ENDBRANCH   1   2
BRANCH   1  70
ATOM     70  C   UNL     1       3.971  -1.900   0.257  1.00  0.00     0.274 C 
BRANCH  70  71
ATOM     71  O   UNL     1       3.424  -1.452  -0.986  1.00  0.00    -0.462 OA
BRANCH  71  72
ATOM     72  C   UNL     1       2.057  -1.403  -1.024  1.00  0.00     0.312 C 
ATOM     73  O   UNL     1       1.315  -1.492  -0.066  1.00  0.00    -0.252 OA
BRANCH  72  74
ATOM     74  C   UNL     1       1.516  -1.286  -2.422  1.00  0.00     0.074 C 
ATOM     75  C   UNL     1       1.140   0.098  -2.928  1.00  0.00     0.020 C 
ATOM     76  C   UNL     1       2.343  -0.596  -3.489  1.00  0.00     0.020 C 
BRANCH  74  77
ATOM     77  C   UNL     1       0.639  -2.439  -2.873  1.00  0.00     0.086 C 
BRANCH  77  78
ATOM     78  C   UNL     1       1.400  -3.719  -3.059  1.00  0.00     0.094 A 
ATOM     79  N   UNL     1       2.168  -4.267  -2.138  1.00  0.00    -0.250 NA
ATOM     80  S   UNL     1       1.339  -4.551  -4.563  1.00  0.00    -0.127 S 
ATOM     81  C   UNL     1       2.779  -5.389  -2.656  1.00  0.00     0.123 A 
ATOM     82  C   UNL     1       2.450  -5.701  -3.955  1.00  0.00     0.087 A 
ENDBRANCH  77  78
ENDBRANCH  74  77
ENDBRANCH  72  74
ENDBRANCH  71  72
ENDBRANCH  70  71
ENDBRANCH   1  70
TORSDOF 16
