REMARK SMILES COc1ccc(Cl)c(NS(=O)(=O)c2ccc(C)c(C(=O)OCCOC(=O)c3ccc(-c4c5nc(c(-c6cccc(S(=O)(=O)[O-])c6F)c6ccc([nH]6)c(-c6cccc(S(=O)(=O)[O-])c6F)c6nc(c(-c7cccc(S(=O)(=O)[O-])c7F)c7ccc4[nH]7)C=C6)C=C5)cc3)c2)c1
REMARK SMILES IDX 22 1 21 2 19 3 20 4 18 5 13 6 14 7 90 8 15 9 16 10 17 11
REMARK SMILES IDX 10 12 11 13 12 14 9 15 8 17 3 18 4 19 91 20 5 21 6 22 7 23
REMARK SMILES IDX 2 24 1 25 23 26 24 27 25 28 26 29 27 30 28 31 89 32 29 33
REMARK SMILES IDX 88 34 30 35 31 36 32 37 82 38 33 39 87 40 81 41 83 42 34 43
REMARK SMILES IDX 86 44 80 45 79 46 35 48 67 49 47 50 66 51 48 52 51 53 65 54
REMARK SMILES IDX 84 55 49 56 50 57 64 59 85 60 52 61 36 62 37 63 45 64 38 65
REMARK SMILES IDX 40 66 46 67 39 68 41 69 42 70 43 71 44 72 68 73 69 74 77 75
REMARK SMILES IDX 70 76 72 77 78 78 71 79 73 80 74 81 75 82 76 83 53 84 54 85
REMARK SMILES IDX 62 86 55 87 57 88 63 89 56 90 58 91 59 92 60 93 61 94
REMARK H PARENT 9 16 83 47 51 58
REMARK Flexibility Score: inf
ROOT
ATOM      1  C   UNL     1      -4.934  -1.022   2.894  1.00  0.00     0.275 C 
ENDROOT
BRANCH   1   2
ATOM      2  O   UNL     1      -4.528  -1.141   1.522  1.00  0.00    -0.458 OA
BRANCH   2   3
ATOM      3  C   UNL     1      -4.448   0.141   0.721  1.00  0.00     0.338 C 
ATOM      4  O   UNL     1      -5.274   0.836   1.401  1.00  0.00    -0.246 OA
BRANCH   3   5
ATOM      5  C   UNL     1      -3.236   0.537  -1.006  1.00  0.00     0.064 A 
ATOM      6  C   UNL     1      -2.398   2.336  -2.954  1.00  0.00     0.088 A 
ATOM      7  C   UNL     1      -1.722   1.430  -3.718  1.00  0.00     0.022 A 
ATOM      8  C   UNL     1      -3.103   1.909  -1.782  1.00  0.00     0.038 A 
ATOM      9  C   UNL     1      -1.673   0.137  -3.230  1.00  0.00     0.006 A 
ATOM     10  C   UNL     1      -2.291  -0.335  -1.973  1.00  0.00    -0.036 A 
ATOM     11  C   UNL     1      -1.816  -1.831  -1.861  1.00  0.00     0.045 C 
BRANCH   6  12
ATOM     12  S   UNL     1      -2.156   4.098  -3.203  1.00  0.00     0.261 S 
ATOM     13  O   UNL     1      -2.546   4.825  -2.017  1.00  0.00    -0.201 OA
ATOM     14  O   UNL     1      -2.631   4.435  -4.528  1.00  0.00    -0.201 OA
BRANCH  12  15
ATOM     15  N   UNL     1      -0.480   4.356  -3.264  1.00  0.00    -0.278 N 
ATOM     16  H   UNL     1      -0.109   4.791  -4.066  1.00  0.00     0.180 HD
BRANCH  15  17
ATOM     17  C   UNL     1       0.437   3.977  -2.212  1.00  0.00     0.071 A 
ATOM     18  C   UNL     1       1.408   2.034  -1.132  1.00  0.00     0.121 A 
ATOM     19  C   UNL     1       2.664   2.615  -1.130  1.00  0.00     0.048 A 
ATOM     20  C   UNL     1       0.306   2.754  -1.567  1.00  0.00     0.074 A 
ATOM     21  C   UNL     1       2.796   3.929  -1.584  1.00  0.00     0.026 A 
ATOM     22  C   UNL     1       1.699   4.589  -2.159  1.00  0.00     0.065 A 
ATOM     23  Cl  UNL     1       1.959   6.150  -2.860  1.00  0.00    -0.082 Cl
BRANCH  18  24
ATOM     24  O   UNL     1       1.211   0.687  -1.008  1.00  0.00    -0.497 OA
ATOM     25  C   UNL     1       1.401   0.202   0.308  1.00  0.00     0.278 C 
ENDBRANCH  18  24
ENDBRANCH  15  17
ENDBRANCH  12  15
ENDBRANCH   6  12
ENDBRANCH   3   5
ENDBRANCH   2   3
ENDBRANCH   1   2
BRANCH   1  26
ATOM     26  C   UNL     1      -3.739  -0.488   3.697  1.00  0.00     0.275 C 
BRANCH  26  27
ATOM     27  O   UNL     1      -3.285   0.847   3.327  1.00  0.00    -0.458 OA
BRANCH  27  28
ATOM     28  C   UNL     1      -2.190   0.983   2.520  1.00  0.00     0.338 C 
ATOM     29  O   UNL     1      -1.072   1.284   2.900  1.00  0.00    -0.246 OA
BRANCH  28  30
ATOM     30  C   UNL     1      -2.557   0.862   1.083  1.00  0.00     0.060 A 
ATOM     31  C   UNL     1      -3.766   2.062   0.500  1.00  0.00     0.016 A 
ATOM     32  C   UNL     1      -2.640  -0.843   0.529  1.00  0.00     0.016 A 
ATOM     33  C   UNL     1      -5.137   1.526  -0.622  1.00  0.00     0.010 A 
ATOM     34  C   UNL     1      -4.028  -1.389  -0.553  1.00  0.00     0.010 A 
ATOM     35  C   UNL     1      -5.269  -0.195  -1.109  1.00  0.00    -0.014 A 
BRANCH  35  36
ATOM     36  C   UNL     1      -6.526  -0.849  -1.407  1.00  0.00     0.031 A 
ATOM     37  C   UNL     1      -6.492  -1.817  -2.516  1.00  0.00     0.074 A 
ATOM     38  C   UNL     1      -7.542  -0.790  -0.509  1.00  0.00     0.049 A 
ATOM     39  N   UNL     1      -7.490  -2.552  -2.827  1.00  0.00    -0.248 NA
ATOM     40  C   UNL     1      -5.333  -2.046  -3.378  1.00  0.00     0.031 C 
ATOM     41  C   UNL     1      -8.660  -1.723  -0.382  1.00  0.00     0.029 A 
ATOM     42  N   UNL     1      -7.863   0.176   0.448  1.00  0.00    -0.354 N 
ATOM     43  C   UNL     1      -7.104  -3.429  -3.807  1.00  0.00     0.074 A 
ATOM     44  C   UNL     1      -5.745  -3.081  -4.117  1.00  0.00     0.031 C 
ATOM     45  C   UNL     1      -9.641  -1.148   0.333  1.00  0.00     0.029 A 
ATOM     46  C   UNL     1      -9.261   0.232   0.548  1.00  0.00     0.049 A 
ATOM     47  H   UNL     1      -7.222   0.719   0.961  1.00  0.00     0.167 HD
ATOM     48  C   UNL     1      -8.015  -4.365  -4.174  1.00  0.00     0.034 A 
ATOM     49  C   UNL     1     -10.023   1.319   0.204  1.00  0.00     0.034 A 
ATOM     50  C   UNL     1      -9.353  -3.942  -3.706  1.00  0.00     0.049 A 
ATOM     51  C   UNL     1     -10.865   1.024  -1.057  1.00  0.00     0.074 A 
ATOM     52  C   UNL     1     -10.160  -4.261  -2.627  1.00  0.00     0.029 A 
ATOM     53  N   UNL     1      -9.848  -2.736  -4.198  1.00  0.00    -0.354 N 
ATOM     54  N   UNL     1     -10.946  -0.136  -1.659  1.00  0.00    -0.248 NA
ATOM     55  C   UNL     1     -11.569   2.063  -1.807  1.00  0.00     0.031 C 
ATOM     56  C   UNL     1     -11.108  -3.200  -2.456  1.00  0.00     0.029 A 
ATOM     57  C   UNL     1     -10.925  -2.266  -3.463  1.00  0.00     0.049 A 
ATOM     58  H   UNL     1      -9.474  -2.270  -4.980  1.00  0.00     0.167 HD
ATOM     59  C   UNL     1     -11.478   0.021  -2.919  1.00  0.00     0.074 A 
ATOM     60  C   UNL     1     -11.815   1.435  -2.966  1.00  0.00     0.031 C 
ATOM     61  C   UNL     1     -11.547  -0.994  -3.847  1.00  0.00     0.034 A 
BRANCH  48  62
ATOM     62  C   UNL     1      -7.718  -5.695  -4.838  1.00  0.00     0.023 A 
ATOM     63  C   UNL     1      -8.805  -6.589  -4.956  1.00  0.00     0.012 A 
ATOM     64  C   UNL     1      -6.452  -6.202  -5.233  1.00  0.00     0.148 A 
ATOM     65  C   UNL     1      -8.648  -7.911  -5.389  1.00  0.00     0.002 A 
ATOM     66  C   UNL     1      -6.298  -7.515  -5.692  1.00  0.00     0.091 A 
ATOM     67  F   UNL     1      -5.360  -5.446  -5.128  1.00  0.00    -0.205 F 
ATOM     68  C   UNL     1      -7.394  -8.377  -5.756  1.00  0.00     0.022 A 
BRANCH  66  69
ATOM     69  S   UNL     1      -4.701  -8.204  -6.181  1.00  0.00     0.127 S 
ATOM     70  O   UNL     1      -4.531  -9.294  -5.219  1.00  0.00    -0.237 OA
ATOM     71  O   UNL     1      -4.953  -8.641  -7.553  1.00  0.00    -0.237 OA
ATOM     72  O   UNL     1      -3.725  -7.128  -6.054  1.00  0.00    -0.744 OA
ENDBRANCH  66  69
ENDBRANCH  48  62
BRANCH  49  73
ATOM     73  C   UNL     1      -9.351   2.631   0.504  1.00  0.00     0.023 A 
ATOM     74  C   UNL     1      -8.797   2.794   1.800  1.00  0.00     0.012 A 
ATOM     75  C   UNL     1      -8.864   3.443  -0.523  1.00  0.00     0.148 A 
ATOM     76  C   UNL     1      -7.607   3.507   1.977  1.00  0.00     0.002 A 
ATOM     77  C   UNL     1      -7.675   4.129  -0.352  1.00  0.00     0.091 A 
ATOM     78  F   UNL     1      -9.482   3.495  -1.705  1.00  0.00    -0.205 F 
ATOM     79  C   UNL     1      -7.010   4.124   0.881  1.00  0.00     0.022 A 
BRANCH  77  80
ATOM     80  S   UNL     1      -6.844   4.678  -1.850  1.00  0.00     0.127 S 
ATOM     81  O   UNL     1      -5.470   4.854  -1.390  1.00  0.00    -0.237 OA
ATOM     82  O   UNL     1      -7.019   3.550  -2.758  1.00  0.00    -0.237 OA
ATOM     83  O   UNL     1      -7.565   5.904  -2.171  1.00  0.00    -0.744 OA
ENDBRANCH  77  80
ENDBRANCH  49  73
BRANCH  61  84
ATOM     84  C   UNL     1     -12.188  -0.860  -5.239  1.00  0.00     0.023 A 
ATOM     85  C   UNL     1     -13.080   0.182  -5.558  1.00  0.00     0.012 A 
ATOM     86  C   UNL     1     -12.004  -1.829  -6.265  1.00  0.00     0.148 A 
ATOM     87  C   UNL     1     -13.617   0.354  -6.841  1.00  0.00     0.002 A 
ATOM     88  C   UNL     1     -12.555  -1.677  -7.535  1.00  0.00     0.091 A 
ATOM     89  F   UNL     1     -11.349  -2.963  -6.011  1.00  0.00    -0.205 F 
ATOM     90  C   UNL     1     -13.335  -0.564  -7.839  1.00  0.00     0.022 A 
BRANCH  88  91
ATOM     91  S   UNL     1     -12.348  -2.915  -8.824  1.00  0.00     0.127 S 
ATOM     92  O   UNL     1     -13.704  -3.451  -8.933  1.00  0.00    -0.237 OA
ATOM     93  O   UNL     1     -11.920  -2.099  -9.961  1.00  0.00    -0.237 OA
ATOM     94  O   UNL     1     -11.345  -3.851  -8.338  1.00  0.00    -0.744 OA
ENDBRANCH  88  91
ENDBRANCH  61  84
ENDBRANCH  35  36
ENDBRANCH  28  30
ENDBRANCH  27  28
ENDBRANCH  26  27
ENDBRANCH   1  26
TORSDOF 18
