REMARK SMILES O=C(CSc1nnc(C2CC2)n1-c1cccc2ccccc12)OCCOC(=O)c1ccc(-c2c3nc(c(-c4cccc(S(=O)(=O)[O-])c4F)c4ccc([nH]4)c(-c4cccc(S(=O)(=O)[O-])c4F)c4nc(c(-c5cccc(S(=O)(=O)[O-])c5F)c5ccc2[nH]5)C=C4)C=C3)cc1
REMARK SMILES IDX 24 1 23 2 2 3 1 4 3 5 4 6 5 7 6 8 12 9 7 10 8 11 13 12 14 13
REMARK SMILES IDX 22 14 15 15 17 16 21 17 16 18 18 19 20 20 19 21 9 22 10 23
REMARK SMILES IDX 11 24 25 25 26 26 27 27 28 28 29 29 30 30 91 31 31 32 90 33
REMARK SMILES IDX 32 34 33 35 34 36 84 37 35 38 89 39 83 40 85 41 36 42 88 43
REMARK SMILES IDX 82 44 81 45 37 47 69 48 49 49 68 50 50 51 53 52 67 53 86 54
REMARK SMILES IDX 51 55 52 56 66 58 87 59 54 60 38 61 39 62 47 63 40 64 42 65
REMARK SMILES IDX 48 66 41 67 43 68 44 69 45 70 46 71 70 72 71 73 79 74 72 75
REMARK SMILES IDX 74 76 80 77 73 78 75 79 76 80 77 81 78 82 55 83 56 84 64 85
REMARK SMILES IDX 57 86 59 87 65 88 58 89 60 90 61 91 62 92 63 93
REMARK H PARENT 85 46 53 57
REMARK Flexibility Score: inf
ROOT
ATOM      1  C   UNL     1       4.721   0.621  -1.125  1.00  0.00     0.274 C 
ENDROOT
BRANCH   1   2
ATOM      2  O   UNL     1       3.327   0.344  -0.845  1.00  0.00    -0.461 OA
BRANCH   2   3
ATOM      3  C   UNL     1       2.870  -0.385   0.208  1.00  0.00     0.316 C 
ATOM      4  O   UNL     1       1.785  -0.129   0.726  1.00  0.00    -0.251 OA
BRANCH   3   5
ATOM      5  C   UNL     1       3.692  -1.537   0.708  1.00  0.00     0.200 C 
BRANCH   5   6
ATOM      6  S   UNL     1       4.154  -2.655  -0.635  1.00  0.00    -0.074 SA
BRANCH   6   7
ATOM      7  C   UNL     1       2.757  -3.654  -0.824  1.00  0.00     0.196 A 
ATOM      8  N   UNL     1       2.750  -4.928  -0.498  1.00  0.00    -0.123 NA
ATOM      9  N   UNL     1       1.557  -3.323  -1.426  1.00  0.00    -0.273 N 
ATOM     10  N   UNL     1       1.603  -5.484  -1.002  1.00  0.00    -0.134 NA
ATOM     11  C   UNL     1       0.960  -4.548  -1.671  1.00  0.00     0.141 A 
BRANCH   9  12
ATOM     12  C   UNL     1       1.001  -2.058  -1.707  1.00  0.00     0.057 A 
ATOM     13  C   UNL     1       1.651  -1.236  -2.635  1.00  0.00     0.027 A 
ATOM     14  C   UNL     1      -0.229  -1.671  -1.085  1.00  0.00     0.006 A 
ATOM     15  C   UNL     1       1.100   0.001  -2.950  1.00  0.00     0.003 A 
ATOM     16  C   UNL     1      -0.788  -0.426  -1.463  1.00  0.00    -0.016 A 
ATOM     17  C   UNL     1      -0.933  -2.430  -0.111  1.00  0.00     0.011 A 
ATOM     18  C   UNL     1      -0.105   0.400  -2.370  1.00  0.00     0.009 A 
ATOM     19  C   UNL     1      -2.023  -0.018  -0.930  1.00  0.00     0.009 A 
ATOM     20  C   UNL     1      -2.167  -2.019   0.395  1.00  0.00     0.001 A 
ATOM     21  C   UNL     1      -2.718  -0.818  -0.025  1.00  0.00     0.001 A 
ENDBRANCH   9  12
BRANCH  11  22
ATOM     22  C   UNL     1      -0.154  -4.929  -2.642  1.00  0.00     0.058 C 
ATOM     23  C   UNL     1      -1.156  -3.988  -3.263  1.00  0.00     0.012 C 
ATOM     24  C   UNL     1       0.003  -4.447  -4.075  1.00  0.00     0.012 C 
ENDBRANCH  11  22
ENDBRANCH   6   7
ENDBRANCH   5   6
ENDBRANCH   3   5
ENDBRANCH   2   3
ENDBRANCH   1   2
BRANCH   1  25
ATOM     25  C   UNL     1       5.065   2.030  -0.658  1.00  0.00     0.275 C 
BRANCH  25  26
ATOM     26  O   UNL     1       4.824   2.065   0.739  1.00  0.00    -0.458 OA
BRANCH  26  27
ATOM     27  C   UNL     1       3.555   2.354   1.108  1.00  0.00     0.338 C 
ATOM     28  O   UNL     1       2.692   2.892   0.425  1.00  0.00    -0.246 OA
BRANCH  27  29
ATOM     29  C   UNL     1       3.417   1.923   2.504  1.00  0.00     0.060 A 
ATOM     30  C   UNL     1       2.341   2.449   3.215  1.00  0.00     0.016 A 
ATOM     31  C   UNL     1       4.514   1.310   3.134  1.00  0.00     0.016 A 
ATOM     32  C   UNL     1       2.547   2.720   4.543  1.00  0.00     0.010 A 
ATOM     33  C   UNL     1       4.735   1.609   4.445  1.00  0.00     0.010 A 
ATOM     34  C   UNL     1       3.806   2.430   5.072  1.00  0.00    -0.014 A 
BRANCH  34  35
ATOM     35  C   UNL     1       4.219   3.130   6.258  1.00  0.00     0.031 A 
ATOM     36  C   UNL     1       3.855   2.435   7.497  1.00  0.00     0.074 A 
ATOM     37  C   UNL     1       4.980   4.237   6.162  1.00  0.00     0.049 A 
ATOM     38  N   UNL     1       2.938   2.768   8.340  1.00  0.00    -0.248 NA
ATOM     39  C   UNL     1       4.441   1.105   7.721  1.00  0.00     0.031 C 
ATOM     40  C   UNL     1       5.646   4.774   4.967  1.00  0.00     0.029 A 
ATOM     41  N   UNL     1       5.451   5.027   7.158  1.00  0.00    -0.354 N 
ATOM     42  C   UNL     1       3.032   1.812   9.341  1.00  0.00     0.074 A 
ATOM     43  C   UNL     1       3.750   0.697   8.783  1.00  0.00     0.031 C 
ATOM     44  C   UNL     1       6.622   5.626   5.355  1.00  0.00     0.029 A 
ATOM     45  C   UNL     1       6.563   5.778   6.798  1.00  0.00     0.049 A 
ATOM     46  H   UNL     1       5.043   5.065   8.053  1.00  0.00     0.167 HD
ATOM     47  C   UNL     1       2.831   2.144  10.642  1.00  0.00     0.034 A 
ATOM     48  C   UNL     1       7.428   6.370   7.657  1.00  0.00     0.034 A 
ATOM     49  C   UNL     1       2.159   3.411  10.777  1.00  0.00     0.049 A 
ATOM     50  C   UNL     1       6.745   6.473   8.971  1.00  0.00     0.074 A 
ATOM     51  C   UNL     1       0.971   3.939  10.311  1.00  0.00     0.029 A 
ATOM     52  N   UNL     1       2.927   4.484  11.164  1.00  0.00    -0.354 N 
ATOM     53  N   UNL     1       5.702   7.227   9.187  1.00  0.00    -0.248 NA
ATOM     54  C   UNL     1       6.945   5.399   9.932  1.00  0.00     0.031 C 
ATOM     55  C   UNL     1       1.260   5.305  10.024  1.00  0.00     0.029 A 
ATOM     56  C   UNL     1       2.591   5.548  10.370  1.00  0.00     0.049 A 
ATOM     57  H   UNL     1       3.598   4.486  11.884  1.00  0.00     0.167 HD
ATOM     58  C   UNL     1       4.885   6.466  10.014  1.00  0.00     0.074 A 
ATOM     59  C   UNL     1       5.752   5.411  10.534  1.00  0.00     0.031 C 
ATOM     60  C   UNL     1       3.523   6.579   9.960  1.00  0.00     0.034 A 
BRANCH  47  61
ATOM     61  C   UNL     1       3.595   1.521  11.781  1.00  0.00     0.023 A 
ATOM     62  C   UNL     1       3.116   1.760  13.083  1.00  0.00     0.012 A 
ATOM     63  C   UNL     1       4.882   0.941  11.663  1.00  0.00     0.148 A 
ATOM     64  C   UNL     1       3.892   1.467  14.209  1.00  0.00     0.002 A 
ATOM     65  C   UNL     1       5.605   0.561  12.784  1.00  0.00     0.091 A 
ATOM     66  F   UNL     1       5.494   0.885  10.476  1.00  0.00    -0.205 F 
ATOM     67  C   UNL     1       5.130   0.852  14.062  1.00  0.00     0.022 A 
BRANCH  65  68
ATOM     68  S   UNL     1       7.177  -0.293  12.624  1.00  0.00     0.127 S 
ATOM     69  O   UNL     1       8.124   0.793  12.849  1.00  0.00    -0.237 OA
ATOM     70  O   UNL     1       7.095  -1.281  13.701  1.00  0.00    -0.237 OA
ATOM     71  O   UNL     1       7.161  -0.874  11.286  1.00  0.00    -0.744 OA
ENDBRANCH  65  68
ENDBRANCH  47  61
BRANCH  48  72
ATOM     72  C   UNL     1       8.890   6.561   7.506  1.00  0.00     0.023 A 
ATOM     73  C   UNL     1       9.553   7.518   8.297  1.00  0.00     0.012 A 
ATOM     74  C   UNL     1       9.677   5.638   6.778  1.00  0.00     0.148 A 
ATOM     75  C   UNL     1      10.952   7.540   8.381  1.00  0.00     0.002 A 
ATOM     76  C   UNL     1      11.066   5.675   6.850  1.00  0.00     0.091 A 
ATOM     77  F   UNL     1       9.066   4.665   6.091  1.00  0.00    -0.205 F 
ATOM     78  C   UNL     1      11.707   6.617   7.662  1.00  0.00     0.022 A 
BRANCH  76  79
ATOM     79  S   UNL     1      12.100   4.510   5.950  1.00  0.00     0.127 S 
ATOM     80  O   UNL     1      13.097   5.394   5.345  1.00  0.00    -0.237 OA
ATOM     81  O   UNL     1      12.606   3.660   7.024  1.00  0.00    -0.237 OA
ATOM     82  O   UNL     1      11.220   3.858   4.988  1.00  0.00    -0.744 OA
ENDBRANCH  76  79
ENDBRANCH  48  72
BRANCH  60  83
ATOM     83  C   UNL     1       2.940   7.724   9.165  1.00  0.00     0.023 A 
ATOM     84  C   UNL     1       3.122   7.832   7.769  1.00  0.00     0.012 A 
ATOM     85  C   UNL     1       2.047   8.604   9.800  1.00  0.00     0.148 A 
ATOM     86  C   UNL     1       2.452   8.810   7.029  1.00  0.00     0.002 A 
ATOM     87  C   UNL     1       1.349   9.547   9.054  1.00  0.00     0.091 A 
ATOM     88  F   UNL     1       1.873   8.483  11.124  1.00  0.00    -0.205 F 
ATOM     89  C   UNL     1       1.556   9.660   7.670  1.00  0.00     0.022 A 
BRANCH  87  90
ATOM     90  S   UNL     1       0.089  10.588   9.796  1.00  0.00     0.127 S 
ATOM     91  O   UNL     1       0.769  11.878   9.882  1.00  0.00    -0.237 OA
ATOM     92  O   UNL     1      -0.990  10.530   8.808  1.00  0.00    -0.237 OA
ATOM     93  O   UNL     1      -0.242   9.966  11.072  1.00  0.00    -0.744 OA
ENDBRANCH  87  90
ENDBRANCH  60  83
ENDBRANCH  34  35
ENDBRANCH  27  29
ENDBRANCH  26  27
ENDBRANCH  25  26
ENDBRANCH   1  25
TORSDOF 18
