REMARK SMILES O=C(COc1ccccc1/C=C1\C(=O)Nc2ccccc21)OCCOC(=O)c1ccc(-c2c3nc(c(-c4cccc(S(=O)(=O)[O-])c4F)c4ccc([nH]4)c(-c4cccc(S(=O)(=O)[O-])c4F)c4nc(c(-c5cccc(S(=O)(=O)[O-])c5F)c5ccc2[nH]5)C=C4)C=C3)cc1
REMARK SMILES IDX 23 1 22 2 2 3 1 4 3 5 4 6 5 7 6 8 10 9 7 10 9 11 8 12 11 13
REMARK SMILES IDX 12 14 13 15 21 16 14 17 15 18 16 19 20 20 17 22 19 23 18 24
REMARK SMILES IDX 24 25 25 26 26 27 27 28 28 29 29 30 90 31 30 32 89 33 31 34
REMARK SMILES IDX 32 35 33 36 83 37 34 38 88 39 82 40 84 41 35 42 87 43 81 44
REMARK SMILES IDX 80 45 36 47 68 48 48 49 67 50 49 51 52 52 66 53 85 54 50 55
REMARK SMILES IDX 51 56 65 58 86 59 53 60 37 61 38 62 46 63 39 64 41 65 47 66
REMARK SMILES IDX 40 67 42 68 43 69 44 70 45 71 69 72 70 73 78 74 71 75 73 76
REMARK SMILES IDX 79 77 72 78 74 79 75 80 76 81 77 82 54 83 55 84 63 85 56 86
REMARK SMILES IDX 58 87 64 88 57 89 59 90 60 91 61 92 62 93
REMARK H PARENT 15 21 84 46 52 57
REMARK Flexibility Score: inf
ROOT
ATOM      1  C   UNL     1       4.536   0.119  -1.059  1.00  0.00     0.274 C 
ENDROOT
BRANCH   1   2
ATOM      2  O   UNL     1       3.127  -0.162  -1.226  1.00  0.00    -0.460 OA
BRANCH   2   3
ATOM      3  C   UNL     1       2.198   0.015  -0.251  1.00  0.00     0.344 C 
ATOM      4  O   UNL     1       1.013   0.150  -0.550  1.00  0.00    -0.248 OA
BRANCH   3   5
ATOM      5  C   UNL     1       2.647  -0.037   1.197  1.00  0.00     0.352 C 
BRANCH   5   6
ATOM      6  O   UNL     1       3.398  -1.234   1.368  1.00  0.00    -0.481 OA
BRANCH   6   7
ATOM      7  C   UNL     1       2.980  -1.987   2.435  1.00  0.00     0.127 A 
ATOM      8  C   UNL     1       3.636  -1.765   3.651  1.00  0.00     0.047 A 
ATOM      9  C   UNL     1       2.070  -3.052   2.259  1.00  0.00     0.017 A 
ATOM     10  C   UNL     1       3.426  -2.635   4.714  1.00  0.00     0.004 A 
ATOM     11  C   UNL     1       1.972  -3.969   3.309  1.00  0.00     0.012 A 
ATOM     12  C   UNL     1       2.622  -3.754   4.531  1.00  0.00     0.001 A 
BRANCH   9  13
ATOM     13  C   UNL     1       1.279  -3.158   1.008  1.00  0.00     0.026 C 
ATOM     14  C   UNL     1       0.042  -3.637   0.774  1.00  0.00     0.050 C 
ATOM     15  C   UNL     1      -0.917  -4.392   1.673  1.00  0.00     0.256 C 
ATOM     16  C   UNL     1      -0.675  -3.450  -0.509  1.00  0.00     0.011 A 
ATOM     17  O   UNL     1      -0.796  -4.744   2.828  1.00  0.00    -0.269 OA
ATOM     18  N   UNL     1      -2.025  -4.661   0.886  1.00  0.00    -0.321 N 
ATOM     19  C   UNL     1      -1.906  -4.098  -0.374  1.00  0.00     0.049 A 
ATOM     20  C   UNL     1      -0.409  -2.728  -1.661  1.00  0.00     0.011 A 
ATOM     21  H   UNL     1      -2.801  -5.186   1.186  1.00  0.00     0.170 HD
ATOM     22  C   UNL     1      -2.874  -4.098  -1.360  1.00  0.00     0.027 A 
ATOM     23  C   UNL     1      -1.385  -2.690  -2.667  1.00  0.00     0.001 A 
ATOM     24  C   UNL     1      -2.603  -3.378  -2.523  1.00  0.00     0.002 A 
ENDBRANCH   9  13
ENDBRANCH   6   7
ENDBRANCH   5   6
ENDBRANCH   3   5
ENDBRANCH   2   3
ENDBRANCH   1   2
BRANCH   1  25
ATOM     25  C   UNL     1       4.846   1.534  -1.541  1.00  0.00     0.275 C 
BRANCH  25  26
ATOM     26  O   UNL     1       4.285   2.476  -0.610  1.00  0.00    -0.458 OA
BRANCH  26  27
ATOM     27  C   UNL     1       3.097   3.021  -0.971  1.00  0.00     0.338 C 
ATOM     28  O   UNL     1       2.530   2.898  -2.042  1.00  0.00    -0.246 OA
BRANCH  27  29
ATOM     29  C   UNL     1       2.491   3.643   0.224  1.00  0.00     0.060 A 
ATOM     30  C   UNL     1       1.136   3.406   0.480  1.00  0.00     0.016 A 
ATOM     31  C   UNL     1       3.246   4.446   1.086  1.00  0.00     0.016 A 
ATOM     32  C   UNL     1       0.523   3.998   1.583  1.00  0.00     0.010 A 
ATOM     33  C   UNL     1       2.628   5.047   2.185  1.00  0.00     0.010 A 
ATOM     34  C   UNL     1       1.258   4.849   2.420  1.00  0.00    -0.014 A 
BRANCH  34  35
ATOM     35  C   UNL     1       0.551   5.656   3.441  1.00  0.00     0.031 A 
ATOM     36  C   UNL     1       0.096   7.042   3.077  1.00  0.00     0.074 A 
ATOM     37  C   UNL     1       0.317   5.168   4.672  1.00  0.00     0.049 A 
ATOM     38  N   UNL     1      -0.596   7.896   3.784  1.00  0.00    -0.248 NA
ATOM     39  C   UNL     1       0.472   7.529   1.739  1.00  0.00     0.031 C 
ATOM     40  C   UNL     1       0.740   3.856   5.158  1.00  0.00     0.029 A 
ATOM     41  N   UNL     1      -0.321   5.737   5.745  1.00  0.00    -0.354 N 
ATOM     42  C   UNL     1      -0.749   9.016   2.976  1.00  0.00     0.074 A 
ATOM     43  C   UNL     1      -0.045   8.749   1.741  1.00  0.00     0.031 C 
ATOM     44  C   UNL     1       0.376   3.733   6.447  1.00  0.00     0.029 A 
ATOM     45  C   UNL     1      -0.310   4.952   6.872  1.00  0.00     0.049 A 
ATOM     46  H   UNL     1      -0.746   6.624   5.710  1.00  0.00     0.167 HD
ATOM     47  C   UNL     1      -1.440  10.152   3.225  1.00  0.00     0.034 A 
ATOM     48  C   UNL     1      -0.801   5.193   8.104  1.00  0.00     0.034 A 
ATOM     49  C   UNL     1      -2.137  10.424   4.452  1.00  0.00     0.049 A 
ATOM     50  C   UNL     1      -1.560   6.471   8.360  1.00  0.00     0.074 A 
ATOM     51  C   UNL     1      -2.886  11.537   4.788  1.00  0.00     0.029 A 
ATOM     52  N   UNL     1      -2.161   9.579   5.549  1.00  0.00    -0.354 N 
ATOM     53  N   UNL     1      -1.834   7.451   7.532  1.00  0.00    -0.248 NA
ATOM     54  C   UNL     1      -2.120   6.653   9.708  1.00  0.00     0.031 C 
ATOM     55  C   UNL     1      -3.357  11.368   6.096  1.00  0.00     0.029 A 
ATOM     56  C   UNL     1      -2.908  10.145   6.568  1.00  0.00     0.049 A 
ATOM     57  H   UNL     1      -1.712   8.704   5.598  1.00  0.00     0.167 HD
ATOM     58  C   UNL     1      -2.621   8.348   8.248  1.00  0.00     0.074 A 
ATOM     59  C   UNL     1      -2.804   7.780   9.568  1.00  0.00     0.031 C 
ATOM     60  C   UNL     1      -3.128   9.544   7.858  1.00  0.00     0.034 A 
BRANCH  47  61
ATOM     61  C   UNL     1      -1.526  11.161   2.113  1.00  0.00     0.023 A 
ATOM     62  C   UNL     1      -2.382  10.901   1.022  1.00  0.00     0.012 A 
ATOM     63  C   UNL     1      -0.807  12.369   2.158  1.00  0.00     0.148 A 
ATOM     64  C   UNL     1      -2.503  11.819  -0.019  1.00  0.00     0.002 A 
ATOM     65  C   UNL     1      -0.958  13.294   1.132  1.00  0.00     0.091 A 
ATOM     66  F   UNL     1       0.023  12.582   3.189  1.00  0.00    -0.205 F 
ATOM     67  C   UNL     1      -1.799  13.018   0.040  1.00  0.00     0.022 A 
BRANCH  65  68
ATOM     68  S   UNL     1      -0.141  14.893   1.144  1.00  0.00     0.127 S 
ATOM     69  O   UNL     1       0.879  14.711   0.111  1.00  0.00    -0.237 OA
ATOM     70  O   UNL     1      -1.228  15.800   0.774  1.00  0.00    -0.237 OA
ATOM     71  O   UNL     1       0.365  15.074   2.498  1.00  0.00    -0.744 OA
ENDBRANCH  65  68
ENDBRANCH  47  61
BRANCH  48  72
ATOM     72  C   UNL     1      -0.643   4.176   9.180  1.00  0.00     0.023 A 
ATOM     73  C   UNL     1      -1.770   3.464   9.636  1.00  0.00     0.012 A 
ATOM     74  C   UNL     1       0.615   3.907   9.751  1.00  0.00     0.148 A 
ATOM     75  C   UNL     1      -1.651   2.528  10.664  1.00  0.00     0.002 A 
ATOM     76  C   UNL     1       0.735   2.937  10.740  1.00  0.00     0.091 A 
ATOM     77  F   UNL     1       1.673   4.611   9.322  1.00  0.00    -0.205 F 
ATOM     78  C   UNL     1      -0.399   2.258  11.210  1.00  0.00     0.022 A 
BRANCH  76  79
ATOM     79  S   UNL     1       2.332   2.448  11.402  1.00  0.00     0.127 S 
ATOM     80  O   UNL     1       2.357   3.154  12.680  1.00  0.00    -0.237 OA
ATOM     81  O   UNL     1       2.193   0.995  11.504  1.00  0.00    -0.237 OA
ATOM     82  O   UNL     1       3.308   2.882  10.411  1.00  0.00    -0.744 OA
ENDBRANCH  76  79
ENDBRANCH  48  72
BRANCH  60  83
ATOM     83  C   UNL     1      -3.941  10.320   8.862  1.00  0.00     0.023 A 
ATOM     84  C   UNL     1      -3.290  10.951   9.941  1.00  0.00     0.012 A 
ATOM     85  C   UNL     1      -5.332  10.479   8.707  1.00  0.00     0.148 A 
ATOM     86  C   UNL     1      -4.014  11.700  10.867  1.00  0.00     0.002 A 
ATOM     87  C   UNL     1      -6.041  11.262   9.611  1.00  0.00     0.091 A 
ATOM     88  F   UNL     1      -5.941   9.854   7.689  1.00  0.00    -0.205 F 
ATOM     89  C   UNL     1      -5.387  11.865  10.697  1.00  0.00     0.022 A 
BRANCH  87  90
ATOM     90  S   UNL     1      -7.796  11.595   9.406  1.00  0.00     0.127 S 
ATOM     91  O   UNL     1      -8.395  10.613  10.306  1.00  0.00    -0.237 OA
ATOM     92  O   UNL     1      -7.912  12.983   9.855  1.00  0.00    -0.237 OA
ATOM     93  O   UNL     1      -8.065  11.403   7.987  1.00  0.00    -0.744 OA
ENDBRANCH  87  90
ENDBRANCH  60  83
ENDBRANCH  34  35
ENDBRANCH  27  29
ENDBRANCH  26  27
ENDBRANCH  25  26
ENDBRANCH   1  25
TORSDOF 17
