REMARK SMILES Cc1ccccc1[C@@H](Cc1c(Cl)cccc1Cl)C(=O)OCCOC(=O)c1ccc(-c2c3nc(c(-c4cccc(S(=O)(=O)[O-])c4F)c4ccc([nH]4)c(-c4cccc(S(=O)(=O)[O-])c4F)c4nc(c(-c5cccc(S(=O)(=O)[O-])c5F)c5ccc2[nH]5)C=C4)C=C3)cc1
REMARK SMILES IDX 22 1 21 2 20 3 18 4 19 5 8 6 7 7 1 8 2 9 3 10 4 11 6 12 5 13
REMARK SMILES IDX 9 14 10 15 11 16 16 17 12 18 13 19 15 20 17 21 14 22 23 23
REMARK SMILES IDX 24 24 25 25 26 26 27 27 88 28 28 29 87 30 29 31 30 32 31 33
REMARK SMILES IDX 81 34 32 35 86 36 80 37 82 38 33 39 85 40 79 41 78 42 34 44
REMARK SMILES IDX 66 45 46 46 65 47 47 48 50 49 64 50 83 51 48 52 49 53 63 55
REMARK SMILES IDX 84 56 51 57 35 58 36 59 44 60 37 61 39 62 45 63 38 64 40 65
REMARK SMILES IDX 41 66 42 67 43 68 67 69 68 70 76 71 69 72 71 73 77 74 70 75
REMARK SMILES IDX 72 76 73 77 74 78 75 79 52 80 53 81 61 82 54 83 56 84 62 85
REMARK SMILES IDX 55 86 57 87 58 88 59 89 60 90
REMARK H PARENT 82 43 50 54
REMARK Flexibility Score: inf
ROOT
ATOM      1  C   UNL     1      -1.311   2.518   5.054  1.00  0.00     0.275 C 
ENDROOT
BRANCH   1   2
ATOM      2  C   UNL     1      -1.316   3.958   4.526  1.00  0.00     0.274 C 
BRANCH   2   3
ATOM      3  O   UNL     1      -1.302   3.885   3.101  1.00  0.00    -0.462 OA
BRANCH   3   4
ATOM      4  C   UNL     1      -0.025   3.516   2.509  1.00  0.00     0.313 C 
ATOM      5  O   UNL     1       0.822   3.849   3.395  1.00  0.00    -0.252 OA
BRANCH   4   6
ATOM      6  C   UNL     1       0.245   2.726   0.472  1.00  0.00     0.134 C 
BRANCH   6   7
ATOM      7  C   UNL     1      -0.305   1.170  -0.186  1.00  0.00    -0.031 A 
ATOM      8  C   UNL     1       2.065   0.077  -0.194  1.00  0.00     0.044 C 
ATOM      9  C   UNL     1       0.559   0.034  -0.211  1.00  0.00    -0.047 A 
ATOM     10  C   UNL     1      -0.015  -1.252  -0.255  1.00  0.00     0.004 A 
ATOM     11  C   UNL     1      -1.386  -1.425  -0.411  1.00  0.00     0.000 A 
ATOM     12  C   UNL     1      -1.652   0.976  -0.582  1.00  0.00     0.005 A 
ATOM     13  C   UNL     1      -2.192  -0.316  -0.639  1.00  0.00     0.000 A 
ENDBRANCH   6   7
BRANCH   6  14
ATOM     14  C   UNL     1       0.512   3.662  -1.168  1.00  0.00     0.058 C 
BRANCH  14  15
ATOM     15  C   UNL     1       0.951   5.113  -1.824  1.00  0.00    -0.010 A 
ATOM     16  C   UNL     1       0.559   5.385  -3.171  1.00  0.00     0.045 A 
ATOM     17  C   UNL     1       1.716   6.208  -1.340  1.00  0.00     0.045 A 
ATOM     18  Cl  UNL     1      -0.244   4.199  -4.150  1.00  0.00    -0.084 Cl
ATOM     19  C   UNL     1       0.807   6.623  -3.859  1.00  0.00     0.021 A 
ATOM     20  C   UNL     1       1.937   7.448  -2.009  1.00  0.00     0.021 A 
ATOM     21  Cl  UNL     1       2.598   6.338   0.068  1.00  0.00    -0.084 Cl
ATOM     22  C   UNL     1       1.480   7.672  -3.270  1.00  0.00     0.003 A 
ENDBRANCH  14  15
ENDBRANCH   6  14
ENDBRANCH   4   6
ENDBRANCH   3   4
ENDBRANCH   2   3
ENDBRANCH   1   2
BRANCH   1  23
ATOM     23  O   UNL     1      -0.089   1.734   4.833  1.00  0.00    -0.458 OA
BRANCH  23  24
ATOM     24  C   UNL     1       0.165   0.859   3.803  1.00  0.00     0.338 C 
ATOM     25  O   UNL     1       0.626  -0.257   3.998  1.00  0.00    -0.246 OA
BRANCH  24  26
ATOM     26  C   UNL     1       0.195   1.458   2.428  1.00  0.00     0.060 A 
ATOM     27  C   UNL     1       1.678   2.366   2.090  1.00  0.00     0.016 A 
ATOM     28  C   UNL     1      -1.372   2.032   1.853  1.00  0.00     0.016 A 
ATOM     29  C   UNL     1       1.547   4.025   1.345  1.00  0.00     0.010 A 
ATOM     30  C   UNL     1      -1.542   3.610   1.026  1.00  0.00     0.010 A 
ATOM     31  C   UNL     1      -0.108   4.705   0.909  1.00  0.00    -0.014 A 
BRANCH  31  32
ATOM     32  C   UNL     1      -0.563   6.096   0.944  1.00  0.00     0.031 A 
ATOM     33  C   UNL     1      -1.438   6.566  -0.164  1.00  0.00     0.074 A 
ATOM     34  C   UNL     1      -0.216   6.885   1.986  1.00  0.00     0.049 A 
ATOM     35  N   UNL     1      -1.498   7.792  -0.550  1.00  0.00    -0.248 NA
ATOM     36  C   UNL     1      -2.194   5.671  -1.042  1.00  0.00     0.031 C 
ATOM     37  C   UNL     1      -0.672   8.240   2.254  1.00  0.00     0.029 A 
ATOM     38  N   UNL     1       0.809   6.699   2.919  1.00  0.00    -0.354 N 
ATOM     39  C   UNL     1      -2.358   7.865  -1.629  1.00  0.00     0.074 A 
ATOM     40  C   UNL     1      -2.682   6.511  -1.948  1.00  0.00     0.031 C 
ATOM     41  C   UNL     1       0.266   8.855   2.998  1.00  0.00     0.029 A 
ATOM     42  C   UNL     1       1.400   7.946   3.133  1.00  0.00     0.049 A 
ATOM     43  H   UNL     1       1.065   5.850   3.345  1.00  0.00     0.167 HD
ATOM     44  C   UNL     1      -2.761   9.079  -2.083  1.00  0.00     0.034 A 
ATOM     45  C   UNL     1       2.716   8.235   2.884  1.00  0.00     0.034 A 
ATOM     46  C   UNL     1      -1.989  10.126  -1.391  1.00  0.00     0.049 A 
ATOM     47  C   UNL     1       2.802   9.369   1.849  1.00  0.00     0.074 A 
ATOM     48  C   UNL     1      -2.203  10.812  -0.207  1.00  0.00     0.029 A 
ATOM     49  N   UNL     1      -0.630  10.265  -1.673  1.00  0.00    -0.354 N 
ATOM     50  N   UNL     1       1.811   9.832   1.122  1.00  0.00    -0.248 NA
ATOM     51  C   UNL     1       4.054  10.034   1.538  1.00  0.00     0.031 C 
ATOM     52  C   UNL     1      -0.945  11.306   0.251  1.00  0.00     0.029 A 
ATOM     53  C   UNL     1       0.031  10.988  -0.683  1.00  0.00     0.049 A 
ATOM     54  H   UNL     1      -0.192   9.898  -2.474  1.00  0.00     0.167 HD
ATOM     55  C   UNL     1       2.274  10.745   0.195  1.00  0.00     0.074 A 
ATOM     56  C   UNL     1       3.689  10.842   0.531  1.00  0.00     0.031 C 
ATOM     57  C   UNL     1       1.471  11.287  -0.794  1.00  0.00     0.034 A 
BRANCH  44  58
ATOM     58  C   UNL     1      -4.025   9.321  -2.916  1.00  0.00     0.023 A 
ATOM     59  C   UNL     1      -4.529  10.639  -2.925  1.00  0.00     0.012 A 
ATOM     60  C   UNL     1      -4.831   8.364  -3.596  1.00  0.00     0.148 A 
ATOM     61  C   UNL     1      -5.778  10.967  -3.478  1.00  0.00     0.002 A 
ATOM     62  C   UNL     1      -6.094   8.679  -4.115  1.00  0.00     0.091 A 
ATOM     63  F   UNL     1      -4.387   7.129  -3.803  1.00  0.00    -0.205 F 
ATOM     64  C   UNL     1      -6.575   9.983  -4.048  1.00  0.00     0.022 A 
BRANCH  62  65
ATOM     65  S   UNL     1      -7.191   7.439  -4.847  1.00  0.00     0.127 S 
ATOM     66  O   UNL     1      -8.331   7.462  -3.929  1.00  0.00    -0.237 OA
ATOM     67  O   UNL     1      -7.466   8.000  -6.169  1.00  0.00    -0.237 OA
ATOM     68  O   UNL     1      -6.453   6.181  -4.858  1.00  0.00    -0.744 OA
ENDBRANCH  62  65
ENDBRANCH  44  58
BRANCH  45  69
ATOM     69  C   UNL     1       3.741   7.106   3.054  1.00  0.00     0.023 A 
ATOM     70  C   UNL     1       3.537   6.219   4.141  1.00  0.00     0.012 A 
ATOM     71  C   UNL     1       4.684   6.701   2.080  1.00  0.00     0.148 A 
ATOM     72  C   UNL     1       4.005   4.899   4.113  1.00  0.00     0.002 A 
ATOM     73  C   UNL     1       5.098   5.359   2.021  1.00  0.00     0.091 A 
ATOM     74  F   UNL     1       5.043   7.560   1.118  1.00  0.00    -0.205 F 
ATOM     75  C   UNL     1       4.736   4.452   3.023  1.00  0.00     0.022 A 
BRANCH  73  76
ATOM     76  S   UNL     1       5.847   4.633   0.536  1.00  0.00     0.127 S 
ATOM     77  O   UNL     1       6.841   3.725   1.109  1.00  0.00    -0.237 OA
ATOM     78  O   UNL     1       4.708   3.954  -0.081  1.00  0.00    -0.237 OA
ATOM     79  O   UNL     1       6.407   5.756  -0.202  1.00  0.00    -0.744 OA
ENDBRANCH  73  76
ENDBRANCH  45  69
BRANCH  57  80
ATOM     80  C   UNL     1       1.946  12.168  -1.978  1.00  0.00     0.023 A 
ATOM     81  C   UNL     1       3.274  12.604  -2.132  1.00  0.00     0.012 A 
ATOM     82  C   UNL     1       1.064  12.586  -3.020  1.00  0.00     0.148 A 
ATOM     83  C   UNL     1       3.727  13.338  -3.237  1.00  0.00     0.002 A 
ATOM     84  C   UNL     1       1.520  13.283  -4.144  1.00  0.00     0.091 A 
ATOM     85  F   UNL     1      -0.250  12.361  -2.922  1.00  0.00    -0.205 F 
ATOM     86  C   UNL     1       2.855  13.659  -4.257  1.00  0.00     0.022 A 
BRANCH  84  87
ATOM     87  S   UNL     1       0.446  13.705  -5.525  1.00  0.00     0.127 S 
ATOM     88  O   UNL     1       0.303  15.150  -5.357  1.00  0.00    -0.237 OA
ATOM     89  O   UNL     1       1.259  13.301  -6.674  1.00  0.00    -0.237 OA
ATOM     90  O   UNL     1      -0.768  12.923  -5.343  1.00  0.00    -0.744 OA
ENDBRANCH  84  87
ENDBRANCH  57  80
ENDBRANCH  31  32
ENDBRANCH  24  26
ENDBRANCH  23  24
ENDBRANCH   1  23
TORSDOF 17
