REMARK SMILES Cc1cc2c(cc1S(=O)(=O)N(C)CC(=O)OCCOC(=O)c1ccc(-c3c4nc(c(-c5cccc(S(=O)(=O)[O-])c5F)c5ccc([nH]5)c(-c5cccc(S(=O)(=O)[O-])c5F)c5nc(c(-c6cccc(S(=O)(=O)[O-])c6F)c6ccc3[nH]6)C=C5)C=C4)cc1)OCC(=O)N2
REMARK SMILES IDX 17 1 16 2 14 3 15 4 13 5 11 6 12 7 8 8 9 9 10 10 7 11 1 12
REMARK SMILES IDX 2 13 3 14 4 15 6 16 5 17 89 18 85 19 87 20 86 22 88 23 18 24
REMARK SMILES IDX 19 25 20 26 21 27 22 28 23 29 84 30 24 31 83 32 25 33 26 34
REMARK SMILES IDX 27 35 77 36 28 37 82 38 76 39 78 40 29 41 81 42 75 43 74 44
REMARK SMILES IDX 30 46 62 47 42 48 61 49 43 50 46 51 60 52 79 53 44 54 45 55
REMARK SMILES IDX 59 57 80 58 47 59 31 60 32 61 40 62 33 63 35 64 41 65 34 66
REMARK SMILES IDX 36 67 37 68 38 69 39 70 63 71 64 72 72 73 65 74 67 75 73 76
REMARK SMILES IDX 66 77 68 78 69 79 70 80 71 81 48 82 49 83 57 84 50 85 52 86
REMARK SMILES IDX 58 87 51 88 53 89 54 90 55 91 56 92
REMARK H PARENT 89 21 78 45 46 56
REMARK Flexibility Score: inf
ROOT
ATOM      1  C   UNL     1       4.355   5.389  -0.483  1.00  0.00     0.274 C 
ENDROOT
BRANCH   1   2
ATOM      2  O   UNL     1       3.701   4.172  -0.039  1.00  0.00    -0.461 OA
BRANCH   2   3
ATOM      3  C   UNL     1       2.697   4.297   0.872  1.00  0.00     0.321 C 
ATOM      4  O   UNL     1       2.521   5.309   1.548  1.00  0.00    -0.251 OA
BRANCH   3   5
ATOM      5  C   UNL     1       1.819   3.063   1.016  1.00  0.00     0.224 C 
BRANCH   5   6
ATOM      6  N   UNL     1       1.800   1.897   0.063  1.00  0.00    -0.190 NA
ATOM      7  C   UNL     1       3.133   1.334  -0.199  1.00  0.00     0.125 C 
BRANCH   6   8
ATOM      8  S   UNL     1       0.809   2.107  -1.313  1.00  0.00     0.243 S 
ATOM      9  O   UNL     1       1.679   2.523  -2.399  1.00  0.00    -0.207 OA
ATOM     10  O   UNL     1      -0.395   2.806  -0.921  1.00  0.00    -0.207 OA
BRANCH   8  11
ATOM     11  C   UNL     1       0.238   0.521  -1.886  1.00  0.00     0.089 A 
ATOM     12  C   UNL     1       0.534  -0.801   0.289  1.00  0.00     0.046 C 
ATOM     13  C   UNL     1       0.264  -0.687  -1.181  1.00  0.00    -0.029 A 
ATOM     14  C   UNL     1       0.019  -1.869  -1.911  1.00  0.00     0.035 A 
ATOM     15  C   UNL     1      -0.307  -1.827  -3.274  1.00  0.00     0.084 A 
ATOM     16  C   UNL     1      -0.179   0.558  -3.233  1.00  0.00     0.070 A 
ATOM     17  C   UNL     1      -0.438  -0.608  -3.927  1.00  0.00     0.144 A 
ATOM     18  N   UNL     1      -0.522  -3.010  -3.979  1.00  0.00    -0.320 N 
ATOM     19  O   UNL     1      -0.825  -0.466  -5.227  1.00  0.00    -0.482 OA
ATOM     20  C   UNL     1      -0.766  -3.006  -5.327  1.00  0.00     0.262 C 
ATOM     21  H   UNL     1      -0.497  -3.868  -3.497  1.00  0.00     0.170 HD
ATOM     22  C   UNL     1      -0.680  -1.639  -6.005  1.00  0.00     0.329 C 
ATOM     23  O   UNL     1      -0.954  -4.053  -5.943  1.00  0.00    -0.271 OA
ENDBRANCH   8  11
ENDBRANCH   6   8
ENDBRANCH   5   6
ENDBRANCH   3   5
ENDBRANCH   2   3
ENDBRANCH   1   2
BRANCH   1  24
ATOM     24  C   UNL     1       3.953   5.749  -1.931  1.00  0.00     0.275 C 
BRANCH  24  25
ATOM     25  O   UNL     1       2.782   6.600  -2.009  1.00  0.00    -0.458 OA
BRANCH  25  26
ATOM     26  C   UNL     1       1.651   5.937  -1.719  1.00  0.00     0.338 C 
ATOM     27  O   UNL     1       1.597   4.760  -1.395  1.00  0.00    -0.246 OA
BRANCH  26  28
ATOM     28  C   UNL     1       0.418   6.694  -1.651  1.00  0.00     0.060 A 
ATOM     29  C   UNL     1      -0.016   7.499  -2.696  1.00  0.00     0.016 A 
ATOM     30  C   UNL     1      -0.405   6.409  -0.549  1.00  0.00     0.016 A 
ATOM     31  C   UNL     1      -1.271   8.092  -2.591  1.00  0.00     0.010 A 
ATOM     32  C   UNL     1      -1.666   6.961  -0.470  1.00  0.00     0.010 A 
ATOM     33  C   UNL     1      -2.080   7.850  -1.464  1.00  0.00    -0.014 A 
BRANCH  33  34
ATOM     34  C   UNL     1      -3.320   8.616  -1.255  1.00  0.00     0.031 A 
ATOM     35  C   UNL     1      -3.337   9.677  -0.191  1.00  0.00     0.074 A 
ATOM     36  C   UNL     1      -4.398   8.356  -2.013  1.00  0.00     0.049 A 
ATOM     37  N   UNL     1      -4.279  10.533   0.093  1.00  0.00    -0.248 NA
ATOM     38  C   UNL     1      -2.146   9.792   0.674  1.00  0.00     0.031 C 
ATOM     39  C   UNL     1      -4.492   7.293  -3.016  1.00  0.00     0.029 A 
ATOM     40  N   UNL     1      -5.617   8.975  -2.063  1.00  0.00    -0.354 N 
ATOM     41  C   UNL     1      -3.800  11.277   1.163  1.00  0.00     0.074 A 
ATOM     42  C   UNL     1      -2.504  10.752   1.514  1.00  0.00     0.031 C 
ATOM     43  C   UNL     1      -5.695   7.362  -3.612  1.00  0.00     0.029 A 
ATOM     44  C   UNL     1      -6.452   8.463  -3.026  1.00  0.00     0.049 A 
ATOM     45  H   UNL     1      -5.871   9.716  -1.466  1.00  0.00     0.167 HD
ATOM     46  C   UNL     1      -4.377  12.338   1.766  1.00  0.00     0.034 A 
ATOM     47  C   UNL     1      -7.681   8.865  -3.404  1.00  0.00     0.034 A 
ATOM     48  C   UNL     1      -5.643  12.879   1.371  1.00  0.00     0.049 A 
ATOM     49  C   UNL     1      -8.284  10.067  -2.731  1.00  0.00     0.074 A 
ATOM     50  C   UNL     1      -6.291  13.992   1.872  1.00  0.00     0.029 A 
ATOM     51  N   UNL     1      -6.447  12.351   0.375  1.00  0.00    -0.354 N 
ATOM     52  N   UNL     1      -7.764  10.838  -1.806  1.00  0.00    -0.248 NA
ATOM     53  C   UNL     1      -9.626  10.473  -3.170  1.00  0.00     0.031 C 
ATOM     54  C   UNL     1      -7.496  14.133   1.182  1.00  0.00     0.029 A 
ATOM     55  C   UNL     1      -7.589  13.115   0.244  1.00  0.00     0.049 A 
ATOM     56  H   UNL     1      -6.237  11.551  -0.159  1.00  0.00     0.167 HD
ATOM     57  C   UNL     1      -8.703  11.834  -1.570  1.00  0.00     0.074 A 
ATOM     58  C   UNL     1      -9.818  11.577  -2.459  1.00  0.00     0.031 C 
ATOM     59  C   UNL     1      -8.654  12.861  -0.688  1.00  0.00     0.034 A 
BRANCH  46  60
ATOM     60  C   UNL     1      -3.618  13.046   2.849  1.00  0.00     0.023 A 
ATOM     61  C   UNL     1      -2.594  13.943   2.486  1.00  0.00     0.012 A 
ATOM     62  C   UNL     1      -4.002  12.934   4.198  1.00  0.00     0.148 A 
ATOM     63  C   UNL     1      -1.967  14.728   3.450  1.00  0.00     0.002 A 
ATOM     64  C   UNL     1      -3.393  13.741   5.151  1.00  0.00     0.091 A 
ATOM     65  F   UNL     1      -4.970  12.062   4.515  1.00  0.00    -0.205 F 
ATOM     66  C   UNL     1      -2.376  14.638   4.779  1.00  0.00     0.022 A 
BRANCH  64  67
ATOM     67  S   UNL     1      -3.877  13.746   6.880  1.00  0.00     0.127 S 
ATOM     68  O   UNL     1      -2.624  13.381   7.540  1.00  0.00    -0.237 OA
ATOM     69  O   UNL     1      -4.288  15.135   7.076  1.00  0.00    -0.237 OA
ATOM     70  O   UNL     1      -4.943  12.761   7.005  1.00  0.00    -0.744 OA
ENDBRANCH  64  67
ENDBRANCH  46  60
BRANCH  47  71
ATOM     71  C   UNL     1      -8.366   8.185  -4.534  1.00  0.00     0.023 A 
ATOM     72  C   UNL     1      -8.450   8.838  -5.779  1.00  0.00     0.012 A 
ATOM     73  C   UNL     1      -8.892   6.886  -4.399  1.00  0.00     0.148 A 
ATOM     74  C   UNL     1      -9.061   8.215  -6.867  1.00  0.00     0.002 A 
ATOM     75  C   UNL     1      -9.469   6.258  -5.496  1.00  0.00     0.091 A 
ATOM     76  F   UNL     1      -8.804   6.289  -3.202  1.00  0.00    -0.205 F 
ATOM     77  C   UNL     1      -9.563   6.924  -6.728  1.00  0.00     0.022 A 
BRANCH  75  78
ATOM     78  S   UNL     1     -10.068   4.566  -5.438  1.00  0.00     0.127 S 
ATOM     79  O   UNL     1     -11.509   4.756  -5.590  1.00  0.00    -0.237 OA
ATOM     80  O   UNL     1      -9.401   3.970  -6.596  1.00  0.00    -0.237 OA
ATOM     81  O   UNL     1      -9.636   4.036  -4.152  1.00  0.00    -0.744 OA
ENDBRANCH  75  78
ENDBRANCH  47  71
BRANCH  59  82
ATOM     82  C   UNL     1      -9.822  13.802  -0.636  1.00  0.00     0.023 A 
ATOM     83  C   UNL     1     -10.982  13.417   0.062  1.00  0.00     0.012 A 
ATOM     84  C   UNL     1      -9.707  15.111  -1.141  1.00  0.00     0.148 A 
ATOM     85  C   UNL     1     -12.020  14.327   0.252  1.00  0.00     0.002 A 
ATOM     86  C   UNL     1     -10.729  16.022  -0.916  1.00  0.00     0.091 A 
ATOM     87  F   UNL     1      -8.588  15.444  -1.800  1.00  0.00    -0.205 F 
ATOM     88  C   UNL     1     -11.888  15.630  -0.224  1.00  0.00     0.022 A 
BRANCH  86  89
ATOM     89  S   UNL     1     -10.621  17.742  -1.419  1.00  0.00     0.127 S 
ATOM     90  O   UNL     1     -11.680  17.823  -2.425  1.00  0.00    -0.237 OA
ATOM     91  O   UNL     1     -10.909  18.447  -0.171  1.00  0.00    -0.237 OA
ATOM     92  O   UNL     1      -9.270  17.932  -1.929  1.00  0.00    -0.744 OA
ENDBRANCH  86  89
ENDBRANCH  59  82
ENDBRANCH  33  34
ENDBRANCH  26  28
ENDBRANCH  25  26
ENDBRANCH  24  25
ENDBRANCH   1  24
TORSDOF 17
