REMARK SMILES O=C(OCCOC(=O)c1ccc(-c2c3nc(c(-c4cccc(S(=O)(=O)[O-])c4F)c4ccc([nH]4)c(-c4cccc(S(=O)(=O)[O-])c4F)c4nc(c(-c5cccc(S(=O)(=O)[O-])c5F)c5ccc2[nH]5)C=C4)C=C3)cc1)C1=Cc2cc(Cl)c(Cl)c(Cl)c2O[C@@H]1C(F)(F)F
REMARK SMILES IDX 5 1 4 2 3 3 2 4 1 5 72 6 73 7 84 8 74 9 83 10 75 11 82 12
REMARK SMILES IDX 76 13 80 14 77 15 78 16 81 17 79 18 85 19 86 20 87 21 88 22
REMARK SMILES IDX 6 23 7 24 8 25 9 26 10 27 71 28 11 29 70 30 12 31 13 32
REMARK SMILES IDX 14 33 64 34 15 35 69 36 63 37 65 38 16 39 68 40 62 41 61 42
REMARK SMILES IDX 17 44 49 45 29 46 48 47 30 48 33 49 47 50 66 51 31 52 32 53
REMARK SMILES IDX 46 55 67 56 34 57 18 58 19 59 27 60 20 61 22 62 28 63 21 64
REMARK SMILES IDX 23 65 24 66 25 67 26 68 50 69 51 70 59 71 52 72 54 73 60 74
REMARK SMILES IDX 53 75 55 76 56 77 57 78 58 79 35 80 36 81 44 82 37 83 39 84
REMARK SMILES IDX 45 85 38 86 40 87 41 88 42 89 43 90
REMARK H PARENT 65 43 33 54
REMARK Flexibility Score: inf
ROOT
ATOM      1  C   UNL     1       4.788  -0.694   0.527  1.00  0.00     0.275 C 
ENDROOT
BRANCH   1   2
ATOM      2  C   UNL     1       3.883   0.563  -1.014  1.00  0.00     0.275 C 
BRANCH   2   3
ATOM      3  O   UNL     1       2.868   0.145  -2.051  1.00  0.00    -0.459 OA
BRANCH   3   4
ATOM      4  C   UNL     1       3.056  -1.115  -2.451  1.00  0.00     0.338 C 
ATOM      5  O   UNL     1       2.322  -1.792  -3.128  1.00  0.00    -0.246 OA
BRANCH   4   6
ATOM      6  C   UNL     1       4.055  -1.487  -1.452  1.00  0.00     0.087 C 
ATOM      7  C   UNL     1       5.393  -1.000  -1.676  1.00  0.00     0.027 C 
ATOM      8  C   UNL     1       2.909  -0.935  -0.018  1.00  0.00     0.316 C 
ATOM      9  C   UNL     1       6.118   0.377  -0.828  1.00  0.00     0.020 A 
ATOM     10  O   UNL     1       3.605   0.676   0.843  1.00  0.00    -0.474 OA
ATOM     11  C   UNL     1       7.339   0.790  -1.266  1.00  0.00     0.034 A 
ATOM     12  C   UNL     1       5.250   1.329   0.326  1.00  0.00     0.148 A 
ATOM     13  C   UNL     1       7.743   2.044  -0.788  1.00  0.00     0.062 A 
ATOM     14  C   UNL     1       5.707   2.557   0.731  1.00  0.00     0.103 A 
ATOM     15  Cl  UNL     1       9.283   2.560  -1.435  1.00  0.00    -0.083 Cl
ATOM     16  C   UNL     1       6.964   2.904   0.129  1.00  0.00     0.082 A 
ATOM     17  Cl  UNL     1       4.806   3.598   1.738  1.00  0.00    -0.079 Cl
ATOM     18  Cl  UNL     1       7.619   4.504   0.429  1.00  0.00    -0.081 Cl
BRANCH   8  19
ATOM     19  C   UNL     1       2.776  -2.546   0.393  1.00  0.00     0.430 C 
ATOM     20  F   UNL     1       1.511  -2.859   0.690  1.00  0.00    -0.167 F 
ATOM     21  F   UNL     1       3.017  -3.349  -0.695  1.00  0.00    -0.167 F 
ATOM     22  F   UNL     1       3.636  -3.057   1.290  1.00  0.00    -0.167 F 
ENDBRANCH   8  19
ENDBRANCH   4   6
ENDBRANCH   3   4
ENDBRANCH   2   3
ENDBRANCH   1   2
BRANCH   1  23
ATOM     23  O   UNL     1       3.996  -1.044   2.065  1.00  0.00    -0.458 OA
BRANCH  23  24
ATOM     24  C   UNL     1       2.934  -0.642   2.865  1.00  0.00     0.338 C 
ATOM     25  O   UNL     1       2.357   0.432   2.902  1.00  0.00    -0.246 OA
BRANCH  24  26
ATOM     26  C   UNL     1       2.260  -1.887   3.360  1.00  0.00     0.060 A 
ATOM     27  C   UNL     1       0.925  -2.136   2.970  1.00  0.00     0.016 A 
ATOM     28  C   UNL     1       3.046  -2.932   3.841  1.00  0.00     0.016 A 
ATOM     29  C   UNL     1       0.460  -3.464   2.869  1.00  0.00     0.010 A 
ATOM     30  C   UNL     1       2.593  -4.248   3.705  1.00  0.00     0.010 A 
ATOM     31  C   UNL     1       1.321  -4.531   3.167  1.00  0.00    -0.014 A 
BRANCH  31  32
ATOM     32  C   UNL     1       0.803  -5.920   3.273  1.00  0.00     0.031 A 
ATOM     33  C   UNL     1       0.331  -6.285   4.649  1.00  0.00     0.074 A 
ATOM     34  C   UNL     1       0.816  -6.841   2.285  1.00  0.00     0.049 A 
ATOM     35  N   UNL     1      -0.105  -7.420   5.114  1.00  0.00    -0.248 NA
ATOM     36  C   UNL     1       0.416  -5.207   5.654  1.00  0.00     0.031 C 
ATOM     37  C   UNL     1       1.280  -6.639   0.912  1.00  0.00     0.029 A 
ATOM     38  N   UNL     1       0.435  -8.167   2.305  1.00  0.00    -0.354 N 
ATOM     39  C   UNL     1      -0.309  -7.195   6.467  1.00  0.00     0.074 A 
ATOM     40  C   UNL     1       0.129  -5.854   6.763  1.00  0.00     0.031 C 
ATOM     41  C   UNL     1       1.156  -7.795   0.226  1.00  0.00     0.029 A 
ATOM     42  C   UNL     1       0.619  -8.831   1.109  1.00  0.00     0.049 A 
ATOM     43  H   UNL     1       0.063  -8.604   3.105  1.00  0.00     0.167 HD
ATOM     44  C   UNL     1      -0.855  -8.012   7.390  1.00  0.00     0.034 A 
ATOM     45  C   UNL     1       0.372 -10.120   0.779  1.00  0.00     0.034 A 
ATOM     46  C   UNL     1      -1.276  -9.346   7.101  1.00  0.00     0.049 A 
ATOM     47  C   UNL     1      -0.214 -11.039   1.833  1.00  0.00     0.074 A 
ATOM     48  C   UNL     1      -1.868 -10.262   7.944  1.00  0.00     0.029 A 
ATOM     49  N   UNL     1      -1.115  -9.962   5.869  1.00  0.00    -0.354 N 
ATOM     50  N   UNL     1      -0.530 -10.776   3.080  1.00  0.00    -0.248 NA
ATOM     51  C   UNL     1      -0.513 -12.423   1.427  1.00  0.00     0.031 C 
ATOM     52  C   UNL     1      -2.017 -11.457   7.234  1.00  0.00     0.029 A 
ATOM     53  C   UNL     1      -1.585 -11.257   5.931  1.00  0.00     0.049 A 
ATOM     54  H   UNL     1      -0.725  -9.538   5.071  1.00  0.00     0.167 HD
ATOM     55  C   UNL     1      -1.115 -11.934   3.586  1.00  0.00     0.074 A 
ATOM     56  C   UNL     1      -1.111 -12.903   2.510  1.00  0.00     0.031 C 
ATOM     57  C   UNL     1      -1.614 -12.179   4.824  1.00  0.00     0.034 A 
BRANCH  44  58
ATOM     58  C   UNL     1      -0.984  -7.452   8.777  1.00  0.00     0.023 A 
ATOM     59  C   UNL     1      -1.843  -6.357   9.022  1.00  0.00     0.012 A 
ATOM     60  C   UNL     1      -0.178  -7.948   9.814  1.00  0.00     0.148 A 
ATOM     61  C   UNL     1      -1.835  -5.715  10.258  1.00  0.00     0.002 A 
ATOM     62  C   UNL     1      -0.228  -7.346  11.062  1.00  0.00     0.091 A 
ATOM     63  F   UNL     1       0.656  -8.962   9.547  1.00  0.00    -0.205 F 
ATOM     64  C   UNL     1      -1.032  -6.214  11.279  1.00  0.00     0.022 A 
BRANCH  62  65
ATOM     65  S   UNL     1       0.704  -7.965  12.463  1.00  0.00     0.127 S 
ATOM     66  O   UNL     1       1.653  -6.876  12.691  1.00  0.00    -0.237 OA
ATOM     67  O   UNL     1      -0.337  -8.092  13.482  1.00  0.00    -0.237 OA
ATOM     68  O   UNL     1       1.294  -9.224  12.032  1.00  0.00    -0.744 OA
ENDBRANCH  62  65
ENDBRANCH  44  58
BRANCH  45  69
ATOM     69  C   UNL     1       0.597 -10.631  -0.613  1.00  0.00     0.023 A 
ATOM     70  C   UNL     1      -0.511 -11.004  -1.405  1.00  0.00     0.012 A 
ATOM     71  C   UNL     1       1.891 -10.791  -1.147  1.00  0.00     0.148 A 
ATOM     72  C   UNL     1      -0.336 -11.557  -2.677  1.00  0.00     0.002 A 
ATOM     73  C   UNL     1       2.058 -11.299  -2.435  1.00  0.00     0.091 A 
ATOM     74  F   UNL     1       2.937 -10.451  -0.382  1.00  0.00    -0.205 F 
ATOM     75  C   UNL     1       0.947 -11.698  -3.195  1.00  0.00     0.022 A 
BRANCH  73  76
ATOM     76  S   UNL     1       3.665 -11.442  -3.229  1.00  0.00     0.127 S 
ATOM     77  O   UNL     1       3.760 -12.882  -3.461  1.00  0.00    -0.237 OA
ATOM     78  O   UNL     1       3.475 -10.637  -4.435  1.00  0.00    -0.237 OA
ATOM     79  O   UNL     1       4.628 -10.900  -2.280  1.00  0.00    -0.744 OA
ENDBRANCH  73  76
ENDBRANCH  45  69
BRANCH  57  80
ATOM     80  C   UNL     1      -2.277 -13.507   5.077  1.00  0.00     0.023 A 
ATOM     81  C   UNL     1      -1.516 -14.687   5.162  1.00  0.00     0.012 A 
ATOM     82  C   UNL     1      -3.660 -13.552   5.349  1.00  0.00     0.148 A 
ATOM     83  C   UNL     1      -2.128 -15.899   5.482  1.00  0.00     0.002 A 
ATOM     84  C   UNL     1      -4.250 -14.749   5.728  1.00  0.00     0.091 A 
ATOM     85  F   UNL     1      -4.368 -12.417   5.251  1.00  0.00    -0.205 F 
ATOM     86  C   UNL     1      -3.489 -15.927   5.780  1.00  0.00     0.022 A 
BRANCH  84  87
ATOM     87  S   UNL     1      -5.967 -14.850   6.246  1.00  0.00     0.127 S 
ATOM     88  O   UNL     1      -6.569 -15.585   5.135  1.00  0.00    -0.237 OA
ATOM     89  O   UNL     1      -5.868 -15.605   7.495  1.00  0.00    -0.237 OA
ATOM     90  O   UNL     1      -6.424 -13.476   6.405  1.00  0.00    -0.744 OA
ENDBRANCH  84  87
ENDBRANCH  57  80
ENDBRANCH  31  32
ENDBRANCH  24  26
ENDBRANCH  23  24
ENDBRANCH   1  23
TORSDOF 15
