REMARK SMILES C=CCNC(=O)C[NH2+][C@](C)(C(=O)OCCOC(=O)c1ccc(-c2c3nc(c(-c4cccc(S(=O)(=O)[O-])c4F)c4ccc([nH]4)c(-c4cccc(S(=O)(=O)[O-])c4F)c4nc(c(-c5cccc(S(=O)(=O)[O-])c5F)c5ccc2[nH]5)C=C4)C=C3)cc1)C(F)(F)F
REMARK SMILES IDX 14 1 13 2 11 3 12 4 9 5 10 6 8 7 7 10 5 11 4 12 6 14 3 15
REMARK SMILES IDX 2 16 1 17 82 18 83 19 84 20 85 21 15 22 16 23 17 24 18 25
REMARK SMILES IDX 19 26 20 27 81 28 21 29 80 30 22 31 23 32 24 33 74 34 25 35
REMARK SMILES IDX 79 36 73 37 75 38 26 39 78 40 72 41 71 42 27 44 59 45 39 46
REMARK SMILES IDX 58 47 40 48 43 49 57 50 76 51 41 52 42 53 56 55 77 56 44 57
REMARK SMILES IDX 28 58 29 59 37 60 30 61 32 62 38 63 31 64 33 65 34 66 35 67
REMARK SMILES IDX 36 68 60 69 61 70 69 71 62 72 64 73 70 74 63 75 65 76 66 77
REMARK SMILES IDX 67 78 68 79 45 80 46 81 54 82 47 83 49 84 55 85 48 86 50 87
REMARK SMILES IDX 51 88 52 89 53 90
REMARK H PARENT 8 8 8 9 4 13 75 43 43 54
REMARK Flexibility Score: inf
ROOT
ATOM      1  C   UNL     1       1.024  -3.701   5.670  1.00  0.00     0.274 C 
ENDROOT
BRANCH   1   2
ATOM      2  O   UNL     1      -0.009  -3.652   4.661  1.00  0.00    -0.457 OA
BRANCH   2   3
ATOM      3  C   UNL     1      -1.257  -3.296   5.078  1.00  0.00     0.377 C 
ATOM      4  O   UNL     1      -1.524  -2.990   6.234  1.00  0.00    -0.244 OA
BRANCH   3   5
ATOM      5  C   UNL     1      -2.313  -3.409   3.967  1.00  0.00     0.287 C 
ATOM      6  C   UNL     1      -1.739  -4.037   2.682  1.00  0.00     0.103 C 
BRANCH   5   7
ATOM      7  N   UNL     1      -3.399  -4.367   4.399  1.00  0.00    -0.317 N 
ATOM      8  H   UNL     1      -3.936  -4.631   3.572  1.00  0.00     0.347 HD
ATOM      9  H   UNL     1      -2.926  -5.156   4.841  1.00  0.00     0.347 HD
BRANCH   7  10
ATOM     10  C   UNL     1      -4.337  -3.828   5.403  1.00  0.00     0.363 C 
BRANCH  10  11
ATOM     11  C   UNL     1      -5.536  -4.776   5.527  1.00  0.00     0.275 C 
ATOM     12  N   UNL     1      -6.443  -4.827   4.503  1.00  0.00    -0.348 N 
ATOM     13  H   UNL     1      -7.249  -5.367   4.667  1.00  0.00     0.163 HD
ATOM     14  O   UNL     1      -5.697  -5.499   6.511  1.00  0.00    -0.268 OA
BRANCH  12  15
ATOM     15  C   UNL     1      -6.362  -4.184   3.212  1.00  0.00     0.143 C 
BRANCH  15  16
ATOM     16  C   UNL     1      -5.912  -5.218   2.228  1.00  0.00    -0.014 C 
ATOM     17  C   UNL     1      -6.549  -5.516   1.089  1.00  0.00     0.006 C 
ENDBRANCH  15  16
ENDBRANCH  12  15
ENDBRANCH  10  11
ENDBRANCH   7  10
ENDBRANCH   5   7
BRANCH   5  18
ATOM     18  C   UNL     1      -2.707  -1.955   3.627  1.00  0.00     0.455 C 
ATOM     19  F   UNL     1      -1.647  -1.245   3.178  1.00  0.00    -0.164 F 
ATOM     20  F   UNL     1      -3.644  -1.925   2.645  1.00  0.00    -0.164 F 
ATOM     21  F   UNL     1      -3.228  -1.287   4.678  1.00  0.00    -0.164 F 
ENDBRANCH   5  18
ENDBRANCH   3   5
ENDBRANCH   2   3
ENDBRANCH   1   2
BRANCH   1  22
ATOM     22  C   UNL     1       1.970  -2.515   5.524  1.00  0.00     0.275 C 
BRANCH  22  23
ATOM     23  O   UNL     1       1.233  -1.309   5.775  1.00  0.00    -0.458 OA
BRANCH  23  24
ATOM     24  C   UNL     1       1.315  -0.352   4.822  1.00  0.00     0.338 C 
ATOM     25  O   UNL     1       2.008  -0.370   3.820  1.00  0.00    -0.246 OA
BRANCH  24  26
ATOM     26  C   UNL     1       0.394   0.750   5.162  1.00  0.00     0.060 A 
ATOM     27  C   UNL     1      -0.920   0.471   5.533  1.00  0.00     0.016 A 
ATOM     28  C   UNL     1       0.807   2.071   5.008  1.00  0.00     0.016 A 
ATOM     29  C   UNL     1      -1.853   1.499   5.638  1.00  0.00     0.010 A 
ATOM     30  C   UNL     1      -0.104   3.108   5.236  1.00  0.00     0.010 A 
ATOM     31  C   UNL     1      -1.457   2.837   5.511  1.00  0.00    -0.014 A 
BRANCH  31  32
ATOM     32  C   UNL     1      -2.450   3.945   5.635  1.00  0.00     0.031 A 
ATOM     33  C   UNL     1      -2.582   4.968   4.534  1.00  0.00     0.074 A 
ATOM     34  C   UNL     1      -3.221   4.060   6.736  1.00  0.00     0.049 A 
ATOM     35  N   UNL     1      -3.204   6.118   4.546  1.00  0.00    -0.248 NA
ATOM     36  C   UNL     1      -1.905   4.670   3.259  1.00  0.00     0.031 C 
ATOM     37  C   UNL     1      -3.218   3.142   7.877  1.00  0.00     0.029 A 
ATOM     38  N   UNL     1      -4.154   5.009   7.083  1.00  0.00    -0.354 N 
ATOM     39  C   UNL     1      -2.911   6.723   3.329  1.00  0.00     0.074 A 
ATOM     40  C   UNL     1      -2.079   5.801   2.587  1.00  0.00     0.031 C 
ATOM     41  C   UNL     1      -4.120   3.553   8.780  1.00  0.00     0.029 A 
ATOM     42  C   UNL     1      -4.704   4.811   8.329  1.00  0.00     0.049 A 
ATOM     43  H   UNL     1      -4.404   5.759   6.496  1.00  0.00     0.167 HD
ATOM     44  C   UNL     1      -3.303   7.935   2.869  1.00  0.00     0.034 A 
ATOM     45  C   UNL     1      -5.547   5.572   9.055  1.00  0.00     0.034 A 
ATOM     46  C   UNL     1      -4.224   8.801   3.555  1.00  0.00     0.049 A 
ATOM     47  C   UNL     1      -6.016   6.885   8.493  1.00  0.00     0.074 A 
ATOM     48  C   UNL     1      -4.720  10.026   3.144  1.00  0.00     0.029 A 
ATOM     49  N   UNL     1      -4.810   8.523   4.779  1.00  0.00    -0.354 N 
ATOM     50  N   UNL     1      -5.747   7.426   7.330  1.00  0.00    -0.248 NA
ATOM     51  C   UNL     1      -6.906   7.691   9.341  1.00  0.00     0.031 C 
ATOM     52  C   UNL     1      -5.612  10.486   4.117  1.00  0.00     0.029 A 
ATOM     53  C   UNL     1      -5.671   9.547   5.134  1.00  0.00     0.049 A 
ATOM     54  H   UNL     1      -4.639   7.716   5.317  1.00  0.00     0.167 HD
ATOM     55  C   UNL     1      -6.439   8.631   7.303  1.00  0.00     0.074 A 
ATOM     56  C   UNL     1      -7.171   8.722   8.550  1.00  0.00     0.031 C 
ATOM     57  C   UNL     1      -6.440   9.593   6.349  1.00  0.00     0.034 A 
BRANCH  44  58
ATOM     58  C   UNL     1      -2.769   8.395   1.540  1.00  0.00     0.023 A 
ATOM     59  C   UNL     1      -3.320   7.886   0.349  1.00  0.00     0.012 A 
ATOM     60  C   UNL     1      -1.780   9.398   1.475  1.00  0.00     0.148 A 
ATOM     61  C   UNL     1      -2.885   8.356  -0.889  1.00  0.00     0.002 A 
ATOM     62  C   UNL     1      -1.377   9.887   0.238  1.00  0.00     0.091 A 
ATOM     63  F   UNL     1      -1.253   9.852   2.621  1.00  0.00    -0.205 F 
ATOM     64  C   UNL     1      -1.924   9.364  -0.945  1.00  0.00     0.022 A 
BRANCH  62  65
ATOM     65  S   UNL     1      -0.199  11.234   0.067  1.00  0.00     0.127 S 
ATOM     66  O   UNL     1       0.985  10.530  -0.422  1.00  0.00    -0.237 OA
ATOM     67  O   UNL     1      -0.850  12.092  -0.924  1.00  0.00    -0.237 OA
ATOM     68  O   UNL     1      -0.074  11.827   1.391  1.00  0.00    -0.744 OA
ENDBRANCH  62  65
ENDBRANCH  44  58
BRANCH  45  69
ATOM     69  C   UNL     1      -6.006   5.103  10.393  1.00  0.00     0.023 A 
ATOM     70  C   UNL     1      -7.352   4.730  10.571  1.00  0.00     0.012 A 
ATOM     71  C   UNL     1      -5.114   4.976  11.476  1.00  0.00     0.148 A 
ATOM     72  C   UNL     1      -7.802   4.257  11.805  1.00  0.00     0.002 A 
ATOM     73  C   UNL     1      -5.554   4.443  12.681  1.00  0.00     0.091 A 
ATOM     74  F   UNL     1      -3.841   5.365  11.306  1.00  0.00    -0.205 F 
ATOM     75  C   UNL     1      -6.901   4.097  12.855  1.00  0.00     0.022 A 
BRANCH  73  76
ATOM     76  S   UNL     1      -4.397   4.064  14.002  1.00  0.00     0.127 S 
ATOM     77  O   UNL     1      -4.422   5.292  14.791  1.00  0.00    -0.237 OA
ATOM     78  O   UNL     1      -5.018   2.906  14.648  1.00  0.00    -0.237 OA
ATOM     79  O   UNL     1      -3.146   3.757  13.319  1.00  0.00    -0.744 OA
ENDBRANCH  73  76
ENDBRANCH  45  69
BRANCH  57  80
ATOM     80  C   UNL     1      -7.266  10.822   6.605  1.00  0.00     0.023 A 
ATOM     81  C   UNL     1      -6.785  11.801   7.495  1.00  0.00     0.012 A 
ATOM     82  C   UNL     1      -8.474  11.043   5.916  1.00  0.00     0.148 A 
ATOM     83  C   UNL     1      -7.506  12.974   7.715  1.00  0.00     0.002 A 
ATOM     84  C   UNL     1      -9.169  12.231   6.113  1.00  0.00     0.091 A 
ATOM     85  F   UNL     1      -8.926  10.088   5.091  1.00  0.00    -0.205 F 
ATOM     86  C   UNL     1      -8.691  13.193   7.016  1.00  0.00     0.022 A 
BRANCH  84  87
ATOM     87  S   UNL     1     -10.660  12.621   5.190  1.00  0.00     0.127 S 
ATOM     88  O   UNL     1     -11.706  12.285   6.154  1.00  0.00    -0.237 OA
ATOM     89  O   UNL     1     -10.508  14.054   4.932  1.00  0.00    -0.237 OA
ATOM     90  O   UNL     1     -10.611  11.791   3.994  1.00  0.00    -0.744 OA
ENDBRANCH  84  87
ENDBRANCH  57  80
ENDBRANCH  31  32
ENDBRANCH  24  26
ENDBRANCH  23  24
ENDBRANCH  22  23
ENDBRANCH   1  22
TORSDOF 20
