REMARK SMILES COCCCC(=O)N[C@H]1CC[C@@H](C(=O)OCCOC(=O)c2ccc(-c3c4nc(c(-c5cccc(S(=O)(=O)[O-])c5F)c5ccc([nH]5)c(-c5cccc(S(=O)(=O)[O-])c5F)c5nc(c(-c6cccc(S(=O)(=O)[O-])c6F)c6ccc3[nH]6)C=C5)C=C4)cc2)CC1
REMARK SMILES IDX 16 1 15 2 13 3 14 4 12 5 9 6 10 7 85 8 11 9 84 10 8 11 6 12
REMARK SMILES IDX 7 13 5 15 4 16 3 17 2 18 1 19 17 20 18 21 19 22 20 23 21 24
REMARK SMILES IDX 22 25 83 26 23 27 82 28 24 29 25 30 26 31 76 32 27 33 81 34
REMARK SMILES IDX 75 35 77 36 28 37 80 38 74 39 73 40 29 42 61 43 41 44 60 45
REMARK SMILES IDX 42 46 45 47 59 48 78 49 43 50 44 51 58 53 79 54 46 55 30 56
REMARK SMILES IDX 31 57 39 58 32 59 34 60 40 61 33 62 35 63 36 64 37 65 38 66
REMARK SMILES IDX 62 67 63 68 71 69 64 70 66 71 72 72 65 73 67 74 68 75 69 76
REMARK SMILES IDX 70 77 47 78 48 79 56 80 49 81 51 82 57 83 50 84 52 85 53 86
REMARK SMILES IDX 54 87 55 88
REMARK H PARENT 8 14 77 41 45 52
REMARK Flexibility Score: inf
ROOT
ATOM      1  C   UNL     1       6.363   2.195   3.708  1.00  0.00     0.274 C 
ENDROOT
BRANCH   1   2
ATOM      2  O   UNL     1       5.120   1.901   3.045  1.00  0.00    -0.462 OA
BRANCH   2   3
ATOM      3  C   UNL     1       3.991   2.273   3.696  1.00  0.00     0.309 C 
ATOM      4  O   UNL     1       3.960   2.774   4.812  1.00  0.00    -0.252 OA
BRANCH   3   5
ATOM      5  C   UNL     1       2.728   1.933   2.920  1.00  0.00     0.099 C 
ATOM      6  C   UNL     1       2.792  -0.564   1.338  1.00  0.00     0.082 C 
ATOM      7  C   UNL     1       2.793  -0.598   2.868  1.00  0.00     0.026 C 
ATOM      8  C   UNL     1       3.498   0.676   0.801  1.00  0.00     0.026 C 
ATOM      9  C   UNL     1       2.128   0.637   3.458  1.00  0.00     0.017 C 
ATOM     10  C   UNL     1       2.871   1.944   1.390  1.00  0.00     0.017 C 
BRANCH   6  11
ATOM     11  N   UNL     1       3.341  -1.804   0.832  1.00  0.00    -0.353 N 
ATOM     12  C   UNL     1       2.657  -2.894   0.378  1.00  0.00     0.220 C 
ATOM     13  O   UNL     1       3.251  -3.970   0.293  1.00  0.00    -0.275 OA
ATOM     14  H   UNL     1       4.323  -1.868   0.812  1.00  0.00     0.163 HD
BRANCH  12  15
ATOM     15  C   UNL     1       1.212  -2.753  -0.080  1.00  0.00     0.102 C 
BRANCH  15  16
ATOM     16  C   UNL     1       0.148  -2.852   1.016  1.00  0.00     0.038 C 
BRANCH  16  17
ATOM     17  C   UNL     1      -0.606  -1.574   1.408  1.00  0.00     0.160 C 
BRANCH  17  18
ATOM     18  O   UNL     1      -1.433  -1.041   0.379  1.00  0.00    -0.385 OA
ATOM     19  C   UNL     1      -0.789  -0.196  -0.561  1.00  0.00     0.194 C 
ENDBRANCH  17  18
ENDBRANCH  16  17
ENDBRANCH  15  16
ENDBRANCH  12  15
ENDBRANCH   6  11
ENDBRANCH   3   5
ENDBRANCH   2   3
ENDBRANCH   1   2
BRANCH   1  20
ATOM     20  C   UNL     1       6.996   3.476   3.161  1.00  0.00     0.275 C 
BRANCH  20  21
ATOM     21  O   UNL     1       6.206   4.635   3.483  1.00  0.00    -0.458 OA
BRANCH  21  22
ATOM     22  C   UNL     1       5.333   5.026   2.530  1.00  0.00     0.338 C 
ATOM     23  O   UNL     1       5.200   4.543   1.409  1.00  0.00    -0.246 OA
BRANCH  22  24
ATOM     24  C   UNL     1       4.416   6.036   3.076  1.00  0.00     0.060 A 
ATOM     25  C   UNL     1       3.051   5.736   3.107  1.00  0.00     0.016 A 
ATOM     26  C   UNL     1       4.877   7.281   3.505  1.00  0.00     0.016 A 
ATOM     27  C   UNL     1       2.137   6.668   3.587  1.00  0.00     0.010 A 
ATOM     28  C   UNL     1       3.956   8.224   3.972  1.00  0.00     0.010 A 
ATOM     29  C   UNL     1       2.582   7.925   4.012  1.00  0.00    -0.014 A 
BRANCH  29  30
ATOM     30  C   UNL     1       1.598   8.943   4.447  1.00  0.00     0.031 A 
ATOM     31  C   UNL     1       1.266  10.088   3.534  1.00  0.00     0.074 A 
ATOM     32  C   UNL     1       1.014   8.839   5.655  1.00  0.00     0.049 A 
ATOM     33  N   UNL     1       0.497  11.121   3.754  1.00  0.00    -0.248 NA
ATOM     34  C   UNL     1       1.880  10.068   2.196  1.00  0.00     0.031 C 
ATOM     35  C   UNL     1       1.247   7.759   6.614  1.00  0.00     0.029 A 
ATOM     36  N   UNL     1       0.122   9.665   6.290  1.00  0.00    -0.354 N 
ATOM     37  C   UNL     1       0.573  11.901   2.607  1.00  0.00     0.074 A 
ATOM     38  C   UNL     1       1.452  11.215   1.685  1.00  0.00     0.031 C 
ATOM     39  C   UNL     1       0.532   8.000   7.726  1.00  0.00     0.029 A 
ATOM     40  C   UNL     1      -0.177   9.267   7.572  1.00  0.00     0.049 A 
ATOM     41  H   UNL     1      -0.267  10.466   5.869  1.00  0.00     0.167 HD
ATOM     42  C   UNL     1      -0.042  13.079   2.346  1.00  0.00     0.034 A 
ATOM     43  C   UNL     1      -0.916   9.873   8.523  1.00  0.00     0.034 A 
ATOM     44  C   UNL     1      -0.950  13.732   3.250  1.00  0.00     0.049 A 
ATOM     45  C   UNL     1      -1.579  11.187   8.202  1.00  0.00     0.074 A 
ATOM     46  C   UNL     1      -1.665  14.900   3.054  1.00  0.00     0.029 A 
ATOM     47  N   UNL     1      -1.264  13.278   4.521  1.00  0.00    -0.354 N 
ATOM     48  N   UNL     1      -1.582  11.858   7.076  1.00  0.00    -0.248 NA
ATOM     49  C   UNL     1      -2.360  11.816   9.278  1.00  0.00     0.031 C 
ATOM     50  C   UNL     1      -2.399  15.162   4.216  1.00  0.00     0.029 A 
ATOM     51  C   UNL     1      -2.154  14.148   5.127  1.00  0.00     0.049 A 
ATOM     52  H   UNL     1      -0.908  12.457   4.932  1.00  0.00     0.167 HD
ATOM     53  C   UNL     1      -2.385  12.971   7.297  1.00  0.00     0.074 A 
ATOM     54  C   UNL     1      -2.875  12.869   8.657  1.00  0.00     0.031 C 
ATOM     55  C   UNL     1      -2.675  13.999   6.461  1.00  0.00     0.034 A 
BRANCH  42  56
ATOM     56  C   UNL     1       0.229  13.735   1.020  1.00  0.00     0.023 A 
ATOM     57  C   UNL     1      -0.382  13.233  -0.146  1.00  0.00     0.012 A 
ATOM     58  C   UNL     1       1.028  14.892   0.941  1.00  0.00     0.148 A 
ATOM     59  C   UNL     1      -0.187  13.863  -1.375  1.00  0.00     0.002 A 
ATOM     60  C   UNL     1       1.188  15.536  -0.280  1.00  0.00     0.091 A 
ATOM     61  F   UNL     1       1.619  15.338   2.059  1.00  0.00    -0.205 F 
ATOM     62  C   UNL     1       0.588  15.018  -1.440  1.00  0.00     0.022 A 
BRANCH  60  63
ATOM     63  S   UNL     1       2.110  17.067  -0.456  1.00  0.00     0.127 S 
ATOM     64  O   UNL     1       3.279  16.623  -1.214  1.00  0.00    -0.237 OA
ATOM     65  O   UNL     1       1.176  17.903  -1.211  1.00  0.00    -0.237 OA
ATOM     66  O   UNL     1       2.384  17.530   0.897  1.00  0.00    -0.744 OA
ENDBRANCH  60  63
ENDBRANCH  42  56
BRANCH  43  67
ATOM     67  C   UNL     1      -1.090   9.237   9.860  1.00  0.00     0.023 A 
ATOM     68  C   UNL     1      -2.360   8.760  10.240  1.00  0.00     0.012 A 
ATOM     69  C   UNL     1      -0.011   9.098  10.754  1.00  0.00     0.148 A 
ATOM     70  C   UNL     1      -2.558   8.187  11.497  1.00  0.00     0.002 A 
ATOM     71  C   UNL     1      -0.203   8.474  11.982  1.00  0.00     0.091 A 
ATOM     72  F   UNL     1       1.185   9.582  10.390  1.00  0.00    -0.205 F 
ATOM     73  C   UNL     1      -1.479   8.033  12.363  1.00  0.00     0.022 A 
BRANCH  71  74
ATOM     74  S   UNL     1       1.165   8.124  13.093  1.00  0.00     0.127 S 
ATOM     75  O   UNL     1       1.032   9.192  14.079  1.00  0.00    -0.237 OA
ATOM     76  O   UNL     1       0.829   6.786  13.584  1.00  0.00    -0.237 OA
ATOM     77  O   UNL     1       2.358   8.167  12.257  1.00  0.00    -0.744 OA
ENDBRANCH  71  74
ENDBRANCH  43  67
BRANCH  55  78
ATOM     78  C   UNL     1      -3.583  15.082   6.980  1.00  0.00     0.023 A 
ATOM     79  C   UNL     1      -3.095  16.007   7.923  1.00  0.00     0.012 A 
ATOM     80  C   UNL     1      -4.894  15.224   6.486  1.00  0.00     0.148 A 
ATOM     81  C   UNL     1      -3.908  17.038   8.391  1.00  0.00     0.002 A 
ATOM     82  C   UNL     1      -5.684  16.281   6.922  1.00  0.00     0.091 A 
ATOM     83  F   UNL     1      -5.349  14.321   5.604  1.00  0.00    -0.205 F 
ATOM     84  C   UNL     1      -5.197  17.182   7.883  1.00  0.00     0.022 A 
BRANCH  82  85
ATOM     85  S   UNL     1      -7.319  16.594   6.248  1.00  0.00     0.127 S 
ATOM     86  O   UNL     1      -8.183  16.088   7.312  1.00  0.00    -0.237 OA
ATOM     87  O   UNL     1      -7.325  18.050   6.099  1.00  0.00    -0.237 OA
ATOM     88  O   UNL     1      -7.375  15.862   4.989  1.00  0.00    -0.744 OA
ENDBRANCH  82  85
ENDBRANCH  55  78
ENDBRANCH  29  30
ENDBRANCH  22  24
ENDBRANCH  21  22
ENDBRANCH  20  21
ENDBRANCH   1  20
TORSDOF 19
