REMARK SMILES Cc1cscc1-c1nc(C)c(C(=O)OCCOC(=O)c2ccc(-c3c4nc(c(-c5cccc(S(=O)(=O)[O-])c5F)c5ccc([nH]5)c(-c5cccc(S(=O)(=O)[O-])c5F)c5nc(c(-c6cccc(S(=O)(=O)[O-])c6F)c6ccc3[nH]6)C=C5)C=C4)cc2)c(C)n1
REMARK SMILES IDX 16 1 15 2 14 3 12 4 13 5 11 6 7 7 8 8 85 9 9 10 83 11 10 12
REMARK SMILES IDX 84 13 6 14 1 15 2 16 3 17 4 18 5 19 17 20 18 21 19 22 20 23
REMARK SMILES IDX 21 24 82 25 22 26 81 27 23 28 24 29 25 30 75 31 26 32 80 33
REMARK SMILES IDX 74 34 76 35 27 36 79 37 73 38 72 39 28 41 60 42 40 43 59 44
REMARK SMILES IDX 41 45 44 46 58 47 77 48 42 49 43 50 57 52 78 53 45 54 29 55
REMARK SMILES IDX 30 56 38 57 31 58 33 59 39 60 32 61 34 62 35 63 36 64 37 65
REMARK SMILES IDX 61 66 62 67 70 68 63 69 65 70 71 71 64 72 66 73 67 74 68 75
REMARK SMILES IDX 69 76 46 77 47 78 55 79 48 80 50 81 56 82 49 83 51 84 52 85
REMARK SMILES IDX 53 86 54 87
REMARK H PARENT 76 40 44 51
REMARK Flexibility Score: inf
ROOT
ATOM      1  C   UNL     1       4.378   8.566  -0.906  1.00  0.00     0.275 C 
ENDROOT
BRANCH   1   2
ATOM      2  C   UNL     1       5.041   7.192  -0.840  1.00  0.00     0.275 C 
BRANCH   2   3
ATOM      3  O   UNL     1       4.057   6.140  -0.965  1.00  0.00    -0.458 OA
BRANCH   3   4
ATOM      4  C   UNL     1       3.939   5.287   0.084  1.00  0.00     0.341 C 
ATOM      5  O   UNL     1       4.546   5.363   1.135  1.00  0.00    -0.246 OA
BRANCH   4   6
ATOM      6  C   UNL     1       2.973   4.205  -0.205  1.00  0.00     0.102 A 
ATOM      7  C   UNL     1       1.329   2.087  -0.607  1.00  0.00     0.160 A 
ATOM      8  N   UNL     1       2.216   2.360  -1.575  1.00  0.00    -0.232 NA
ATOM      9  N   UNL     1       1.202   2.765   0.531  1.00  0.00    -0.232 NA
ATOM     10  C   UNL     1       3.021   3.441  -1.371  1.00  0.00     0.056 A 
ATOM     11  C   UNL     1       2.044   3.792   0.742  1.00  0.00     0.056 A 
ATOM     12  C   UNL     1       3.995   3.721  -2.479  1.00  0.00     0.068 C 
ATOM     13  C   UNL     1       1.796   4.443   2.056  1.00  0.00     0.068 C 
BRANCH   7  14
ATOM     14  C   UNL     1       0.607   0.831  -0.613  1.00  0.00     0.033 A 
ATOM     15  C   UNL     1       2.633  -0.725  -0.194  1.00  0.00     0.046 C 
ATOM     16  C   UNL     1       1.172  -0.470  -0.361  1.00  0.00    -0.029 A 
ATOM     17  C   UNL     1       0.178  -1.420  -0.221  1.00  0.00     0.069 A 
ATOM     18  S   UNL     1      -1.394  -0.763  -0.353  1.00  0.00    -0.151 S 
ATOM     19  C   UNL     1      -0.774   0.814  -0.566  1.00  0.00     0.077 A 
ENDBRANCH   7  14
ENDBRANCH   4   6
ENDBRANCH   3   4
ENDBRANCH   2   3
ENDBRANCH   1   2
BRANCH   1  20
ATOM     20  O   UNL     1       3.661   8.815   0.315  1.00  0.00    -0.458 OA
BRANCH  20  21
ATOM     21  C   UNL     1       2.324   8.635   0.244  1.00  0.00     0.338 C 
ATOM     22  O   UNL     1       1.663   8.371  -0.749  1.00  0.00    -0.246 OA
BRANCH  21  23
ATOM     23  C   UNL     1       1.747   8.662   1.596  1.00  0.00     0.060 A 
ATOM     24  C   UNL     1       2.087   7.630   2.455  1.00  0.00     0.016 A 
ATOM     25  C   UNL     1       0.711   9.530   1.929  1.00  0.00     0.016 A 
ATOM     26  C   UNL     1       1.260   7.345   3.540  1.00  0.00     0.010 A 
ATOM     27  C   UNL     1      -0.006   9.330   3.121  1.00  0.00     0.010 A 
ATOM     28  C   UNL     1       0.201   8.185   3.912  1.00  0.00    -0.014 A 
BRANCH  28  29
ATOM     29  C   UNL     1      -0.694   7.827   5.068  1.00  0.00     0.031 A 
ATOM     30  C   UNL     1      -2.203   7.942   4.947  1.00  0.00     0.074 A 
ATOM     31  C   UNL     1      -0.185   7.366   6.234  1.00  0.00     0.049 A 
ATOM     32  N   UNL     1      -3.112   7.930   5.891  1.00  0.00    -0.248 NA
ATOM     33  C   UNL     1      -2.762   8.111   3.596  1.00  0.00     0.031 C 
ATOM     34  C   UNL     1       1.234   7.139   6.520  1.00  0.00     0.029 A 
ATOM     35  N   UNL     1      -0.807   6.999   7.408  1.00  0.00    -0.354 N 
ATOM     36  C   UNL     1      -4.326   8.200   5.264  1.00  0.00     0.074 A 
ATOM     37  C   UNL     1      -4.042   8.346   3.853  1.00  0.00     0.031 C 
ATOM     38  C   UNL     1       1.369   6.613   7.743  1.00  0.00     0.029 A 
ATOM     39  C   UNL     1       0.073   6.624   8.400  1.00  0.00     0.049 A 
ATOM     40  H   UNL     1      -1.785   7.003   7.526  1.00  0.00     0.167 HD
ATOM     41  C   UNL     1      -5.562   8.317   5.811  1.00  0.00     0.034 A 
ATOM     42  C   UNL     1      -0.104   6.401   9.717  1.00  0.00     0.034 A 
ATOM     43  C   UNL     1      -5.860   8.069   7.199  1.00  0.00     0.049 A 
ATOM     44  C   UNL     1      -1.473   6.564  10.306  1.00  0.00     0.074 A 
ATOM     45  C   UNL     1      -7.086   8.130   7.840  1.00  0.00     0.029 A 
ATOM     46  N   UNL     1      -4.931   7.693   8.156  1.00  0.00    -0.354 N 
ATOM     47  N   UNL     1      -2.600   6.853   9.705  1.00  0.00    -0.248 NA
ATOM     48  C   UNL     1      -1.594   6.374  11.758  1.00  0.00     0.031 C 
ATOM     49  C   UNL     1      -6.892   7.823   9.190  1.00  0.00     0.029 A 
ATOM     50  C   UNL     1      -5.553   7.528   9.382  1.00  0.00     0.049 A 
ATOM     51  H   UNL     1      -3.969   7.563   7.989  1.00  0.00     0.167 HD
ATOM     52  C   UNL     1      -3.569   6.855  10.700  1.00  0.00     0.074 A 
ATOM     53  C   UNL     1      -2.901   6.511  11.938  1.00  0.00     0.031 C 
ATOM     54  C   UNL     1      -4.891   7.135  10.598  1.00  0.00     0.034 A 
BRANCH  41  55
ATOM     55  C   UNL     1      -6.703   8.744   4.917  1.00  0.00     0.023 A 
ATOM     56  C   UNL     1      -7.238   7.856   3.963  1.00  0.00     0.012 A 
ATOM     57  C   UNL     1      -7.297  10.014   5.083  1.00  0.00     0.148 A 
ATOM     58  C   UNL     1      -8.319   8.236   3.166  1.00  0.00     0.002 A 
ATOM     59  C   UNL     1      -8.404  10.367   4.321  1.00  0.00     0.091 A 
ATOM     60  F   UNL     1      -6.769  10.852   5.987  1.00  0.00    -0.205 F 
ATOM     61  C   UNL     1      -8.908   9.485   3.352  1.00  0.00     0.022 A 
BRANCH  59  62
ATOM     62  S   UNL     1      -9.286  11.917   4.547  1.00  0.00     0.127 S 
ATOM     63  O   UNL     1      -8.963  12.624   3.308  1.00  0.00    -0.237 OA
ATOM     64  O   UNL     1     -10.675  11.469   4.647  1.00  0.00    -0.237 OA
ATOM     65  O   UNL     1      -8.750  12.513   5.762  1.00  0.00    -0.744 OA
ENDBRANCH  59  62
ENDBRANCH  41  55
BRANCH  42  66
ATOM     66  C   UNL     1       1.066   6.058  10.580  1.00  0.00     0.023 A 
ATOM     67  C   UNL     1       1.137   4.791  11.189  1.00  0.00     0.012 A 
ATOM     68  C   UNL     1       2.122   6.972  10.775  1.00  0.00     0.148 A 
ATOM     69  C   UNL     1       2.227   4.450  11.993  1.00  0.00     0.002 A 
ATOM     70  C   UNL     1       3.237   6.599  11.512  1.00  0.00     0.091 A 
ATOM     71  F   UNL     1       2.025   8.184  10.211  1.00  0.00    -0.205 F 
ATOM     72  C   UNL     1       3.283   5.346  12.141  1.00  0.00     0.022 A 
BRANCH  70  73
ATOM     73  S   UNL     1       4.705   7.628  11.615  1.00  0.00     0.127 S 
ATOM     74  O   UNL     1       4.653   8.088  13.000  1.00  0.00    -0.237 OA
ATOM     75  O   UNL     1       5.770   6.667  11.323  1.00  0.00    -0.237 OA
ATOM     76  O   UNL     1       4.535   8.657  10.597  1.00  0.00    -0.744 OA
ENDBRANCH  70  73
ENDBRANCH  42  66
BRANCH  54  77
ATOM     77  C   UNL     1      -5.719   7.023  11.850  1.00  0.00     0.023 A 
ATOM     78  C   UNL     1      -5.588   7.982  12.874  1.00  0.00     0.012 A 
ATOM     79  C   UNL     1      -6.665   5.989  11.987  1.00  0.00     0.148 A 
ATOM     80  C   UNL     1      -6.358   7.890  14.032  1.00  0.00     0.002 A 
ATOM     81  C   UNL     1      -7.467   5.934  13.120  1.00  0.00     0.091 A 
ATOM     82  F   UNL     1      -6.760   5.075  11.010  1.00  0.00    -0.205 F 
ATOM     83  C   UNL     1      -7.305   6.875  14.150  1.00  0.00     0.022 A 
BRANCH  81  84
ATOM     84  S   UNL     1      -8.776   4.721  13.316  1.00  0.00     0.127 S 
ATOM     85  O   UNL     1      -8.238   3.871  14.377  1.00  0.00    -0.237 OA
ATOM     86  O   UNL     1      -9.910   5.554  13.717  1.00  0.00    -0.237 OA
ATOM     87  O   UNL     1      -8.927   4.077  12.018  1.00  0.00    -0.744 OA
ENDBRANCH  81  84
ENDBRANCH  54  77
ENDBRANCH  28  29
ENDBRANCH  21  23
ENDBRANCH  20  21
ENDBRANCH   1  20
TORSDOF 15
