REMARK SMILES [NH3+]CCC1=c2cc([N+](=O)[O-])ccc2=N[C@H]1C(=O)OCCOC(=O)c1ccc(-c2c3nc(c(-c4cccc(S(=O)(=O)[O-])c4F)c4ccc([nH]4)c(-c4cccc(S(=O)(=O)[O-])c4F)c4nc(c(-c5cccc(S(=O)(=O)[O-])c5F)c5ccc2[nH]5)C=C4)C=C3)cc1
REMARK SMILES IDX 19 1 18 2 16 3 17 4 15 5 4 6 5 7 6 8 13 9 14 10 7 11 12 12
REMARK SMILES IDX 11 13 3 14 2 15 1 16 8 20 9 21 10 22 20 23 21 24 22 25 23 26
REMARK SMILES IDX 24 27 25 28 86 29 26 30 85 31 27 32 28 33 29 34 79 35 30 36
REMARK SMILES IDX 84 37 78 38 80 39 31 40 83 41 77 42 76 43 32 45 64 46 44 47
REMARK SMILES IDX 63 48 45 49 48 50 62 51 81 52 46 53 47 54 61 56 82 57 49 58
REMARK SMILES IDX 33 59 34 60 42 61 35 62 37 63 43 64 36 65 38 66 39 67 40 68
REMARK SMILES IDX 41 69 65 70 66 71 74 72 67 73 69 74 75 75 68 76 70 77 71 78
REMARK SMILES IDX 72 79 73 80 50 81 51 82 59 83 52 84 54 85 60 86 53 87 55 88
REMARK SMILES IDX 56 89 57 90 58 91
REMARK H PARENT 1 17 1 18 1 19 80 44 48 55
REMARK Flexibility Score: inf
ROOT
ATOM      1  C   UNL     1       4.088   1.583   3.404  1.00  0.00     0.274 C 
ENDROOT
BRANCH   1   2
ATOM      2  O   UNL     1       2.722   1.259   3.735  1.00  0.00    -0.460 OA
BRANCH   2   3
ATOM      3  C   UNL     1       1.820   1.277   2.713  1.00  0.00     0.335 C 
ATOM      4  O   UNL     1       2.116   1.419   1.530  1.00  0.00    -0.249 OA
BRANCH   3   5
ATOM      5  C   UNL     1       0.364   1.067   3.176  1.00  0.00     0.242 C 
ATOM      6  C   UNL     1      -0.109  -0.364   3.106  1.00  0.00    -0.019 C 
ATOM      7  C   UNL     1      -0.430  -0.802   4.324  1.00  0.00     0.009 A 
ATOM      8  C   UNL     1      -0.910  -2.042   4.857  1.00  0.00     0.096 A 
ATOM      9  C   UNL     1      -0.226   0.383   5.173  1.00  0.00     0.067 A 
ATOM     10  N   UNL     1       0.212   1.467   4.616  1.00  0.00    -0.265 NA
ATOM     11  C   UNL     1      -1.196  -2.099   6.172  1.00  0.00     0.270 A 
ATOM     12  C   UNL     1      -0.573   0.241   6.602  1.00  0.00     0.035 A 
ATOM     13  C   UNL     1      -1.038  -0.940   7.046  1.00  0.00     0.088 A 
BRANCH   6  14
ATOM     14  C   UNL     1      -0.239  -1.140   1.827  1.00  0.00     0.096 C 
BRANCH  14  15
ATOM     15  C   UNL     1      -0.972  -0.440   0.671  1.00  0.00     0.263 C 
BRANCH  15  16
ATOM     16  N   UNL     1      -0.161   0.495  -0.100  1.00  0.00    -0.357 N 
ATOM     17  H   UNL     1      -0.729   0.907  -0.840  1.00  0.00     0.344 HD
ATOM     18  H   UNL     1       0.628  -0.001  -0.513  1.00  0.00     0.344 HD
ATOM     19  H   UNL     1       0.184   1.232   0.515  1.00  0.00     0.344 HD
ENDBRANCH  15  16
ENDBRANCH  14  15
ENDBRANCH   6  14
BRANCH  11  20
ATOM     20  N   UNL     1      -1.680  -3.374   6.715  1.00  0.00     0.062 N 
ATOM     21  O   UNL     1      -1.618  -4.381   6.000  1.00  0.00    -0.258 OA
ATOM     22  O   UNL     1      -2.117  -3.360   7.875  1.00  0.00    -0.258 OA
ENDBRANCH  11  20
ENDBRANCH   3   5
ENDBRANCH   2   3
ENDBRANCH   1   2
BRANCH   1  23
ATOM     23  C   UNL     1       4.952   0.327   3.390  1.00  0.00     0.275 C 
BRANCH  23  24
ATOM     24  O   UNL     1       4.608  -0.446   2.232  1.00  0.00    -0.458 OA
BRANCH  24  25
ATOM     25  C   UNL     1       4.530  -1.786   2.403  1.00  0.00     0.338 C 
ATOM     26  O   UNL     1       4.803  -2.414   3.410  1.00  0.00    -0.246 OA
BRANCH  25  27
ATOM     27  C   UNL     1       4.048  -2.399   1.147  1.00  0.00     0.060 A 
ATOM     28  C   UNL     1       4.547  -3.633   0.739  1.00  0.00     0.016 A 
ATOM     29  C   UNL     1       3.027  -1.791   0.416  1.00  0.00     0.016 A 
ATOM     30  C   UNL     1       4.028  -4.243  -0.410  1.00  0.00     0.010 A 
ATOM     31  C   UNL     1       2.425  -2.464  -0.647  1.00  0.00     0.010 A 
ATOM     32  C   UNL     1       2.931  -3.686  -1.098  1.00  0.00    -0.014 A 
BRANCH  32  33
ATOM     33  C   UNL     1       2.301  -4.392  -2.252  1.00  0.00     0.031 A 
ATOM     34  C   UNL     1       2.112  -3.716  -3.592  1.00  0.00     0.074 A 
ATOM     35  C   UNL     1       1.824  -5.643  -2.085  1.00  0.00     0.049 A 
ATOM     36  N   UNL     1       1.615  -4.214  -4.698  1.00  0.00    -0.248 NA
ATOM     37  C   UNL     1       2.477  -2.294  -3.700  1.00  0.00     0.031 C 
ATOM     38  C   UNL     1       1.778  -6.370  -0.813  1.00  0.00     0.029 A 
ATOM     39  N   UNL     1       1.293  -6.530  -2.989  1.00  0.00    -0.354 N 
ATOM     40  C   UNL     1       1.562  -3.161  -5.604  1.00  0.00     0.074 A 
ATOM     41  C   UNL     1       2.027  -1.984  -4.907  1.00  0.00     0.031 C 
ATOM     42  C   UNL     1       1.313  -7.610  -1.031  1.00  0.00     0.029 A 
ATOM     43  C   UNL     1       1.017  -7.766  -2.451  1.00  0.00     0.049 A 
ATOM     44  H   UNL     1       1.125  -6.303  -3.932  1.00  0.00     0.167 HD
ATOM     45  C   UNL     1       1.219  -3.174  -6.915  1.00  0.00     0.034 A 
ATOM     46  C   UNL     1       0.615  -8.911  -3.036  1.00  0.00     0.034 A 
ATOM     47  C   UNL     1       0.873  -4.361  -7.646  1.00  0.00     0.049 A 
ATOM     48  C   UNL     1       0.423  -8.956  -4.524  1.00  0.00     0.074 A 
ATOM     49  C   UNL     1       0.634  -4.497  -9.003  1.00  0.00     0.029 A 
ATOM     50  N   UNL     1       0.747  -5.622  -7.088  1.00  0.00    -0.354 N 
ATOM     51  N   UNL     1       0.542  -7.984  -5.394  1.00  0.00    -0.248 NA
ATOM     52  C   UNL     1       0.084 -10.258  -5.118  1.00  0.00     0.031 C 
ATOM     53  C   UNL     1       0.390  -5.848  -9.269  1.00  0.00     0.029 A 
ATOM     54  C   UNL     1       0.464  -6.548  -8.076  1.00  0.00     0.049 A 
ATOM     55  H   UNL     1       0.844  -5.829  -6.131  1.00  0.00     0.167 HD
ATOM     56  C   UNL     1       0.309  -8.557  -6.639  1.00  0.00     0.074 A 
ATOM     57  C   UNL     1       0.062  -9.966  -6.413  1.00  0.00     0.031 C 
ATOM     58  C   UNL     1       0.281  -7.958  -7.853  1.00  0.00     0.034 A 
BRANCH  45  59
ATOM     59  C   UNL     1       1.337  -1.882  -7.680  1.00  0.00     0.023 A 
ATOM     60  C   UNL     1       2.623  -1.414  -8.021  1.00  0.00     0.012 A 
ATOM     61  C   UNL     1       0.202  -1.170  -8.114  1.00  0.00     0.148 A 
ATOM     62  C   UNL     1       2.782  -0.239  -8.751  1.00  0.00     0.002 A 
ATOM     63  C   UNL     1       0.368  -0.016  -8.874  1.00  0.00     0.091 A 
ATOM     64  F   UNL     1      -1.011  -1.625  -7.771  1.00  0.00    -0.205 F 
ATOM     65  C   UNL     1       1.656   0.455  -9.184  1.00  0.00     0.022 A 
BRANCH  63  66
ATOM     66  S   UNL     1      -1.013   0.920  -9.541  1.00  0.00     0.127 S 
ATOM     67  O   UNL     1      -0.965   2.136  -8.731  1.00  0.00    -0.237 OA
ATOM     68  O   UNL     1      -0.615   1.103 -10.938  1.00  0.00    -0.237 OA
ATOM     69  O   UNL     1      -2.192   0.087  -9.351  1.00  0.00    -0.744 OA
ENDBRANCH  63  66
ENDBRANCH  45  59
BRANCH  46  70
ATOM     70  C   UNL     1       0.527 -10.144  -2.208  1.00  0.00     0.023 A 
ATOM     71  C   UNL     1       1.600 -11.056  -2.239  1.00  0.00     0.012 A 
ATOM     72  C   UNL     1      -0.545 -10.365  -1.324  1.00  0.00     0.148 A 
ATOM     73  C   UNL     1       1.605 -12.174  -1.407  1.00  0.00     0.002 A 
ATOM     74  C   UNL     1      -0.518 -11.464  -0.473  1.00  0.00     0.091 A 
ATOM     75  F   UNL     1      -1.546  -9.474  -1.309  1.00  0.00    -0.205 F 
ATOM     76  C   UNL     1       0.552 -12.373  -0.519  1.00  0.00     0.022 A 
BRANCH  74  77
ATOM     77  S   UNL     1      -1.774 -11.761   0.775  1.00  0.00     0.127 S 
ATOM     78  O   UNL     1      -2.304 -13.059   0.363  1.00  0.00    -0.237 OA
ATOM     79  O   UNL     1      -0.974 -11.783   2.000  1.00  0.00    -0.237 OA
ATOM     80  O   UNL     1      -2.707 -10.648   0.673  1.00  0.00    -0.744 OA
ENDBRANCH  74  77
ENDBRANCH  46  70
BRANCH  58  81
ATOM     81  C   UNL     1      -0.023  -8.804  -9.056  1.00  0.00     0.023 A 
ATOM     82  C   UNL     1      -1.364  -9.114  -9.352  1.00  0.00     0.012 A 
ATOM     83  C   UNL     1       0.994  -9.172  -9.959  1.00  0.00     0.148 A 
ATOM     84  C   UNL     1      -1.690  -9.780 -10.532  1.00  0.00     0.002 A 
ATOM     85  C   UNL     1       0.658  -9.812 -11.146  1.00  0.00     0.091 A 
ATOM     86  F   UNL     1       2.264  -8.874  -9.646  1.00  0.00    -0.205 F 
ATOM     87  C   UNL     1      -0.683 -10.118 -11.433  1.00  0.00     0.022 A 
BRANCH  85  88
ATOM     88  S   UNL     1       1.875 -10.226 -12.402  1.00  0.00     0.127 S 
ATOM     89  O   UNL     1       1.890 -11.686 -12.332  1.00  0.00    -0.237 OA
ATOM     90  O   UNL     1       1.266  -9.679 -13.615  1.00  0.00    -0.237 OA
ATOM     91  O   UNL     1       3.112  -9.572 -11.997  1.00  0.00    -0.744 OA
ENDBRANCH  85  88
ENDBRANCH  58  81
ENDBRANCH  32  33
ENDBRANCH  25  27
ENDBRANCH  24  25
ENDBRANCH  23  24
ENDBRANCH   1  23
TORSDOF 18
