REMARK SMILES O=C(OCCOC(=O)c1cc(/C=C/c2cc(O)cc(O)c2)ccc1O)c1ccc(-c2c3nc(c(-c4cccc(S(=O)(=O)[O-])c4F)c4ccc([nH]4)c(-c4cccc(S(=O)(=O)[O-])c4F)c4nc(c(-c5cccc(S(=O)(=O)[O-])c5F)c5ccc2[nH]5)C=C4)C=C3)cc1
REMARK SMILES IDX 4 1 3 2 2 3 1 4 26 5 27 6 88 7 28 8 87 9 29 10 30 11 31 12
REMARK SMILES IDX 81 13 32 14 86 15 80 16 82 17 33 18 85 19 79 20 78 21 34 23
REMARK SMILES IDX 66 24 46 25 65 26 47 27 50 28 64 29 83 30 48 31 49 32 63 34
REMARK SMILES IDX 84 35 51 36 35 37 36 38 44 39 37 40 39 41 45 42 38 43 40 44
REMARK SMILES IDX 41 45 42 46 43 47 67 48 68 49 76 50 69 51 71 52 77 53 70 54
REMARK SMILES IDX 72 55 73 56 74 57 75 58 52 59 53 60 61 61 54 62 56 63 62 64
REMARK SMILES IDX 55 65 57 66 58 67 59 68 60 69 5 70 6 71 7 72 8 73 9 74 10 75
REMARK SMILES IDX 24 76 11 77 23 78 22 79 25 80 12 82 13 83 14 84 15 85 21 86
REMARK SMILES IDX 16 87 19 88 18 89 17 90 20 92
REMARK H PARENT 82 22 50 33 25 81 17 91 20 93
REMARK Flexibility Score: inf
ROOT
ATOM      1  C   UNL     1       4.245  -1.331   0.579  1.00  0.00     0.275 C 
ENDROOT
BRANCH   1   2
ATOM      2  O   UNL     1       3.249  -0.395   1.019  1.00  0.00    -0.458 OA
BRANCH   2   3
ATOM      3  C   UNL     1       3.116   0.921   0.729  1.00  0.00     0.338 C 
ATOM      4  O   UNL     1       2.344   1.591   1.417  1.00  0.00    -0.246 OA
BRANCH   3   5
ATOM      5  C   UNL     1       3.747   1.590  -0.456  1.00  0.00     0.060 A 
ATOM      6  C   UNL     1       4.932   1.224  -1.101  1.00  0.00     0.016 A 
ATOM      7  C   UNL     1       3.053   2.704  -0.959  1.00  0.00     0.016 A 
ATOM      8  C   UNL     1       5.380   1.898  -2.244  1.00  0.00     0.010 A 
ATOM      9  C   UNL     1       3.477   3.364  -2.112  1.00  0.00     0.010 A 
ATOM     10  C   UNL     1       4.656   2.972  -2.754  1.00  0.00    -0.014 A 
BRANCH  10  11
ATOM     11  C   UNL     1       5.205   3.825  -3.829  1.00  0.00     0.031 A 
ATOM     12  C   UNL     1       5.694   5.188  -3.447  1.00  0.00     0.074 A 
ATOM     13  C   UNL     1       5.209   3.427  -5.114  1.00  0.00     0.049 A 
ATOM     14  N   UNL     1       6.095   6.167  -4.209  1.00  0.00    -0.248 NA
ATOM     15  C   UNL     1       5.735   5.486  -2.003  1.00  0.00     0.031 C 
ATOM     16  C   UNL     1       4.811   2.106  -5.592  1.00  0.00     0.029 A 
ATOM     17  N   UNL     1       5.500   4.122  -6.261  1.00  0.00    -0.354 N 
ATOM     18  C   UNL     1       6.424   7.198  -3.341  1.00  0.00     0.074 A 
ATOM     19  C   UNL     1       6.122   6.750  -2.001  1.00  0.00     0.031 C 
ATOM     20  C   UNL     1       4.764   2.120  -6.935  1.00  0.00     0.029 A 
ATOM     21  C   UNL     1       5.141   3.449  -7.406  1.00  0.00     0.049 A 
ATOM     22  H   UNL     1       5.922   5.011  -6.264  1.00  0.00     0.167 HD
ATOM     23  C   UNL     1       6.973   8.398  -3.631  1.00  0.00     0.034 A 
ATOM     24  C   UNL     1       5.092   3.874  -8.684  1.00  0.00     0.034 A 
ATOM     25  C   UNL     1       7.271   8.824  -4.966  1.00  0.00     0.049 A 
ATOM     26  C   UNL     1       5.617   5.248  -9.001  1.00  0.00     0.074 A 
ATOM     27  C   UNL     1       7.883   9.988  -5.387  1.00  0.00     0.029 A 
ATOM     28  N   UNL     1       6.952   8.098  -6.105  1.00  0.00    -0.354 N 
ATOM     29  N   UNL     1       6.062   6.164  -8.174  1.00  0.00    -0.248 NA
ATOM     30  C   UNL     1       5.706   5.624 -10.418  1.00  0.00     0.031 C 
ATOM     31  C   UNL     1       7.905   9.979  -6.786  1.00  0.00     0.029 A 
ATOM     32  C   UNL     1       7.339   8.793  -7.233  1.00  0.00     0.049 A 
ATOM     33  H   UNL     1       6.514   7.216  -6.108  1.00  0.00     0.167 HD
ATOM     34  C   UNL     1       6.555   7.190  -8.968  1.00  0.00     0.074 A 
ATOM     35  C   UNL     1       6.326   6.796 -10.344  1.00  0.00     0.031 C 
ATOM     36  C   UNL     1       7.159   8.344  -8.591  1.00  0.00     0.034 A 
BRANCH  23  37
ATOM     37  C   UNL     1       7.290   9.294  -2.466  1.00  0.00     0.023 A 
ATOM     38  C   UNL     1       8.327   8.939  -1.576  1.00  0.00     0.012 A 
ATOM     39  C   UNL     1       6.528  10.449  -2.216  1.00  0.00     0.148 A 
ATOM     40  C   UNL     1       8.557   9.684  -0.421  1.00  0.00     0.002 A 
ATOM     41  C   UNL     1       6.795  11.212  -1.086  1.00  0.00     0.091 A 
ATOM     42  F   UNL     1       5.529  10.753  -3.057  1.00  0.00    -0.205 F 
ATOM     43  C   UNL     1       7.794  10.822  -0.178  1.00  0.00     0.022 A 
BRANCH  41  44
ATOM     44  S   UNL     1       5.907  12.729  -0.723  1.00  0.00     0.127 S 
ATOM     45  O   UNL     1       5.021  12.301   0.358  1.00  0.00    -0.237 OA
ATOM     46  O   UNL     1       6.986  13.626  -0.308  1.00  0.00    -0.237 OA
ATOM     47  O   UNL     1       5.249  13.111  -1.964  1.00  0.00    -0.744 OA
ENDBRANCH  41  44
ENDBRANCH  23  37
BRANCH  24  48
ATOM     48  C   UNL     1       4.569   2.970  -9.745  1.00  0.00     0.023 A 
ATOM     49  C   UNL     1       5.455   2.358 -10.650  1.00  0.00     0.012 A 
ATOM     50  C   UNL     1       3.192   2.677  -9.826  1.00  0.00     0.148 A 
ATOM     51  C   UNL     1       4.979   1.489 -11.634  1.00  0.00     0.002 A 
ATOM     52  C   UNL     1       2.729   1.782 -10.785  1.00  0.00     0.091 A 
ATOM     53  F   UNL     1       2.368   3.260  -8.945  1.00  0.00    -0.205 F 
ATOM     54  C   UNL     1       3.619   1.196 -11.698  1.00  0.00     0.022 A 
BRANCH  52  55
ATOM     55  S   UNL     1       1.012   1.259 -10.876  1.00  0.00     0.127 S 
ATOM     56  O   UNL     1       0.623   1.737 -12.200  1.00  0.00    -0.237 OA
ATOM     57  O   UNL     1       1.142  -0.193 -10.754  1.00  0.00    -0.237 OA
ATOM     58  O   UNL     1       0.344   1.903  -9.753  1.00  0.00    -0.744 OA
ENDBRANCH  52  55
ENDBRANCH  24  48
BRANCH  36  59
ATOM     59  C   UNL     1       7.704   9.241  -9.667  1.00  0.00     0.023 A 
ATOM     60  C   UNL     1       6.837  10.063 -10.410  1.00  0.00     0.012 A 
ATOM     61  C   UNL     1       9.098   9.373  -9.821  1.00  0.00     0.148 A 
ATOM     62  C   UNL     1       7.354  11.005 -11.298  1.00  0.00     0.002 A 
ATOM     63  C   UNL     1       9.606  10.349 -10.666  1.00  0.00     0.091 A 
ATOM     64  F   UNL     1       9.898   8.561  -9.115  1.00  0.00    -0.205 F 
ATOM     65  C   UNL     1       8.735  11.161 -11.412  1.00  0.00     0.022 A 
BRANCH  63  66
ATOM     66  S   UNL     1      11.363  10.699 -10.785  1.00  0.00     0.127 S 
ATOM     67  O   UNL     1      11.663  10.256 -12.146  1.00  0.00    -0.237 OA
ATOM     68  O   UNL     1      11.402  12.148 -10.591  1.00  0.00    -0.237 OA
ATOM     69  O   UNL     1      12.002   9.928  -9.727  1.00  0.00    -0.744 OA
ENDBRANCH  63  66
ENDBRANCH  36  59
ENDBRANCH  10  11
ENDBRANCH   3   5
ENDBRANCH   2   3
ENDBRANCH   1   2
BRANCH   1  70
ATOM     70  C   UNL     1       3.881  -2.084  -0.702  1.00  0.00     0.275 C 
BRANCH  70  71
ATOM     71  O   UNL     1       3.390  -1.228  -1.742  1.00  0.00    -0.458 OA
BRANCH  71  72
ATOM     72  C   UNL     1       2.035  -1.198  -1.885  1.00  0.00     0.342 C 
ATOM     73  O   UNL     1       1.225  -1.808  -1.216  1.00  0.00    -0.246 OA
BRANCH  72  74
ATOM     74  C   UNL     1       1.659  -0.155  -2.862  1.00  0.00     0.102 A 
ATOM     75  C   UNL     1       0.809   0.870  -2.409  1.00  0.00     0.027 A 
ATOM     76  C   UNL     1       2.114  -0.154  -4.179  1.00  0.00     0.130 A 
ATOM     77  C   UNL     1       0.486   1.952  -3.240  1.00  0.00    -0.025 A 
ATOM     78  C   UNL     1       1.732   0.874  -5.038  1.00  0.00     0.048 A 
ATOM     79  C   UNL     1       0.948   1.930  -4.564  1.00  0.00     0.012 A 
BRANCH  76  80
ATOM     80  O   UNL     1       2.926  -1.151  -4.641  1.00  0.00    -0.507 OA
ATOM     81  H   UNL     1       3.188  -1.846  -4.069  1.00  0.00     0.293 HD
ENDBRANCH  76  80
BRANCH  77  82
ATOM     82  C   UNL     1      -0.294   3.124  -2.799  1.00  0.00     0.009 C 
ATOM     83  C   UNL     1      -0.623   3.435  -1.533  1.00  0.00     0.009 C 
BRANCH  83  84
ATOM     84  C   UNL     1      -1.402   4.629  -1.161  1.00  0.00    -0.018 A 
ATOM     85  C   UNL     1      -2.465   5.088  -1.954  1.00  0.00     0.054 A 
ATOM     86  C   UNL     1      -1.132   5.278   0.053  1.00  0.00     0.054 A 
ATOM     87  C   UNL     1      -3.232   6.174  -1.535  1.00  0.00     0.119 A 
ATOM     88  C   UNL     1      -1.914   6.363   0.453  1.00  0.00     0.119 A 
ATOM     89  C   UNL     1      -2.970   6.811  -0.331  1.00  0.00     0.092 A 
BRANCH  87  90
ATOM     90  O   UNL     1      -4.271   6.634  -2.293  1.00  0.00    -0.508 OA
ATOM     91  H   UNL     1      -4.471   6.223  -3.111  1.00  0.00     0.293 HD
ENDBRANCH  87  90
BRANCH  88  92
ATOM     92  O   UNL     1      -1.675   7.013   1.629  1.00  0.00    -0.508 OA
ATOM     93  H   UNL     1      -2.212   7.740   1.880  1.00  0.00     0.293 HD
ENDBRANCH  88  92
ENDBRANCH  83  84
ENDBRANCH  77  82
ENDBRANCH  72  74
ENDBRANCH  71  72
ENDBRANCH  70  71
ENDBRANCH   1  70
TORSDOF 19
