REMARK SMILES CC(C)C[C@H](CNC(=O)Nc1ccccc1Br)C(=O)OCCOC(=O)c1ccc(-c2c3nc(c(-c4cccc(S(=O)(=O)[O-])c4F)c4ccc([nH]4)c(-c4cccc(S(=O)(=O)[O-])c4F)c4nc(c(-c5cccc(S(=O)(=O)[O-])c5F)c5ccc2[nH]5)C=C4)C=C3)cc1
REMARK SMILES IDX 21 1 20 2 18 3 19 4 5 5 4 6 2 7 1 8 3 9 6 10 7 11 8 12 9 14
REMARK SMILES IDX 10 15 11 17 12 18 16 19 13 20 15 21 17 22 14 23 22 24 23 25
REMARK SMILES IDX 24 26 25 27 26 28 27 29 88 30 28 31 87 32 29 33 30 34 31 35
REMARK SMILES IDX 81 36 32 37 86 38 80 39 82 40 33 41 85 42 79 43 78 44 34 46
REMARK SMILES IDX 66 47 46 48 65 49 47 50 50 51 64 52 83 53 48 54 49 55 63 57
REMARK SMILES IDX 84 58 51 59 35 60 36 61 44 62 37 63 39 64 45 65 38 66 40 67
REMARK SMILES IDX 41 68 42 69 43 70 67 71 68 72 76 73 69 74 71 75 77 76 70 77
REMARK SMILES IDX 72 78 73 79 74 80 75 81 52 82 53 83 61 84 54 85 56 86 62 87
REMARK SMILES IDX 55 88 57 89 58 90 59 91 60 92
REMARK H PARENT 7 13 10 16 82 45 50 56
REMARK Flexibility Score: inf
ROOT
ATOM      1  C   UNL     1      -5.345   0.948  -1.957  1.00  0.00     0.274 C 
ENDROOT
BRANCH   1   2
ATOM      2  O   UNL     1      -3.914   1.108  -2.061  1.00  0.00    -0.462 OA
BRANCH   2   3
ATOM      3  C   UNL     1      -3.369   1.863  -1.074  1.00  0.00     0.310 C 
ATOM      4  O   UNL     1      -4.021   2.413  -0.193  1.00  0.00    -0.252 OA
BRANCH   3   5
ATOM      5  C   UNL     1      -1.860   1.992  -1.153  1.00  0.00     0.119 C 
BRANCH   5   6
ATOM      6  C   UNL     1      -1.369   3.236  -1.901  1.00  0.00     0.020 C 
BRANCH   6   7
ATOM      7  C   UNL     1      -2.069   4.560  -1.525  1.00  0.00    -0.017 C 
ATOM      8  C   UNL     1      -2.000   4.902  -0.034  1.00  0.00     0.007 C 
ATOM      9  C   UNL     1      -1.459   5.711  -2.329  1.00  0.00     0.007 C 
ENDBRANCH   6   7
ENDBRANCH   5   6
BRANCH   5  10
ATOM     10  C   UNL     1      -1.156   0.684  -1.543  1.00  0.00     0.133 C 
BRANCH  10  11
ATOM     11  N   UNL     1      -0.689   0.561  -2.917  1.00  0.00    -0.337 N 
ATOM     12  C   UNL     1       0.518   0.187  -3.410  1.00  0.00     0.319 C 
ATOM     13  H   UNL     1      -1.360   0.787  -3.600  1.00  0.00     0.165 HD
ATOM     14  O   UNL     1       0.758   0.403  -4.600  1.00  0.00    -0.249 OA
ATOM     15  N   UNL     1       1.503  -0.292  -2.609  1.00  0.00    -0.307 N 
ATOM     16  H   UNL     1       2.416  -0.153  -2.950  1.00  0.00     0.171 HD
BRANCH  15  17
ATOM     17  C   UNL     1       1.433  -0.956  -1.370  1.00  0.00     0.057 A 
ATOM     18  C   UNL     1       2.310  -0.498  -0.377  1.00  0.00     0.027 A 
ATOM     19  C   UNL     1       0.514  -1.973  -1.057  1.00  0.00     0.041 A 
ATOM     20  C   UNL     1       2.177  -0.943   0.940  1.00  0.00     0.002 A 
ATOM     21  C   UNL     1       0.391  -2.420   0.263  1.00  0.00     0.018 A 
ATOM     22  Br  UNL     1      -0.504  -2.883  -2.381  1.00  0.00    -0.049 Br
ATOM     23  C   UNL     1       1.202  -1.885   1.264  1.00  0.00     0.001 A 
ENDBRANCH  15  17
ENDBRANCH  10  11
ENDBRANCH   5  10
ENDBRANCH   3   5
ENDBRANCH   2   3
ENDBRANCH   1   2
BRANCH   1  24
ATOM     24  C   UNL     1      -5.748  -0.303  -1.167  1.00  0.00     0.275 C 
BRANCH  24  25
ATOM     25  O   UNL     1      -5.308  -0.267   0.205  1.00  0.00    -0.458 OA
BRANCH  25  26
ATOM     26  C   UNL     1      -4.166  -0.948   0.460  1.00  0.00     0.338 C 
ATOM     27  O   UNL     1      -3.502  -1.586  -0.340  1.00  0.00    -0.246 OA
BRANCH  26  28
ATOM     28  C   UNL     1      -3.724  -0.741   1.849  1.00  0.00     0.060 A 
ATOM     29  C   UNL     1      -2.477  -0.144   2.061  1.00  0.00     0.016 A 
ATOM     30  C   UNL     1      -4.456  -1.245   2.925  1.00  0.00     0.016 A 
ATOM     31  C   UNL     1      -1.950  -0.054   3.348  1.00  0.00     0.010 A 
ATOM     32  C   UNL     1      -3.923  -1.160   4.217  1.00  0.00     0.010 A 
ATOM     33  C   UNL     1      -2.659  -0.581   4.434  1.00  0.00    -0.014 A 
BRANCH  33  34
ATOM     34  C   UNL     1      -2.047  -0.580   5.785  1.00  0.00     0.031 A 
ATOM     35  C   UNL     1      -1.488  -1.854   6.354  1.00  0.00     0.074 A 
ATOM     36  C   UNL     1      -1.994   0.558   6.501  1.00  0.00     0.049 A 
ATOM     37  N   UNL     1      -0.964  -2.073   7.532  1.00  0.00    -0.248 NA
ATOM     38  C   UNL     1      -1.520  -3.039   5.480  1.00  0.00     0.031 C 
ATOM     39  C   UNL     1      -2.491   1.859   6.053  1.00  0.00     0.029 A 
ATOM     40  N   UNL     1      -1.518   0.797   7.766  1.00  0.00    -0.354 N 
ATOM     41  C   UNL     1      -0.639  -3.423   7.559  1.00  0.00     0.074 A 
ATOM     42  C   UNL     1      -1.021  -3.975   6.277  1.00  0.00     0.031 C 
ATOM     43  C   UNL     1      -2.315   2.756   7.038  1.00  0.00     0.029 A 
ATOM     44  C   UNL     1      -1.723   2.088   8.195  1.00  0.00     0.049 A 
ATOM     45  H   UNL     1      -1.072   0.111   8.314  1.00  0.00     0.167 HD
ATOM     46  C   UNL     1      -0.065  -4.137   8.557  1.00  0.00     0.034 A 
ATOM     47  C   UNL     1      -1.484   2.660   9.392  1.00  0.00     0.034 A 
ATOM     48  C   UNL     1       0.342  -3.582   9.821  1.00  0.00     0.049 A 
ATOM     49  C   UNL     1      -0.859   1.840  10.488  1.00  0.00     0.074 A 
ATOM     50  C   UNL     1       0.968  -4.219  10.878  1.00  0.00     0.029 A 
ATOM     51  N   UNL     1       0.158  -2.262  10.202  1.00  0.00    -0.354 N 
ATOM     52  N   UNL     1      -0.463   0.590  10.461  1.00  0.00    -0.248 NA
ATOM     53  C   UNL     1      -0.624   2.515  11.773  1.00  0.00     0.031 C 
ATOM     54  C   UNL     1       1.153  -3.286  11.904  1.00  0.00     0.029 A 
ATOM     55  C   UNL     1       0.653  -2.065  11.480  1.00  0.00     0.049 A 
ATOM     56  H   UNL     1      -0.262  -1.567   9.646  1.00  0.00     0.167 HD
ATOM     57  C   UNL     1       0.092   0.338  11.711  1.00  0.00     0.074 A 
ATOM     58  C   UNL     1       0.002   1.572  12.464  1.00  0.00     0.031 C 
ATOM     59  C   UNL     1       0.610  -0.817  12.198  1.00  0.00     0.034 A 
BRANCH  46  60
ATOM     60  C   UNL     1       0.189  -5.600   8.312  1.00  0.00     0.023 A 
ATOM     61  C   UNL     1       1.263  -5.988   7.487  1.00  0.00     0.012 A 
ATOM     62  C   UNL     1      -0.595  -6.587   8.938  1.00  0.00     0.148 A 
ATOM     63  C   UNL     1       1.539  -7.337   7.269  1.00  0.00     0.002 A 
ATOM     64  C   UNL     1      -0.293  -7.931   8.745  1.00  0.00     0.091 A 
ATOM     65  F   UNL     1      -1.629  -6.198   9.698  1.00  0.00    -0.205 F 
ATOM     66  C   UNL     1       0.768  -8.307   7.905  1.00  0.00     0.022 A 
BRANCH  64  67
ATOM     67  S   UNL     1      -1.188  -9.248   9.575  1.00  0.00     0.127 S 
ATOM     68  O   UNL     1      -2.020  -9.768   8.491  1.00  0.00    -0.237 OA
ATOM     69  O   UNL     1      -0.108 -10.142   9.996  1.00  0.00    -0.237 OA
ATOM     70  O   UNL     1      -1.906  -8.612  10.671  1.00  0.00    -0.744 OA
ENDBRANCH  64  67
ENDBRANCH  46  60
BRANCH  47  71
ATOM     71  C   UNL     1      -1.808   4.099   9.603  1.00  0.00     0.023 A 
ATOM     72  C   UNL     1      -0.763   5.030   9.745  1.00  0.00     0.012 A 
ATOM     73  C   UNL     1      -3.142   4.552   9.633  1.00  0.00     0.148 A 
ATOM     74  C   UNL     1      -1.039   6.385   9.936  1.00  0.00     0.002 A 
ATOM     75  C   UNL     1      -3.409   5.910   9.769  1.00  0.00     0.091 A 
ATOM     76  F   UNL     1      -4.125   3.647   9.522  1.00  0.00    -0.205 F 
ATOM     77  C   UNL     1      -2.359   6.826   9.935  1.00  0.00     0.022 A 
BRANCH  75  78
ATOM     78  S   UNL     1      -5.074   6.573   9.646  1.00  0.00     0.127 S 
ATOM     79  O   UNL     1      -5.383   6.866  11.042  1.00  0.00    -0.237 OA
ATOM     80  O   UNL     1      -4.872   7.750   8.799  1.00  0.00    -0.237 OA
ATOM     81  O   UNL     1      -5.865   5.520   9.024  1.00  0.00    -0.744 OA
ENDBRANCH  75  78
ENDBRANCH  47  71
BRANCH  59  82
ATOM     82  C   UNL     1       1.147  -0.803  13.605  1.00  0.00     0.023 A 
ATOM     83  C   UNL     1       0.251  -0.794  14.691  1.00  0.00     0.012 A 
ATOM     84  C   UNL     1       2.532  -0.877  13.851  1.00  0.00     0.148 A 
ATOM     85  C   UNL     1       0.725  -0.833  16.002  1.00  0.00     0.002 A 
ATOM     86  C   UNL     1       2.996  -0.958  15.160  1.00  0.00     0.091 A 
ATOM     87  F   UNL     1       3.371  -0.862  12.805  1.00  0.00    -0.205 F 
ATOM     88  C   UNL     1       2.095  -0.927  16.236  1.00  0.00     0.022 A 
BRANCH  86  89
ATOM     89  S   UNL     1       4.738  -1.172  15.545  1.00  0.00     0.127 S 
ATOM     90  O   UNL     1       5.120   0.177  15.959  1.00  0.00    -0.237 OA
ATOM     91  O   UNL     1       4.703  -2.155  16.629  1.00  0.00    -0.237 OA
ATOM     92  O   UNL     1       5.359  -1.654  14.318  1.00  0.00    -0.744 OA
ENDBRANCH  86  89
ENDBRANCH  59  82
ENDBRANCH  33  34
ENDBRANCH  26  28
ENDBRANCH  25  26
ENDBRANCH  24  25
ENDBRANCH   1  24
TORSDOF 19
