REMARK SMILES O=C(CNc1cc(N2CCCC2)c2noc3c2c1C(=O)c1ccccc1-3)OCCOC(=O)c1ccc(-c2c3nc(c(-c4cccc(S(=O)(=O)[O-])c4F)c4ccc([nH]4)c(-c4cccc(S(=O)(=O)[O-])c4F)c4nc(c(-c5cccc(S(=O)(=O)[O-])c5F)c5ccc2[nH]5)C=C4)C=C3)cc1
REMARK SMILES IDX 28 1 27 2 2 3 1 4 3 5 4 6 5 8 6 9 18 10 7 11 17 12 19 13
REMARK SMILES IDX 13 14 16 15 20 16 21 17 14 18 15 19 26 20 22 21 25 22 23 23
REMARK SMILES IDX 24 24 8 25 9 26 12 27 10 28 11 29 29 30 30 31 31 32 32 33
REMARK SMILES IDX 33 34 34 35 95 36 35 37 94 38 36 39 37 40 38 41 88 42 39 43
REMARK SMILES IDX 93 44 87 45 89 46 40 47 92 48 86 49 85 50 41 52 73 53 53 54
REMARK SMILES IDX 72 55 54 56 57 57 71 58 90 59 55 60 56 61 70 63 91 64 58 65
REMARK SMILES IDX 42 66 43 67 51 68 44 69 46 70 52 71 45 72 47 73 48 74 49 75
REMARK SMILES IDX 50 76 74 77 75 78 83 79 76 80 78 81 84 82 77 83 79 84 80 85
REMARK SMILES IDX 81 86 82 87 59 88 60 89 68 90 61 91 63 92 69 93 62 94 64 95
REMARK SMILES IDX 65 96 66 97 67 98
REMARK H PARENT 4 7 89 51 57 62
REMARK Flexibility Score: inf
ROOT
ATOM      1  C   UNL     1       4.167   0.282  -0.778  1.00  0.00     0.274 C 
ENDROOT
BRANCH   1   2
ATOM      2  O   UNL     1       3.074  -0.458  -0.203  1.00  0.00    -0.461 OA
BRANCH   2   3
ATOM      3  C   UNL     1       2.785  -0.531   1.126  1.00  0.00     0.325 C 
ATOM      4  O   UNL     1       1.822  -1.211   1.479  1.00  0.00    -0.250 OA
BRANCH   3   5
ATOM      5  C   UNL     1       3.619   0.284   2.118  1.00  0.00     0.236 C 
BRANCH   5   6
ATOM      6  N   UNL     1       4.875  -0.345   2.480  1.00  0.00    -0.374 N 
ATOM      7  H   UNL     1       4.799  -1.219   2.926  1.00  0.00     0.161 HD
BRANCH   6   8
ATOM      8  C   UNL     1       6.167   0.118   2.282  1.00  0.00     0.049 A 
ATOM      9  C   UNL     1       7.120  -0.975   2.179  1.00  0.00     0.054 A 
ATOM     10  C   UNL     1       6.607   1.454   2.082  1.00  0.00     0.059 A 
ATOM     11  C   UNL     1       8.510  -0.894   1.860  1.00  0.00     0.069 A 
ATOM     12  C   UNL     1       7.960   1.484   1.776  1.00  0.00     0.065 A 
ATOM     13  C   UNL     1       5.937   2.785   2.217  1.00  0.00     0.196 C 
ATOM     14  C   UNL     1       8.914   0.442   1.656  1.00  0.00     0.138 A 
ATOM     15  C   UNL     1       8.609   2.645   1.520  1.00  0.00     0.176 A 
ATOM     16  O   UNL     1       4.819   2.903   2.688  1.00  0.00    -0.288 OA
ATOM     17  C   UNL     1       6.686   4.038   1.818  1.00  0.00     0.034 A 
ATOM     18  N   UNL     1      10.110   0.998   1.342  1.00  0.00    -0.077 NA
ATOM     19  O   UNL     1       9.907   2.380   1.256  1.00  0.00    -0.355 OA
ATOM     20  C   UNL     1       8.052   3.966   1.491  1.00  0.00     0.032 A 
ATOM     21  C   UNL     1       6.044   5.278   1.792  1.00  0.00     0.013 A 
ATOM     22  C   UNL     1       8.761   5.123   1.159  1.00  0.00     0.013 A 
ATOM     23  C   UNL     1       6.745   6.433   1.443  1.00  0.00     0.001 A 
ATOM     24  C   UNL     1       8.103   6.356   1.135  1.00  0.00     0.001 A 
BRANCH  11  25
ATOM     25  N   UNL     1       9.340  -2.005   1.844  1.00  0.00    -0.370 N 
ATOM     26  C   UNL     1       8.882  -3.233   1.190  1.00  0.00     0.116 C 
ATOM     27  C   UNL     1       9.913  -2.304   3.164  1.00  0.00     0.116 C 
ATOM     28  C   UNL     1       8.954  -4.292   2.284  1.00  0.00     0.023 C 
ATOM     29  C   UNL     1      10.121  -3.814   3.134  1.00  0.00     0.023 C 
ENDBRANCH  11  25
ENDBRANCH   6   8
ENDBRANCH   5   6
ENDBRANCH   3   5
ENDBRANCH   2   3
ENDBRANCH   1   2
BRANCH   1  30
ATOM     30  C   UNL     1       3.700   1.624  -1.348  1.00  0.00     0.275 C 
BRANCH  30  31
ATOM     31  O   UNL     1       3.314   2.505  -0.283  1.00  0.00    -0.458 OA
BRANCH  31  32
ATOM     32  C   UNL     1       1.986   2.800  -0.164  1.00  0.00     0.338 C 
ATOM     33  O   UNL     1       1.108   2.576  -0.952  1.00  0.00    -0.246 OA
BRANCH  32  34
ATOM     34  C   UNL     1       1.825   3.338   1.206  1.00  0.00     0.060 A 
ATOM     35  C   UNL     1       2.389   4.569   1.536  1.00  0.00     0.016 A 
ATOM     36  C   UNL     1       1.288   2.511   2.195  1.00  0.00     0.016 A 
ATOM     37  C   UNL     1       2.516   4.924   2.881  1.00  0.00     0.010 A 
ATOM     38  C   UNL     1       1.466   2.848   3.540  1.00  0.00     0.010 A 
ATOM     39  C   UNL     1       2.123   4.035   3.892  1.00  0.00    -0.014 A 
BRANCH  39  40
ATOM     40  C   UNL     1       2.280   4.472   5.294  1.00  0.00     0.031 A 
ATOM     41  C   UNL     1       0.969   4.625   5.978  1.00  0.00     0.074 A 
ATOM     42  C   UNL     1       3.332   4.221   6.105  1.00  0.00     0.049 A 
ATOM     43  N   UNL     1       0.357   3.623   6.534  1.00  0.00    -0.248 NA
ATOM     44  C   UNL     1       0.143   5.814   5.785  1.00  0.00     0.031 C 
ATOM     45  C   UNL     1       4.207   3.050   6.003  1.00  0.00     0.029 A 
ATOM     46  N   UNL     1       3.668   4.793   7.318  1.00  0.00    -0.354 N 
ATOM     47  C   UNL     1      -0.966   3.988   6.645  1.00  0.00     0.074 A 
ATOM     48  C   UNL     1      -1.046   5.369   6.213  1.00  0.00     0.031 C 
ATOM     49  C   UNL     1       4.833   2.879   7.189  1.00  0.00     0.029 A 
ATOM     50  C   UNL     1       4.552   4.016   8.063  1.00  0.00     0.049 A 
ATOM     51  H   UNL     1       3.319   5.661   7.624  1.00  0.00     0.167 HD
ATOM     52  C   UNL     1      -1.946   3.129   7.024  1.00  0.00     0.034 A 
ATOM     53  C   UNL     1       4.647   4.009   9.423  1.00  0.00     0.034 A 
ATOM     54  C   UNL     1      -1.539   1.791   7.335  1.00  0.00     0.049 A 
ATOM     55  C   UNL     1       3.386   3.288   9.816  1.00  0.00     0.074 A 
ATOM     56  C   UNL     1      -1.460   0.588   6.665  1.00  0.00     0.029 A 
ATOM     57  N   UNL     1      -0.960   1.551   8.559  1.00  0.00    -0.354 N 
ATOM     58  N   UNL     1       3.203   1.994   9.815  1.00  0.00    -0.248 NA
ATOM     59  C   UNL     1       2.158   4.080   9.893  1.00  0.00     0.031 C 
ATOM     60  C   UNL     1      -0.463  -0.178   7.350  1.00  0.00     0.029 A 
ATOM     61  C   UNL     1       0.038   0.625   8.371  1.00  0.00     0.049 A 
ATOM     62  H   UNL     1      -1.214   1.966   9.414  1.00  0.00     0.167 HD
ATOM     63  C   UNL     1       1.840   1.825   9.559  1.00  0.00     0.074 A 
ATOM     64  C   UNL     1       1.248   3.141   9.678  1.00  0.00     0.031 C 
ATOM     65  C   UNL     1       1.302   0.669   9.073  1.00  0.00     0.034 A 
BRANCH  52  66
ATOM     66  C   UNL     1      -3.332   3.587   7.217  1.00  0.00     0.023 A 
ATOM     67  C   UNL     1      -3.667   4.094   8.486  1.00  0.00     0.012 A 
ATOM     68  C   UNL     1      -4.315   3.470   6.222  1.00  0.00     0.148 A 
ATOM     69  C   UNL     1      -4.976   4.458   8.777  1.00  0.00     0.002 A 
ATOM     70  C   UNL     1      -5.623   3.836   6.520  1.00  0.00     0.091 A 
ATOM     71  F   UNL     1      -3.961   2.993   5.021  1.00  0.00    -0.205 F 
ATOM     72  C   UNL     1      -5.954   4.324   7.797  1.00  0.00     0.022 A 
BRANCH  70  73
ATOM     73  S   UNL     1      -6.966   3.718   5.334  1.00  0.00     0.127 S 
ATOM     74  O   UNL     1      -7.780   2.647   5.907  1.00  0.00    -0.237 OA
ATOM     75  O   UNL     1      -7.563   5.052   5.420  1.00  0.00    -0.237 OA
ATOM     76  O   UNL     1      -6.345   3.417   4.052  1.00  0.00    -0.744 OA
ENDBRANCH  70  73
ENDBRANCH  52  66
BRANCH  53  77
ATOM     77  C   UNL     1       5.097   5.292  10.067  1.00  0.00     0.023 A 
ATOM     78  C   UNL     1       6.271   5.885   9.539  1.00  0.00     0.012 A 
ATOM     79  C   UNL     1       4.484   5.943  11.156  1.00  0.00     0.148 A 
ATOM     80  C   UNL     1       6.756   7.110  10.003  1.00  0.00     0.002 A 
ATOM     81  C   UNL     1       4.934   7.196  11.578  1.00  0.00     0.091 A 
ATOM     82  F   UNL     1       3.460   5.351  11.781  1.00  0.00    -0.205 F 
ATOM     83  C   UNL     1       6.072   7.780  11.006  1.00  0.00     0.022 A 
BRANCH  81  84
ATOM     84  S   UNL     1       4.058   8.169  12.813  1.00  0.00     0.127 S 
ATOM     85  O   UNL     1       5.150   8.692  13.633  1.00  0.00    -0.237 OA
ATOM     86  O   UNL     1       3.389   9.162  11.974  1.00  0.00    -0.237 OA
ATOM     87  O   UNL     1       3.177   7.234  13.499  1.00  0.00    -0.744 OA
ENDBRANCH  81  84
ENDBRANCH  53  77
BRANCH  65  88
ATOM     88  C   UNL     1       2.192  -0.534   9.092  1.00  0.00     0.023 A 
ATOM     89  C   UNL     1       2.385  -1.183  10.326  1.00  0.00     0.012 A 
ATOM     90  C   UNL     1       2.786  -1.066   7.928  1.00  0.00     0.148 A 
ATOM     91  C   UNL     1       3.133  -2.356  10.404  1.00  0.00     0.002 A 
ATOM     92  C   UNL     1       3.519  -2.246   8.008  1.00  0.00     0.091 A 
ATOM     93  F   UNL     1       2.602  -0.437   6.758  1.00  0.00    -0.205 F 
ATOM     94  C   UNL     1       3.691  -2.892   9.246  1.00  0.00     0.022 A 
BRANCH  92  95
ATOM     95  S   UNL     1       4.259  -3.039   6.571  1.00  0.00     0.127 S 
ATOM     96  O   UNL     1       5.620  -3.320   7.033  1.00  0.00    -0.237 OA
ATOM     97  O   UNL     1       3.419  -4.227   6.417  1.00  0.00    -0.237 OA
ATOM     98  O   UNL     1       4.193  -2.082   5.470  1.00  0.00    -0.744 OA
ENDBRANCH  92  95
ENDBRANCH  65  88
ENDBRANCH  39  40
ENDBRANCH  32  34
ENDBRANCH  31  32
ENDBRANCH  30  31
ENDBRANCH   1  30
TORSDOF 17
