REMARK SMILES COc1ccc2c(c1)c(CC(=O)OCCOC(=O)c1ccc(-c3c4nc(c(-c5cccc(S(=O)(=O)[O-])c5F)c5ccc([nH]5)c(-c5cccc(S(=O)(=O)[O-])c5F)c5nc(c(-c6cccc(S(=O)(=O)[O-])c6F)c6ccc3[nH]6)C=C5)C=C4)cc1)c(C)n2Cc1ccn(C(F)F)c(=O)c1
REMARK SMILES IDX 14 1 13 2 11 3 12 4 10 5 9 6 3 7 4 8 8 9 5 10 7 11 6 12
REMARK SMILES IDX 84 13 82 14 83 15 2 16 1 17 85 18 86 19 87 20 95 21 88 22
REMARK SMILES IDX 93 23 89 24 94 25 90 26 91 27 92 28 15 29 16 30 17 31 18 32
REMARK SMILES IDX 19 33 20 34 81 35 21 36 80 37 22 38 23 39 24 40 74 41 25 42
REMARK SMILES IDX 79 43 73 44 75 45 26 46 78 47 72 48 71 49 27 51 59 52 39 53
REMARK SMILES IDX 58 54 40 55 43 56 57 57 76 58 41 59 42 60 56 62 77 63 44 64
REMARK SMILES IDX 28 65 29 66 37 67 30 68 32 69 38 70 31 71 33 72 34 73 35 74
REMARK SMILES IDX 36 75 60 76 61 77 69 78 62 79 64 80 70 81 63 82 65 83 66 84
REMARK SMILES IDX 67 85 68 86 45 87 46 88 54 89 47 90 49 91 55 92 48 93 50 94
REMARK SMILES IDX 51 95 52 96 53 97
REMARK H PARENT 75 50 43 61
REMARK Flexibility Score: inf
ROOT
ATOM      1  C   UNL     1      -1.727  -5.361   4.437  1.00  0.00     0.274 C 
ENDROOT
BRANCH   1   2
ATOM      2  O   UNL     1      -1.222  -5.715   3.131  1.00  0.00    -0.462 OA
BRANCH   2   3
ATOM      3  C   UNL     1      -2.120  -6.297   2.298  1.00  0.00     0.310 C 
ATOM      4  O   UNL     1      -3.277  -6.557   2.620  1.00  0.00    -0.252 OA
BRANCH   3   5
ATOM      5  C   UNL     1      -1.585  -6.704   0.955  1.00  0.00     0.160 C 
BRANCH   5   6
ATOM      6  C   UNL     1      -0.199  -6.343   0.508  1.00  0.00    -0.008 A 
ATOM      7  C   UNL     1       1.251  -2.761   0.582  1.00  0.00     0.119 A 
ATOM      8  C   UNL     1       2.524  -3.110   0.160  1.00  0.00     0.048 A 
ATOM      9  C   UNL     1       0.297  -3.763   0.822  1.00  0.00     0.057 A 
ATOM     10  C   UNL     1       2.843  -4.445  -0.109  1.00  0.00     0.031 A 
ATOM     11  C   UNL     1       0.555  -5.116   0.496  1.00  0.00     0.007 A 
ATOM     12  C   UNL     1       1.835  -5.421   0.008  1.00  0.00     0.049 A 
ATOM     13  N   UNL     1       1.835  -6.774  -0.280  1.00  0.00    -0.340 N 
ATOM     14  C   UNL     1       0.537  -7.226  -0.276  1.00  0.00     0.020 A 
ATOM     15  C   UNL     1       0.039  -8.454  -0.967  1.00  0.00     0.065 C 
BRANCH   7  16
ATOM     16  O   UNL     1       0.869  -1.472   0.854  1.00  0.00    -0.497 OA
ATOM     17  C   UNL     1       1.309  -0.499  -0.093  1.00  0.00     0.278 C 
ENDBRANCH   7  16
BRANCH  13  18
ATOM     18  C   UNL     1       3.015  -7.588  -0.567  1.00  0.00     0.158 C 
BRANCH  18  19
ATOM     19  C   UNL     1       3.393  -8.470   0.608  1.00  0.00    -0.021 A 
ATOM     20  C   UNL     1       2.578  -9.633   0.899  1.00  0.00     0.024 A 
ATOM     21  C   UNL     1       4.455  -8.223   1.394  1.00  0.00     0.077 A 
ATOM     22  C   UNL     1       2.794 -10.373   1.989  1.00  0.00     0.095 A 
ATOM     23  C   UNL     1       4.762  -9.090   2.572  1.00  0.00     0.255 A 
ATOM     24  N   UNL     1       3.852 -10.101   2.832  1.00  0.00    -0.258 N 
ATOM     25  O   UNL     1       5.776  -8.854   3.224  1.00  0.00    -0.269 OA
BRANCH  24  26
ATOM     26  C   UNL     1       4.084 -10.934   3.981  1.00  0.00     0.451 C 
ATOM     27  F   UNL     1       5.218 -11.662   3.829  1.00  0.00    -0.185 F 
ATOM     28  F   UNL     1       4.213 -10.196   5.112  1.00  0.00    -0.185 F 
ENDBRANCH  24  26
ENDBRANCH  18  19
ENDBRANCH  13  18
ENDBRANCH   5   6
ENDBRANCH   3   5
ENDBRANCH   2   3
ENDBRANCH   1   2
BRANCH   1  29
ATOM     29  C   UNL     1      -2.053  -3.866   4.497  1.00  0.00     0.275 C 
BRANCH  29  30
ATOM     30  O   UNL     1      -3.221  -3.621   3.703  1.00  0.00    -0.458 OA
BRANCH  30  31
ATOM     31  C   UNL     1      -3.071  -2.863   2.590  1.00  0.00     0.338 C 
ATOM     32  O   UNL     1      -2.208  -2.031   2.369  1.00  0.00    -0.246 OA
BRANCH  31  33
ATOM     33  C   UNL     1      -3.962  -3.468   1.585  1.00  0.00     0.060 A 
ATOM     34  C   UNL     1      -5.263  -3.820   1.946  1.00  0.00     0.016 A 
ATOM     35  C   UNL     1      -3.412  -3.898   0.372  1.00  0.00     0.016 A 
ATOM     36  C   UNL     1      -5.960  -4.718   1.154  1.00  0.00     0.010 A 
ATOM     37  C   UNL     1      -4.101  -4.821  -0.402  1.00  0.00     0.010 A 
ATOM     38  C   UNL     1      -5.349  -5.270   0.019  1.00  0.00    -0.014 A 
BRANCH  38  39
ATOM     39  C   UNL     1      -6.181  -6.053  -0.878  1.00  0.00     0.031 A 
ATOM     40  C   UNL     1      -6.970  -5.183  -1.773  1.00  0.00     0.074 A 
ATOM     41  C   UNL     1      -6.303  -7.388  -0.985  1.00  0.00     0.049 A 
ATOM     42  N   UNL     1      -8.190  -4.811  -1.578  1.00  0.00    -0.248 NA
ATOM     43  C   UNL     1      -6.292  -4.521  -2.892  1.00  0.00     0.031 C 
ATOM     44  C   UNL     1      -5.465  -8.453  -0.445  1.00  0.00     0.029 A 
ATOM     45  N   UNL     1      -7.237  -8.063  -1.717  1.00  0.00    -0.354 N 
ATOM     46  C   UNL     1      -8.508  -4.026  -2.673  1.00  0.00     0.074 A 
ATOM     47  C   UNL     1      -7.267  -3.732  -3.345  1.00  0.00     0.031 C 
ATOM     48  C   UNL     1      -5.809  -9.624  -1.039  1.00  0.00     0.029 A 
ATOM     49  C   UNL     1      -6.975  -9.414  -1.885  1.00  0.00     0.049 A 
ATOM     50  H   UNL     1      -8.033  -7.625  -2.097  1.00  0.00     0.167 HD
ATOM     51  C   UNL     1      -9.794  -3.867  -3.075  1.00  0.00     0.034 A 
ATOM     52  C   UNL     1      -7.657 -10.251  -2.708  1.00  0.00     0.034 A 
ATOM     53  C   UNL     1     -10.741  -4.321  -2.091  1.00  0.00     0.049 A 
ATOM     54  C   UNL     1      -9.015  -9.668  -2.880  1.00  0.00     0.074 A 
ATOM     55  C   UNL     1     -10.965  -4.039  -0.757  1.00  0.00     0.029 A 
ATOM     56  N   UNL     1     -11.383  -5.512  -2.337  1.00  0.00    -0.354 N 
ATOM     57  N   UNL     1      -9.905  -9.599  -1.929  1.00  0.00    -0.248 NA
ATOM     58  C   UNL     1      -9.274  -8.826  -4.039  1.00  0.00     0.031 C 
ATOM     59  C   UNL     1     -11.304  -5.292  -0.169  1.00  0.00     0.029 A 
ATOM     60  C   UNL     1     -11.305  -6.249  -1.186  1.00  0.00     0.049 A 
ATOM     61  H   UNL     1     -11.815  -5.782  -3.179  1.00  0.00     0.167 HD
ATOM     62  C   UNL     1     -10.579  -8.409  -2.167  1.00  0.00     0.074 A 
ATOM     63  C   UNL     1     -10.229  -8.041  -3.535  1.00  0.00     0.031 C 
ATOM     64  C   UNL     1     -11.130  -7.685  -1.149  1.00  0.00     0.034 A 
BRANCH  51  65
ATOM     65  C   UNL     1     -10.186  -3.613  -4.497  1.00  0.00     0.023 A 
ATOM     66  C   UNL     1     -11.481  -3.119  -4.746  1.00  0.00     0.012 A 
ATOM     67  C   UNL     1      -9.433  -4.066  -5.602  1.00  0.00     0.148 A 
ATOM     68  C   UNL     1     -12.005  -3.085  -6.040  1.00  0.00     0.002 A 
ATOM     69  C   UNL     1      -9.922  -3.946  -6.894  1.00  0.00     0.091 A 
ATOM     70  F   UNL     1      -8.297  -4.745  -5.402  1.00  0.00    -0.205 F 
ATOM     71  C   UNL     1     -11.219  -3.479  -7.118  1.00  0.00     0.022 A 
BRANCH  69  72
ATOM     72  S   UNL     1      -8.913  -4.386  -8.310  1.00  0.00     0.127 S 
ATOM     73  O   UNL     1      -9.456  -5.694  -8.663  1.00  0.00    -0.237 OA
ATOM     74  O   UNL     1      -9.223  -3.309  -9.250  1.00  0.00    -0.237 OA
ATOM     75  O   UNL     1      -7.540  -4.369  -7.820  1.00  0.00    -0.744 OA
ENDBRANCH  69  72
ENDBRANCH  51  65
BRANCH  52  76
ATOM     76  C   UNL     1      -7.203 -11.418  -3.512  1.00  0.00     0.023 A 
ATOM     77  C   UNL     1      -8.164 -12.197  -4.196  1.00  0.00     0.012 A 
ATOM     78  C   UNL     1      -5.847 -11.612  -3.852  1.00  0.00     0.148 A 
ATOM     79  C   UNL     1      -7.796 -13.083  -5.218  1.00  0.00     0.002 A 
ATOM     80  C   UNL     1      -5.483 -12.510  -4.856  1.00  0.00     0.091 A 
ATOM     81  F   UNL     1      -4.911 -10.853  -3.270  1.00  0.00    -0.205 F 
ATOM     82  C   UNL     1      -6.456 -13.234  -5.554  1.00  0.00     0.022 A 
BRANCH  80  83
ATOM     83  S   UNL     1      -3.761 -12.747  -5.318  1.00  0.00     0.127 S 
ATOM     84  O   UNL     1      -3.708 -14.179  -5.614  1.00  0.00    -0.237 OA
ATOM     85  O   UNL     1      -3.633 -11.876  -6.483  1.00  0.00    -0.237 OA
ATOM     86  O   UNL     1      -2.988 -12.358  -4.143  1.00  0.00    -0.744 OA
ENDBRANCH  80  83
ENDBRANCH  52  76
BRANCH  64  87
ATOM     87  C   UNL     1     -11.269  -8.320   0.210  1.00  0.00     0.023 A 
ATOM     88  C   UNL     1     -10.145  -8.706   0.968  1.00  0.00     0.012 A 
ATOM     89  C   UNL     1     -12.534  -8.293   0.826  1.00  0.00     0.148 A 
ATOM     90  C   UNL     1     -10.281  -9.057   2.314  1.00  0.00     0.002 A 
ATOM     91  C   UNL     1     -12.657  -8.597   2.176  1.00  0.00     0.091 A 
ATOM     92  F   UNL     1     -13.588  -7.911   0.088  1.00  0.00    -0.205 F 
ATOM     93  C   UNL     1     -11.533  -8.985   2.922  1.00  0.00     0.022 A 
BRANCH  91  94
ATOM     94  S   UNL     1     -14.207  -8.397   3.060  1.00  0.00     0.127 S 
ATOM     95  O   UNL     1     -14.511  -9.770   3.460  1.00  0.00    -0.237 OA
ATOM     96  O   UNL     1     -13.822  -7.512   4.160  1.00  0.00    -0.237 OA
ATOM     97  O   UNL     1     -15.146  -7.808   2.114  1.00  0.00    -0.744 OA
ENDBRANCH  91  94
ENDBRANCH  64  87
ENDBRANCH  38  39
ENDBRANCH  31  33
ENDBRANCH  30  31
ENDBRANCH  29  30
ENDBRANCH   1  29
TORSDOF 19
