REMARK SMILES COc1c(N)cc(-c2ccccc2)cc1C(=O)OCCOC(=O)c1ccc(-c2c3nc(c(-c4cccc(S(=O)(=O)[O-])c4F)c4ccc([nH]4)c(-c4cccc(S(=O)(=O)[O-])c4F)c4nc(c(-c5cccc(S(=O)(=O)[O-])c5F)c5ccc2[nH]5)C=C4)C=C3)cc1
REMARK SMILES IDX 20 1 19 2 18 3 16 4 17 5 15 6 3 7 4 8 6 9 14 10 7 11 2 12
REMARK SMILES IDX 1 13 5 14 8 17 9 18 13 19 10 20 12 21 11 22 21 23 22 24
REMARK SMILES IDX 23 25 24 26 25 27 86 28 26 29 85 30 27 31 28 32 29 33 79 34
REMARK SMILES IDX 30 35 84 36 78 37 80 38 31 39 83 40 77 41 76 42 32 44 64 45
REMARK SMILES IDX 44 46 63 47 45 48 48 49 62 50 81 51 46 52 47 53 61 55 82 56
REMARK SMILES IDX 49 57 33 58 34 59 42 60 35 61 37 62 43 63 36 64 38 65 39 66
REMARK SMILES IDX 40 67 41 68 65 69 66 70 74 71 67 72 69 73 75 74 68 75 70 76
REMARK SMILES IDX 71 77 72 78 73 79 50 80 51 81 59 82 52 83 54 84 60 85 53 86
REMARK SMILES IDX 55 87 56 88 57 89 58 90
REMARK H PARENT 5 15 5 16 80 43 48 54
REMARK Flexibility Score: inf
ROOT
ATOM      1  C   UNL     1      -3.870   1.308  -1.422  1.00  0.00     0.275 C 
ENDROOT
BRANCH   1   2
ATOM      2  C   UNL     1      -2.783   0.544  -2.174  1.00  0.00     0.275 C 
BRANCH   2   3
ATOM      3  O   UNL     1      -1.470   1.009  -1.797  1.00  0.00    -0.458 OA
BRANCH   3   4
ATOM      4  C   UNL     1      -0.797   1.710  -2.742  1.00  0.00     0.342 C 
ATOM      5  O   UNL     1      -1.218   2.026  -3.845  1.00  0.00    -0.246 OA
BRANCH   4   6
ATOM      6  C   UNL     1       0.511   2.185  -2.242  1.00  0.00     0.104 A 
ATOM      7  C   UNL     1       1.436   1.362  -1.595  1.00  0.00     0.156 A 
ATOM      8  C   UNL     1       2.720   1.855  -1.287  1.00  0.00     0.076 A 
ATOM      9  C   UNL     1       2.986   3.222  -1.455  1.00  0.00     0.038 A 
ATOM     10  C   UNL     1       0.847   3.521  -2.501  1.00  0.00     0.028 A 
ATOM     11  C   UNL     1       2.053   4.074  -2.059  1.00  0.00    -0.015 A 
BRANCH   7  12
ATOM     12  O   UNL     1       1.148   0.037  -1.364  1.00  0.00    -0.494 OA
ATOM     13  C   UNL     1       0.799  -0.150   0.012  1.00  0.00     0.278 C 
ENDBRANCH   7  12
BRANCH   8  14
ATOM     14  N   UNL     1       3.687   1.034  -0.704  1.00  0.00    -0.396 N 
ATOM     15  H   UNL     1       3.509   0.073  -0.582  1.00  0.00     0.156 HD
ATOM     16  H   UNL     1       4.548   1.415  -0.414  1.00  0.00     0.156 HD
ENDBRANCH   8  14
BRANCH  11  17
ATOM     17  C   UNL     1       2.312   5.507  -2.247  1.00  0.00    -0.018 A 
ATOM     18  C   UNL     1       3.264   5.955  -3.174  1.00  0.00     0.009 A 
ATOM     19  C   UNL     1       1.573   6.466  -1.533  1.00  0.00     0.009 A 
ATOM     20  C   UNL     1       3.467   7.321  -3.386  1.00  0.00     0.001 A 
ATOM     21  C   UNL     1       1.776   7.832  -1.743  1.00  0.00     0.001 A 
ATOM     22  C   UNL     1       2.723   8.258  -2.671  1.00  0.00     0.000 A 
ENDBRANCH  11  17
ENDBRANCH   4   6
ENDBRANCH   3   4
ENDBRANCH   2   3
ENDBRANCH   1   2
BRANCH   1  23
ATOM     23  O   UNL     1      -3.869   2.686  -1.827  1.00  0.00    -0.458 OA
BRANCH  23  24
ATOM     24  C   UNL     1      -3.499   3.573  -0.876  1.00  0.00     0.338 C 
ATOM     25  O   UNL     1      -3.225   3.344   0.289  1.00  0.00    -0.246 OA
BRANCH  24  26
ATOM     26  C   UNL     1      -3.421   4.918  -1.464  1.00  0.00     0.060 A 
ATOM     27  C   UNL     1      -2.427   5.186  -2.400  1.00  0.00     0.016 A 
ATOM     28  C   UNL     1      -4.228   5.946  -0.985  1.00  0.00     0.016 A 
ATOM     29  C   UNL     1      -2.148   6.501  -2.769  1.00  0.00     0.010 A 
ATOM     30  C   UNL     1      -4.024   7.250  -1.450  1.00  0.00     0.010 A 
ATOM     31  C   UNL     1      -2.949   7.554  -2.307  1.00  0.00    -0.014 A 
BRANCH  31  32
ATOM     32  C   UNL     1      -2.661   8.970  -2.685  1.00  0.00     0.031 A 
ATOM     33  C   UNL     1      -2.473  10.017  -1.613  1.00  0.00     0.074 A 
ATOM     34  C   UNL     1      -2.602   9.339  -3.981  1.00  0.00     0.049 A 
ATOM     35  N   UNL     1      -2.437  11.320  -1.724  1.00  0.00    -0.248 NA
ATOM     36  C   UNL     1      -2.329   9.533  -0.230  1.00  0.00     0.031 C 
ATOM     37  C   UNL     1      -2.753   8.442  -5.127  1.00  0.00     0.029 A 
ATOM     38  N   UNL     1      -2.420  10.576  -4.554  1.00  0.00    -0.354 N 
ATOM     39  C   UNL     1      -2.360  11.813  -0.426  1.00  0.00     0.074 A 
ATOM     40  C   UNL     1      -2.337  10.667   0.458  1.00  0.00     0.031 C 
ATOM     41  C   UNL     1      -2.644   9.149  -6.261  1.00  0.00     0.029 A 
ATOM     42  C   UNL     1      -2.500  10.561  -5.928  1.00  0.00     0.049 A 
ATOM     43  H   UNL     1      -2.249  11.393  -4.032  1.00  0.00     0.167 HD
ATOM     44  C   UNL     1      -2.305  13.101  -0.007  1.00  0.00     0.034 A 
ATOM     45  C   UNL     1      -2.506  11.568  -6.825  1.00  0.00     0.034 A 
ATOM     46  C   UNL     1      -2.236  14.236  -0.889  1.00  0.00     0.049 A 
ATOM     47  C   UNL     1      -2.404  12.986  -6.338  1.00  0.00     0.074 A 
ATOM     48  C   UNL     1      -2.127  15.576  -0.559  1.00  0.00     0.029 A 
ATOM     49  N   UNL     1      -2.250  14.166  -2.273  1.00  0.00    -0.354 N 
ATOM     50  N   UNL     1      -2.293  13.429  -5.109  1.00  0.00    -0.248 NA
ATOM     51  C   UNL     1      -2.416  14.042  -7.360  1.00  0.00     0.031 C 
ATOM     52  C   UNL     1      -2.075  16.316  -1.745  1.00  0.00     0.029 A 
ATOM     53  C   UNL     1      -2.142  15.436  -2.813  1.00  0.00     0.049 A 
ATOM     54  H   UNL     1      -2.325  13.335  -2.796  1.00  0.00     0.167 HD
ATOM     55  C   UNL     1      -2.206  14.812  -5.210  1.00  0.00     0.074 A 
ATOM     56  C   UNL     1      -2.246  15.132  -6.623  1.00  0.00     0.031 C 
ATOM     57  C   UNL     1      -2.126  15.736  -4.222  1.00  0.00     0.034 A 
BRANCH  44  58
ATOM     58  C   UNL     1      -2.285  13.357   1.479  1.00  0.00     0.023 A 
ATOM     59  C   UNL     1      -1.113  13.098   2.218  1.00  0.00     0.012 A 
ATOM     60  C   UNL     1      -3.405  13.909   2.132  1.00  0.00     0.148 A 
ATOM     61  C   UNL     1      -1.068  13.353   3.589  1.00  0.00     0.002 A 
ATOM     62  C   UNL     1      -3.338  14.199   3.491  1.00  0.00     0.091 A 
ATOM     63  F   UNL     1      -4.520  14.128   1.419  1.00  0.00    -0.205 F 
ATOM     64  C   UNL     1      -2.175  13.913   4.222  1.00  0.00     0.022 A 
BRANCH  62  65
ATOM     65  S   UNL     1      -4.687  14.994   4.373  1.00  0.00     0.127 S 
ATOM     66  O   UNL     1      -5.264  13.870   5.108  1.00  0.00    -0.237 OA
ATOM     67  O   UNL     1      -3.983  15.969   5.208  1.00  0.00    -0.237 OA
ATOM     68  O   UNL     1      -5.539  15.582   3.349  1.00  0.00    -0.744 OA
ENDBRANCH  62  65
ENDBRANCH  44  58
BRANCH  45  69
ATOM     69  C   UNL     1      -2.598  11.257  -8.280  1.00  0.00     0.023 A 
ATOM     70  C   UNL     1      -1.477  11.467  -9.105  1.00  0.00     0.012 A 
ATOM     71  C   UNL     1      -3.765  10.697  -8.838  1.00  0.00     0.148 A 
ATOM     72  C   UNL     1      -1.520  11.139 -10.460  1.00  0.00     0.002 A 
ATOM     73  C   UNL     1      -3.780  10.314 -10.174  1.00  0.00     0.091 A 
ATOM     74  F   UNL     1      -4.833  10.529  -8.045  1.00  0.00    -0.205 F 
ATOM     75  C   UNL     1      -2.664  10.548 -10.991  1.00  0.00     0.022 A 
BRANCH  73  76
ATOM     76  S   UNL     1      -5.156   9.408 -10.891  1.00  0.00     0.127 S 
ATOM     77  O   UNL     1      -5.818  10.443 -11.680  1.00  0.00    -0.237 OA
ATOM     78  O   UNL     1      -4.471   8.380 -11.675  1.00  0.00    -0.237 OA
ATOM     79  O   UNL     1      -5.910   8.888  -9.758  1.00  0.00    -0.744 OA
ENDBRANCH  73  76
ENDBRANCH  45  69
BRANCH  57  80
ATOM     80  C   UNL     1      -2.048  17.183  -4.628  1.00  0.00     0.023 A 
ATOM     81  C   UNL     1      -3.206  17.839  -5.086  1.00  0.00     0.012 A 
ATOM     82  C   UNL     1      -0.848  17.908  -4.491  1.00  0.00     0.148 A 
ATOM     83  C   UNL     1      -3.166  19.190  -5.429  1.00  0.00     0.002 A 
ATOM     84  C   UNL     1      -0.825  19.264  -4.795  1.00  0.00     0.091 A 
ATOM     85  F   UNL     1       0.249  17.258  -4.074  1.00  0.00    -0.205 F 
ATOM     86  C   UNL     1      -1.980  19.904  -5.272  1.00  0.00     0.022 A 
BRANCH  84  87
ATOM     87  S   UNL     1       0.637  20.277  -4.542  1.00  0.00     0.127 S 
ATOM     88  O   UNL     1       1.131  20.434  -5.908  1.00  0.00    -0.237 OA
ATOM     89  O   UNL     1       0.077  21.494  -3.952  1.00  0.00    -0.237 OA
ATOM     90  O   UNL     1       1.497  19.516  -3.646  1.00  0.00    -0.744 OA
ENDBRANCH  84  87
ENDBRANCH  57  80
ENDBRANCH  31  32
ENDBRANCH  24  26
ENDBRANCH  23  24
ENDBRANCH   1  23
TORSDOF 17
