REMARK SMILES CC(C)C[C@H](CNc1cccc(F)c1C#N)CC(=O)OCCOC(=O)c1ccc(-c2c3nc(c(-c4cccc(S(=O)(=O)[O-])c4F)c4ccc([nH]4)c(-c4cccc(S(=O)(=O)[O-])c4F)c4nc(c(-c5cccc(S(=O)(=O)[O-])c5F)c5ccc2[nH]5)C=C4)C=C3)cc1
REMARK SMILES IDX 21 1 20 2 18 3 19 4 17 5 5 6 4 7 2 8 1 9 3 10 6 11 7 12 8 14
REMARK SMILES IDX 9 15 14 16 10 17 12 18 11 19 13 20 15 21 16 22 22 23 23 24
REMARK SMILES IDX 24 25 25 26 26 27 27 28 88 29 28 30 87 31 29 32 30 33 31 34
REMARK SMILES IDX 81 35 32 36 86 37 80 38 82 39 33 40 85 41 79 42 78 43 34 45
REMARK SMILES IDX 66 46 46 47 65 48 47 49 50 50 64 51 83 52 48 53 49 54 63 56
REMARK SMILES IDX 84 57 51 58 35 59 36 60 44 61 37 62 39 63 45 64 38 65 40 66
REMARK SMILES IDX 41 67 42 68 43 69 67 70 68 71 76 72 69 73 71 74 77 75 70 76
REMARK SMILES IDX 72 77 73 78 74 79 75 80 52 81 53 82 61 83 54 84 56 85 62 86
REMARK SMILES IDX 55 87 57 88 58 89 59 90 60 91
REMARK H PARENT 7 13 82 44 50 55
REMARK Flexibility Score: inf
ROOT
ATOM      1  C   UNL     1      -3.946  -0.149  -2.230  1.00  0.00     0.274 C 
ENDROOT
BRANCH   1   2
ATOM      2  O   UNL     1      -3.287   0.564  -1.163  1.00  0.00    -0.462 OA
BRANCH   2   3
ATOM      3  C   UNL     1      -3.988   0.760  -0.021  1.00  0.00     0.306 C 
ATOM      4  O   UNL     1      -5.140   0.384   0.160  1.00  0.00    -0.252 OA
BRANCH   3   5
ATOM      5  C   UNL     1      -3.226   1.576   1.012  1.00  0.00     0.128 C 
BRANCH   5   6
ATOM      6  C   UNL     1      -1.806   1.080   1.351  1.00  0.00     0.019 C 
BRANCH   6   7
ATOM      7  C   UNL     1      -1.277   1.580   2.731  1.00  0.00     0.009 C 
BRANCH   7   8
ATOM      8  C   UNL     1      -2.079   1.214   3.995  1.00  0.00    -0.017 C 
ATOM      9  C   UNL     1      -2.030  -0.276   4.312  1.00  0.00     0.007 C 
ATOM     10  C   UNL     1      -1.530   1.991   5.198  1.00  0.00     0.007 C 
ENDBRANCH   7   8
ENDBRANCH   6   7
BRANCH   6  11
ATOM     11  C   UNL     1      -0.780   1.453   0.249  1.00  0.00     0.117 C 
BRANCH  11  12
ATOM     12  N   UNL     1      -0.493   2.892   0.226  1.00  0.00    -0.384 N 
ATOM     13  H   UNL     1      -1.208   3.558   0.342  1.00  0.00     0.160 HD
BRANCH  12  14
ATOM     14  C   UNL     1       0.835   3.281   0.034  1.00  0.00     0.055 A 
ATOM     15  C   UNL     1       1.506   3.885   1.114  1.00  0.00     0.027 A 
ATOM     16  C   UNL     1       1.569   2.991  -1.131  1.00  0.00     0.111 A 
ATOM     17  C   UNL     1       2.868   4.189   1.046  1.00  0.00     0.005 A 
ATOM     18  C   UNL     1       2.928   3.307  -1.188  1.00  0.00     0.143 A 
ATOM     19  C   UNL     1       3.582   3.895  -0.109  1.00  0.00     0.041 A 
ATOM     20  F   UNL     1       3.639   3.047  -2.295  1.00  0.00    -0.205 F 
BRANCH  16  21
ATOM     21  C   UNL     1       0.950   2.426  -2.296  1.00  0.00     0.104 C 
ATOM     22  N   UNL     1       0.461   1.981  -3.247  1.00  0.00    -0.192 NA
ENDBRANCH  16  21
ENDBRANCH  12  14
ENDBRANCH  11  12
ENDBRANCH   6  11
ENDBRANCH   5   6
ENDBRANCH   3   5
ENDBRANCH   2   3
ENDBRANCH   1   2
BRANCH   1  23
ATOM     23  C   UNL     1      -3.469  -1.601  -2.324  1.00  0.00     0.275 C 
BRANCH  23  24
ATOM     24  O   UNL     1      -3.945  -2.381  -1.213  1.00  0.00    -0.458 OA
BRANCH  24  25
ATOM     25  C   UNL     1      -3.076  -2.481  -0.184  1.00  0.00     0.338 C 
ATOM     26  O   UNL     1      -1.944  -2.026  -0.128  1.00  0.00    -0.246 OA
BRANCH  25  27
ATOM     27  C   UNL     1      -3.718  -3.124   0.970  1.00  0.00     0.060 A 
ATOM     28  C   UNL     1      -4.015  -2.321   2.068  1.00  0.00     0.016 A 
ATOM     29  C   UNL     1      -3.858  -4.509   1.049  1.00  0.00     0.016 A 
ATOM     30  C   UNL     1      -4.344  -2.904   3.288  1.00  0.00     0.010 A 
ATOM     31  C   UNL     1      -4.250  -5.089   2.264  1.00  0.00     0.010 A 
ATOM     32  C   UNL     1      -4.442  -4.296   3.410  1.00  0.00    -0.014 A 
BRANCH  32  33
ATOM     33  C   UNL     1      -4.679  -4.898   4.752  1.00  0.00     0.031 A 
ATOM     34  C   UNL     1      -3.636  -5.783   5.389  1.00  0.00     0.074 A 
ATOM     35  C   UNL     1      -5.816  -4.622   5.422  1.00  0.00     0.049 A 
ATOM     36  N   UNL     1      -3.678  -6.418   6.533  1.00  0.00    -0.248 NA
ATOM     37  C   UNL     1      -2.385  -5.987   4.641  1.00  0.00     0.031 C 
ATOM     38  C   UNL     1      -6.904  -3.778   4.926  1.00  0.00     0.029 A 
ATOM     39  N   UNL     1      -6.247  -5.026   6.661  1.00  0.00    -0.354 N 
ATOM     40  C   UNL     1      -2.491  -7.139   6.617  1.00  0.00     0.074 A 
ATOM     41  C   UNL     1      -1.750  -6.866   5.404  1.00  0.00     0.031 C 
ATOM     42  C   UNL     1      -7.873  -3.721   5.851  1.00  0.00     0.029 A 
ATOM     43  C   UNL     1      -7.502  -4.564   6.983  1.00  0.00     0.049 A 
ATOM     44  H   UNL     1      -5.710  -5.592   7.261  1.00  0.00     0.167 HD
ATOM     45  C   UNL     1      -2.049  -7.943   7.616  1.00  0.00     0.034 A 
ATOM     46  C   UNL     1      -8.280  -4.809   8.055  1.00  0.00     0.034 A 
ATOM     47  C   UNL     1      -2.762  -8.174   8.845  1.00  0.00     0.049 A 
ATOM     48  C   UNL     1      -7.760  -5.696   9.153  1.00  0.00     0.074 A 
ATOM     49  C   UNL     1      -2.371  -8.931   9.937  1.00  0.00     0.029 A 
ATOM     50  N   UNL     1      -4.010  -7.654   9.150  1.00  0.00    -0.354 N 
ATOM     51  N   UNL     1      -6.598  -6.295   9.251  1.00  0.00    -0.248 NA
ATOM     52  C   UNL     1      -8.649  -5.915  10.303  1.00  0.00     0.031 C 
ATOM     53  C   UNL     1      -3.394  -8.889  10.890  1.00  0.00     0.029 A 
ATOM     54  C   UNL     1      -4.408  -8.079  10.408  1.00  0.00     0.049 A 
ATOM     55  H   UNL     1      -4.537  -7.069   8.559  1.00  0.00     0.167 HD
ATOM     56  C   UNL     1      -6.604  -6.937  10.485  1.00  0.00     0.074 A 
ATOM     57  C   UNL     1      -7.873  -6.627  11.110  1.00  0.00     0.031 C 
ATOM     58  C   UNL     1      -5.653  -7.726  11.042  1.00  0.00     0.034 A 
BRANCH  45  59
ATOM     59  C   UNL     1      -0.714  -8.622   7.433  1.00  0.00     0.023 A 
ATOM     60  C   UNL     1       0.474  -7.868   7.506  1.00  0.00     0.012 A 
ATOM     61  C   UNL     1      -0.635 -10.017   7.247  1.00  0.00     0.148 A 
ATOM     62  C   UNL     1       1.718  -8.484   7.362  1.00  0.00     0.002 A 
ATOM     63  C   UNL     1       0.609 -10.631   7.150  1.00  0.00     0.091 A 
ATOM     64  F   UNL     1      -1.775 -10.717   7.162  1.00  0.00    -0.205 F 
ATOM     65  C   UNL     1       1.785  -9.865   7.195  1.00  0.00     0.022 A 
BRANCH  63  66
ATOM     66  S   UNL     1       0.804 -12.412   7.016  1.00  0.00     0.127 S 
ATOM     67  O   UNL     1       1.262 -12.555   5.634  1.00  0.00    -0.237 OA
ATOM     68  O   UNL     1       1.826 -12.687   8.027  1.00  0.00    -0.237 OA
ATOM     69  O   UNL     1      -0.504 -12.983   7.304  1.00  0.00    -0.744 OA
ENDBRANCH  63  66
ENDBRANCH  45  59
BRANCH  46  70
ATOM     70  C   UNL     1      -9.628  -4.181   8.154  1.00  0.00     0.023 A 
ATOM     71  C   UNL     1      -9.868  -3.197   9.132  1.00  0.00     0.012 A 
ATOM     72  C   UNL     1     -10.665  -4.539   7.271  1.00  0.00     0.148 A 
ATOM     73  C   UNL     1     -11.125  -2.602   9.249  1.00  0.00     0.002 A 
ATOM     74  C   UNL     1     -11.896  -3.899   7.352  1.00  0.00     0.091 A 
ATOM     75  F   UNL     1     -10.423  -5.491   6.359  1.00  0.00    -0.205 F 
ATOM     76  C   UNL     1     -12.134  -2.944   8.352  1.00  0.00     0.022 A 
BRANCH  74  77
ATOM     77  S   UNL     1     -13.206  -4.178   6.156  1.00  0.00     0.127 S 
ATOM     78  O   UNL     1     -14.186  -4.911   6.952  1.00  0.00    -0.237 OA
ATOM     79  O   UNL     1     -13.592  -2.810   5.808  1.00  0.00    -0.237 OA
ATOM     80  O   UNL     1     -12.590  -4.923   5.066  1.00  0.00    -0.744 OA
ENDBRANCH  74  77
ENDBRANCH  46  70
BRANCH  58  81
ATOM     81  C   UNL     1      -5.930  -8.282  12.416  1.00  0.00     0.023 A 
ATOM     82  C   UNL     1      -6.906  -9.284  12.587  1.00  0.00     0.012 A 
ATOM     83  C   UNL     1      -5.194  -7.839  13.533  1.00  0.00     0.148 A 
ATOM     84  C   UNL     1      -7.178  -9.802  13.853  1.00  0.00     0.002 A 
ATOM     85  C   UNL     1      -5.435  -8.397  14.783  1.00  0.00     0.091 A 
ATOM     86  F   UNL     1      -4.283  -6.871  13.358  1.00  0.00    -0.205 F 
ATOM     87  C   UNL     1      -6.437  -9.367  14.948  1.00  0.00     0.022 A 
BRANCH  85  88
ATOM     88  S   UNL     1      -4.460  -7.964  16.229  1.00  0.00     0.127 S 
ATOM     89  O   UNL     1      -5.380  -7.095  16.960  1.00  0.00    -0.237 OA
ATOM     90  O   UNL     1      -4.229  -9.268  16.852  1.00  0.00    -0.237 OA
ATOM     91  O   UNL     1      -3.257  -7.320  15.720  1.00  0.00    -0.744 OA
ENDBRANCH  85  88
ENDBRANCH  58  81
ENDBRANCH  32  33
ENDBRANCH  25  27
ENDBRANCH  24  25
ENDBRANCH  23  24
ENDBRANCH   1  23
TORSDOF 21
