REMARK SMILES CO[C@@]1(C(=O)OCCOC(=O)c2ccc(-c3c4nc(c(-c5cccc(S(=O)(=O)[O-])c5F)c5ccc([nH]5)c(-c5cccc(S(=O)(=O)[O-])c5F)c5nc(c(-c6cccc(S(=O)(=O)[O-])c6F)c6ccc3[nH]6)C=C5)C=C4)cc2)CC(c2ccccc2)=CC=C1C
REMARK SMILES IDX 8 1 7 2 6 3 4 4 5 5 3 6 75 7 85 8 76 9 84 10 86 11 83 12
REMARK SMILES IDX 2 13 1 14 77 15 78 16 82 17 79 18 81 19 80 20 9 21 10 22
REMARK SMILES IDX 11 23 12 24 13 25 74 26 14 27 73 28 15 29 16 30 17 31 67 32
REMARK SMILES IDX 18 33 72 34 66 35 68 36 19 37 71 38 65 39 64 40 20 42 52 43
REMARK SMILES IDX 32 44 51 45 33 46 36 47 50 48 69 49 34 50 35 51 49 53 70 54
REMARK SMILES IDX 37 55 21 56 22 57 30 58 23 59 25 60 31 61 24 62 26 63 27 64
REMARK SMILES IDX 28 65 29 66 53 67 54 68 62 69 55 70 57 71 63 72 56 73 58 74
REMARK SMILES IDX 59 75 60 76 61 77 38 78 39 79 47 80 40 81 42 82 48 83 41 84
REMARK SMILES IDX 43 85 44 86 45 87 46 88
REMARK H PARENT 68 41 36 52
REMARK Flexibility Score: inf
ROOT
ATOM      1  C   UNL     1      -0.211  -2.882  -1.166  1.00  0.00     0.275 C 
ENDROOT
BRANCH   1   2
ATOM      2  C   UNL     1      -1.072  -1.696  -1.581  1.00  0.00     0.274 C 
BRANCH   2   3
ATOM      3  O   UNL     1      -0.208  -0.665  -2.087  1.00  0.00    -0.460 OA
BRANCH   3   4
ATOM      4  C   UNL     1      -0.374   0.596  -1.585  1.00  0.00     0.343 C 
ATOM      5  O   UNL     1      -1.284   0.913  -0.826  1.00  0.00    -0.248 OA
BRANCH   4   6
ATOM      6  C   UNL     1       0.716   1.577  -2.135  1.00  0.00     0.190 C 
ATOM      7  C   UNL     1       1.298   2.326  -0.885  1.00  0.00     0.088 C 
ATOM      8  C   UNL     1      -0.015   2.479  -3.134  1.00  0.00    -0.030 C 
ATOM      9  C   UNL     1       1.092   3.822  -0.844  1.00  0.00    -0.037 C 
ATOM     10  C   UNL     1      -0.123   3.807  -2.950  1.00  0.00     0.003 C 
ATOM     11  C   UNL     1      -0.649   1.818  -4.329  1.00  0.00     0.043 C 
ATOM     12  C   UNL     1       0.432   4.484  -1.806  1.00  0.00     0.004 C 
BRANCH   6  13
ATOM     13  O   UNL     1       1.677   0.808  -2.889  1.00  0.00    -0.362 OA
ATOM     14  C   UNL     1       3.040   1.179  -2.865  1.00  0.00     0.197 C 
ENDBRANCH   6  13
BRANCH   9  15
ATOM     15  C   UNL     1       1.647   4.525   0.328  1.00  0.00    -0.022 A 
ATOM     16  C   UNL     1       0.799   5.172   1.236  1.00  0.00     0.008 A 
ATOM     17  C   UNL     1       3.024   4.496   0.588  1.00  0.00     0.008 A 
ATOM     18  C   UNL     1       1.318   5.761   2.392  1.00  0.00     0.001 A 
ATOM     19  C   UNL     1       3.541   5.083   1.745  1.00  0.00     0.001 A 
ATOM     20  C   UNL     1       2.687   5.711   2.648  1.00  0.00     0.000 A 
ENDBRANCH   9  15
ENDBRANCH   4   6
ENDBRANCH   3   4
ENDBRANCH   2   3
ENDBRANCH   1   2
BRANCH   1  21
ATOM     21  O   UNL     1       0.695  -2.447  -0.136  1.00  0.00    -0.458 OA
BRANCH  21  22
ATOM     22  C   UNL     1       2.009  -2.636  -0.397  1.00  0.00     0.338 C 
ATOM     23  O   UNL     1       2.507  -3.228  -1.338  1.00  0.00    -0.246 OA
BRANCH  22  24
ATOM     24  C   UNL     1       2.806  -1.971   0.644  1.00  0.00     0.060 A 
ATOM     25  C   UNL     1       2.848  -0.578   0.681  1.00  0.00     0.016 A 
ATOM     26  C   UNL     1       3.618  -2.724   1.487  1.00  0.00     0.016 A 
ATOM     27  C   UNL     1       3.765   0.076   1.506  1.00  0.00     0.010 A 
ATOM     28  C   UNL     1       4.493  -2.068   2.358  1.00  0.00     0.010 A 
ATOM     29  C   UNL     1       4.615  -0.665   2.338  1.00  0.00    -0.014 A 
BRANCH  29  30
ATOM     30  C   UNL     1       5.708  -0.004   3.105  1.00  0.00     0.031 A 
ATOM     31  C   UNL     1       7.145  -0.341   2.791  1.00  0.00     0.074 A 
ATOM     32  C   UNL     1       5.435   0.880   4.085  1.00  0.00     0.049 A 
ATOM     33  N   UNL     1       8.236  -0.006   3.432  1.00  0.00    -0.248 NA
ATOM     34  C   UNL     1       7.385  -1.177   1.602  1.00  0.00     0.031 C 
ATOM     35  C   UNL     1       4.099   1.316   4.487  1.00  0.00     0.029 A 
ATOM     36  N   UNL     1       6.277   1.556   4.936  1.00  0.00    -0.354 N 
ATOM     37  C   UNL     1       9.278  -0.647   2.771  1.00  0.00     0.074 A 
ATOM     38  C   UNL     1       8.692  -1.384   1.673  1.00  0.00     0.031 C 
ATOM     39  C   UNL     1       4.208   2.182   5.507  1.00  0.00     0.029 A 
ATOM     40  C   UNL     1       5.617   2.326   5.865  1.00  0.00     0.049 A 
ATOM     41  H   UNL     1       7.258   1.494   4.885  1.00  0.00     0.167 HD
ATOM     42  C   UNL     1      10.605  -0.616   3.040  1.00  0.00     0.034 A 
ATOM     43  C   UNL     1       6.089   3.046   6.903  1.00  0.00     0.034 A 
ATOM     44  C   UNL     1      11.204   0.178   4.078  1.00  0.00     0.049 A 
ATOM     45  C   UNL     1       7.572   3.094   7.158  1.00  0.00     0.074 A 
ATOM     46  C   UNL     1      12.544   0.297   4.406  1.00  0.00     0.029 A 
ATOM     47  N   UNL     1      10.506   1.005   4.943  1.00  0.00    -0.354 N 
ATOM     48  N   UNL     1       8.545   2.527   6.488  1.00  0.00    -0.248 NA
ATOM     49  C   UNL     1       8.024   3.904   8.300  1.00  0.00     0.031 C 
ATOM     50  C   UNL     1      12.656   1.206   5.465  1.00  0.00     0.029 A 
ATOM     51  C   UNL     1      11.386   1.651   5.795  1.00  0.00     0.049 A 
ATOM     52  H   UNL     1       9.528   1.117   4.950  1.00  0.00     0.167 HD
ATOM     53  C   UNL     1       9.722   2.931   7.108  1.00  0.00     0.074 A 
ATOM     54  C   UNL     1       9.343   3.813   8.192  1.00  0.00     0.031 C 
ATOM     55  C   UNL     1      11.001   2.583   6.822  1.00  0.00     0.034 A 
BRANCH  42  56
ATOM     56  C   UNL     1      11.511  -1.438   2.164  1.00  0.00     0.023 A 
ATOM     57  C   UNL     1      11.828  -0.981   0.869  1.00  0.00     0.012 A 
ATOM     58  C   UNL     1      12.083  -2.636   2.634  1.00  0.00     0.148 A 
ATOM     59  C   UNL     1      12.678  -1.718   0.045  1.00  0.00     0.002 A 
ATOM     60  C   UNL     1      12.959  -3.347   1.820  1.00  0.00     0.091 A 
ATOM     61  F   UNL     1      11.748  -3.071   3.857  1.00  0.00    -0.205 F 
ATOM     62  C   UNL     1      13.251  -2.894   0.523  1.00  0.00     0.022 A 
BRANCH  60  63
ATOM     63  S   UNL     1      13.794  -4.834   2.386  1.00  0.00     0.127 S 
ATOM     64  O   UNL     1      12.976  -5.882   1.779  1.00  0.00    -0.237 OA
ATOM     65  O   UNL     1      15.128  -4.688   1.802  1.00  0.00    -0.237 OA
ATOM     66  O   UNL     1      13.766  -4.770   3.841  1.00  0.00    -0.744 OA
ENDBRANCH  60  63
ENDBRANCH  42  56
BRANCH  43  67
ATOM     67  C   UNL     1       5.144   3.821   7.755  1.00  0.00     0.023 A 
ATOM     68  C   UNL     1       5.141   5.227   7.676  1.00  0.00     0.012 A 
ATOM     69  C   UNL     1       4.230   3.180   8.614  1.00  0.00     0.148 A 
ATOM     70  C   UNL     1       4.260   5.981   8.450  1.00  0.00     0.002 A 
ATOM     71  C   UNL     1       3.317   3.935   9.341  1.00  0.00     0.091 A 
ATOM     72  F   UNL     1       4.266   1.842   8.698  1.00  0.00    -0.205 F 
ATOM     73  C   UNL     1       3.340   5.336   9.272  1.00  0.00     0.022 A 
BRANCH  71  74
ATOM     74  S   UNL     1       2.015   3.173  10.316  1.00  0.00     0.127 S 
ATOM     75  O   UNL     1       2.540   3.302  11.672  1.00  0.00    -0.237 OA
ATOM     76  O   UNL     1       0.865   4.029  10.016  1.00  0.00    -0.237 OA
ATOM     77  O   UNL     1       1.895   1.815   9.802  1.00  0.00    -0.744 OA
ENDBRANCH  71  74
ENDBRANCH  43  67
BRANCH  55  78
ATOM     78  C   UNL     1      12.093   3.180   7.668  1.00  0.00     0.023 A 
ATOM     79  C   UNL     1      12.310   2.688   8.970  1.00  0.00     0.012 A 
ATOM     80  C   UNL     1      12.944   4.177   7.155  1.00  0.00     0.148 A 
ATOM     81  C   UNL     1      13.342   3.198   9.757  1.00  0.00     0.002 A 
ATOM     82  C   UNL     1      13.995   4.654   7.932  1.00  0.00     0.091 A 
ATOM     83  F   UNL     1      12.710   4.654   5.923  1.00  0.00    -0.205 F 
ATOM     84  C   UNL     1      14.190   4.172   9.236  1.00  0.00     0.022 A 
BRANCH  82  85
ATOM     85  S   UNL     1      15.172   5.848   7.287  1.00  0.00     0.127 S 
ATOM     86  O   UNL     1      14.596   7.113   7.736  1.00  0.00    -0.237 OA
ATOM     87  O   UNL     1      16.416   5.472   7.962  1.00  0.00    -0.237 OA
ATOM     88  O   UNL     1      15.189   5.630   5.846  1.00  0.00    -0.744 OA
ENDBRANCH  82  85
ENDBRANCH  55  78
ENDBRANCH  29  30
ENDBRANCH  22  24
ENDBRANCH  21  22
ENDBRANCH   1  21
TORSDOF 16
