REMARK SMILES O=C1Nc2c(Cl)cccc2/C1=N/c1ccc(C(=O)OCCOC(=O)c2ccc(-c3c4nc(c(-c5cccc(S(=O)(=O)[O-])c5F)c5ccc([nH]5)c(-c5cccc(S(=O)(=O)[O-])c5F)c5nc(c(-c6cccc(S(=O)(=O)[O-])c6F)c6ccc3[nH]6)C=C5)C=C4)cc2)cc1
REMARK SMILES IDX 21 1 20 2 19 3 17 4 18 5 16 6 13 7 14 8 89 9 15 10 88 11
REMARK SMILES IDX 12 12 1 13 2 14 3 15 11 16 4 17 10 19 5 20 9 21 6 22 7 23
REMARK SMILES IDX 8 24 22 25 23 26 24 27 25 28 26 29 87 30 27 31 86 32 28 33
REMARK SMILES IDX 29 34 30 35 80 36 31 37 85 38 79 39 81 40 32 41 84 42 78 43
REMARK SMILES IDX 77 44 33 46 65 47 45 48 64 49 46 50 49 51 63 52 82 53 47 54
REMARK SMILES IDX 48 55 62 57 83 58 50 59 34 60 35 61 43 62 36 63 38 64 44 65
REMARK SMILES IDX 37 66 39 67 40 68 41 69 42 70 66 71 67 72 75 73 68 74 70 75
REMARK SMILES IDX 76 76 69 77 71 78 72 79 73 80 74 81 51 82 52 83 60 84 53 85
REMARK SMILES IDX 55 86 61 87 54 88 56 89 57 90 58 91 59 92
REMARK H PARENT 3 18 81 45 49 56
REMARK Flexibility Score: inf
ROOT
ATOM      1  C   UNL     1      -5.097  -4.694  -0.545  1.00  0.00     0.275 C 
ENDROOT
BRANCH   1   2
ATOM      2  C   UNL     1      -4.869  -3.213  -0.844  1.00  0.00     0.275 C 
BRANCH   2   3
ATOM      3  O   UNL     1      -3.461  -2.939  -0.976  1.00  0.00    -0.458 OA
BRANCH   3   4
ATOM      4  C   UNL     1      -2.881  -2.288   0.062  1.00  0.00     0.338 C 
ATOM      5  O   UNL     1      -3.450  -1.838   1.044  1.00  0.00    -0.246 OA
BRANCH   4   6
ATOM      6  C   UNL     1      -1.405  -2.299  -0.084  1.00  0.00     0.060 A 
ATOM      7  C   UNL     1       1.389  -2.342  -0.242  1.00  0.00     0.064 A 
ATOM      8  C   UNL     1       0.759  -2.356   1.003  1.00  0.00     0.029 A 
ATOM      9  C   UNL     1       0.620  -2.345  -1.409  1.00  0.00     0.029 A 
ATOM     10  C   UNL     1      -0.627  -2.284   1.081  1.00  0.00     0.018 A 
ATOM     11  C   UNL     1      -0.778  -2.331  -1.334  1.00  0.00     0.018 A 
BRANCH   7  12
ATOM     12  N   UNL     1       2.784  -2.294  -0.295  1.00  0.00    -0.243 NA
ATOM     13  O   UNL     1       1.515   0.559  -0.085  1.00  0.00    -0.267 OA
ATOM     14  C   UNL     1       2.691   0.273  -0.057  1.00  0.00     0.275 C 
ATOM     15  N   UNL     1       3.750   1.147   0.044  1.00  0.00    -0.319 N 
ATOM     16  C   UNL     1       3.338  -1.129  -0.163  1.00  0.00     0.138 C 
ATOM     17  C   UNL     1       4.968   0.469   0.026  1.00  0.00     0.070 A 
ATOM     18  H   UNL     1       3.659   2.124   0.120  1.00  0.00     0.170 HD
ATOM     19  C   UNL     1       4.777  -0.905  -0.087  1.00  0.00     0.031 A 
ATOM     20  C   UNL     1       6.242   0.996   0.112  1.00  0.00     0.065 A 
ATOM     21  C   UNL     1       5.824  -1.806  -0.084  1.00  0.00     0.013 A 
ATOM     22  Cl  UNL     1       6.505   2.691   0.215  1.00  0.00    -0.082 Cl
ATOM     23  C   UNL     1       7.324   0.110   0.105  1.00  0.00     0.023 A 
ATOM     24  C   UNL     1       7.115  -1.282   0.016  1.00  0.00     0.002 A 
ENDBRANCH   7  12
ENDBRANCH   4   6
ENDBRANCH   3   4
ENDBRANCH   2   3
ENDBRANCH   1   2
BRANCH   1  25
ATOM     25  O   UNL     1      -4.678  -5.001   0.797  1.00  0.00    -0.458 OA
BRANCH  25  26
ATOM     26  C   UNL     1      -3.516  -5.683   0.904  1.00  0.00     0.338 C 
ATOM     27  O   UNL     1      -2.818  -6.110   0.001  1.00  0.00    -0.246 OA
BRANCH  26  28
ATOM     28  C   UNL     1      -3.146  -5.790   2.322  1.00  0.00     0.060 A 
ATOM     29  C   UNL     1      -2.536  -4.695   2.929  1.00  0.00     0.016 A 
ATOM     30  C   UNL     1      -3.271  -6.996   3.007  1.00  0.00     0.016 A 
ATOM     31  C   UNL     1      -1.952  -4.821   4.184  1.00  0.00     0.010 A 
ATOM     32  C   UNL     1      -2.758  -7.099   4.305  1.00  0.00     0.010 A 
ATOM     33  C   UNL     1      -2.055  -6.027   4.887  1.00  0.00    -0.014 A 
BRANCH  33  34
ATOM     34  C   UNL     1      -1.390  -6.178   6.207  1.00  0.00     0.031 A 
ATOM     35  C   UNL     1      -0.261  -7.159   6.371  1.00  0.00     0.074 A 
ATOM     36  C   UNL     1      -1.788  -5.431   7.255  1.00  0.00     0.049 A 
ATOM     37  N   UNL     1       0.368  -7.515   7.460  1.00  0.00    -0.248 NA
ATOM     38  C   UNL     1       0.229  -7.827   5.152  1.00  0.00     0.031 C 
ATOM     39  C   UNL     1      -2.841  -4.413   7.218  1.00  0.00     0.029 A 
ATOM     40  N   UNL     1      -1.361  -5.419   8.560  1.00  0.00    -0.354 N 
ATOM     41  C   UNL     1       1.290  -8.478   7.070  1.00  0.00     0.074 A 
ATOM     42  C   UNL     1       1.147  -8.650   5.641  1.00  0.00     0.031 C 
ATOM     43  C   UNL     1      -2.978  -3.879   8.441  1.00  0.00     0.029 A 
ATOM     44  C   UNL     1      -2.067  -4.553   9.360  1.00  0.00     0.049 A 
ATOM     45  H   UNL     1      -0.620  -5.978   8.890  1.00  0.00     0.167 HD
ATOM     46  C   UNL     1       2.185  -9.148   7.833  1.00  0.00     0.034 A 
ATOM     47  C   UNL     1      -2.015  -4.346  10.691  1.00  0.00     0.034 A 
ATOM     48  C   UNL     1       2.361  -8.941   9.244  1.00  0.00     0.049 A 
ATOM     49  C   UNL     1      -1.043  -5.133  11.522  1.00  0.00     0.074 A 
ATOM     50  C   UNL     1       3.264  -9.557  10.092  1.00  0.00     0.029 A 
ATOM     51  N   UNL     1       1.628  -8.053  10.012  1.00  0.00    -0.354 N 
ATOM     52  N   UNL     1      -0.157  -6.015  11.131  1.00  0.00    -0.248 NA
ATOM     53  C   UNL     1      -1.054  -4.892  12.972  1.00  0.00     0.031 C 
ATOM     54  C   UNL     1       3.065  -9.053  11.380  1.00  0.00     0.029 A 
ATOM     55  C   UNL     1       2.053  -8.109  11.328  1.00  0.00     0.049 A 
ATOM     56  H   UNL     1       0.911  -7.470   9.674  1.00  0.00     0.167 HD
ATOM     57  C   UNL     1       0.511  -6.419  12.281  1.00  0.00     0.074 A 
ATOM     58  C   UNL     1      -0.065  -5.677  13.383  1.00  0.00     0.031 C 
ATOM     59  C   UNL     1       1.504  -7.331  12.408  1.00  0.00     0.034 A 
BRANCH  46  60
ATOM     60  C   UNL     1       3.075 -10.157   7.163  1.00  0.00     0.023 A 
ATOM     61  C   UNL     1       4.204  -9.718   6.445  1.00  0.00     0.012 A 
ATOM     62  C   UNL     1       2.856 -11.537   7.341  1.00  0.00     0.148 A 
ATOM     63  C   UNL     1       5.102 -10.640   5.908  1.00  0.00     0.002 A 
ATOM     64  C   UNL     1       3.771 -12.449   6.829  1.00  0.00     0.091 A 
ATOM     65  F   UNL     1       1.768 -11.927   8.020  1.00  0.00    -0.205 F 
ATOM     66  C   UNL     1       4.892 -12.002   6.109  1.00  0.00     0.022 A 
BRANCH  64  67
ATOM     67  S   UNL     1       3.623 -14.222   7.077  1.00  0.00     0.127 S 
ATOM     68  O   UNL     1       3.450 -14.698   5.705  1.00  0.00    -0.237 OA
ATOM     69  O   UNL     1       4.913 -14.554   7.680  1.00  0.00    -0.237 OA
ATOM     70  O   UNL     1       2.470 -14.415   7.946  1.00  0.00    -0.744 OA
ENDBRANCH  64  67
ENDBRANCH  46  60
BRANCH  47  71
ATOM     71  C   UNL     1      -2.909  -3.327  11.306  1.00  0.00     0.023 A 
ATOM     72  C   UNL     1      -2.367  -2.097  11.722  1.00  0.00     0.012 A 
ATOM     73  C   UNL     1      -4.297  -3.545  11.415  1.00  0.00     0.148 A 
ATOM     74  C   UNL     1      -3.193  -1.100  12.241  1.00  0.00     0.002 A 
ATOM     75  C   UNL     1      -5.118  -2.534  11.897  1.00  0.00     0.091 A 
ATOM     76  F   UNL     1      -4.785  -4.727  11.014  1.00  0.00    -0.205 F 
ATOM     77  C   UNL     1      -4.567  -1.313  12.319  1.00  0.00     0.022 A 
BRANCH  75  78
ATOM     78  S   UNL     1      -6.908  -2.678  11.951  1.00  0.00     0.127 S 
ATOM     79  O   UNL     1      -7.172  -2.578  13.385  1.00  0.00    -0.237 OA
ATOM     80  O   UNL     1      -7.324  -1.516  11.165  1.00  0.00    -0.237 OA
ATOM     81  O   UNL     1      -7.223  -3.965  11.347  1.00  0.00    -0.744 OA
ENDBRANCH  75  78
ENDBRANCH  47  71
BRANCH  59  82
ATOM     82  C   UNL     1       2.068  -7.582  13.778  1.00  0.00     0.023 A 
ATOM     83  C   UNL     1       1.365  -8.409  14.675  1.00  0.00     0.012 A 
ATOM     84  C   UNL     1       3.354  -7.118  14.119  1.00  0.00     0.148 A 
ATOM     85  C   UNL     1       1.934  -8.768  15.896  1.00  0.00     0.002 A 
ATOM     86  C   UNL     1       3.928  -7.508  15.322  1.00  0.00     0.091 A 
ATOM     87  F   UNL     1       3.998  -6.329  13.246  1.00  0.00    -0.205 F 
ATOM     88  C   UNL     1       3.218  -8.329  16.213  1.00  0.00     0.022 A 
BRANCH  86  89
ATOM     89  S   UNL     1       5.604  -7.057  15.787  1.00  0.00     0.127 S 
ATOM     90  O   UNL     1       5.370  -6.207  16.954  1.00  0.00    -0.237 OA
ATOM     91  O   UNL     1       6.200  -8.358  16.089  1.00  0.00    -0.237 OA
ATOM     92  O   UNL     1       6.177  -6.377  14.633  1.00  0.00    -0.744 OA
ENDBRANCH  86  89
ENDBRANCH  59  82
ENDBRANCH  33  34
ENDBRANCH  26  28
ENDBRANCH  25  26
ENDBRANCH   1  25
TORSDOF 15
