REMARK SMILES CCC[NH+]1CCN(c2ccc(C(=O)OCCOC(=O)c3ccc(-c4c5nc(c(-c6cccc(S(=O)(=O)[O-])c6F)c6ccc([nH]6)c(-c6cccc(S(=O)(=O)[O-])c6F)c6nc(c(-c7cccc(S(=O)(=O)[O-])c7F)c7ccc4[nH]7)C=C6)C=C5)cc3)cc2NS(=O)(=O)CC)CC1
REMARK SMILES IDX 15 1 14 2 12 3 13 4 11 5 8 6 9 7 84 8 10 9 83 10 7 11 4 12
REMARK SMILES IDX 5 13 92 14 6 16 91 17 3 18 2 19 1 20 85 21 86 23 87 24 88 25
REMARK SMILES IDX 89 26 90 27 16 28 17 29 18 30 19 31 20 32 21 33 82 34 22 35
REMARK SMILES IDX 81 36 23 37 24 38 25 39 75 40 26 41 80 42 74 43 76 44 27 45
REMARK SMILES IDX 79 46 73 47 72 48 28 50 60 51 40 52 59 53 41 54 44 55 58 56
REMARK SMILES IDX 77 57 42 58 43 59 57 61 78 62 45 63 29 64 30 65 38 66 31 67
REMARK SMILES IDX 33 68 39 69 32 70 34 71 35 72 36 73 37 74 61 75 62 76 70 77
REMARK SMILES IDX 63 78 65 79 71 80 64 81 66 82 67 83 68 84 69 85 46 86 47 87
REMARK SMILES IDX 55 88 48 89 50 90 56 91 49 92 51 93 52 94 53 95 54 96
REMARK H PARENT 4 15 85 22 76 49 44 60
REMARK Flexibility Score: inf
ROOT
ATOM      1  C   UNL     1       3.701 -11.590   4.352  1.00  0.00     0.275 C 
ENDROOT
BRANCH   1   2
ATOM      2  O   UNL     1       3.436 -10.316   3.727  1.00  0.00    -0.458 OA
BRANCH   2   3
ATOM      3  C   UNL     1       4.231  -9.964   2.675  1.00  0.00     0.338 C 
ATOM      4  O   UNL     1       5.118 -10.615   2.174  1.00  0.00    -0.246 OA
BRANCH   3   5
ATOM      5  C   UNL     1       3.762  -8.653   2.159  1.00  0.00     0.062 A 
ATOM      6  C   UNL     1       2.507  -6.294   1.272  1.00  0.00     0.062 A 
ATOM      7  C   UNL     1       2.889  -7.282   0.362  1.00  0.00     0.029 A 
ATOM      8  C   UNL     1       2.788  -6.511   2.649  1.00  0.00     0.073 A 
ATOM      9  C   UNL     1       3.513  -8.454   0.801  1.00  0.00     0.018 A 
ATOM     10  C   UNL     1       3.481  -7.641   3.068  1.00  0.00     0.044 A 
BRANCH   6  11
ATOM     11  N   UNL     1       1.852  -5.133   0.872  1.00  0.00    -0.359 N 
ATOM     12  N   UNL     1       0.528  -2.617   0.140  1.00  0.00    -0.332 N 
ATOM     13  C   UNL     1      -0.088  -3.953  -0.053  1.00  0.00     0.283 C 
ATOM     14  C   UNL     1       1.596  -2.701   1.168  1.00  0.00     0.283 C 
ATOM     15  H   UNL     1      -0.194  -1.979   0.476  1.00  0.00     0.348 HD
ATOM     16  C   UNL     1       0.899  -5.132  -0.246  1.00  0.00     0.178 C 
ATOM     17  C   UNL     1       2.598  -3.869   1.007  1.00  0.00     0.178 C 
BRANCH  12  18
ATOM     18  C   UNL     1       1.010  -2.034  -1.117  1.00  0.00     0.262 C 
BRANCH  18  19
ATOM     19  C   UNL     1       0.534  -0.579  -1.257  1.00  0.00     0.058 C 
ATOM     20  C   UNL     1       1.046   0.363  -0.177  1.00  0.00     0.010 C 
ENDBRANCH  18  19
ENDBRANCH  12  18
ENDBRANCH   6  11
BRANCH   8  21
ATOM     21  N   UNL     1       2.094  -5.678   3.578  1.00  0.00    -0.281 N 
ATOM     22  H   UNL     1       1.387  -5.104   3.204  1.00  0.00     0.180 HD
BRANCH  21  23
ATOM     23  S   UNL     1       2.338  -5.567   5.201  1.00  0.00     0.232 S 
ATOM     24  O   UNL     1       3.751  -5.362   5.444  1.00  0.00    -0.207 OA
ATOM     25  O   UNL     1       1.369  -4.599   5.674  1.00  0.00    -0.207 OA
BRANCH  23  26
ATOM     26  C   UNL     1       1.880  -7.162   5.896  1.00  0.00     0.156 C 
ATOM     27  C   UNL     1       0.729  -7.866   5.211  1.00  0.00     0.023 C 
ENDBRANCH  23  26
ENDBRANCH  21  23
ENDBRANCH   8  21
ENDBRANCH   3   5
ENDBRANCH   2   3
ENDBRANCH   1   2
BRANCH   1  28
ATOM     28  C   UNL     1       2.614 -12.616   4.027  1.00  0.00     0.275 C 
BRANCH  28  29
ATOM     29  O   UNL     1       2.648 -12.941   2.628  1.00  0.00    -0.458 OA
BRANCH  29  30
ATOM     30  C   UNL     1       1.583 -12.521   1.909  1.00  0.00     0.338 C 
ATOM     31  O   UNL     1       0.574 -11.973   2.323  1.00  0.00    -0.246 OA
BRANCH  30  32
ATOM     32  C   UNL     1       1.855 -12.697   0.477  1.00  0.00     0.060 A 
ATOM     33  C   UNL     1       2.745 -11.811  -0.114  1.00  0.00     0.016 A 
ATOM     34  C   UNL     1       1.121 -13.576  -0.311  1.00  0.00     0.016 A 
ATOM     35  C   UNL     1       2.802 -11.687  -1.495  1.00  0.00     0.010 A 
ATOM     36  C   UNL     1       1.289 -13.549  -1.703  1.00  0.00     0.010 A 
ATOM     37  C   UNL     1       2.093 -12.569  -2.319  1.00  0.00    -0.014 A 
BRANCH  37  38
ATOM     38  C   UNL     1       2.179 -12.443  -3.806  1.00  0.00     0.031 A 
ATOM     39  C   UNL     1       0.922 -12.340  -4.637  1.00  0.00     0.074 A 
ATOM     40  C   UNL     1       3.381 -12.416  -4.421  1.00  0.00     0.049 A 
ATOM     41  N   UNL     1       0.781 -12.419  -5.935  1.00  0.00    -0.248 NA
ATOM     42  C   UNL     1      -0.345 -12.139  -3.914  1.00  0.00     0.031 C 
ATOM     43  C   UNL     1       4.682 -12.481  -3.750  1.00  0.00     0.029 A 
ATOM     44  N   UNL     1       3.708 -12.338  -5.755  1.00  0.00    -0.354 N 
ATOM     45  C   UNL     1      -0.588 -12.375  -6.176  1.00  0.00     0.074 A 
ATOM     46  C   UNL     1      -1.236 -12.241  -4.890  1.00  0.00     0.031 C 
ATOM     47  C   UNL     1       5.659 -12.405  -4.663  1.00  0.00     0.029 A 
ATOM     48  C   UNL     1       5.063 -12.405  -5.991  1.00  0.00     0.049 A 
ATOM     49  H   UNL     1       3.039 -12.243  -6.471  1.00  0.00     0.167 HD
ATOM     50  C   UNL     1      -1.245 -12.437  -7.360  1.00  0.00     0.034 A 
ATOM     51  C   UNL     1       5.758 -12.521  -7.140  1.00  0.00     0.034 A 
ATOM     52  C   UNL     1      -0.591 -12.488  -8.641  1.00  0.00     0.049 A 
ATOM     53  C   UNL     1       5.007 -12.588  -8.438  1.00  0.00     0.074 A 
ATOM     54  C   UNL     1      -1.166 -12.503  -9.900  1.00  0.00     0.029 A 
ATOM     55  N   UNL     1       0.782 -12.521  -8.830  1.00  0.00    -0.354 N 
ATOM     56  N   UNL     1       3.716 -12.515  -8.646  1.00  0.00    -0.248 NA
ATOM     57  C   UNL     1       5.808 -12.748  -9.659  1.00  0.00     0.031 C 
ATOM     58  C   UNL     1      -0.140 -12.570 -10.849  1.00  0.00     0.029 A 
ATOM     59  C   UNL     1       1.074 -12.565 -10.182  1.00  0.00     0.049 A 
ATOM     60  H   UNL     1       1.452 -12.516  -8.108  1.00  0.00     0.167 HD
ATOM     61  C   UNL     1       3.548 -12.598 -10.022  1.00  0.00     0.074 A 
ATOM     62  C   UNL     1       4.874 -12.698 -10.599  1.00  0.00     0.031 C 
ATOM     63  C   UNL     1       2.401 -12.612 -10.742  1.00  0.00     0.034 A 
BRANCH  50  64
ATOM     64  C   UNL     1      -2.753 -12.446  -7.334  1.00  0.00     0.023 A 
ATOM     65  C   UNL     1      -3.465 -11.271  -7.021  1.00  0.00     0.012 A 
ATOM     66  C   UNL     1      -3.466 -13.612  -7.681  1.00  0.00     0.148 A 
ATOM     67  C   UNL     1      -4.860 -11.265  -7.020  1.00  0.00     0.002 A 
ATOM     68  C   UNL     1      -4.856 -13.586  -7.723  1.00  0.00     0.091 A 
ATOM     69  F   UNL     1      -2.774 -14.726  -7.958  1.00  0.00    -0.205 F 
ATOM     70  C   UNL     1      -5.554 -12.417  -7.381  1.00  0.00     0.022 A 
BRANCH  68  71
ATOM     71  S   UNL     1      -5.837 -14.995  -8.252  1.00  0.00     0.127 S 
ATOM     72  O   UNL     1      -6.446 -15.420  -6.993  1.00  0.00    -0.237 OA
ATOM     73  O   UNL     1      -6.767 -14.383  -9.203  1.00  0.00    -0.237 OA
ATOM     74  O   UNL     1      -4.899 -15.939  -8.843  1.00  0.00    -0.744 OA
ENDBRANCH  68  71
ENDBRANCH  50  64
BRANCH  51  75
ATOM     75  C   UNL     1       7.248 -12.598  -7.104  1.00  0.00     0.023 A 
ATOM     76  C   UNL     1       8.012 -11.539  -7.628  1.00  0.00     0.012 A 
ATOM     77  C   UNL     1       7.909 -13.693  -6.511  1.00  0.00     0.148 A 
ATOM     78  C   UNL     1       9.407 -11.578  -7.581  1.00  0.00     0.002 A 
ATOM     79  C   UNL     1       9.294 -13.694  -6.407  1.00  0.00     0.091 A 
ATOM     80  F   UNL     1       7.166 -14.704  -6.038  1.00  0.00    -0.205 F 
ATOM     81  C   UNL     1      10.047 -12.646  -6.957  1.00  0.00     0.022 A 
BRANCH  79  82
ATOM     82  S   UNL     1      10.185 -14.953  -5.487  1.00  0.00     0.127 S 
ATOM     83  O   UNL     1      10.817 -15.717  -6.560  1.00  0.00    -0.237 OA
ATOM     84  O   UNL     1      11.103 -14.147  -4.681  1.00  0.00    -0.237 OA
ATOM     85  O   UNL     1       9.174 -15.661  -4.713  1.00  0.00    -0.744 OA
ENDBRANCH  79  82
ENDBRANCH  51  75
BRANCH  63  86
ATOM     86  C   UNL     1       2.525 -12.698 -12.239  1.00  0.00     0.023 A 
ATOM     87  C   UNL     1       2.902 -13.912 -12.845  1.00  0.00     0.012 A 
ATOM     88  C   UNL     1       2.204 -11.590 -13.048  1.00  0.00     0.148 A 
ATOM     89  C   UNL     1       2.989 -14.014 -14.232  1.00  0.00     0.002 A 
ATOM     90  C   UNL     1       2.245 -11.713 -14.431  1.00  0.00     0.091 A 
ATOM     91  F   UNL     1       1.868 -10.438 -12.449  1.00  0.00    -0.205 F 
ATOM     92  C   UNL     1       2.649 -12.919 -15.024  1.00  0.00     0.022 A 
BRANCH  90  93
ATOM     93  S   UNL     1       1.734 -10.387 -15.529  1.00  0.00     0.127 S 
ATOM     94  O   UNL     1       3.013  -9.953 -16.088  1.00  0.00    -0.237 OA
ATOM     95  O   UNL     1       0.860 -11.085 -16.472  1.00  0.00    -0.237 OA
ATOM     96  O   UNL     1       1.056  -9.408 -14.689  1.00  0.00    -0.744 OA
ENDBRANCH  90  93
ENDBRANCH  63  86
ENDBRANCH  37  38
ENDBRANCH  30  32
ENDBRANCH  29  30
ENDBRANCH  28  29
ENDBRANCH   1  28
TORSDOF 20
