REMARK SMILES COC(=O)c1cc(CSc2csc(C(=O)OCCOC(=O)c3ccc(-c4c5nc(c(-c6cccc(S(=O)(=O)[O-])c6F)c6ccc([nH]6)c(-c6cccc(S(=O)(=O)[O-])c6F)c6nc(c(-c7cccc(S(=O)(=O)[O-])c7F)c7ccc4[nH]7)C=C6)C=C5)cc3)c2)oc1C
REMARK SMILES IDX 17 1 16 2 14 3 15 4 13 5 10 6 11 7 85 8 12 9 9 10 8 11 7 12
REMARK SMILES IDX 5 13 6 14 87 15 86 16 88 17 3 18 4 19 2 20 1 21 18 22 19 23
REMARK SMILES IDX 20 24 21 25 22 26 23 27 84 28 24 29 83 30 25 31 26 32 27 33
REMARK SMILES IDX 77 34 28 35 82 36 76 37 78 38 29 39 81 40 75 41 74 42 30 44
REMARK SMILES IDX 62 45 42 46 61 47 43 48 46 49 60 50 79 51 44 52 45 53 59 55
REMARK SMILES IDX 80 56 47 57 31 58 32 59 40 60 33 61 35 62 41 63 34 64 36 65
REMARK SMILES IDX 37 66 38 67 39 68 63 69 64 70 72 71 65 72 67 73 73 74 66 75
REMARK SMILES IDX 68 76 69 77 70 78 71 79 48 80 49 81 57 82 50 83 52 84 58 85
REMARK SMILES IDX 51 86 53 87 54 88 55 89 56 90
REMARK H PARENT 78 43 46 54
REMARK Flexibility Score: inf
ROOT
ATOM      1  C   UNL     1      -3.281 -11.803  -2.239  1.00  0.00     0.275 C 
ENDROOT
BRANCH   1   2
ATOM      2  O   UNL     1      -3.009 -10.829  -1.208  1.00  0.00    -0.458 OA
BRANCH   2   3
ATOM      3  C   UNL     1      -2.303  -9.730  -1.616  1.00  0.00     0.348 C 
ATOM      4  O   UNL     1      -1.865  -9.584  -2.749  1.00  0.00    -0.245 OA
BRANCH   3   5
ATOM      5  C   UNL     1      -2.221  -8.745  -0.552  1.00  0.00     0.113 A 
ATOM      6  C   UNL     1      -2.143  -7.604   1.490  1.00  0.00     0.019 A 
ATOM      7  C   UNL     1      -2.331  -6.575   0.601  1.00  0.00     0.080 A 
ATOM      8  C   UNL     1      -2.187  -8.875   0.827  1.00  0.00     0.042 A 
ATOM      9  S   UNL     1      -2.089  -7.091  -0.997  1.00  0.00    -0.136 S 
BRANCH   6  10
ATOM     10  S   UNL     1      -1.899  -7.451   3.223  1.00  0.00    -0.117 SA
BRANCH  10  11
ATOM     11  C   UNL     1      -1.750  -5.662   3.530  1.00  0.00     0.150 C 
BRANCH  11  12
ATOM     12  C   UNL     1      -0.736  -4.919   2.725  1.00  0.00     0.115 A 
ATOM     13  C   UNL     1       0.472  -3.544   1.396  1.00  0.00     0.101 A 
ATOM     14  C   UNL     1      -0.799  -3.733   2.016  1.00  0.00     0.062 A 
ATOM     15  C   UNL     1       1.241  -4.619   1.810  1.00  0.00     0.115 A 
ATOM     16  O   UNL     1       0.518  -5.441   2.626  1.00  0.00    -0.465 OA
ATOM     17  C   UNL     1       2.646  -5.019   1.584  1.00  0.00     0.088 C 
BRANCH  13  18
ATOM     18  C   UNL     1       0.920  -2.465   0.529  1.00  0.00     0.341 C 
ATOM     19  O   UNL     1       1.902  -2.543  -0.198  1.00  0.00    -0.246 OA
BRANCH  18  20
ATOM     20  O   UNL     1       0.157  -1.342   0.669  1.00  0.00    -0.465 OA
ATOM     21  C   UNL     1       0.649  -0.208  -0.051  1.00  0.00     0.282 C 
ENDBRANCH  18  20
ENDBRANCH  13  18
ENDBRANCH  11  12
ENDBRANCH  10  11
ENDBRANCH   6  10
ENDBRANCH   3   5
ENDBRANCH   2   3
ENDBRANCH   1   2
BRANCH   1  22
ATOM     22  C   UNL     1      -4.709 -11.683  -2.778  1.00  0.00     0.275 C 
BRANCH  22  23
ATOM     23  O   UNL     1      -4.890 -10.452  -3.501  1.00  0.00    -0.458 OA
BRANCH  23  24
ATOM     24  C   UNL     1      -5.654  -9.521  -2.884  1.00  0.00     0.338 C 
ATOM     25  O   UNL     1      -6.207  -9.617  -1.801  1.00  0.00    -0.246 OA
BRANCH  24  26
ATOM     26  C   UNL     1      -5.654  -8.278  -3.669  1.00  0.00     0.060 A 
ATOM     27  C   UNL     1      -4.587  -7.407  -3.488  1.00  0.00     0.016 A 
ATOM     28  C   UNL     1      -6.735  -7.900  -4.459  1.00  0.00     0.016 A 
ATOM     29  C   UNL     1      -4.621  -6.120  -4.008  1.00  0.00     0.010 A 
ATOM     30  C   UNL     1      -6.725  -6.637  -5.071  1.00  0.00     0.010 A 
ATOM     31  C   UNL     1      -5.682  -5.722  -4.828  1.00  0.00    -0.014 A 
BRANCH  31  32
ATOM     32  C   UNL     1      -5.682  -4.359  -5.429  1.00  0.00     0.031 A 
ATOM     33  C   UNL     1      -6.800  -3.394  -5.138  1.00  0.00     0.074 A 
ATOM     34  C   UNL     1      -4.673  -3.985  -6.242  1.00  0.00     0.049 A 
ATOM     35  N   UNL     1      -7.038  -2.221  -5.666  1.00  0.00    -0.248 NA
ATOM     36  C   UNL     1      -7.785  -3.803  -4.123  1.00  0.00     0.031 C 
ATOM     37  C   UNL     1      -3.514  -4.812  -6.589  1.00  0.00     0.029 A 
ATOM     38  N   UNL     1      -4.464  -2.819  -6.939  1.00  0.00    -0.354 N 
ATOM     39  C   UNL     1      -8.230  -1.781  -5.102  1.00  0.00     0.074 A 
ATOM     40  C   UNL     1      -8.663  -2.811  -4.181  1.00  0.00     0.031 C 
ATOM     41  C   UNL     1      -2.717  -4.130  -7.424  1.00  0.00     0.029 A 
ATOM     42  C   UNL     1      -3.343  -2.852  -7.738  1.00  0.00     0.049 A 
ATOM     43  H   UNL     1      -5.058  -2.037  -6.874  1.00  0.00     0.167 HD
ATOM     44  C   UNL     1      -8.898  -0.624  -5.326  1.00  0.00     0.034 A 
ATOM     45  C   UNL     1      -2.891  -1.979  -8.659  1.00  0.00     0.034 A 
ATOM     46  C   UNL     1      -8.437   0.418  -6.206  1.00  0.00     0.049 A 
ATOM     47  C   UNL     1      -3.667  -0.717  -8.908  1.00  0.00     0.074 A 
ATOM     48  C   UNL     1      -9.018   1.648  -6.460  1.00  0.00     0.029 A 
ATOM     49  N   UNL     1      -7.288   0.353  -6.980  1.00  0.00    -0.354 N 
ATOM     50  N   UNL     1      -4.753  -0.285  -8.314  1.00  0.00    -0.248 NA
ATOM     51  C   UNL     1      -3.150   0.185  -9.947  1.00  0.00     0.031 C 
ATOM     52  C   UNL     1      -8.237   2.314  -7.411  1.00  0.00     0.029 A 
ATOM     53  C   UNL     1      -7.152   1.512  -7.727  1.00  0.00     0.049 A 
ATOM     54  H   UNL     1      -6.661  -0.406  -6.996  1.00  0.00     0.167 HD
ATOM     55  C   UNL     1      -5.039   0.945  -8.892  1.00  0.00     0.074 A 
ATOM     56  C   UNL     1      -3.993   1.204  -9.861  1.00  0.00     0.031 C 
ATOM     57  C   UNL     1      -6.085   1.775  -8.658  1.00  0.00     0.034 A 
BRANCH  44  58
ATOM     58  C   UNL     1     -10.203  -0.414  -4.600  1.00  0.00     0.023 A 
ATOM     59  C   UNL     1     -10.204  -0.136  -3.218  1.00  0.00     0.012 A 
ATOM     60  C   UNL     1     -11.426  -0.437  -5.300  1.00  0.00     0.148 A 
ATOM     61  C   UNL     1     -11.403   0.081  -2.538  1.00  0.00     0.002 A 
ATOM     62  C   UNL     1     -12.613  -0.177  -4.624  1.00  0.00     0.091 A 
ATOM     63  F   UNL     1     -11.408  -0.722  -6.610  1.00  0.00    -0.205 F 
ATOM     64  C   UNL     1     -12.604   0.070  -3.242  1.00  0.00     0.022 A 
BRANCH  62  65
ATOM     65  S   UNL     1     -14.204  -0.093  -5.455  1.00  0.00     0.127 S 
ATOM     66  O   UNL     1     -14.855  -1.309  -4.968  1.00  0.00    -0.237 OA
ATOM     67  O   UNL     1     -14.762   1.151  -4.925  1.00  0.00    -0.237 OA
ATOM     68  O   UNL     1     -13.912  -0.069  -6.881  1.00  0.00    -0.744 OA
ENDBRANCH  62  65
ENDBRANCH  44  58
BRANCH  45  69
ATOM     69  C   UNL     1      -1.642  -2.278  -9.417  1.00  0.00     0.023 A 
ATOM     70  C   UNL     1      -0.493  -1.493  -9.200  1.00  0.00     0.012 A 
ATOM     71  C   UNL     1      -1.577  -3.354 -10.325  1.00  0.00     0.148 A 
ATOM     72  C   UNL     1       0.690  -1.761  -9.890  1.00  0.00     0.002 A 
ATOM     73  C   UNL     1      -0.380  -3.653 -10.963  1.00  0.00     0.091 A 
ATOM     74  F   UNL     1      -2.687  -4.077 -10.533  1.00  0.00    -0.205 F 
ATOM     75  C   UNL     1       0.751  -2.847 -10.760  1.00  0.00     0.022 A 
BRANCH  73  76
ATOM     76  S   UNL     1      -0.175  -5.110 -11.993  1.00  0.00     0.127 S 
ATOM     77  O   UNL     1      -0.064  -4.520 -13.325  1.00  0.00    -0.237 OA
ATOM     78  O   UNL     1       1.065  -5.681 -11.467  1.00  0.00    -0.237 OA
ATOM     79  O   UNL     1      -1.359  -5.926 -11.760  1.00  0.00    -0.744 OA
ENDBRANCH  73  76
ENDBRANCH  45  69
BRANCH  57  80
ATOM     80  C   UNL     1      -6.143   3.057  -9.447  1.00  0.00     0.023 A 
ATOM     81  C   UNL     1      -6.476   3.019 -10.816  1.00  0.00     0.012 A 
ATOM     82  C   UNL     1      -5.930   4.300  -8.820  1.00  0.00     0.148 A 
ATOM     83  C   UNL     1      -6.565   4.197 -11.556  1.00  0.00     0.002 A 
ATOM     84  C   UNL     1      -6.070   5.473  -9.553  1.00  0.00     0.091 A 
ATOM     85  F   UNL     1      -5.596   4.313  -7.522  1.00  0.00    -0.205 F 
ATOM     86  C   UNL     1      -6.375   5.423 -10.923  1.00  0.00     0.022 A 
BRANCH  84  87
ATOM     87  S   UNL     1      -5.935   7.100  -8.803  1.00  0.00     0.127 S 
ATOM     88  O   UNL     1      -4.676   7.584  -9.367  1.00  0.00    -0.237 OA
ATOM     89  O   UNL     1      -7.130   7.775  -9.311  1.00  0.00    -0.237 OA
ATOM     90  O   UNL     1      -5.930   6.881  -7.363  1.00  0.00    -0.744 OA
ENDBRANCH  84  87
ENDBRANCH  57  80
ENDBRANCH  31  32
ENDBRANCH  24  26
ENDBRANCH  23  24
ENDBRANCH  22  23
ENDBRANCH   1  22
TORSDOF 19
