REMARK SMILES CC(C)[C@@H]([NH3+])C(=O)N[C@@H](Cc1ccccc1)C(=O)OCCOC(=O)c1ccc(-c2c3nc(c(-c4cccc(S(=O)(=O)[O-])c4F)c4ccc([nH]4)c(-c4cccc(S(=O)(=O)[O-])c4F)c4nc(c(-c5cccc(S(=O)(=O)[O-])c5F)c5ccc2[nH]5)C=C4)C=C3)cc1
REMARK SMILES IDX 20 1 19 2 17 3 18 4 9 5 8 6 6 7 7 8 4 10 2 11 1 12 3 13 5 14
REMARK SMILES IDX 10 18 11 19 12 20 16 21 13 22 15 23 14 24 21 25 22 26 23 27
REMARK SMILES IDX 24 28 25 29 26 30 87 31 27 32 86 33 28 34 29 35 30 36 80 37
REMARK SMILES IDX 31 38 85 39 79 40 81 41 32 42 84 43 78 44 77 45 33 47 65 48
REMARK SMILES IDX 45 49 64 50 46 51 49 52 63 53 82 54 47 55 48 56 62 58 83 59
REMARK SMILES IDX 50 60 34 61 35 62 43 63 36 64 38 65 44 66 37 67 39 68 40 69
REMARK SMILES IDX 41 70 42 71 66 72 67 73 75 74 68 75 70 76 76 77 69 78 71 79
REMARK SMILES IDX 72 80 73 81 74 82 51 83 52 84 60 85 53 86 55 87 61 88 54 89
REMARK SMILES IDX 56 90 57 91 58 92 59 93
REMARK H PARENT 8 9 5 15 5 16 5 17 81 46 49 57
REMARK Flexibility Score: inf
ROOT
ATOM      1  C   UNL     1      -2.587   2.785   6.272  1.00  0.00     0.274 C 
ENDROOT
BRANCH   1   2
ATOM      2  O   UNL     1      -1.981   3.045   4.993  1.00  0.00    -0.461 OA
BRANCH   2   3
ATOM      3  C   UNL     1      -0.781   2.432   4.791  1.00  0.00     0.329 C 
ATOM      4  O   UNL     1      -0.205   1.735   5.622  1.00  0.00    -0.250 OA
BRANCH   3   5
ATOM      5  C   UNL     1      -0.168   2.742   3.419  1.00  0.00     0.196 C 
BRANCH   5   6
ATOM      6  N   UNL     1      -1.019   3.504   2.499  1.00  0.00    -0.337 N 
ATOM      7  C   UNL     1      -1.315   3.290   1.185  1.00  0.00     0.279 C 
ATOM      8  O   UNL     1      -1.941   4.175   0.591  1.00  0.00    -0.268 OA
ATOM      9  H   UNL     1      -1.446   4.298   2.893  1.00  0.00     0.164 HD
BRANCH   7  10
ATOM     10  C   UNL     1      -0.940   1.970   0.454  1.00  0.00     0.273 C 
BRANCH  10  11
ATOM     11  C   UNL     1       0.579   1.734   0.267  1.00  0.00     0.051 C 
ATOM     12  C   UNL     1       0.893   0.370  -0.365  1.00  0.00     0.014 C 
ATOM     13  C   UNL     1       1.196   2.839  -0.597  1.00  0.00     0.014 C 
ENDBRANCH  10  11
BRANCH  10  14
ATOM     14  N   UNL     1      -1.610   0.864   1.158  1.00  0.00    -0.347 N 
ATOM     15  H   UNL     1      -1.267   0.815   2.118  1.00  0.00     0.345 HD
ATOM     16  H   UNL     1      -1.409  -0.014   0.680  1.00  0.00     0.345 HD
ATOM     17  H   UNL     1      -2.617   1.026   1.164  1.00  0.00     0.345 HD
ENDBRANCH  10  14
ENDBRANCH   7  10
ENDBRANCH   5   6
BRANCH   5  18
ATOM     18  C   UNL     1       1.179   3.466   3.639  1.00  0.00     0.072 C 
BRANCH  18  19
ATOM     19  C   UNL     1       1.038   4.779   4.383  1.00  0.00    -0.045 A 
ATOM     20  C   UNL     1       0.769   5.966   3.690  1.00  0.00     0.004 A 
ATOM     21  C   UNL     1       1.101   4.808   5.784  1.00  0.00     0.004 A 
ATOM     22  C   UNL     1       0.546   7.154   4.387  1.00  0.00     0.000 A 
ATOM     23  C   UNL     1       0.871   5.995   6.479  1.00  0.00     0.000 A 
ATOM     24  C   UNL     1       0.590   7.167   5.781  1.00  0.00     0.000 A 
ENDBRANCH  18  19
ENDBRANCH   5  18
ENDBRANCH   3   5
ENDBRANCH   2   3
ENDBRANCH   1   2
BRANCH   1  25
ATOM     25  C   UNL     1      -3.678   1.724   6.150  1.00  0.00     0.275 C 
BRANCH  25  26
ATOM     26  O   UNL     1      -3.138   0.520   5.582  1.00  0.00    -0.458 OA
BRANCH  26  27
ATOM     27  C   UNL     1      -3.591   0.205   4.346  1.00  0.00     0.338 C 
ATOM     28  O   UNL     1      -4.439   0.788   3.694  1.00  0.00    -0.246 OA
BRANCH  27  29
ATOM     29  C   UNL     1      -2.895  -0.994   3.857  1.00  0.00     0.060 A 
ATOM     30  C   UNL     1      -1.521  -0.953   3.628  1.00  0.00     0.016 A 
ATOM     31  C   UNL     1      -3.635  -2.118   3.494  1.00  0.00     0.016 A 
ATOM     32  C   UNL     1      -0.897  -1.995   2.951  1.00  0.00     0.010 A 
ATOM     33  C   UNL     1      -2.985  -3.210   2.913  1.00  0.00     0.010 A 
ATOM     34  C   UNL     1      -1.614  -3.150   2.609  1.00  0.00    -0.014 A 
BRANCH  34  35
ATOM     35  C   UNL     1      -0.930  -4.301   1.962  1.00  0.00     0.031 A 
ATOM     36  C   UNL     1      -1.406  -4.830   0.637  1.00  0.00     0.074 A 
ATOM     37  C   UNL     1       0.098  -4.901   2.595  1.00  0.00     0.049 A 
ATOM     38  N   UNL     1      -1.070  -5.935   0.023  1.00  0.00    -0.248 NA
ATOM     39  C   UNL     1      -2.397  -4.020  -0.091  1.00  0.00     0.031 C 
ATOM     40  C   UNL     1       0.661  -4.480   3.880  1.00  0.00     0.029 A 
ATOM     41  N   UNL     1       0.841  -6.005   2.256  1.00  0.00    -0.354 N 
ATOM     42  C   UNL     1      -1.858  -5.992  -1.120  1.00  0.00     0.074 A 
ATOM     43  C   UNL     1      -2.676  -4.798  -1.128  1.00  0.00     0.031 C 
ATOM     44  C   UNL     1       1.664  -5.302   4.215  1.00  0.00     0.029 A 
ATOM     45  C   UNL     1       1.760  -6.360   3.216  1.00  0.00     0.049 A 
ATOM     46  H   UNL     1       0.727  -6.494   1.409  1.00  0.00     0.167 HD
ATOM     47  C   UNL     1      -1.891  -6.951  -2.076  1.00  0.00     0.034 A 
ATOM     48  C   UNL     1       2.555  -7.442   3.318  1.00  0.00     0.034 A 
ATOM     49  C   UNL     1      -1.024  -8.099  -2.099  1.00  0.00     0.049 A 
ATOM     50  C   UNL     1       2.498  -8.489   2.246  1.00  0.00     0.074 A 
ATOM     51  C   UNL     1      -0.938  -9.094  -3.057  1.00  0.00     0.029 A 
ATOM     52  N   UNL     1      -0.088  -8.404  -1.122  1.00  0.00    -0.354 N 
ATOM     53  N   UNL     1       1.785  -8.501   1.146  1.00  0.00    -0.248 NA
ATOM     54  C   UNL     1       3.350  -9.671   2.427  1.00  0.00     0.031 C 
ATOM     55  C   UNL     1       0.047 -10.004  -2.656  1.00  0.00     0.029 A 
ATOM     56  C   UNL     1       0.575  -9.575  -1.450  1.00  0.00     0.049 A 
ATOM     57  H   UNL     1       0.080  -7.867  -0.314  1.00  0.00     0.167 HD
ATOM     58  C   UNL     1       2.101  -9.690   0.503  1.00  0.00     0.074 A 
ATOM     59  C   UNL     1       3.099 -10.353   1.318  1.00  0.00     0.031 C 
ATOM     60  C   UNL     1       1.589 -10.202  -0.642  1.00  0.00     0.034 A 
BRANCH  47  61
ATOM     61  C   UNL     1      -2.874  -6.788  -3.204  1.00  0.00     0.023 A 
ATOM     62  C   UNL     1      -2.592  -5.886  -4.249  1.00  0.00     0.012 A 
ATOM     63  C   UNL     1      -4.039  -7.578  -3.268  1.00  0.00     0.148 A 
ATOM     64  C   UNL     1      -3.462  -5.761  -5.332  1.00  0.00     0.002 A 
ATOM     65  C   UNL     1      -4.885  -7.471  -4.367  1.00  0.00     0.091 A 
ATOM     66  F   UNL     1      -4.305  -8.410  -2.250  1.00  0.00    -0.205 F 
ATOM     67  C   UNL     1      -4.601  -6.560  -5.396  1.00  0.00     0.022 A 
BRANCH  65  68
ATOM     68  S   UNL     1      -6.339  -8.509  -4.564  1.00  0.00     0.127 S 
ATOM     69  O   UNL     1      -7.412  -7.587  -4.197  1.00  0.00    -0.237 OA
ATOM     70  O   UNL     1      -6.289  -8.851  -5.986  1.00  0.00    -0.237 OA
ATOM     71  O   UNL     1      -6.143  -9.639  -3.666  1.00  0.00    -0.744 OA
ENDBRANCH  65  68
ENDBRANCH  47  61
BRANCH  48  72
ATOM     72  C   UNL     1       3.469  -7.570   4.488  1.00  0.00     0.023 A 
ATOM     73  C   UNL     1       4.855  -7.426   4.298  1.00  0.00     0.012 A 
ATOM     74  C   UNL     1       2.969  -7.744   5.794  1.00  0.00     0.148 A 
ATOM     75  C   UNL     1       5.727  -7.456   5.387  1.00  0.00     0.002 A 
ATOM     76  C   UNL     1       3.836  -7.707   6.879  1.00  0.00     0.091 A 
ATOM     77  F   UNL     1       1.648  -7.911   5.955  1.00  0.00    -0.205 F 
ATOM     78  C   UNL     1       5.217  -7.577   6.678  1.00  0.00     0.022 A 
BRANCH  76  79
ATOM     79  S   UNL     1       3.224  -7.683   8.569  1.00  0.00     0.127 S 
ATOM     80  O   UNL     1       3.354  -9.084   8.957  1.00  0.00    -0.237 OA
ATOM     81  O   UNL     1       4.160  -6.771   9.228  1.00  0.00    -0.237 OA
ATOM     82  O   UNL     1       1.865  -7.165   8.471  1.00  0.00    -0.744 OA
ENDBRANCH  76  79
ENDBRANCH  48  72
BRANCH  60  83
ATOM     83  C   UNL     1       2.089 -11.553  -1.072  1.00  0.00     0.023 A 
ATOM     84  C   UNL     1       1.608 -12.702  -0.413  1.00  0.00     0.012 A 
ATOM     85  C   UNL     1       2.982 -11.693  -2.150  1.00  0.00     0.148 A 
ATOM     86  C   UNL     1       2.028 -13.971  -0.807  1.00  0.00     0.002 A 
ATOM     87  C   UNL     1       3.369 -12.963  -2.561  1.00  0.00     0.091 A 
ATOM     88  F   UNL     1       3.446 -10.585  -2.747  1.00  0.00    -0.205 F 
ATOM     89  C   UNL     1       2.899 -14.102  -1.886  1.00  0.00     0.022 A 
BRANCH  87  90
ATOM     90  S   UNL     1       4.429 -13.222  -3.988  1.00  0.00     0.127 S 
ATOM     91  O   UNL     1       5.722 -13.478  -3.357  1.00  0.00    -0.237 OA
ATOM     92  O   UNL     1       3.820 -14.390  -4.626  1.00  0.00    -0.237 OA
ATOM     93  O   UNL     1       4.340 -11.997  -4.771  1.00  0.00    -0.744 OA
ENDBRANCH  87  90
ENDBRANCH  60  83
ENDBRANCH  34  35
ENDBRANCH  27  29
ENDBRANCH  26  27
ENDBRANCH  25  26
ENDBRANCH   1  25
TORSDOF 20
