REMARK SMILES CCc1nc(COC)cc(OCC(=O)OCCOC(=O)c2ccc(-c3c4nc(c(-c5cccc(S(=O)(=O)[O-])c5F)c5ccc([nH]5)c(-c5cccc(S(=O)(=O)[O-])c5F)c5nc(c(-c6cccc(S(=O)(=O)[O-])c6F)c6ccc3[nH]6)C=C5)C=C4)cc2)n1
REMARK SMILES IDX 16 1 15 2 13 3 14 4 12 5 11 6 10 7 3 8 4 9 84 10 5 11 9 12
REMARK SMILES IDX 2 13 1 14 6 15 7 16 8 17 17 18 18 19 19 20 20 21 21 22 22 23
REMARK SMILES IDX 83 24 23 25 82 26 24 27 25 28 26 29 76 30 27 31 81 32 75 33
REMARK SMILES IDX 77 34 28 35 80 36 74 37 73 38 29 40 61 41 41 42 60 43 42 44
REMARK SMILES IDX 45 45 59 46 78 47 43 48 44 49 58 51 79 52 46 53 30 54 31 55
REMARK SMILES IDX 39 56 32 57 34 58 40 59 33 60 35 61 36 62 37 63 38 64 62 65
REMARK SMILES IDX 63 66 71 67 64 68 66 69 72 70 65 71 67 72 68 73 69 74 70 75
REMARK SMILES IDX 47 76 48 77 56 78 49 79 51 80 57 81 50 82 52 83 53 84 54 85
REMARK SMILES IDX 55 86
REMARK H PARENT 77 39 45 50
REMARK Flexibility Score: inf
ROOT
ATOM      1  C   UNL     1       4.500  -7.065   3.014  1.00  0.00     0.274 C 
ENDROOT
BRANCH   1   2
ATOM      2  O   UNL     1       3.334  -6.447   2.435  1.00  0.00    -0.460 OA
BRANCH   2   3
ATOM      3  C   UNL     1       2.137  -6.878   2.916  1.00  0.00     0.344 C 
ATOM      4  O   UNL     1       2.000  -7.684   3.830  1.00  0.00    -0.248 OA
BRANCH   3   5
ATOM      5  C   UNL     1       0.945  -6.253   2.199  1.00  0.00     0.353 C 
BRANCH   5   6
ATOM      6  O   UNL     1       1.242  -5.413   1.098  1.00  0.00    -0.466 OA
BRANCH   6   7
ATOM      7  C   UNL     1       1.107  -4.067   1.284  1.00  0.00     0.217 A 
ATOM      8  C   UNL     1       0.685  -2.079   0.233  1.00  0.00     0.132 A 
ATOM      9  N   UNL     1       0.875  -1.370   1.355  1.00  0.00    -0.235 NA
ATOM     10  N   UNL     1       0.780  -3.417   0.156  1.00  0.00    -0.198 NA
ATOM     11  C   UNL     1       1.243  -2.040   2.463  1.00  0.00     0.074 A 
ATOM     12  C   UNL     1       1.353  -3.417   2.472  1.00  0.00     0.094 A 
BRANCH   8  13
ATOM     13  C   UNL     1       0.319  -1.337  -1.023  1.00  0.00     0.074 C 
ATOM     14  C   UNL     1       0.782   0.115  -1.029  1.00  0.00     0.012 C 
ENDBRANCH   8  13
BRANCH  11  15
ATOM     15  C   UNL     1       1.565  -1.220   3.693  1.00  0.00     0.216 C 
BRANCH  15  16
ATOM     16  O   UNL     1       2.564  -0.226   3.445  1.00  0.00    -0.378 OA
ATOM     17  C   UNL     1       3.877  -0.766   3.374  1.00  0.00     0.195 C 
ENDBRANCH  15  16
ENDBRANCH  11  15
ENDBRANCH   6   7
ENDBRANCH   5   6
ENDBRANCH   3   5
ENDBRANCH   2   3
ENDBRANCH   1   2
BRANCH   1  18
ATOM     18  C   UNL     1       5.163  -6.169   4.056  1.00  0.00     0.275 C 
BRANCH  18  19
ATOM     19  O   UNL     1       4.230  -5.803   5.089  1.00  0.00    -0.458 OA
BRANCH  19  20
ATOM     20  C   UNL     1       3.844  -4.511   5.055  1.00  0.00     0.338 C 
ATOM     21  O   UNL     1       4.206  -3.661   4.254  1.00  0.00    -0.246 OA
BRANCH  20  22
ATOM     22  C   UNL     1       2.848  -4.200   6.090  1.00  0.00     0.060 A 
ATOM     23  C   UNL     1       1.592  -4.811   6.064  1.00  0.00     0.016 A 
ATOM     24  C   UNL     1       3.102  -3.136   6.960  1.00  0.00     0.016 A 
ATOM     25  C   UNL     1       0.571  -4.319   6.880  1.00  0.00     0.010 A 
ATOM     26  C   UNL     1       2.097  -2.688   7.819  1.00  0.00     0.010 A 
ATOM     27  C   UNL     1       0.818  -3.261   7.773  1.00  0.00    -0.014 A 
BRANCH  27  28
ATOM     28  C   UNL     1      -0.230  -2.826   8.730  1.00  0.00     0.031 A 
ATOM     29  C   UNL     1      -0.878  -1.472   8.635  1.00  0.00     0.074 A 
ATOM     30  C   UNL     1      -0.561  -3.662   9.733  1.00  0.00     0.049 A 
ATOM     31  N   UNL     1      -1.770  -0.934   9.427  1.00  0.00    -0.248 NA
ATOM     32  C   UNL     1      -0.479  -0.612   7.510  1.00  0.00     0.031 C 
ATOM     33  C   UNL     1       0.030  -4.984   9.950  1.00  0.00     0.029 A 
ATOM     34  N   UNL     1      -1.450  -3.519  10.767  1.00  0.00    -0.354 N 
ATOM     35  C   UNL     1      -2.033   0.328   8.909  1.00  0.00     0.074 A 
ATOM     36  C   UNL     1      -1.197   0.482   7.736  1.00  0.00     0.031 C 
ATOM     37  C   UNL     1      -0.503  -5.527  11.052  1.00  0.00     0.029 A 
ATOM     38  C   UNL     1      -1.445  -4.580  11.641  1.00  0.00     0.049 A 
ATOM     39  H   UNL     1      -2.034  -2.733  10.873  1.00  0.00     0.167 HD
ATOM     40  C   UNL     1      -2.906   1.262   9.359  1.00  0.00     0.034 A 
ATOM     41  C   UNL     1      -2.104  -4.767  12.800  1.00  0.00     0.034 A 
ATOM     42  C   UNL     1      -3.747   1.102  10.517  1.00  0.00     0.049 A 
ATOM     43  C   UNL     1      -3.060  -3.715  13.276  1.00  0.00     0.074 A 
ATOM     44  C   UNL     1      -4.682   1.986  11.031  1.00  0.00     0.029 A 
ATOM     45  N   UNL     1      -3.756  -0.010  11.345  1.00  0.00    -0.354 N 
ATOM     46  N   UNL     1      -3.374  -2.575  12.710  1.00  0.00    -0.248 NA
ATOM     47  C   UNL     1      -3.771  -3.981  14.534  1.00  0.00     0.031 C 
ATOM     48  C   UNL     1      -5.257   1.406  12.168  1.00  0.00     0.029 A 
ATOM     49  C   UNL     1      -4.678   0.164  12.364  1.00  0.00     0.049 A 
ATOM     50  H   UNL     1      -3.190  -0.806  11.225  1.00  0.00     0.167 HD
ATOM     51  C   UNL     1      -4.325  -1.992  13.536  1.00  0.00     0.074 A 
ATOM     52  C   UNL     1      -4.560  -2.918  14.625  1.00  0.00     0.031 C 
ATOM     53  C   UNL     1      -4.930  -0.784  13.418  1.00  0.00     0.034 A 
BRANCH  40  54
ATOM     54  C   UNL     1      -3.060   2.527   8.557  1.00  0.00     0.023 A 
ATOM     55  C   UNL     1      -3.874   2.505   7.407  1.00  0.00     0.012 A 
ATOM     56  C   UNL     1      -2.500   3.746   8.985  1.00  0.00     0.148 A 
ATOM     57  C   UNL     1      -4.123   3.675   6.691  1.00  0.00     0.002 A 
ATOM     58  C   UNL     1      -2.775   4.914   8.280  1.00  0.00     0.091 A 
ATOM     59  F   UNL     1      -1.707   3.742  10.066  1.00  0.00    -0.205 F 
ATOM     60  C   UNL     1      -3.584   4.880   7.133  1.00  0.00     0.022 A 
BRANCH  58  61
ATOM     61  S   UNL     1      -2.175   6.521   8.820  1.00  0.00     0.127 S 
ATOM     62  O   UNL     1      -1.028   6.722   7.936  1.00  0.00    -0.237 OA
ATOM     63  O   UNL     1      -3.317   7.394   8.543  1.00  0.00    -0.237 OA
ATOM     64  O   UNL     1      -1.865   6.369  10.235  1.00  0.00    -0.744 OA
ENDBRANCH  58  61
ENDBRANCH  40  54
BRANCH  41  65
ATOM     65  C   UNL     1      -1.899  -6.036  13.548  1.00  0.00     0.023 A 
ATOM     66  C   UNL     1      -2.914  -7.008  13.555  1.00  0.00     0.012 A 
ATOM     67  C   UNL     1      -0.665  -6.326  14.162  1.00  0.00     0.148 A 
ATOM     68  C   UNL     1      -2.705  -8.247  14.163  1.00  0.00     0.002 A 
ATOM     69  C   UNL     1      -0.443  -7.583  14.712  1.00  0.00     0.091 A 
ATOM     70  F   UNL     1       0.289  -5.382  14.168  1.00  0.00    -0.205 F 
ATOM     71  C   UNL     1      -1.465  -8.542  14.725  1.00  0.00     0.022 A 
BRANCH  69  72
ATOM     72  S   UNL     1       1.196  -8.045  15.282  1.00  0.00     0.127 S 
ATOM     73  O   UNL     1       1.208  -7.522  16.643  1.00  0.00    -0.237 OA
ATOM     74  O   UNL     1       1.175  -9.505  15.185  1.00  0.00    -0.237 OA
ATOM     75  O   UNL     1       2.097  -7.405  14.329  1.00  0.00    -0.744 OA
ENDBRANCH  69  72
ENDBRANCH  41  65
BRANCH  53  76
ATOM     76  C   UNL     1      -5.892  -0.392  14.504  1.00  0.00     0.023 A 
ATOM     77  C   UNL     1      -5.382   0.083  15.728  1.00  0.00     0.012 A 
ATOM     78  C   UNL     1      -7.284  -0.451  14.309  1.00  0.00     0.148 A 
ATOM     79  C   UNL     1      -6.245   0.472  16.752  1.00  0.00     0.002 A 
ATOM     80  C   UNL     1      -8.138  -0.034  15.324  1.00  0.00     0.091 A 
ATOM     81  F   UNL     1      -7.753  -0.931  13.148  1.00  0.00    -0.205 F 
ATOM     82  C   UNL     1      -7.622   0.422  16.547  1.00  0.00     0.022 A 
BRANCH  80  83
ATOM     83  S   UNL     1      -9.919  -0.019  15.092  1.00  0.00     0.127 S 
ATOM     84  O   UNL     1     -10.294  -1.358  15.543  1.00  0.00    -0.237 OA
ATOM     85  O   UNL     1     -10.355   1.064  15.976  1.00  0.00    -0.237 OA
ATOM     86  O   UNL     1     -10.113   0.257  13.674  1.00  0.00    -0.744 OA
ENDBRANCH  80  83
ENDBRANCH  53  76
ENDBRANCH  27  28
ENDBRANCH  20  22
ENDBRANCH  19  20
ENDBRANCH  18  19
ENDBRANCH   1  18
TORSDOF 19
