REMARK SMILES C[C@@H](C(=O)OCCOC(=O)c1ccc(-c2c3nc(c(-c4cccc(S(=O)(=O)[O-])c4F)c4ccc([nH]4)c(-c4cccc(S(=O)(=O)[O-])c4F)c4nc(c(-c5cccc(S(=O)(=O)[O-])c5F)c5ccc2[nH]5)C=C4)C=C3)cc1)c1cccc(C(=O)c2ccccc2)c1
REMARK SMILES IDX 6 1 5 2 3 3 4 4 2 5 1 6 74 7 75 8 87 9 76 10 78 11 77 12
REMARK SMILES IDX 79 13 80 14 81 15 82 16 86 17 83 18 85 19 84 20 7 21 8 22
REMARK SMILES IDX 9 23 10 24 11 25 12 26 73 27 13 28 72 29 14 30 15 31 16 32
REMARK SMILES IDX 66 33 17 34 71 35 65 36 67 37 18 38 70 39 64 40 63 41 19 43
REMARK SMILES IDX 51 44 31 45 50 46 32 47 35 48 49 49 68 50 33 51 34 52 48 54
REMARK SMILES IDX 69 55 36 56 20 57 21 58 29 59 22 60 24 61 30 62 23 63 25 64
REMARK SMILES IDX 26 65 27 66 28 67 52 68 53 69 61 70 54 71 56 72 62 73 55 74
REMARK SMILES IDX 57 75 58 76 59 77 60 78 37 79 38 80 46 81 39 82 41 83 47 84
REMARK SMILES IDX 40 85 42 86 43 87 44 88 45 89
REMARK H PARENT 67 42 35 53
REMARK Flexibility Score: inf
ROOT
ATOM      1  C   UNL     1       2.673   1.385   3.272  1.00  0.00     0.274 C 
ENDROOT
BRANCH   1   2
ATOM      2  O   UNL     1       2.238   0.747   2.053  1.00  0.00    -0.462 OA
BRANCH   2   3
ATOM      3  C   UNL     1       1.240  -0.174   2.157  1.00  0.00     0.313 C 
ATOM      4  O   UNL     1       0.745  -0.536   3.219  1.00  0.00    -0.252 OA
BRANCH   3   5
ATOM      5  C   UNL     1       0.851  -0.772   0.800  1.00  0.00     0.126 C 
ATOM      6  C   UNL     1       1.563  -0.121  -0.390  1.00  0.00     0.025 C 
BRANCH   5   7
ATOM      7  C   UNL     1      -0.665  -0.838   0.622  1.00  0.00    -0.033 A 
ATOM      8  C   UNL     1      -1.397   0.184  -0.000  1.00  0.00     0.004 A 
ATOM      9  C   UNL     1      -1.369  -1.949   1.127  1.00  0.00     0.016 A 
ATOM     10  C   UNL     1      -2.787   0.101  -0.114  1.00  0.00     0.001 A 
ATOM     11  C   UNL     1      -2.766  -2.035   1.024  1.00  0.00     0.023 A 
ATOM     12  C   UNL     1      -3.471  -0.998   0.406  1.00  0.00     0.012 A 
BRANCH  11  13
ATOM     13  C   UNL     1      -3.544  -3.208   1.515  1.00  0.00     0.193 C 
ATOM     14  O   UNL     1      -4.760  -3.151   1.657  1.00  0.00    -0.289 OA
BRANCH  13  15
ATOM     15  C   UNL     1      -2.889  -4.512   1.710  1.00  0.00     0.022 A 
ATOM     16  C   UNL     1      -3.110  -5.503   0.749  1.00  0.00     0.012 A 
ATOM     17  C   UNL     1      -2.089  -4.763   2.826  1.00  0.00     0.012 A 
ATOM     18  C   UNL     1      -2.485  -6.741   0.880  1.00  0.00     0.001 A 
ATOM     19  C   UNL     1      -1.460  -6.003   2.948  1.00  0.00     0.001 A 
ATOM     20  C   UNL     1      -1.652  -6.986   1.974  1.00  0.00     0.000 A 
ENDBRANCH  13  15
ENDBRANCH  11  13
ENDBRANCH   5   7
ENDBRANCH   3   5
ENDBRANCH   2   3
ENDBRANCH   1   2
BRANCH   1  21
ATOM     21  C   UNL     1       2.201   2.834   3.299  1.00  0.00     0.275 C 
BRANCH  21  22
ATOM     22  O   UNL     1       0.769   2.855   3.406  1.00  0.00    -0.458 OA
BRANCH  22  23
ATOM     23  C   UNL     1       0.100   3.432   2.385  1.00  0.00     0.338 C 
ATOM     24  O   UNL     1       0.582   4.007   1.415  1.00  0.00    -0.246 OA
BRANCH  23  25
ATOM     25  C   UNL     1      -1.347   3.255   2.581  1.00  0.00     0.060 A 
ATOM     26  C   UNL     1      -1.867   1.985   2.826  1.00  0.00     0.016 A 
ATOM     27  C   UNL     1      -2.206   4.340   2.399  1.00  0.00     0.016 A 
ATOM     28  C   UNL     1      -3.246   1.784   2.786  1.00  0.00     0.010 A 
ATOM     29  C   UNL     1      -3.591   4.146   2.455  1.00  0.00     0.010 A 
ATOM     30  C   UNL     1      -4.133   2.856   2.595  1.00  0.00    -0.014 A 
BRANCH  30  31
ATOM     31  C   UNL     1      -5.606   2.625   2.486  1.00  0.00     0.031 A 
ATOM     32  C   UNL     1      -6.375   3.135   1.289  1.00  0.00     0.074 A 
ATOM     33  C   UNL     1      -6.275   1.956   3.447  1.00  0.00     0.049 A 
ATOM     34  N   UNL     1      -7.670   3.213   1.110  1.00  0.00    -0.248 NA
ATOM     35  C   UNL     1      -5.589   3.642   0.152  1.00  0.00     0.031 C 
ATOM     36  C   UNL     1      -5.677   1.385   4.654  1.00  0.00     0.029 A 
ATOM     37  N   UNL     1      -7.608   1.639   3.559  1.00  0.00    -0.354 N 
ATOM     38  C   UNL     1      -7.852   3.860  -0.107  1.00  0.00     0.074 A 
ATOM     39  C   UNL     1      -6.534   4.134  -0.638  1.00  0.00     0.031 C 
ATOM     40  C   UNL     1      -6.624   0.746   5.356  1.00  0.00     0.029 A 
ATOM     41  C   UNL     1      -7.914   0.938   4.703  1.00  0.00     0.049 A 
ATOM     42  H   UNL     1      -8.280   1.890   2.885  1.00  0.00     0.167 HD
ATOM     43  C   UNL     1      -9.008   4.190  -0.731  1.00  0.00     0.034 A 
ATOM     44  C   UNL     1      -9.098   0.523   5.198  1.00  0.00     0.034 A 
ATOM     45  C   UNL     1     -10.319   3.820  -0.265  1.00  0.00     0.049 A 
ATOM     46  C   UNL     1     -10.363   0.842   4.454  1.00  0.00     0.074 A 
ATOM     47  C   UNL     1     -11.546   4.095  -0.845  1.00  0.00     0.029 A 
ATOM     48  N   UNL     1     -10.574   3.064   0.868  1.00  0.00    -0.354 N 
ATOM     49  N   UNL     1     -10.512   1.470   3.313  1.00  0.00    -0.248 NA
ATOM     50  C   UNL     1     -11.624   0.400   5.066  1.00  0.00     0.031 C 
ATOM     51  C   UNL     1     -12.543   3.493  -0.069  1.00  0.00     0.029 A 
ATOM     52  C   UNL     1     -11.936   2.847   0.995  1.00  0.00     0.049 A 
ATOM     53  H   UNL     1      -9.888   2.730   1.490  1.00  0.00     0.167 HD
ATOM     54  C   UNL     1     -11.880   1.502   3.072  1.00  0.00     0.074 A 
ATOM     55  C   UNL     1     -12.515   0.792   4.164  1.00  0.00     0.031 C 
ATOM     56  C   UNL     1     -12.553   2.100   2.059  1.00  0.00     0.034 A 
BRANCH  43  57
ATOM     57  C   UNL     1      -8.918   4.964  -2.018  1.00  0.00     0.023 A 
ATOM     58  C   UNL     1      -8.586   4.295  -3.212  1.00  0.00     0.012 A 
ATOM     59  C   UNL     1      -9.241   6.336  -2.060  1.00  0.00     0.148 A 
ATOM     60  C   UNL     1      -8.559   4.983  -4.425  1.00  0.00     0.002 A 
ATOM     61  C   UNL     1      -9.247   7.006  -3.278  1.00  0.00     0.091 A 
ATOM     62  F   UNL     1      -9.527   6.963  -0.909  1.00  0.00    -0.205 F 
ATOM     63  C   UNL     1      -8.900   6.333  -4.460  1.00  0.00     0.022 A 
BRANCH  61  64
ATOM     64  S   UNL     1      -9.750   8.726  -3.419  1.00  0.00     0.127 S 
ATOM     65  O   UNL     1      -8.459   9.409  -3.482  1.00  0.00    -0.237 OA
ATOM     66  O   UNL     1     -10.503   8.733  -4.675  1.00  0.00    -0.237 OA
ATOM     67  O   UNL     1     -10.555   8.998  -2.236  1.00  0.00    -0.744 OA
ENDBRANCH  61  64
ENDBRANCH  43  57
BRANCH  44  68
ATOM     68  C   UNL     1      -9.124  -0.260   6.466  1.00  0.00     0.023 A 
ATOM     69  C   UNL     1      -9.456  -1.627   6.427  1.00  0.00     0.012 A 
ATOM     70  C   UNL     1      -8.743   0.317   7.693  1.00  0.00     0.148 A 
ATOM     71  C   UNL     1      -9.412  -2.402   7.587  1.00  0.00     0.002 A 
ATOM     72  C   UNL     1      -8.633  -0.477   8.829  1.00  0.00     0.091 A 
ATOM     73  F   UNL     1      -8.464   1.629   7.726  1.00  0.00    -0.205 F 
ATOM     74  C   UNL     1      -8.981  -1.833   8.783  1.00  0.00     0.022 A 
BRANCH  72  75
ATOM     75  S   UNL     1      -7.905   0.167  10.341  1.00  0.00     0.127 S 
ATOM     76  O   UNL     1      -9.081   0.616  11.079  1.00  0.00    -0.237 OA
ATOM     77  O   UNL     1      -7.239  -1.010  10.901  1.00  0.00    -0.237 OA
ATOM     78  O   UNL     1      -6.984   1.207   9.896  1.00  0.00    -0.744 OA
ENDBRANCH  72  75
ENDBRANCH  44  68
BRANCH  56  79
ATOM     79  C   UNL     1     -14.055   2.030   2.087  1.00  0.00     0.023 A 
ATOM     80  C   UNL     1     -14.761   2.877   2.963  1.00  0.00     0.012 A 
ATOM     81  C   UNL     1     -14.767   1.186   1.214  1.00  0.00     0.148 A 
ATOM     82  C   UNL     1     -16.155   2.870   2.987  1.00  0.00     0.002 A 
ATOM     83  C   UNL     1     -16.158   1.207   1.221  1.00  0.00     0.091 A 
ATOM     84  F   UNL     1     -14.078   0.370   0.404  1.00  0.00    -0.205 F 
ATOM     85  C   UNL     1     -16.853   2.043   2.110  1.00  0.00     0.022 A 
BRANCH  83  86
ATOM     86  S   UNL     1     -17.130   0.223   0.073  1.00  0.00     0.127 S 
ATOM     87  O   UNL     1     -17.498  -0.925   0.899  1.00  0.00    -0.237 OA
ATOM     88  O   UNL     1     -18.240   1.119  -0.254  1.00  0.00    -0.237 OA
ATOM     89  O   UNL     1     -16.242  -0.061  -1.048  1.00  0.00    -0.744 OA
ENDBRANCH  83  86
ENDBRANCH  56  79
ENDBRANCH  30  31
ENDBRANCH  23  25
ENDBRANCH  22  23
ENDBRANCH  21  22
ENDBRANCH   1  21
TORSDOF 17
