REMARK SMILES CC[C@@](C)(NC(=O)c1c(C)cc(C)[nH]c1=O)C(=O)OCCOC(=O)c1ccc(-c2c3nc(c(-c4cccc(S(=O)(=O)[O-])c4F)c4ccc([nH]4)c(-c4cccc(S(=O)(=O)[O-])c4F)c4nc(c(-c5cccc(S(=O)(=O)[O-])c5F)c5ccc2[nH]5)C=C4)C=C3)cc1
REMARK SMILES IDX 21 1 20 2 19 3 17 4 18 5 3 6 4 7 2 8 1 9 5 10 6 11 7 13 8 14
REMARK SMILES IDX 9 15 15 16 10 17 11 18 14 19 16 20 12 21 13 23 22 24 23 25
REMARK SMILES IDX 24 26 25 27 26 28 87 29 27 30 86 31 28 32 29 33 30 34 80 35
REMARK SMILES IDX 31 36 85 37 79 38 81 39 32 40 84 41 78 42 77 43 33 45 65 46
REMARK SMILES IDX 45 47 64 48 46 49 49 50 63 51 82 52 47 53 48 54 62 56 83 57
REMARK SMILES IDX 50 58 34 59 35 60 43 61 36 62 38 63 44 64 37 65 39 66 40 67
REMARK SMILES IDX 41 68 42 69 66 70 67 71 75 72 68 73 70 74 76 75 69 76 71 77
REMARK SMILES IDX 72 78 73 79 74 80 51 81 52 82 60 83 53 84 55 85 61 86 54 87
REMARK SMILES IDX 56 88 57 89 58 90 59 91
REMARK H PARENT 5 12 14 22 81 44 49 55
REMARK Flexibility Score: inf
ROOT
ATOM      1  C   UNL     1       5.550   1.698   0.862  1.00  0.00     0.275 C 
ENDROOT
BRANCH   1   2
ATOM      2  C   UNL     1       4.627   2.366  -0.145  1.00  0.00     0.274 C 
BRANCH   2   3
ATOM      3  O   UNL     1       3.366   2.695   0.484  1.00  0.00    -0.460 OA
BRANCH   3   4
ATOM      4  C   UNL     1       2.256   2.235  -0.137  1.00  0.00     0.331 C 
ATOM      5  O   UNL     1       2.301   1.510  -1.128  1.00  0.00    -0.249 OA
BRANCH   4   6
ATOM      6  C   UNL     1       0.916   2.800   0.424  1.00  0.00     0.135 C 
ATOM      7  C   UNL     1       0.362   3.691  -0.705  1.00  0.00     0.047 C 
BRANCH   6   8
ATOM      8  C   UNL     1      -0.074   1.603   0.675  1.00  0.00     0.037 C 
ATOM      9  C   UNL     1      -0.304   0.569  -0.422  1.00  0.00     0.007 C 
ENDBRANCH   6   8
BRANCH   6  10
ATOM     10  N   UNL     1       0.835   3.575   1.717  1.00  0.00    -0.336 N 
ATOM     11  C   UNL     1       1.405   4.723   2.180  1.00  0.00     0.258 C 
ATOM     12  H   UNL     1       0.234   3.156   2.374  1.00  0.00     0.165 HD
ATOM     13  O   UNL     1       0.681   5.541   2.752  1.00  0.00    -0.269 OA
BRANCH  11  14
ATOM     14  C   UNL     1       2.869   4.836   2.291  1.00  0.00     0.107 A 
ATOM     15  C   UNL     1       3.477   4.519   3.459  1.00  0.00    -0.031 A 
ATOM     16  C   UNL     1       3.679   5.419   1.189  1.00  0.00     0.261 A 
ATOM     17  C   UNL     1       2.797   4.054   4.722  1.00  0.00     0.045 C 
ATOM     18  C   UNL     1       4.930   4.573   3.550  1.00  0.00     0.025 A 
ATOM     19  N   UNL     1       5.044   5.453   1.385  1.00  0.00    -0.326 N 
ATOM     20  O   UNL     1       3.181   5.820   0.140  1.00  0.00    -0.269 OA
ATOM     21  C   UNL     1       5.674   5.004   2.521  1.00  0.00     0.015 A 
ATOM     22  H   UNL     1       5.603   5.824   0.664  1.00  0.00     0.169 HD
ATOM     23  C   UNL     1       7.169   4.919   2.505  1.00  0.00     0.064 C 
ENDBRANCH  11  14
ENDBRANCH   6  10
ENDBRANCH   4   6
ENDBRANCH   3   4
ENDBRANCH   2   3
ENDBRANCH   1   2
BRANCH   1  24
ATOM     24  O   UNL     1       4.890   0.533   1.360  1.00  0.00    -0.458 OA
BRANCH  24  25
ATOM     25  C   UNL     1       4.441   0.618   2.632  1.00  0.00     0.338 C 
ATOM     26  O   UNL     1       4.677   1.468   3.467  1.00  0.00    -0.246 OA
BRANCH  25  27
ATOM     27  C   UNL     1       3.592  -0.548   2.872  1.00  0.00     0.060 A 
ATOM     28  C   UNL     1       2.454  -0.748   2.089  1.00  0.00     0.016 A 
ATOM     29  C   UNL     1       3.951  -1.443   3.875  1.00  0.00     0.016 A 
ATOM     30  C   UNL     1       1.652  -1.855   2.315  1.00  0.00     0.010 A 
ATOM     31  C   UNL     1       3.194  -2.596   4.045  1.00  0.00     0.010 A 
ATOM     32  C   UNL     1       2.048  -2.810   3.261  1.00  0.00    -0.014 A 
BRANCH  32  33
ATOM     33  C   UNL     1       1.314  -4.086   3.369  1.00  0.00     0.031 A 
ATOM     34  C   UNL     1       0.568  -4.413   4.624  1.00  0.00     0.074 A 
ATOM     35  C   UNL     1       1.380  -4.947   2.336  1.00  0.00     0.049 A 
ATOM     36  N   UNL     1      -0.020  -5.528   4.958  1.00  0.00    -0.248 NA
ATOM     37  C   UNL     1       0.477  -3.353   5.643  1.00  0.00     0.031 C 
ATOM     38  C   UNL     1       2.087  -4.696   1.076  1.00  0.00     0.029 A 
ATOM     39  N   UNL     1       0.860  -6.204   2.176  1.00  0.00    -0.354 N 
ATOM     40  C   UNL     1      -0.515  -5.323   6.239  1.00  0.00     0.074 A 
ATOM     41  C   UNL     1      -0.162  -3.975   6.624  1.00  0.00     0.031 C 
ATOM     42  C   UNL     1       1.939  -5.753   0.266  1.00  0.00     0.029 A 
ATOM     43  C   UNL     1       1.190  -6.784   0.972  1.00  0.00     0.049 A 
ATOM     44  H   UNL     1       0.305  -6.649   2.856  1.00  0.00     0.167 HD
ATOM     45  C   UNL     1      -1.208  -6.190   7.012  1.00  0.00     0.034 A 
ATOM     46  C   UNL     1       0.940  -8.022   0.505  1.00  0.00     0.034 A 
ATOM     47  C   UNL     1      -1.563  -7.517   6.587  1.00  0.00     0.049 A 
ATOM     48  C   UNL     1       0.178  -8.964   1.395  1.00  0.00     0.074 A 
ATOM     49  C   UNL     1      -2.265  -8.484   7.281  1.00  0.00     0.029 A 
ATOM     50  N   UNL     1      -1.242  -8.061   5.350  1.00  0.00    -0.354 N 
ATOM     51  N   UNL     1      -0.332  -8.739   2.583  1.00  0.00    -0.248 NA
ATOM     52  C   UNL     1      -0.050 -10.322   0.886  1.00  0.00     0.031 C 
ATOM     53  C   UNL     1      -2.356  -9.618   6.469  1.00  0.00     0.029 A 
ATOM     54  C   UNL     1      -1.726  -9.353   5.261  1.00  0.00     0.049 A 
ATOM     55  H   UNL     1      -0.742  -7.595   4.641  1.00  0.00     0.167 HD
ATOM     56  C   UNL     1      -0.948  -9.923   2.964  1.00  0.00     0.074 A 
ATOM     57  C   UNL     1      -0.778 -10.851   1.861  1.00  0.00     0.031 C 
ATOM     58  C   UNL     1      -1.571 -10.230   4.128  1.00  0.00     0.034 A 
BRANCH  45  59
ATOM     59  C   UNL     1      -1.647  -5.728   8.375  1.00  0.00     0.023 A 
ATOM     60  C   UNL     1      -2.729  -4.832   8.488  1.00  0.00     0.012 A 
ATOM     61  C   UNL     1      -1.036  -6.227   9.542  1.00  0.00     0.148 A 
ATOM     62  C   UNL     1      -3.185  -4.424   9.742  1.00  0.00     0.002 A 
ATOM     63  C   UNL     1      -1.520  -5.844  10.789  1.00  0.00     0.091 A 
ATOM     64  F   UNL     1       0.003  -7.063   9.411  1.00  0.00    -0.205 F 
ATOM     65  C   UNL     1      -2.588  -4.938  10.890  1.00  0.00     0.022 A 
BRANCH  63  66
ATOM     66  S   UNL     1      -0.862  -6.491  12.331  1.00  0.00     0.127 S 
ATOM     67  O   UNL     1      -0.299  -5.285  12.940  1.00  0.00    -0.237 OA
ATOM     68  O   UNL     1      -2.066  -7.000  12.987  1.00  0.00    -0.237 OA
ATOM     69  O   UNL     1       0.112  -7.508  11.961  1.00  0.00    -0.744 OA
ENDBRANCH  63  66
ENDBRANCH  45  59
BRANCH  46  70
ATOM     70  C   UNL     1       1.383  -8.408  -0.865  1.00  0.00     0.023 A 
ATOM     71  C   UNL     1       0.416  -8.638  -1.862  1.00  0.00     0.012 A 
ATOM     72  C   UNL     1       2.748  -8.479  -1.211  1.00  0.00     0.148 A 
ATOM     73  C   UNL     1       0.798  -8.944  -3.170  1.00  0.00     0.002 A 
ATOM     74  C   UNL     1       3.122  -8.722  -2.529  1.00  0.00     0.091 A 
ATOM     75  F   UNL     1       3.660  -8.282  -0.248  1.00  0.00    -0.205 F 
ATOM     76  C   UNL     1       2.148  -8.970  -3.507  1.00  0.00     0.022 A 
BRANCH  74  77
ATOM     77  S   UNL     1       4.833  -8.615  -3.070  1.00  0.00     0.127 S 
ATOM     78  O   UNL     1       5.198 -10.023  -3.191  1.00  0.00    -0.237 OA
ATOM     79  O   UNL     1       4.710  -7.899  -4.341  1.00  0.00    -0.237 OA
ATOM     80  O   UNL     1       5.521  -7.863  -2.029  1.00  0.00    -0.744 OA
ENDBRANCH  74  77
ENDBRANCH  46  70
BRANCH  58  81
ATOM     81  C   UNL     1      -2.108 -11.626   4.275  1.00  0.00     0.023 A 
ATOM     82  C   UNL     1      -1.212 -12.684   4.526  1.00  0.00     0.012 A 
ATOM     83  C   UNL     1      -3.494 -11.867   4.284  1.00  0.00     0.148 A 
ATOM     84  C   UNL     1      -1.691 -13.969   4.770  1.00  0.00     0.002 A 
ATOM     85  C   UNL     1      -3.965 -13.140   4.576  1.00  0.00     0.091 A 
ATOM     86  F   UNL     1      -4.323 -10.846   4.022  1.00  0.00    -0.205 F 
ATOM     87  C   UNL     1      -3.065 -14.194   4.810  1.00  0.00     0.022 A 
BRANCH  85  88
ATOM     88  S   UNL     1      -5.715 -13.498   4.756  1.00  0.00     0.127 S 
ATOM     89  O   UNL     1      -5.988 -14.265   3.542  1.00  0.00    -0.237 OA
ATOM     90  O   UNL     1      -5.747 -14.280   5.992  1.00  0.00    -0.237 OA
ATOM     91  O   UNL     1      -6.381 -12.205   4.841  1.00  0.00    -0.744 OA
ENDBRANCH  85  88
ENDBRANCH  58  81
ENDBRANCH  32  33
ENDBRANCH  25  27
ENDBRANCH  24  25
ENDBRANCH   1  24
TORSDOF 17
