REMARK SMILES N#C/C(=C/c1cc(Br)ccc1OCC(=O)OCCOC(=O)c1ccc(-c2c3nc(c(-c4cccc(S(=O)(=O)[O-])c4F)c4ccc([nH]4)c(-c4cccc(S(=O)(=O)[O-])c4F)c4nc(c(-c5cccc(S(=O)(=O)[O-])c5F)c5ccc2[nH]5)C=C4)C=C3)cc1)c1ccc(F)cc1
REMARK SMILES IDX 17 1 16 2 14 3 15 4 13 5 12 6 11 7 5 8 6 9 7 10 10 11 8 12
REMARK SMILES IDX 9 13 4 14 3 15 2 16 1 17 85 18 86 19 91 20 87 21 90 22 88 23
REMARK SMILES IDX 89 24 18 25 19 26 20 27 21 28 22 29 23 30 84 31 24 32 83 33
REMARK SMILES IDX 25 34 26 35 27 36 77 37 28 38 82 39 76 40 78 41 29 42 81 43
REMARK SMILES IDX 75 44 74 45 30 47 62 48 42 49 61 50 43 51 46 52 60 53 79 54
REMARK SMILES IDX 44 55 45 56 59 58 80 59 47 60 31 61 32 62 40 63 33 64 35 65
REMARK SMILES IDX 41 66 34 67 36 68 37 69 38 70 39 71 63 72 64 73 72 74 65 75
REMARK SMILES IDX 67 76 73 77 66 78 68 79 69 80 70 81 71 82 48 83 49 84 57 85
REMARK SMILES IDX 50 86 52 87 58 88 51 89 53 90 54 91 55 92 56 93
REMARK H PARENT 78 46 46 57
REMARK Flexibility Score: inf
ROOT
ATOM      1  C   UNL     1       3.397   4.566   2.752  1.00  0.00     0.274 C 
ENDROOT
BRANCH   1   2
ATOM      2  O   UNL     1       4.338   3.500   2.978  1.00  0.00    -0.460 OA
BRANCH   2   3
ATOM      3  C   UNL     1       3.904   2.576   3.870  1.00  0.00     0.344 C 
ATOM      4  O   UNL     1       2.848   2.655   4.480  1.00  0.00    -0.248 OA
BRANCH   3   5
ATOM      5  C   UNL     1       4.833   1.370   4.004  1.00  0.00     0.352 C 
BRANCH   5   6
ATOM      6  O   UNL     1       6.175   1.370   3.600  1.00  0.00    -0.481 OA
BRANCH   6   7
ATOM      7  C   UNL     1       6.609   1.301   2.311  1.00  0.00     0.127 A 
ATOM      8  C   UNL     1       5.915   1.228   1.086  1.00  0.00     0.019 A 
ATOM      9  C   UNL     1       6.691   1.423  -0.083  1.00  0.00     0.027 A 
ATOM     10  C   UNL     1       8.089   1.450  -0.065  1.00  0.00     0.018 A 
ATOM     11  C   UNL     1       8.026   1.334   2.309  1.00  0.00     0.048 A 
ATOM     12  Br  UNL     1       9.055   1.551  -1.685  1.00  0.00    -0.051 Br
ATOM     13  C   UNL     1       8.768   1.369   1.133  1.00  0.00     0.019 A 
BRANCH   8  14
ATOM     14  C   UNL     1       4.453   0.941   0.882  1.00  0.00     0.032 C 
ATOM     15  C   UNL     1       3.852   0.070   0.010  1.00  0.00     0.060 C 
BRANCH  15  16
ATOM     16  C   UNL     1       2.332   0.070   0.010  1.00  0.00     0.100 C 
ATOM     17  N   UNL     1       1.071   0.070   0.010  1.00  0.00    -0.192 NA
ENDBRANCH  15  16
BRANCH  15  18
ATOM     18  C   UNL     1       4.713  -0.741  -0.868  1.00  0.00    -0.008 A 
ATOM     19  C   UNL     1       5.652  -1.619  -0.278  1.00  0.00     0.012 A 
ATOM     20  C   UNL     1       4.812  -0.462  -2.241  1.00  0.00     0.012 A 
ATOM     21  C   UNL     1       6.704  -2.146  -1.027  1.00  0.00     0.040 A 
ATOM     22  C   UNL     1       5.871  -0.996  -2.987  1.00  0.00     0.040 A 
ATOM     23  C   UNL     1       6.814  -1.813  -2.370  1.00  0.00     0.123 A 
ATOM     24  F   UNL     1       7.851  -2.285  -3.074  1.00  0.00    -0.207 F 
ENDBRANCH  15  18
ENDBRANCH   8  14
ENDBRANCH   6   7
ENDBRANCH   5   6
ENDBRANCH   3   5
ENDBRANCH   2   3
ENDBRANCH   1   2
BRANCH   1  25
ATOM     25  C   UNL     1       2.383   4.256   1.583  1.00  0.00     0.275 C 
BRANCH  25  26
ATOM     26  O   UNL     1       1.247   3.221   1.745  1.00  0.00    -0.458 OA
BRANCH  26  27
ATOM     27  C   UNL     1       0.713   2.677   0.539  1.00  0.00     0.338 C 
ATOM     28  O   UNL     1       1.337   2.977  -0.489  1.00  0.00    -0.246 OA
BRANCH  27  29
ATOM     29  C   UNL     1      -0.613   1.546   0.339  1.00  0.00     0.060 A 
ATOM     30  C   UNL     1      -0.813   0.386   1.214  1.00  0.00     0.016 A 
ATOM     31  C   UNL     1      -0.730   1.145  -1.099  1.00  0.00     0.016 A 
ATOM     32  C   UNL     1      -0.686  -1.102   0.630  1.00  0.00     0.010 A 
ATOM     33  C   UNL     1      -0.558  -0.300  -1.675  1.00  0.00     0.010 A 
ATOM     34  C   UNL     1      -0.327  -1.448  -0.842  1.00  0.00    -0.014 A 
BRANCH  34  35
ATOM     35  C   UNL     1       0.555  -2.872  -1.318  1.00  0.00     0.031 A 
ATOM     36  C   UNL     1       1.856  -3.366  -2.339  1.00  0.00     0.074 A 
ATOM     37  C   UNL     1      -0.317  -3.897  -1.245  1.00  0.00     0.049 A 
ATOM     38  N   UNL     1       1.890  -4.055  -3.500  1.00  0.00    -0.248 NA
ATOM     39  C   UNL     1       3.237  -3.390  -1.776  1.00  0.00     0.031 C 
ATOM     40  C   UNL     1      -1.529  -3.747  -0.461  1.00  0.00     0.029 A 
ATOM     41  N   UNL     1      -0.701  -4.612  -2.365  1.00  0.00    -0.354 N 
ATOM     42  C   UNL     1       3.264  -4.402  -3.855  1.00  0.00     0.074 A 
ATOM     43  C   UNL     1       4.029  -3.925  -2.727  1.00  0.00     0.031 C 
ATOM     44  C   UNL     1      -2.530  -3.765  -1.338  1.00  0.00     0.029 A 
ATOM     45  C   UNL     1      -2.047  -4.379  -2.572  1.00  0.00     0.049 A 
ATOM     46  H   UNL     1      -0.120  -5.185  -2.915  1.00  0.00     0.167 HD
ATOM     47  C   UNL     1       3.820  -5.135  -4.913  1.00  0.00     0.034 A 
ATOM     48  C   UNL     1      -2.867  -4.653  -3.600  1.00  0.00     0.034 A 
ATOM     49  C   UNL     1       2.998  -6.024  -5.735  1.00  0.00     0.049 A 
ATOM     50  C   UNL     1      -2.371  -5.612  -4.607  1.00  0.00     0.074 A 
ATOM     51  C   UNL     1       3.373  -6.964  -6.696  1.00  0.00     0.029 A 
ATOM     52  N   UNL     1       1.632  -6.156  -5.591  1.00  0.00    -0.354 N 
ATOM     53  N   UNL     1      -1.142  -5.842  -4.985  1.00  0.00    -0.248 NA
ATOM     54  C   UNL     1      -3.377  -6.506  -5.181  1.00  0.00     0.031 C 
ATOM     55  C   UNL     1       2.233  -7.663  -7.115  1.00  0.00     0.029 A 
ATOM     56  C   UNL     1       1.158  -7.172  -6.402  1.00  0.00     0.049 A 
ATOM     57  H   UNL     1       1.074  -5.605  -4.996  1.00  0.00     0.167 HD
ATOM     58  C   UNL     1      -1.216  -6.958  -5.799  1.00  0.00     0.074 A 
ATOM     59  C   UNL     1      -2.608  -7.353  -5.855  1.00  0.00     0.031 C 
ATOM     60  C   UNL     1      -0.210  -7.598  -6.437  1.00  0.00     0.034 A 
BRANCH  47  61
ATOM     61  C   UNL     1       5.370  -5.268  -5.304  1.00  0.00     0.023 A 
ATOM     62  C   UNL     1       6.283  -6.004  -4.516  1.00  0.00     0.012 A 
ATOM     63  C   UNL     1       5.824  -4.952  -6.639  1.00  0.00     0.148 A 
ATOM     64  C   UNL     1       7.573  -6.357  -4.990  1.00  0.00     0.002 A 
ATOM     65  C   UNL     1       7.094  -5.349  -7.120  1.00  0.00     0.091 A 
ATOM     66  F   UNL     1       4.977  -4.314  -7.460  1.00  0.00    -0.205 F 
ATOM     67  C   UNL     1       7.976  -6.038  -6.285  1.00  0.00     0.022 A 
BRANCH  65  68
ATOM     68  S   UNL     1       7.646  -5.132  -8.841  1.00  0.00     0.127 S 
ATOM     69  O   UNL     1       8.529  -3.973  -8.737  1.00  0.00    -0.237 OA
ATOM     70  O   UNL     1       8.340  -6.389  -9.127  1.00  0.00    -0.237 OA
ATOM     71  O   UNL     1       6.431  -4.932  -9.624  1.00  0.00    -0.744 OA
ENDBRANCH  65  68
ENDBRANCH  47  61
BRANCH  48  72
ATOM     72  C   UNL     1      -4.292  -4.330  -3.356  1.00  0.00     0.023 A 
ATOM     73  C   UNL     1      -5.001  -5.206  -2.504  1.00  0.00     0.012 A 
ATOM     74  C   UNL     1      -4.769  -3.026  -3.583  1.00  0.00     0.148 A 
ATOM     75  C   UNL     1      -6.149  -4.775  -1.851  1.00  0.00     0.002 A 
ATOM     76  C   UNL     1      -5.914  -2.602  -2.921  1.00  0.00     0.091 A 
ATOM     77  F   UNL     1      -4.034  -2.198  -4.341  1.00  0.00    -0.205 F 
ATOM     78  C   UNL     1      -6.601  -3.474  -2.054  1.00  0.00     0.022 A 
BRANCH  76  79
ATOM     79  S   UNL     1      -6.484  -0.899  -2.993  1.00  0.00     0.127 S 
ATOM     80  O   UNL     1      -7.532  -0.981  -3.996  1.00  0.00    -0.237 OA
ATOM     81  O   UNL     1      -6.944  -0.659  -1.629  1.00  0.00    -0.237 OA
ATOM     82  O   UNL     1      -5.300  -0.114  -3.367  1.00  0.00    -0.744 OA
ENDBRANCH  76  79
ENDBRANCH  48  72
BRANCH  60  83
ATOM     83  C   UNL     1      -0.577  -8.794  -7.257  1.00  0.00     0.023 A 
ATOM     84  C   UNL     1      -1.232  -8.599  -8.487  1.00  0.00     0.012 A 
ATOM     85  C   UNL     1      -0.274 -10.097  -6.821  1.00  0.00     0.148 A 
ATOM     86  C   UNL     1      -1.618  -9.690  -9.260  1.00  0.00     0.002 A 
ATOM     87  C   UNL     1      -0.628 -11.179  -7.616  1.00  0.00     0.091 A 
ATOM     88  F   UNL     1       0.327 -10.254  -5.633  1.00  0.00    -0.205 F 
ATOM     89  C   UNL     1      -1.309 -10.977  -8.829  1.00  0.00     0.022 A 
BRANCH  87  90
ATOM     90  S   UNL     1      -0.221 -12.872  -7.179  1.00  0.00     0.127 S 
ATOM     91  O   UNL     1      -1.538 -13.419  -6.850  1.00  0.00    -0.237 OA
ATOM     92  O   UNL     1       0.355 -13.382  -8.425  1.00  0.00    -0.237 OA
ATOM     93  O   UNL     1       0.714 -12.791  -6.068  1.00  0.00    -0.744 OA
ENDBRANCH  87  90
ENDBRANCH  60  83
ENDBRANCH  34  35
ENDBRANCH  27  29
ENDBRANCH  26  27
ENDBRANCH  25  26
ENDBRANCH   1  25
TORSDOF 19
