REMARK SMILES CC(=O)O[C@@H]1CC[C@@]23C(=O)O[C@]4(CC[C@]2(O)C1)[C@H]3CC[C@]1(C)[C@H](C(=O)OCCOC(=O)c2ccc(-c3c5nc(c(-c6cccc(S(=O)(=O)[O-])c6F)c6ccc([nH]6)c(-c6cccc(S(=O)(=O)[O-])c6F)c6nc(c(-c7cccc(S(=O)(=O)[O-])c7F)c7ccc3[nH]7)C=C6)C=C5)cc2)CC[C@@H]14
REMARK SMILES IDX 28 1 27 2 26 3 24 4 25 5 23 6 5 7 6 8 17 9 7 10 15 11 8 12
REMARK SMILES IDX 14 13 9 14 18 15 13 16 10 17 11 18 12 19 19 20 97 21 20 22
REMARK SMILES IDX 21 23 96 24 22 25 95 26 4 27 2 28 1 29 3 30 16 31 29 33
REMARK SMILES IDX 30 34 31 35 32 36 33 37 94 38 34 39 93 40 35 41 36 42 37 43
REMARK SMILES IDX 87 44 38 45 92 46 86 47 88 48 39 49 91 50 85 51 84 52 40 54
REMARK SMILES IDX 72 55 52 56 71 57 53 58 56 59 70 60 89 61 54 62 55 63 69 65
REMARK SMILES IDX 90 66 57 67 41 68 42 69 50 70 43 71 45 72 51 73 44 74 46 75
REMARK SMILES IDX 47 76 48 77 49 78 73 79 74 80 82 81 75 82 77 83 83 84 76 85
REMARK SMILES IDX 78 86 79 87 80 88 81 89 58 90 59 91 67 92 60 93 62 94 68 95
REMARK SMILES IDX 61 96 63 97 64 98 65 99 66 100
REMARK H PARENT 16 32 88 53 56 64
REMARK Flexibility Score: inf
ROOT
ATOM      1  C   UNL     1       2.071  12.532   3.194  1.00  0.00     0.275 C 
ENDROOT
BRANCH   1   2
ATOM      2  C   UNL     1       1.237  11.290   3.503  1.00  0.00     0.274 C 
BRANCH   2   3
ATOM      3  O   UNL     1       2.021  10.106   3.261  1.00  0.00    -0.462 OA
BRANCH   3   4
ATOM      4  C   UNL     1       1.758   9.486   2.088  1.00  0.00     0.309 C 
ATOM      5  O   UNL     1       0.853   9.818   1.326  1.00  0.00    -0.252 OA
BRANCH   4   6
ATOM      6  C   UNL     1       2.782   8.437   1.690  1.00  0.00     0.105 C 
ATOM      7  C   UNL     1       0.536   1.245   3.673  1.00  0.00     0.179 C 
ATOM      8  C   UNL     1      -0.073   2.595   3.378  1.00  0.00     0.047 C 
ATOM      9  C   UNL     1       1.582   1.456   4.783  1.00  0.00     0.081 C 
ATOM     10  C   UNL     1       1.056   3.507   2.952  1.00  0.00     0.026 C 
ATOM     11  C   UNL     1       2.565   2.661   4.659  1.00  0.00     0.085 C 
ATOM     12  C   UNL     1       2.031   4.022   4.345  1.00  0.00     0.103 C 
ATOM     13  C   UNL     1       3.621   2.469   3.475  1.00  0.00     0.041 C 
ATOM     14  C   UNL     1       1.253   5.226   4.247  1.00  0.00     0.316 C 
ATOM     15  C   UNL     1       3.431   5.015   4.317  1.00  0.00     0.054 C 
ATOM     16  C   UNL     1       3.788   3.730   2.444  1.00  0.00     0.052 C 
ATOM     17  O   UNL     1       0.298   5.664   4.864  1.00  0.00    -0.251 OA
ATOM     18  O   UNL     1       1.845   5.704   3.060  1.00  0.00    -0.458 OA
ATOM     19  C   UNL     1       3.245   5.189   2.886  1.00  0.00     0.120 C 
ATOM     20  C   UNL     1       3.608   6.403   5.007  1.00  0.00     0.009 C 
ATOM     21  C   UNL     1       3.878   6.262   2.042  1.00  0.00     0.040 C 
ATOM     22  C   UNL     1       3.278   7.668   4.167  1.00  0.00     0.008 C 
ATOM     23  C   UNL     1       3.740   7.681   2.674  1.00  0.00    -0.013 C 
ATOM     24  C   UNL     1       3.108   6.302   0.696  1.00  0.00     0.009 C 
ATOM     25  C   UNL     1       5.146   8.324   2.579  1.00  0.00     0.013 C 
ATOM     26  C   UNL     1       2.055   7.373   0.868  1.00  0.00     0.016 C 
BRANCH   7  27
ATOM     27  O   UNL     1       1.177   0.665   2.508  1.00  0.00    -0.462 OA
BRANCH  27  28
ATOM     28  C   UNL     1       0.393   0.361   1.433  1.00  0.00     0.302 C 
ATOM     29  C   UNL     1       1.206  -0.247   0.327  1.00  0.00     0.139 C 
ATOM     30  O   UNL     1      -0.819   0.510   1.370  1.00  0.00    -0.253 OA
ENDBRANCH  27  28
ENDBRANCH   7  27
BRANCH  11  31
ATOM     31  O   UNL     1       3.226   2.705   5.934  1.00  0.00    -0.389 OA
ATOM     32  H   UNL     1       3.864   3.436   5.943  1.00  0.00     0.211 HD
ENDBRANCH  11  31
ENDBRANCH   4   6
ENDBRANCH   3   4
ENDBRANCH   2   3
ENDBRANCH   1   2
BRANCH   1  33
ATOM     33  O   UNL     1       2.512  12.529   1.821  1.00  0.00    -0.458 OA
BRANCH  33  34
ATOM     34  C   UNL     1       3.776  12.084   1.642  1.00  0.00     0.338 C 
ATOM     35  O   UNL     1       4.562  11.730   2.507  1.00  0.00    -0.246 OA
BRANCH  34  36
ATOM     36  C   UNL     1       4.137  12.048   0.219  1.00  0.00     0.060 A 
ATOM     37  C   UNL     1       3.712  10.992  -0.585  1.00  0.00     0.016 A 
ATOM     38  C   UNL     1       5.080  12.954  -0.257  1.00  0.00     0.016 A 
ATOM     39  C   UNL     1       4.340  10.748  -1.802  1.00  0.00     0.010 A 
ATOM     40  C   UNL     1       5.595  12.794  -1.545  1.00  0.00     0.010 A 
ATOM     41  C   UNL     1       5.264  11.665  -2.316  1.00  0.00    -0.014 A 
BRANCH  41  42
ATOM     42  C   UNL     1       5.848  11.478  -3.672  1.00  0.00     0.031 A 
ATOM     43  C   UNL     1       7.341  11.454  -3.867  1.00  0.00     0.074 A 
ATOM     44  C   UNL     1       5.027  11.395  -4.739  1.00  0.00     0.049 A 
ATOM     45  N   UNL     1       8.029  11.495  -4.979  1.00  0.00    -0.248 NA
ATOM     46  C   UNL     1       8.173  11.396  -2.652  1.00  0.00     0.031 C 
ATOM     47  C   UNL     1       3.562  11.404  -4.687  1.00  0.00     0.029 A 
ATOM     48  N   UNL     1       5.306  11.319  -6.081  1.00  0.00    -0.354 N 
ATOM     49  C   UNL     1       9.366  11.537  -4.601  1.00  0.00     0.074 A 
ATOM     50  C   UNL     1       9.395  11.512  -3.154  1.00  0.00     0.031 C 
ATOM     51  C   UNL     1       3.072  11.336  -5.931  1.00  0.00     0.029 A 
ATOM     52  C   UNL     1       4.181  11.366  -6.874  1.00  0.00     0.049 A 
ATOM     53  H   UNL     1       6.219  11.238  -6.441  1.00  0.00     0.167 HD
ATOM     54  C   UNL     1      10.467  11.589  -5.389  1.00  0.00     0.034 A 
ATOM     55  C   UNL     1       4.049  11.481  -8.208  1.00  0.00     0.034 A 
ATOM     56  C   UNL     1      10.428  11.573  -6.828  1.00  0.00     0.049 A 
ATOM     57  C   UNL     1       5.285  11.552  -9.056  1.00  0.00     0.074 A 
ATOM     58  C   UNL     1      11.488  11.567  -7.717  1.00  0.00     0.029 A 
ATOM     59  N   UNL     1       9.269  11.568  -7.589  1.00  0.00    -0.354 N 
ATOM     60  N   UNL     1       6.542  11.512  -8.685  1.00  0.00    -0.248 NA
ATOM     61  C   UNL     1       5.087  11.661 -10.507  1.00  0.00     0.031 C 
ATOM     62  C   UNL     1      10.970  11.593  -9.016  1.00  0.00     0.029 A 
ATOM     63  C   UNL     1       9.587  11.572  -8.937  1.00  0.00     0.049 A 
ATOM     64  H   UNL     1       8.354  11.562  -7.225  1.00  0.00     0.167 HD
ATOM     65  C   UNL     1       7.285  11.556  -9.858  1.00  0.00     0.074 A 
ATOM     66  C   UNL     1       6.335  11.604 -10.951  1.00  0.00     0.031 C 
ATOM     67  C   UNL     1       8.631  11.569 -10.015  1.00  0.00     0.034 A 
BRANCH  54  68
ATOM     68  C   UNL     1      11.815  11.661  -4.715  1.00  0.00     0.023 A 
ATOM     69  C   UNL     1      12.330  10.533  -4.044  1.00  0.00     0.012 A 
ATOM     70  C   UNL     1      12.600  12.829  -4.800  1.00  0.00     0.148 A 
ATOM     71  C   UNL     1      13.585  10.579  -3.437  1.00  0.00     0.002 A 
ATOM     72  C   UNL     1      13.869  12.852  -4.233  1.00  0.00     0.091 A 
ATOM     73  F   UNL     1      12.088  13.898  -5.427  1.00  0.00    -0.205 F 
ATOM     74  C   UNL     1      14.357  11.733  -3.540  1.00  0.00     0.022 A 
BRANCH  72  75
ATOM     75  S   UNL     1      14.974  14.261  -4.381  1.00  0.00     0.127 S 
ATOM     76  O   UNL     1      15.005  14.756  -3.005  1.00  0.00    -0.237 OA
ATOM     77  O   UNL     1      16.216  13.630  -4.830  1.00  0.00    -0.237 OA
ATOM     78  O   UNL     1      14.360  15.155  -5.351  1.00  0.00    -0.744 OA
ENDBRANCH  72  75
ENDBRANCH  54  68
BRANCH  55  79
ATOM     79  C   UNL     1       2.691  11.529  -8.819  1.00  0.00     0.023 A 
ATOM     80  C   UNL     1       2.248  10.448  -9.606  1.00  0.00     0.012 A 
ATOM     81  C   UNL     1       1.826  12.620  -8.600  1.00  0.00     0.148 A 
ATOM     82  C   UNL     1       0.981  10.467 -10.189  1.00  0.00     0.002 A 
ATOM     83  C   UNL     1       0.543  12.605  -9.134  1.00  0.00     0.091 A 
ATOM     84  F   UNL     1       2.269  13.642  -7.855  1.00  0.00    -0.205 F 
ATOM     85  C   UNL     1       0.126  11.539  -9.945  1.00  0.00     0.022 A 
BRANCH  83  86
ATOM     86  S   UNL     1      -0.671  13.876  -8.765  1.00  0.00     0.127 S 
ATOM     87  O   UNL     1      -0.798  14.551 -10.054  1.00  0.00    -0.237 OA
ATOM     88  O   UNL     1      -1.831  13.077  -8.370  1.00  0.00    -0.237 OA
ATOM     89  O   UNL     1      -0.095  14.671  -7.689  1.00  0.00    -0.744 OA
ENDBRANCH  83  86
ENDBRANCH  55  79
BRANCH  67  90
ATOM     90  C   UNL     1       9.164  11.582 -11.423  1.00  0.00     0.023 A 
ATOM     91  C   UNL     1       9.053  12.745 -12.211  1.00  0.00     0.012 A 
ATOM     92  C   UNL     1       9.834  10.456 -11.941  1.00  0.00     0.148 A 
ATOM     93  C   UNL     1       9.568  12.773 -13.507  1.00  0.00     0.002 A 
ATOM     94  C   UNL     1      10.392  10.511 -13.211  1.00  0.00     0.091 A 
ATOM     95  F   UNL     1       9.911   9.353 -11.182  1.00  0.00    -0.205 F 
ATOM     96  C   UNL     1      10.248  11.662 -14.001  1.00  0.00     0.022 A 
BRANCH  94  97
ATOM     97  S   UNL     1      11.371   9.167 -13.891  1.00  0.00     0.127 S 
ATOM     98  O   UNL     1      10.487   8.654 -14.937  1.00  0.00    -0.237 OA
ATOM     99  O   UNL     1      12.557   9.867 -14.383  1.00  0.00    -0.237 OA
ATOM    100  O   UNL     1      11.623   8.252 -12.786  1.00  0.00    -0.744 OA
ENDBRANCH  94  97
ENDBRANCH  67  90
ENDBRANCH  41  42
ENDBRANCH  34  36
ENDBRANCH  33  34
ENDBRANCH   1  33
TORSDOF 17
