REMARK SMILES CCc1cc(C(=O)c2[nH]c3cc(Cl)ccc3c2CC(=O)OCCOC(=O)c2ccc(-c3c4nc(c(-c5cccc(S(=O)(=O)[O-])c5F)c5ccc([nH]5)c(-c5cccc(S(=O)(=O)[O-])c5F)c5nc(c(-c6cccc(S(=O)(=O)[O-])c6F)c6ccc3[nH]6)C=C5)C=C4)cc2)ncc1Cl
REMARK SMILES IDX 22 1 21 2 19 3 20 4 18 5 17 6 8 7 9 8 10 9 16 11 11 12 15 13
REMARK SMILES IDX 12 14 14 15 13 16 6 17 7 18 5 19 3 20 4 21 92 22 91 23 93 24
REMARK SMILES IDX 90 25 2 26 1 27 23 28 24 29 25 30 26 31 27 32 28 33 89 34
REMARK SMILES IDX 29 35 88 36 30 37 31 38 32 39 82 40 33 41 87 42 81 43 83 44
REMARK SMILES IDX 34 45 86 46 80 47 79 48 35 50 67 51 47 52 66 53 48 54 51 55
REMARK SMILES IDX 65 56 84 57 49 58 50 59 64 61 85 62 52 63 36 64 37 65 45 66
REMARK SMILES IDX 38 67 40 68 46 69 39 70 41 71 42 72 43 73 44 74 68 75 69 76
REMARK SMILES IDX 77 77 70 78 72 79 78 80 71 81 73 82 74 83 75 84 76 85 53 86
REMARK SMILES IDX 54 87 62 88 55 89 57 90 63 91 56 92 58 93 59 94 60 95 61 96
REMARK H PARENT 9 10 83 49 51 60
REMARK Flexibility Score: inf
ROOT
ATOM      1  C   UNL     1      -0.087  10.594  -1.704  1.00  0.00     0.274 C 
ENDROOT
BRANCH   1   2
ATOM      2  O   UNL     1      -0.313   9.518  -0.765  1.00  0.00    -0.462 OA
BRANCH   2   3
ATOM      3  C   UNL     1      -1.499   8.867  -0.863  1.00  0.00     0.310 C 
ATOM      4  O   UNL     1      -2.458   9.277  -1.513  1.00  0.00    -0.252 OA
BRANCH   3   5
ATOM      5  C   UNL     1      -1.513   7.491  -0.226  1.00  0.00     0.161 C 
BRANCH   5   6
ATOM      6  C   UNL     1      -0.655   7.256   0.981  1.00  0.00     0.000 A 
ATOM      7  C   UNL     1       0.628   6.714   1.049  1.00  0.00     0.093 A 
ATOM      8  N   UNL     1       0.983   6.677   2.376  1.00  0.00    -0.351 N 
ATOM      9  C   UNL     1      -0.050   7.078   3.177  1.00  0.00     0.048 A 
ATOM     10  H   UNL     1       1.867   6.397   2.707  1.00  0.00     0.167 HD
ATOM     11  C   UNL     1      -1.075   7.502   2.336  1.00  0.00     0.004 A 
ATOM     12  C   UNL     1      -0.137   7.113   4.572  1.00  0.00     0.047 A 
ATOM     13  C   UNL     1      -2.245   8.030   2.924  1.00  0.00     0.012 A 
ATOM     14  C   UNL     1      -1.312   7.623   5.125  1.00  0.00     0.043 A 
ATOM     15  C   UNL     1      -2.349   8.088   4.321  1.00  0.00     0.021 A 
ATOM     16  Cl  UNL     1      -1.472   7.682   6.840  1.00  0.00    -0.084 Cl
BRANCH   7  17
ATOM     17  C   UNL     1       1.611   6.318   0.050  1.00  0.00     0.227 C 
ATOM     18  O   UNL     1       2.639   6.980  -0.087  1.00  0.00    -0.285 OA
BRANCH  17  19
ATOM     19  C   UNL     1       1.532   4.951  -0.593  1.00  0.00     0.113 A 
ATOM     20  C   UNL     1       1.089   2.553  -0.385  1.00  0.00    -0.026 A 
ATOM     21  C   UNL     1       0.861   3.893   0.027  1.00  0.00     0.037 A 
ATOM     22  C   UNL     1       1.960   2.359  -1.464  1.00  0.00     0.062 A 
ATOM     23  C   UNL     1       2.523   3.479  -2.072  1.00  0.00     0.132 A 
ATOM     24  Cl  UNL     1       2.453   0.832  -2.076  1.00  0.00    -0.082 Cl
ATOM     25  N   UNL     1       2.345   4.754  -1.657  1.00  0.00    -0.251 NA
BRANCH  20  26
ATOM     26  C   UNL     1       0.373   1.495   0.435  1.00  0.00     0.034 C 
ATOM     27  C   UNL     1       0.679   0.013   0.275  1.00  0.00     0.009 C 
ENDBRANCH  20  26
ENDBRANCH  17  19
ENDBRANCH   7  17
ENDBRANCH   5   6
ENDBRANCH   3   5
ENDBRANCH   2   3
ENDBRANCH   1   2
BRANCH   1  28
ATOM     28  C   UNL     1       0.923  10.180  -2.785  1.00  0.00     0.275 C 
BRANCH  28  29
ATOM     29  O   UNL     1       0.368   9.246  -3.735  1.00  0.00    -0.458 OA
BRANCH  29  30
ATOM     30  C   UNL     1       0.413   7.968  -3.323  1.00  0.00     0.338 C 
ATOM     31  O   UNL     1       0.803   7.561  -2.229  1.00  0.00    -0.246 OA
BRANCH  30  32
ATOM     32  C   UNL     1      -0.148   7.018  -4.266  1.00  0.00     0.060 A 
ATOM     33  C   UNL     1      -1.397   6.462  -3.973  1.00  0.00     0.016 A 
ATOM     34  C   UNL     1       0.677   6.476  -5.250  1.00  0.00     0.016 A 
ATOM     35  C   UNL     1      -1.813   5.321  -4.648  1.00  0.00     0.010 A 
ATOM     36  C   UNL     1       0.238   5.359  -5.954  1.00  0.00     0.010 A 
ATOM     37  C   UNL     1      -0.997   4.764  -5.643  1.00  0.00    -0.014 A 
BRANCH  37  38
ATOM     38  C   UNL     1      -1.442   3.584  -6.412  1.00  0.00     0.031 A 
ATOM     39  C   UNL     1      -0.745   2.267  -6.260  1.00  0.00     0.074 A 
ATOM     40  C   UNL     1      -2.423   3.747  -7.316  1.00  0.00     0.049 A 
ATOM     41  N   UNL     1      -0.845   1.191  -6.994  1.00  0.00    -0.248 NA
ATOM     42  C   UNL     1       0.197   2.146  -5.136  1.00  0.00     0.031 C 
ATOM     43  C   UNL     1      -3.168   4.987  -7.532  1.00  0.00     0.029 A 
ATOM     44  N   UNL     1      -2.926   2.882  -8.251  1.00  0.00    -0.354 N 
ATOM     45  C   UNL     1       0.047   0.277  -6.450  1.00  0.00     0.074 A 
ATOM     46  C   UNL     1       0.679   0.924  -5.323  1.00  0.00     0.031 C 
ATOM     47  C   UNL     1      -4.013   4.816  -8.558  1.00  0.00     0.029 A 
ATOM     48  C   UNL     1      -3.825   3.476  -9.103  1.00  0.00     0.049 A 
ATOM     49  H   UNL     1      -2.671   1.932  -8.306  1.00  0.00     0.167 HD
ATOM     50  C   UNL     1       0.308  -0.990  -6.851  1.00  0.00     0.034 A 
ATOM     51  C   UNL     1      -4.395   3.010 -10.229  1.00  0.00     0.034 A 
ATOM     52  C   UNL     1      -0.343  -1.622  -7.966  1.00  0.00     0.049 A 
ATOM     53  C   UNL     1      -4.070   1.615 -10.677  1.00  0.00     0.074 A 
ATOM     54  C   UNL     1      -0.166  -2.902  -8.458  1.00  0.00     0.029 A 
ATOM     55  N   UNL     1      -1.300  -1.012  -8.764  1.00  0.00    -0.354 N 
ATOM     56  N   UNL     1      -3.271   0.738 -10.117  1.00  0.00    -0.248 NA
ATOM     57  C   UNL     1      -4.734   1.137 -11.895  1.00  0.00     0.031 C 
ATOM     58  C   UNL     1      -1.019  -3.067  -9.556  1.00  0.00     0.029 A 
ATOM     59  C   UNL     1      -1.728  -1.890  -9.743  1.00  0.00     0.049 A 
ATOM     60  H   UNL     1      -1.626  -0.090  -8.650  1.00  0.00     0.167 HD
ATOM     61  C   UNL     1      -3.357  -0.407 -10.896  1.00  0.00     0.074 A 
ATOM     62  C   UNL     1      -4.296  -0.114 -11.963  1.00  0.00     0.031 C 
ATOM     63  C   UNL     1      -2.709  -1.589 -10.754  1.00  0.00     0.034 A 
BRANCH  50  64
ATOM     64  C   UNL     1       1.308  -1.788  -6.056  1.00  0.00     0.023 A 
ATOM     65  C   UNL     1       0.923  -2.334  -4.814  1.00  0.00     0.012 A 
ATOM     66  C   UNL     1       2.602  -2.042  -6.549  1.00  0.00     0.148 A 
ATOM     67  C   UNL     1       1.816  -3.104  -4.069  1.00  0.00     0.002 A 
ATOM     68  C   UNL     1       3.477  -2.837  -5.814  1.00  0.00     0.091 A 
ATOM     69  F   UNL     1       2.966  -1.489  -7.715  1.00  0.00    -0.205 F 
ATOM     70  C   UNL     1       3.088  -3.364  -4.572  1.00  0.00     0.022 A 
BRANCH  68  71
ATOM     71  S   UNL     1       5.112  -3.270  -6.424  1.00  0.00     0.127 S 
ATOM     72  O   UNL     1       5.954  -2.289  -5.742  1.00  0.00    -0.237 OA
ATOM     73  O   UNL     1       5.274  -4.646  -5.951  1.00  0.00    -0.237 OA
ATOM     74  O   UNL     1       5.032  -3.141  -7.873  1.00  0.00    -0.744 OA
ENDBRANCH  68  71
ENDBRANCH  50  64
BRANCH  51  75
ATOM     75  C   UNL     1      -5.356   3.875 -10.963  1.00  0.00     0.023 A 
ATOM     76  C   UNL     1      -6.730   3.584 -10.890  1.00  0.00     0.012 A 
ATOM     77  C   UNL     1      -4.932   5.041 -11.631  1.00  0.00     0.148 A 
ATOM     78  C   UNL     1      -7.667   4.437 -11.474  1.00  0.00     0.002 A 
ATOM     79  C   UNL     1      -5.874   5.915 -12.162  1.00  0.00     0.091 A 
ATOM     80  F   UNL     1      -3.617   5.292 -11.704  1.00  0.00    -0.205 F 
ATOM     81  C   UNL     1      -7.241   5.609 -12.095  1.00  0.00     0.022 A 
BRANCH  79  82
ATOM     82  S   UNL     1      -5.408   7.515 -12.836  1.00  0.00     0.127 S 
ATOM     83  O   UNL     1      -5.428   7.253 -14.272  1.00  0.00    -0.237 OA
ATOM     84  O   UNL     1      -6.484   8.381 -12.352  1.00  0.00    -0.237 OA
ATOM     85  O   UNL     1      -4.104   7.809 -12.255  1.00  0.00    -0.744 OA
ENDBRANCH  79  82
ENDBRANCH  51  75
BRANCH  63  86
ATOM     86  C   UNL     1      -3.014  -2.667 -11.753  1.00  0.00     0.023 A 
ATOM     87  C   UNL     1      -2.410  -2.623 -13.024  1.00  0.00     0.012 A 
ATOM     88  C   UNL     1      -3.822  -3.764 -11.401  1.00  0.00     0.148 A 
ATOM     89  C   UNL     1      -2.620  -3.652 -13.940  1.00  0.00     0.002 A 
ATOM     90  C   UNL     1      -3.998  -4.804 -12.306  1.00  0.00     0.091 A 
ATOM     91  F   UNL     1      -4.404  -3.770 -10.193  1.00  0.00    -0.205 F 
ATOM     92  C   UNL     1      -3.403  -4.747 -13.577  1.00  0.00     0.022 A 
BRANCH  90  93
ATOM     93  S   UNL     1      -4.925  -6.284 -11.887  1.00  0.00     0.127 S 
ATOM     94  O   UNL     1      -6.190  -6.050 -12.580  1.00  0.00    -0.237 OA
ATOM     95  O   UNL     1      -4.100  -7.346 -12.466  1.00  0.00    -0.237 OA
ATOM     96  O   UNL     1      -4.998  -6.308 -10.432  1.00  0.00    -0.744 OA
ENDBRANCH  90  93
ENDBRANCH  63  86
ENDBRANCH  37  38
ENDBRANCH  30  32
ENDBRANCH  29  30
ENDBRANCH  28  29
ENDBRANCH   1  28
TORSDOF 18
