REMARK SMILES C#CCN(CC(=O)OCCOC(=O)c1ccc(-c2c3nc(c(-c4cccc(S(=O)(=O)[O-])c4F)c4ccc([nH]4)c(-c4cccc(S(=O)(=O)[O-])c4F)c4nc(c(-c5cccc(S(=O)(=O)[O-])c5F)c5ccc2[nH]5)C=C4)C=C3)cc1)C(=O)[C@H](c1ccc(Cl)cc1)C(C)C
REMARK SMILES IDX 9 1 8 2 6 3 7 4 5 5 4 6 3 7 2 8 1 9 77 10 78 11 79 12 87 13
REMARK SMILES IDX 88 14 89 15 80 16 81 17 86 18 82 19 85 20 83 21 84 22 10 23
REMARK SMILES IDX 11 24 12 25 13 26 14 27 15 28 76 29 16 30 75 31 17 32 18 33
REMARK SMILES IDX 19 34 69 35 20 36 74 37 68 38 70 39 21 40 73 41 67 42 66 43
REMARK SMILES IDX 22 45 54 46 34 47 53 48 35 49 38 50 52 51 71 52 36 53 37 54
REMARK SMILES IDX 51 56 72 57 39 58 23 59 24 60 32 61 25 62 27 63 33 64 26 65
REMARK SMILES IDX 28 66 29 67 30 68 31 69 55 70 56 71 64 72 57 73 59 74 65 75
REMARK SMILES IDX 58 76 60 77 61 78 62 79 63 80 40 81 41 82 49 83 42 84 44 85
REMARK SMILES IDX 50 86 43 87 45 88 46 89 47 90 48 91
REMARK H PARENT 70 44 38 55
REMARK Flexibility Score: inf
ROOT
ATOM      1  C   UNL     1      -1.868  -0.202  -1.583  1.00  0.00     0.274 C 
ENDROOT
BRANCH   1   2
ATOM      2  O   UNL     1      -1.983   1.242  -1.756  1.00  0.00    -0.461 OA
BRANCH   2   3
ATOM      3  C   UNL     1      -3.245   1.709  -1.959  1.00  0.00     0.325 C 
ATOM      4  O   UNL     1      -4.209   0.975  -2.183  1.00  0.00    -0.250 OA
BRANCH   3   5
ATOM      5  C   UNL     1      -3.456   3.231  -1.768  1.00  0.00     0.243 C 
BRANCH   5   6
ATOM      6  N   UNL     1      -2.415   4.285  -1.733  1.00  0.00    -0.320 N 
BRANCH   6   7
ATOM      7  C   UNL     1      -2.173   4.949  -3.013  1.00  0.00     0.210 C 
BRANCH   7   8
ATOM      8  C   UNL     1      -2.785   6.293  -3.014  1.00  0.00    -0.085 C 
ATOM      9  C   UNL     1      -3.199   7.415  -2.874  1.00  0.00     0.006 C 
ENDBRANCH   7   8
ENDBRANCH   6   7
BRANCH   6  10
ATOM     10  C   UNL     1      -1.768   4.886  -0.649  1.00  0.00     0.231 C 
ATOM     11  O   UNL     1      -0.946   5.796  -0.867  1.00  0.00    -0.274 OA
BRANCH  10  12
ATOM     12  C   UNL     1      -1.915   4.467   0.837  1.00  0.00     0.111 C 
BRANCH  12  13
ATOM     13  C   UNL     1      -3.403   4.476   1.325  1.00  0.00    -0.000 C 
ATOM     14  C   UNL     1      -3.584   4.455   2.838  1.00  0.00     0.008 C 
ATOM     15  C   UNL     1      -4.192   5.711   0.839  1.00  0.00     0.008 C 
ENDBRANCH  12  13
BRANCH  12  16
ATOM     16  C   UNL     1      -0.882   3.362   1.183  1.00  0.00    -0.035 A 
ATOM     17  C   UNL     1       0.088   2.971   0.229  1.00  0.00     0.006 A 
ATOM     18  C   UNL     1      -0.791   2.748   2.443  1.00  0.00     0.006 A 
ATOM     19  C   UNL     1       1.046   1.988   0.491  1.00  0.00     0.021 A 
ATOM     20  C   UNL     1       0.149   1.736   2.704  1.00  0.00     0.021 A 
ATOM     21  C   UNL     1       1.062   1.360   1.725  1.00  0.00     0.041 A 
ATOM     22  Cl  UNL     1       2.188   0.095   2.021  1.00  0.00    -0.084 Cl
ENDBRANCH  12  16
ENDBRANCH  10  12
ENDBRANCH   6  10
ENDBRANCH   5   6
ENDBRANCH   3   5
ENDBRANCH   2   3
ENDBRANCH   1   2
BRANCH   1  23
ATOM     23  C   UNL     1      -1.617  -0.664  -0.124  1.00  0.00     0.275 C 
BRANCH  23  24
ATOM     24  O   UNL     1      -2.767  -0.697   0.758  1.00  0.00    -0.458 OA
BRANCH  24  25
ATOM     25  C   UNL     1      -3.192   0.532   1.091  1.00  0.00     0.338 C 
ATOM     26  O   UNL     1      -2.797   1.570   0.590  1.00  0.00    -0.246 OA
BRANCH  25  27
ATOM     27  C   UNL     1      -4.230   0.677   2.100  1.00  0.00     0.060 A 
ATOM     28  C   UNL     1      -5.346   1.401   1.668  1.00  0.00     0.016 A 
ATOM     29  C   UNL     1      -3.922   0.576   3.460  1.00  0.00     0.016 A 
ATOM     30  C   UNL     1      -6.116   2.091   2.592  1.00  0.00     0.010 A 
ATOM     31  C   UNL     1      -4.760   1.196   4.397  1.00  0.00     0.010 A 
ATOM     32  C   UNL     1      -5.854   1.969   3.970  1.00  0.00    -0.014 A 
BRANCH  32  33
ATOM     33  C   UNL     1      -6.854   2.485   4.936  1.00  0.00     0.031 A 
ATOM     34  C   UNL     1      -6.569   3.574   5.934  1.00  0.00     0.074 A 
ATOM     35  C   UNL     1      -8.057   1.879   4.903  1.00  0.00     0.049 A 
ATOM     36  N   UNL     1      -7.355   4.065   6.859  1.00  0.00    -0.248 NA
ATOM     37  C   UNL     1      -5.250   4.218   5.886  1.00  0.00     0.031 C 
ATOM     38  C   UNL     1      -8.435   0.813   3.965  1.00  0.00     0.029 A 
ATOM     39  N   UNL     1      -9.163   2.030   5.693  1.00  0.00    -0.354 N 
ATOM     40  C   UNL     1      -6.629   5.067   7.498  1.00  0.00     0.074 A 
ATOM     41  C   UNL     1      -5.348   5.143   6.833  1.00  0.00     0.031 C 
ATOM     42  C   UNL     1      -9.668   0.388   4.250  1.00  0.00     0.029 A 
ATOM     43  C   UNL     1     -10.120   1.075   5.447  1.00  0.00     0.049 A 
ATOM     44  H   UNL     1      -9.263   2.743   6.364  1.00  0.00     0.167 HD
ATOM     45  C   UNL     1      -6.988   5.820   8.567  1.00  0.00     0.034 A 
ATOM     46  C   UNL     1     -11.201   0.716   6.157  1.00  0.00     0.034 A 
ATOM     47  C   UNL     1      -8.230   5.648   9.276  1.00  0.00     0.049 A 
ATOM     48  C   UNL     1     -11.518   1.481   7.399  1.00  0.00     0.074 A 
ATOM     49  C   UNL     1      -8.700   6.346  10.375  1.00  0.00     0.029 A 
ATOM     50  N   UNL     1      -9.173   4.671   8.991  1.00  0.00    -0.354 N 
ATOM     51  N   UNL     1     -10.859   2.476   7.939  1.00  0.00    -0.248 NA
ATOM     52  C   UNL     1     -12.739   1.098   8.112  1.00  0.00     0.031 C 
ATOM     53  C   UNL     1      -9.890   5.746  10.795  1.00  0.00     0.029 A 
ATOM     54  C   UNL     1     -10.205   4.726   9.911  1.00  0.00     0.049 A 
ATOM     55  H   UNL     1      -9.116   4.032   8.244  1.00  0.00     0.167 HD
ATOM     56  C   UNL     1     -11.611   2.876   9.031  1.00  0.00     0.074 A 
ATOM     57  C   UNL     1     -12.775   2.011   9.072  1.00  0.00     0.031 C 
ATOM     58  C   UNL     1     -11.366   3.873   9.914  1.00  0.00     0.034 A 
BRANCH  45  59
ATOM     59  C   UNL     1      -6.019   6.862   9.078  1.00  0.00     0.023 A 
ATOM     60  C   UNL     1      -5.803   8.047   8.347  1.00  0.00     0.012 A 
ATOM     61  C   UNL     1      -5.393   6.707  10.333  1.00  0.00     0.148 A 
ATOM     62  C   UNL     1      -4.965   9.049   8.844  1.00  0.00     0.002 A 
ATOM     63  C   UNL     1      -4.592   7.725  10.841  1.00  0.00     0.091 A 
ATOM     64  F   UNL     1      -5.596   5.568  11.010  1.00  0.00    -0.205 F 
ATOM     65  C   UNL     1      -4.369   8.892  10.093  1.00  0.00     0.022 A 
BRANCH  63  66
ATOM     66  S   UNL     1      -3.838   7.650  12.470  1.00  0.00     0.127 S 
ATOM     67  O   UNL     1      -2.417   7.565  12.134  1.00  0.00    -0.237 OA
ATOM     68  O   UNL     1      -4.250   8.924  13.059  1.00  0.00    -0.237 OA
ATOM     69  O   UNL     1      -4.393   6.470  13.119  1.00  0.00    -0.744 OA
ENDBRANCH  63  66
ENDBRANCH  45  59
BRANCH  46  70
ATOM     70  C   UNL     1     -12.018  -0.437   5.698  1.00  0.00     0.023 A 
ATOM     71  C   UNL     1     -13.300  -0.213   5.169  1.00  0.00     0.012 A 
ATOM     72  C   UNL     1     -11.484  -1.743   5.697  1.00  0.00     0.148 A 
ATOM     73  C   UNL     1     -14.050  -1.276   4.667  1.00  0.00     0.002 A 
ATOM     74  C   UNL     1     -12.209  -2.784   5.137  1.00  0.00     0.091 A 
ATOM     75  F   UNL     1     -10.256  -1.928   6.202  1.00  0.00    -0.205 F 
ATOM     76  C   UNL     1     -13.501  -2.556   4.638  1.00  0.00     0.022 A 
BRANCH  74  77
ATOM     77  S   UNL     1     -11.520  -4.428   4.918  1.00  0.00     0.127 S 
ATOM     78  O   UNL     1     -12.300  -5.207   5.876  1.00  0.00    -0.237 OA
ATOM     79  O   UNL     1     -11.822  -4.697   3.512  1.00  0.00    -0.237 OA
ATOM     80  O   UNL     1     -10.099  -4.304   5.212  1.00  0.00    -0.744 OA
ENDBRANCH  74  77
ENDBRANCH  46  70
BRANCH  58  81
ATOM     81  C   UNL     1     -12.416   4.137  10.955  1.00  0.00     0.023 A 
ATOM     82  C   UNL     1     -12.614   3.238  12.020  1.00  0.00     0.012 A 
ATOM     83  C   UNL     1     -13.169   5.326  10.896  1.00  0.00     0.148 A 
ATOM     84  C   UNL     1     -13.574   3.503  12.994  1.00  0.00     0.002 A 
ATOM     85  C   UNL     1     -14.078   5.612  11.902  1.00  0.00     0.091 A 
ATOM     86  F   UNL     1     -12.976   6.153   9.859  1.00  0.00    -0.205 F 
ATOM     87  C   UNL     1     -14.295   4.695  12.944  1.00  0.00     0.022 A 
BRANCH  85  88
ATOM     88  S   UNL     1     -14.972   7.167  11.973  1.00  0.00     0.127 S 
ATOM     89  O   UNL     1     -16.348   6.729  11.740  1.00  0.00    -0.237 OA
ATOM     90  O   UNL     1     -14.696   7.615  13.338  1.00  0.00    -0.237 OA
ATOM     91  O   UNL     1     -14.405   8.010  10.930  1.00  0.00    -0.744 OA
ENDBRANCH  85  88
ENDBRANCH  58  81
ENDBRANCH  32  33
ENDBRANCH  25  27
ENDBRANCH  24  25
ENDBRANCH  23  24
ENDBRANCH   1  23
TORSDOF 21
