REMARK SMILES CC1(C)CC[C@@]2(C(=O)OCCOC(=O)c3ccc(-c4c5nc(c(-c6cccc(S(=O)(=O)[O-])c6F)c6ccc([nH]6)c(-c6cccc(S(=O)(=O)[O-])c6F)c6nc(c(-c7cccc(S(=O)(=O)[O-])c7F)c7ccc4[nH]7)C=C6)C=C5)cc3)CC[C@@]3(C)C(=CC[C@H]4[C@@]5(C)CC[C@H](O)C(C)(C)[C@@H]5CC[C@@]43C)[C@@H]2C1
REMARK SMILES IDX 11 1 10 2 9 3 7 4 8 5 6 6 1 7 2 8 3 9 4 10 101 11 5 12
REMARK SMILES IDX 100 13 82 14 78 15 80 16 83 17 79 18 81 19 98 20 84 21 85 22
REMARK SMILES IDX 97 23 99 24 86 25 96 26 87 27 88 28 95 29 89 30 92 31 90 32
REMARK SMILES IDX 93 33 94 34 91 35 12 37 13 38 14 39 15 40 16 41 77 42 17 43
REMARK SMILES IDX 76 44 18 45 19 46 20 47 70 48 21 49 75 50 69 51 71 52 22 53
REMARK SMILES IDX 74 54 68 55 67 56 23 58 55 59 35 60 54 61 36 62 39 63 53 64
REMARK SMILES IDX 72 65 37 66 38 67 52 69 73 70 40 71 24 72 25 73 33 74 26 75
REMARK SMILES IDX 28 76 34 77 27 78 29 79 30 80 31 81 32 82 56 83 57 84 65 85
REMARK SMILES IDX 58 86 60 87 66 88 59 89 61 90 62 91 63 92 64 93 41 94 42 95
REMARK SMILES IDX 50 96 43 97 45 98 51 99 44 100 46 101 47 102 48 103 49 104
REMARK H PARENT 91 36 71 57 39 68
REMARK Flexibility Score: inf
ROOT
ATOM      1  C   UNL     1      -2.213  -0.272  -3.205  1.00  0.00     0.275 C 
ENDROOT
BRANCH   1   2
ATOM      2  C   UNL     1      -1.573   0.007  -1.171  1.00  0.00     0.274 C 
BRANCH   2   3
ATOM      3  O   UNL     1      -0.887   1.292  -0.443  1.00  0.00    -0.462 OA
BRANCH   3   4
ATOM      4  C   UNL     1      -0.033   2.332  -0.476  1.00  0.00     0.312 C 
ATOM      5  O   UNL     1      -0.226   3.313   0.239  1.00  0.00    -0.252 OA
BRANCH   4   6
ATOM      6  C   UNL     1       1.079   2.288  -1.507  1.00  0.00     0.075 C 
ATOM      7  C   UNL     1       3.817   0.316   0.910  1.00  0.00     0.011 C 
ATOM      8  C   UNL     1       2.426   0.928   0.699  1.00  0.00    -0.035 C 
ATOM      9  C   UNL     1       1.637   0.776   2.034  1.00  0.00     0.011 C 
ATOM     10  C   UNL     1       2.609   2.446   0.470  1.00  0.00     0.007 C 
ATOM     11  C   UNL     1       1.711   0.095  -0.440  1.00  0.00     0.015 C 
ATOM     12  C   UNL     1       2.382   2.882  -0.958  1.00  0.00     0.020 C 
ATOM     13  C   UNL     1       1.330   0.794  -1.814  1.00  0.00     0.033 C 
ATOM     14  C   UNL     1       0.063   0.168  -2.493  1.00  0.00    -0.063 C 
ATOM     15  C   UNL     1       0.597   3.188  -2.658  1.00  0.00     0.020 C 
ATOM     16  C   UNL     1      -1.288   1.516  -2.769  1.00  0.00    -0.006 C 
ATOM     17  C   UNL     1      -0.219  -1.284  -2.417  1.00  0.00    -0.027 C 
ATOM     18  C   UNL     1      -0.926   3.039  -2.787  1.00  0.00     0.013 C 
ATOM     19  C   UNL     1      -0.600   1.348  -4.359  1.00  0.00     0.017 C 
ATOM     20  C   UNL     1      -3.115   1.128  -1.863  1.00  0.00    -0.020 C 
ATOM     21  C   UNL     1      -1.906  -2.029  -1.971  1.00  0.00     0.032 C 
ATOM     22  C   UNL     1      -3.455  -0.852  -1.637  1.00  0.00     0.006 C 
ATOM     23  C   UNL     1      -4.678   1.376  -2.082  1.00  0.00     0.008 C 
ATOM     24  C   UNL     1      -3.140   2.160  -0.542  1.00  0.00     0.012 C 
ATOM     25  C   UNL     1      -4.516  -1.460  -0.667  1.00  0.00    -0.025 C 
ATOM     26  C   UNL     1      -5.624   0.844  -0.783  1.00  0.00     0.005 C 
ATOM     27  C   UNL     1      -5.634  -2.122  -1.550  1.00  0.00     0.012 C 
ATOM     28  C   UNL     1      -3.903  -2.592   0.180  1.00  0.00     0.010 C 
ATOM     29  C   UNL     1      -5.088  -0.320   0.187  1.00  0.00     0.003 C 
ATOM     30  C   UNL     1      -4.902  -3.242   1.112  1.00  0.00     0.033 C 
ATOM     31  C   UNL     1      -6.061  -0.864   1.353  1.00  0.00    -0.006 C 
ATOM     32  C   UNL     1      -5.551  -2.212   2.017  1.00  0.00     0.120 C 
ATOM     33  C   UNL     1      -7.532  -0.976   0.901  1.00  0.00     0.014 C 
ATOM     34  C   UNL     1      -6.078   0.149   2.533  1.00  0.00     0.014 C 
BRANCH  32  35
ATOM     35  O   UNL     1      -6.587  -2.878   2.749  1.00  0.00    -0.393 OA
ATOM     36  H   UNL     1      -7.265  -3.195   2.132  1.00  0.00     0.210 HD
ENDBRANCH  32  35
ENDBRANCH   4   6
ENDBRANCH   3   4
ENDBRANCH   2   3
ENDBRANCH   1   2
BRANCH   1  37
ATOM     37  O   UNL     1      -2.910   0.866  -4.184  1.00  0.00    -0.458 OA
BRANCH  37  38
ATOM     38  C   UNL     1      -3.910   0.863  -5.120  1.00  0.00     0.338 C 
ATOM     39  O   UNL     1      -4.926   0.198  -5.101  1.00  0.00    -0.246 OA
BRANCH  38  40
ATOM     40  C   UNL     1      -3.548   1.839  -6.210  1.00  0.00     0.060 A 
ATOM     41  C   UNL     1      -2.246   1.781  -6.668  1.00  0.00     0.016 A 
ATOM     42  C   UNL     1      -4.381   2.760  -6.837  1.00  0.00     0.016 A 
ATOM     43  C   UNL     1      -1.656   2.835  -7.332  1.00  0.00     0.010 A 
ATOM     44  C   UNL     1      -3.847   3.592  -7.852  1.00  0.00     0.010 A 
ATOM     45  C   UNL     1      -2.458   3.643  -8.098  1.00  0.00    -0.014 A 
BRANCH  45  46
ATOM     46  C   UNL     1      -1.840   4.405  -9.220  1.00  0.00     0.031 A 
ATOM     47  C   UNL     1      -2.326   5.795  -9.467  1.00  0.00     0.074 A 
ATOM     48  C   UNL     1      -0.958   3.802 -10.057  1.00  0.00     0.049 A 
ATOM     49  N   UNL     1      -2.422   6.445 -10.588  1.00  0.00    -0.248 NA
ATOM     50  C   UNL     1      -2.855   6.519  -8.297  1.00  0.00     0.031 C 
ATOM     51  C   UNL     1      -0.336   2.479  -9.870  1.00  0.00     0.029 A 
ATOM     52  N   UNL     1      -0.464   4.194 -11.280  1.00  0.00    -0.354 N 
ATOM     53  C   UNL     1      -3.163   7.584 -10.294  1.00  0.00     0.074 A 
ATOM     54  C   UNL     1      -3.443   7.557  -8.875  1.00  0.00     0.031 C 
ATOM     55  C   UNL     1       0.441   2.174 -10.912  1.00  0.00     0.029 A 
ATOM     56  C   UNL     1       0.237   3.188 -11.919  1.00  0.00     0.049 A 
ATOM     57  H   UNL     1      -0.596   5.093 -11.658  1.00  0.00     0.167 HD
ATOM     58  C   UNL     1      -3.592   8.526 -11.165  1.00  0.00     0.034 A 
ATOM     59  C   UNL     1       0.569   3.022 -13.211  1.00  0.00     0.034 A 
ATOM     60  C   UNL     1      -3.213   8.497 -12.554  1.00  0.00     0.049 A 
ATOM     61  C   UNL     1       0.116   4.092 -14.151  1.00  0.00     0.074 A 
ATOM     62  C   UNL     1      -3.519   9.388 -13.563  1.00  0.00     0.029 A 
ATOM     63  N   UNL     1      -2.412   7.507 -13.120  1.00  0.00    -0.354 N 
ATOM     64  N   UNL     1      -0.623   5.145 -13.891  1.00  0.00    -0.248 NA
ATOM     65  C   UNL     1       0.545   3.970 -15.544  1.00  0.00     0.031 C 
ATOM     66  C   UNL     1      -2.913   8.929 -14.739  1.00  0.00     0.029 A 
ATOM     67  C   UNL     1      -2.197   7.772 -14.457  1.00  0.00     0.049 A 
ATOM     68  H   UNL     1      -2.051   6.730 -12.636  1.00  0.00     0.167 HD
ATOM     69  C   UNL     1      -0.717   5.843 -15.081  1.00  0.00     0.074 A 
ATOM     70  C   UNL     1       0.053   5.089 -16.058  1.00  0.00     0.031 C 
ATOM     71  C   UNL     1      -1.377   6.995 -15.355  1.00  0.00     0.034 A 
BRANCH  58  72
ATOM     72  C   UNL     1      -4.513   9.604 -10.647  1.00  0.00     0.023 A 
ATOM     73  C   UNL     1      -4.054  10.545  -9.702  1.00  0.00     0.012 A 
ATOM     74  C   UNL     1      -5.854   9.675 -11.081  1.00  0.00     0.148 A 
ATOM     75  C   UNL     1      -4.921  11.492  -9.153  1.00  0.00     0.002 A 
ATOM     76  C   UNL     1      -6.699  10.657 -10.570  1.00  0.00     0.091 A 
ATOM     77  F   UNL     1      -6.290   8.765 -11.964  1.00  0.00    -0.205 F 
ATOM     78  C   UNL     1      -6.240  11.552  -9.592  1.00  0.00     0.022 A 
BRANCH  76  79
ATOM     79  S   UNL     1      -8.396  10.871 -11.123  1.00  0.00     0.127 S 
ATOM     80  O   UNL     1      -9.148  10.523  -9.918  1.00  0.00    -0.237 OA
ATOM     81  O   UNL     1      -8.425  12.293 -11.470  1.00  0.00    -0.237 OA
ATOM     82  O   UNL     1      -8.573   9.965 -12.249  1.00  0.00    -0.744 OA
ENDBRANCH  76  79
ENDBRANCH  58  72
BRANCH  59  83
ATOM     83  C   UNL     1       1.340   1.819 -13.650  1.00  0.00     0.023 A 
ATOM     84  C   UNL     1       2.686   1.982 -14.028  1.00  0.00     0.012 A 
ATOM     85  C   UNL     1       0.801   0.514 -13.599  1.00  0.00     0.148 A 
ATOM     86  C   UNL     1       3.473   0.880 -14.367  1.00  0.00     0.002 A 
ATOM     87  C   UNL     1       1.607  -0.586 -13.884  1.00  0.00     0.091 A 
ATOM     88  F   UNL     1      -0.479   0.367 -13.230  1.00  0.00    -0.205 F 
ATOM     89  C   UNL     1       2.939  -0.403 -14.284  1.00  0.00     0.022 A 
BRANCH  87  90
ATOM     90  S   UNL     1       1.055  -2.284 -13.662  1.00  0.00     0.127 S 
ATOM     91  O   UNL     1       0.931  -2.743 -15.043  1.00  0.00    -0.237 OA
ATOM     92  O   UNL     1       2.169  -2.872 -12.916  1.00  0.00    -0.237 OA
ATOM     93  O   UNL     1      -0.188  -2.197 -12.907  1.00  0.00    -0.744 OA
ENDBRANCH  87  90
ENDBRANCH  59  83
BRANCH  71  94
ATOM     94  C   UNL     1      -1.213   7.530 -16.744  1.00  0.00     0.023 A 
ATOM     95  C   UNL     1      -1.890   6.928 -17.820  1.00  0.00     0.012 A 
ATOM     96  C   UNL     1      -0.428   8.678 -16.954  1.00  0.00     0.148 A 
ATOM     97  C   UNL     1      -1.763   7.452 -19.103  1.00  0.00     0.002 A 
ATOM     98  C   UNL     1      -0.356   9.228 -18.222  1.00  0.00     0.091 A 
ATOM     99  F   UNL     1       0.227   9.206 -15.909  1.00  0.00    -0.205 F 
ATOM    100  C   UNL     1      -1.010   8.609 -19.300  1.00  0.00     0.022 A 
BRANCH  98 101
ATOM    101  S   UNL     1       0.493  10.775 -18.541  1.00  0.00     0.127 S 
ATOM    102  O   UNL     1       1.652  10.323 -19.309  1.00  0.00    -0.237 OA
ATOM    103  O   UNL     1      -0.503  11.516 -19.315  1.00  0.00    -0.237 OA
ATOM    104  O   UNL     1       0.794  11.347 -17.236  1.00  0.00    -0.744 OA
ENDBRANCH  98 101
ENDBRANCH  71  94
ENDBRANCH  45  46
ENDBRANCH  38  40
ENDBRANCH  37  38
ENDBRANCH   1  37
TORSDOF 15
