REMARK SMILES CC(C)[C@H](NC(=O)[C@H](C)NC(=O)C[NH3+])C(=O)OCCOC(=O)c1ccc(-c2c3nc(c(-c4cccc(S(=O)(=O)[O-])c4F)c4ccc([nH]4)c(-c4cccc(S(=O)(=O)[O-])c4F)c4nc(c(-c5cccc(S(=O)(=O)[O-])c5F)c5ccc2[nH]5)C=C4)C=C3)cc1
REMARK SMILES IDX 18 1 17 2 15 3 16 4 4 5 2 6 1 7 3 8 5 9 6 10 7 12 8 13 9 14
REMARK SMILES IDX 10 15 11 16 12 18 13 19 14 20 19 24 20 25 21 26 22 27 23 28
REMARK SMILES IDX 24 29 85 30 25 31 84 32 26 33 27 34 28 35 78 36 29 37 83 38
REMARK SMILES IDX 77 39 79 40 30 41 82 42 76 43 75 44 31 46 63 47 43 48 62 49
REMARK SMILES IDX 44 50 47 51 61 52 80 53 45 54 46 55 60 57 81 58 48 59 32 60
REMARK SMILES IDX 33 61 41 62 34 63 36 64 42 65 35 66 37 67 38 68 39 69 40 70
REMARK SMILES IDX 64 71 65 72 73 73 66 74 68 75 74 76 67 77 69 78 70 79 71 80
REMARK SMILES IDX 72 81 49 82 50 83 58 84 51 85 53 86 59 87 52 88 54 89 55 90
REMARK SMILES IDX 56 91 57 92
REMARK H PARENT 5 11 10 17 14 21 14 22 14 23 79 45 47 56
REMARK Flexibility Score: inf
ROOT
ATOM      1  C   UNL     1      -5.248   2.499   0.504  1.00  0.00     0.274 C 
ENDROOT
BRANCH   1   2
ATOM      2  O   UNL     1      -4.058   3.293   0.697  1.00  0.00    -0.461 OA
BRANCH   2   3
ATOM      3  C   UNL     1      -2.770   2.805   0.676  1.00  0.00     0.329 C 
ATOM      4  O   UNL     1      -2.457   1.681   0.318  1.00  0.00    -0.250 OA
BRANCH   3   5
ATOM      5  C   UNL     1      -1.784   3.954   1.081  1.00  0.00     0.194 C 
BRANCH   5   6
ATOM      6  C   UNL     1      -0.466   3.802   1.891  1.00  0.00     0.017 C 
ATOM      7  C   UNL     1       0.222   2.442   1.880  1.00  0.00     0.010 C 
ATOM      8  C   UNL     1       0.558   4.861   1.429  1.00  0.00     0.010 C 
ENDBRANCH   5   6
BRANCH   5   9
ATOM      9  N   UNL     1      -2.590   5.018   1.689  1.00  0.00    -0.341 N 
ATOM     10  C   UNL     1      -3.409   4.943   2.775  1.00  0.00     0.243 C 
ATOM     11  H   UNL     1      -2.531   5.900   1.256  1.00  0.00     0.164 HD
ATOM     12  O   UNL     1      -4.108   5.943   2.988  1.00  0.00    -0.273 OA
BRANCH  10  13
ATOM     13  C   UNL     1      -3.597   3.641   3.651  1.00  0.00     0.168 C 
ATOM     14  C   UNL     1      -3.582   4.175   5.091  1.00  0.00     0.041 C 
BRANCH  13  15
ATOM     15  N   UNL     1      -2.625   2.533   3.630  1.00  0.00    -0.340 N 
ATOM     16  C   UNL     1      -2.746   1.174   3.589  1.00  0.00     0.275 C 
ATOM     17  H   UNL     1      -1.689   2.838   3.649  1.00  0.00     0.164 HD
ATOM     18  O   UNL     1      -1.808   0.530   4.077  1.00  0.00    -0.268 OA
BRANCH  16  19
ATOM     19  C   UNL     1      -3.899   0.425   2.927  1.00  0.00     0.360 C 
BRANCH  19  20
ATOM     20  N   UNL     1      -5.170   0.578   3.643  1.00  0.00    -0.350 N 
ATOM     21  H   UNL     1      -5.080   0.191   4.582  1.00  0.00     0.344 HD
ATOM     22  H   UNL     1      -5.905   0.082   3.139  1.00  0.00     0.344 HD
ATOM     23  H   UNL     1      -5.408   1.568   3.705  1.00  0.00     0.344 HD
ENDBRANCH  19  20
ENDBRANCH  16  19
ENDBRANCH  13  15
ENDBRANCH  10  13
ENDBRANCH   5   9
ENDBRANCH   3   5
ENDBRANCH   2   3
ENDBRANCH   1   2
BRANCH   1  24
ATOM     24  C   UNL     1      -6.122   3.071  -0.611  1.00  0.00     0.275 C 
BRANCH  24  25
ATOM     25  O   UNL     1      -5.505   2.779  -1.867  1.00  0.00    -0.458 OA
BRANCH  25  26
ATOM     26  C   UNL     1      -4.506   3.637  -2.191  1.00  0.00     0.338 C 
ATOM     27  O   UNL     1      -4.301   4.741  -1.734  1.00  0.00    -0.246 OA
BRANCH  26  28
ATOM     28  C   UNL     1      -3.534   2.900  -3.014  1.00  0.00     0.060 A 
ATOM     29  C   UNL     1      -2.178   3.123  -2.747  1.00  0.00     0.016 A 
ATOM     30  C   UNL     1      -3.938   2.010  -4.009  1.00  0.00     0.016 A 
ATOM     31  C   UNL     1      -1.209   2.482  -3.498  1.00  0.00     0.010 A 
ATOM     32  C   UNL     1      -2.968   1.384  -4.782  1.00  0.00     0.010 A 
ATOM     33  C   UNL     1      -1.609   1.653  -4.548  1.00  0.00    -0.014 A 
BRANCH  33  34
ATOM     34  C   UNL     1      -0.616   1.247  -5.552  1.00  0.00     0.031 A 
ATOM     35  C   UNL     1      -0.547   2.050  -6.815  1.00  0.00     0.074 A 
ATOM     36  C   UNL     1       0.171   0.184  -5.331  1.00  0.00     0.049 A 
ATOM     37  N   UNL     1       0.133   1.821  -7.902  1.00  0.00    -0.248 NA
ATOM     38  C   UNL     1      -1.369   3.274  -6.862  1.00  0.00     0.031 C 
ATOM     39  C   UNL     1       0.186  -0.617  -4.108  1.00  0.00     0.029 A 
ATOM     40  N   UNL     1       1.083  -0.423  -6.149  1.00  0.00    -0.354 N 
ATOM     41  C   UNL     1      -0.214   2.841  -8.779  1.00  0.00     0.074 A 
ATOM     42  C   UNL     1      -1.161   3.694  -8.100  1.00  0.00     0.031 C 
ATOM     43  C   UNL     1       1.034  -1.646  -4.274  1.00  0.00     0.029 A 
ATOM     44  C   UNL     1       1.582  -1.591  -5.626  1.00  0.00     0.049 A 
ATOM     45  H   UNL     1       1.353  -0.061  -7.024  1.00  0.00     0.167 HD
ATOM     46  C   UNL     1       0.225   3.040 -10.042  1.00  0.00     0.034 A 
ATOM     47  C   UNL     1       2.357  -2.526  -6.206  1.00  0.00     0.034 A 
ATOM     48  C   UNL     1       1.171   2.174 -10.686  1.00  0.00     0.049 A 
ATOM     49  C   UNL     1       2.805  -2.298  -7.626  1.00  0.00     0.074 A 
ATOM     50  C   UNL     1       1.716   2.281 -11.950  1.00  0.00     0.029 A 
ATOM     51  N   UNL     1       1.700   1.026 -10.112  1.00  0.00    -0.354 N 
ATOM     52  N   UNL     1       2.538  -1.291  -8.425  1.00  0.00    -0.248 NA
ATOM     53  C   UNL     1       3.680  -3.318  -8.217  1.00  0.00     0.031 C 
ATOM     54  C   UNL     1       2.549   1.176 -12.154  1.00  0.00     0.029 A 
ATOM     55  C   UNL     1       2.557   0.406 -11.000  1.00  0.00     0.049 A 
ATOM     56  H   UNL     1       1.494   0.701  -9.206  1.00  0.00     0.167 HD
ATOM     57  C   UNL     1       3.243  -1.535  -9.598  1.00  0.00     0.074 A 
ATOM     58  C   UNL     1       3.959  -2.780  -9.396  1.00  0.00     0.031 C 
ATOM     59  C   UNL     1       3.290  -0.808 -10.742  1.00  0.00     0.034 A 
BRANCH  46  60
ATOM     60  C   UNL     1      -0.324   4.220 -10.796  1.00  0.00     0.023 A 
ATOM     61  C   UNL     1       0.050   5.529 -10.431  1.00  0.00     0.012 A 
ATOM     62  C   UNL     1      -1.196   4.030 -11.885  1.00  0.00     0.148 A 
ATOM     63  C   UNL     1      -0.460   6.631 -11.116  1.00  0.00     0.002 A 
ATOM     64  C   UNL     1      -1.663   5.130 -12.594  1.00  0.00     0.091 A 
ATOM     65  F   UNL     1      -1.565   2.779 -12.197  1.00  0.00    -0.205 F 
ATOM     66  C   UNL     1      -1.307   6.431 -12.203  1.00  0.00     0.022 A 
BRANCH  64  67
ATOM     67  S   UNL     1      -2.698   4.975 -14.053  1.00  0.00     0.127 S 
ATOM     68  O   UNL     1      -3.960   5.544 -13.582  1.00  0.00    -0.237 OA
ATOM     69  O   UNL     1      -1.981   5.802 -15.024  1.00  0.00    -0.237 OA
ATOM     70  O   UNL     1      -2.737   3.555 -14.372  1.00  0.00    -0.744 OA
ENDBRANCH  64  67
ENDBRANCH  46  60
BRANCH  47  71
ATOM     71  C   UNL     1       2.759  -3.741  -5.445  1.00  0.00     0.023 A 
ATOM     72  C   UNL     1       4.106  -3.914  -5.076  1.00  0.00     0.012 A 
ATOM     73  C   UNL     1       1.812  -4.711  -5.063  1.00  0.00     0.148 A 
ATOM     74  C   UNL     1       4.509  -5.048  -4.367  1.00  0.00     0.002 A 
ATOM     75  C   UNL     1       2.210  -5.810  -4.311  1.00  0.00     0.091 A 
ATOM     76  F   UNL     1       0.536  -4.534  -5.434  1.00  0.00    -0.205 F 
ATOM     77  C   UNL     1       3.561  -5.989  -3.977  1.00  0.00     0.022 A 
BRANCH  75  78
ATOM     78  S   UNL     1       1.041  -7.011  -3.663  1.00  0.00     0.127 S 
ATOM     79  O   UNL     1       1.365  -8.198  -4.450  1.00  0.00    -0.237 OA
ATOM     80  O   UNL     1       1.432  -7.081  -2.254  1.00  0.00    -0.237 OA
ATOM     81  O   UNL     1      -0.280  -6.441  -3.893  1.00  0.00    -0.744 OA
ENDBRANCH  75  78
ENDBRANCH  47  71
BRANCH  59  82
ATOM     82  C   UNL     1       4.185  -1.309 -11.843  1.00  0.00     0.023 A 
ATOM     83  C   UNL     1       3.815  -2.441 -12.593  1.00  0.00     0.012 A 
ATOM     84  C   UNL     1       5.348  -0.594 -12.189  1.00  0.00     0.148 A 
ATOM     85  C   UNL     1       4.610  -2.875 -13.653  1.00  0.00     0.002 A 
ATOM     86  C   UNL     1       6.104  -0.998 -13.281  1.00  0.00     0.091 A 
ATOM     87  F   UNL     1       5.686   0.473 -11.450  1.00  0.00    -0.205 F 
ATOM     88  C   UNL     1       5.744  -2.146 -14.005  1.00  0.00     0.022 A 
BRANCH  86  89
ATOM     89  S   UNL     1       7.516  -0.061 -13.872  1.00  0.00     0.127 S 
ATOM     90  O   UNL     1       8.626  -0.946 -13.526  1.00  0.00    -0.237 OA
ATOM     91  O   UNL     1       7.240   0.041 -15.305  1.00  0.00    -0.237 OA
ATOM     92  O   UNL     1       7.486   1.209 -13.158  1.00  0.00    -0.744 OA
ENDBRANCH  86  89
ENDBRANCH  59  82
ENDBRANCH  33  34
ENDBRANCH  26  28
ENDBRANCH  25  26
ENDBRANCH  24  25
ENDBRANCH   1  24
TORSDOF 20
