REMARK SMILES O=C(OCCOC(=O)[C@@H]1CCCN1S(=O)(=O)c1ccc2c3c(cccc13)C(=O)N2)c1ccc(-c2c3nc(c(-c4cccc(S(=O)(=O)[O-])c4F)c4ccc([nH]4)c(-c4cccc(S(=O)(=O)[O-])c4F)c4nc(c(-c5cccc(S(=O)(=O)[O-])c5F)c5ccc2[nH]5)C=C4)C=C3)cc1
REMARK SMILES IDX 4 1 3 2 2 3 1 4 30 5 31 6 92 7 32 8 91 9 33 10 34 11 35 12
REMARK SMILES IDX 85 13 36 14 90 15 84 16 86 17 37 18 89 19 83 20 82 21 38 23
REMARK SMILES IDX 70 24 50 25 69 26 51 27 54 28 68 29 87 30 52 31 53 32 67 34
REMARK SMILES IDX 88 35 55 36 39 37 40 38 48 39 41 40 43 41 49 42 42 43 44 44
REMARK SMILES IDX 45 45 46 46 47 47 71 48 72 49 80 50 73 51 75 52 81 53 74 54
REMARK SMILES IDX 76 55 77 56 78 57 79 58 56 59 57 60 65 61 58 62 60 63 66 64
REMARK SMILES IDX 59 65 61 66 62 67 63 68 64 69 5 70 6 71 7 72 8 73 9 74 10 75
REMARK SMILES IDX 13 76 11 77 12 78 14 79 15 80 16 81 17 82 18 83 26 84 19 85
REMARK SMILES IDX 21 86 25 87 20 88 22 89 24 90 29 91 23 92 27 93 28 95
REMARK H PARENT 86 22 54 33 29 94
REMARK Flexibility Score: inf
ROOT
ATOM      1  C   UNL     1       3.481   1.236  -2.709  1.00  0.00     0.275 C 
ENDROOT
BRANCH   1   2
ATOM      2  O   UNL     1       2.411   0.537  -2.027  1.00  0.00    -0.458 OA
BRANCH   2   3
ATOM      3  C   UNL     1       2.262   0.200  -0.725  1.00  0.00     0.338 C 
ATOM      4  O   UNL     1       1.351  -0.553  -0.390  1.00  0.00    -0.246 OA
BRANCH   3   5
ATOM      5  C   UNL     1       3.150   0.725   0.376  1.00  0.00     0.060 A 
ATOM      6  C   UNL     1       4.375   2.060   0.226  1.00  0.00     0.016 A 
ATOM      7  C   UNL     1       2.709   0.143   2.023  1.00  0.00     0.016 A 
ATOM      8  C   UNL     1       5.061   2.848   1.701  1.00  0.00     0.010 A 
ATOM      9  C   UNL     1       3.445   0.885   3.480  1.00  0.00     0.010 A 
ATOM     10  C   UNL     1       4.614   2.272   3.331  1.00  0.00    -0.014 A 
BRANCH  10  11
ATOM     11  C   UNL     1       5.222   2.981   4.521  1.00  0.00     0.031 A 
ATOM     12  C   UNL     1       5.966   2.272   5.624  1.00  0.00     0.074 A 
ATOM     13  C   UNL     1       5.134   4.327   4.616  1.00  0.00     0.049 A 
ATOM     14  N   UNL     1       6.878   2.784   6.419  1.00  0.00    -0.248 NA
ATOM     15  C   UNL     1       5.728   0.845   5.862  1.00  0.00     0.031 C 
ATOM     16  C   UNL     1       4.442   5.190   3.672  1.00  0.00     0.029 A 
ATOM     17  N   UNL     1       5.581   5.215   5.567  1.00  0.00    -0.354 N 
ATOM     18  C   UNL     1       7.420   1.713   7.117  1.00  0.00     0.074 A 
ATOM     19  C   UNL     1       6.677   0.538   6.737  1.00  0.00     0.031 C 
ATOM     20  C   UNL     1       4.404   6.449   4.122  1.00  0.00     0.029 A 
ATOM     21  C   UNL     1       5.151   6.508   5.367  1.00  0.00     0.049 A 
ATOM     22  H   UNL     1       6.156   4.950   6.322  1.00  0.00     0.167 HD
ATOM     23  C   UNL     1       8.473   1.709   7.965  1.00  0.00     0.034 A 
ATOM     24  C   UNL     1       5.354   7.641   6.066  1.00  0.00     0.034 A 
ATOM     25  C   UNL     1       9.074   2.899   8.493  1.00  0.00     0.049 A 
ATOM     26  C   UNL     1       6.359   7.615   7.173  1.00  0.00     0.074 A 
ATOM     27  C   UNL     1      10.153   3.017   9.349  1.00  0.00     0.029 A 
ATOM     28  N   UNL     1       8.570   4.175   8.296  1.00  0.00    -0.354 N 
ATOM     29  N   UNL     1       7.098   6.608   7.567  1.00  0.00    -0.248 NA
ATOM     30  C   UNL     1       6.626   8.876   7.875  1.00  0.00     0.031 C 
ATOM     31  C   UNL     1      10.253   4.360   9.730  1.00  0.00     0.029 A 
ATOM     32  C   UNL     1       9.254   5.077   9.088  1.00  0.00     0.049 A 
ATOM     33  H   UNL     1       7.835   4.404   7.684  1.00  0.00     0.167 HD
ATOM     34  C   UNL     1       7.954   7.119   8.530  1.00  0.00     0.074 A 
ATOM     35  C   UNL     1       7.629   8.525   8.673  1.00  0.00     0.031 C 
ATOM     36  C   UNL     1       8.928   6.475   9.216  1.00  0.00     0.034 A 
BRANCH  23  37
ATOM     37  C   UNL     1       9.064   0.377   8.326  1.00  0.00     0.023 A 
ATOM     38  C   UNL     1       9.992  -0.201   7.434  1.00  0.00     0.012 A 
ATOM     39  C   UNL     1       8.761  -0.277   9.532  1.00  0.00     0.148 A 
ATOM     40  C   UNL     1      10.605  -1.417   7.733  1.00  0.00     0.002 A 
ATOM     41  C   UNL     1       9.379  -1.489   9.826  1.00  0.00     0.091 A 
ATOM     42  F   UNL     1       7.876   0.293  10.361  1.00  0.00    -0.205 F 
ATOM     43  C   UNL     1      10.300  -2.059   8.929  1.00  0.00     0.022 A 
BRANCH  41  44
ATOM     44  S   UNL     1       9.047  -2.412  11.330  1.00  0.00     0.127 S 
ATOM     45  O   UNL     1       8.665  -3.721  10.798  1.00  0.00    -0.237 OA
ATOM     46  O   UNL     1      10.346  -2.381  11.999  1.00  0.00    -0.237 OA
ATOM     47  O   UNL     1       7.975  -1.700  12.011  1.00  0.00    -0.744 OA
ENDBRANCH  41  44
ENDBRANCH  23  37
BRANCH  24  48
ATOM     48  C   UNL     1       4.662   8.888   5.637  1.00  0.00     0.023 A 
ATOM     49  C   UNL     1       5.353   9.846   4.873  1.00  0.00     0.012 A 
ATOM     50  C   UNL     1       3.281   9.057   5.871  1.00  0.00     0.148 A 
ATOM     51  C   UNL     1       4.680  10.953   4.349  1.00  0.00     0.002 A 
ATOM     52  C   UNL     1       2.612  10.146   5.323  1.00  0.00     0.091 A 
ATOM     53  F   UNL     1       2.645   8.129   6.600  1.00  0.00    -0.205 F 
ATOM     54  C   UNL     1       3.311  11.098   4.565  1.00  0.00     0.022 A 
BRANCH  52  55
ATOM     55  S   UNL     1       0.832  10.363   5.461  1.00  0.00     0.127 S 
ATOM     56  O   UNL     1       0.740  11.538   6.323  1.00  0.00    -0.237 OA
ATOM     57  O   UNL     1       0.447  10.589   4.067  1.00  0.00    -0.237 OA
ATOM     58  O   UNL     1       0.326   9.121   6.030  1.00  0.00    -0.744 OA
ENDBRANCH  52  55
ENDBRANCH  24  48
BRANCH  36  59
ATOM     59  C   UNL     1       9.715   7.260  10.221  1.00  0.00     0.023 A 
ATOM     60  C   UNL     1       9.158   7.498  11.491  1.00  0.00     0.012 A 
ATOM     61  C   UNL     1      11.053   7.610   9.963  1.00  0.00     0.148 A 
ATOM     62  C   UNL     1       9.929   8.070  12.499  1.00  0.00     0.002 A 
ATOM     63  C   UNL     1      11.827   8.142  10.984  1.00  0.00     0.091 A 
ATOM     64  F   UNL     1      11.547   7.380   8.738  1.00  0.00    -0.205 F 
ATOM     65  C   UNL     1      11.266   8.376  12.251  1.00  0.00     0.022 A 
BRANCH  63  66
ATOM     66  S   UNL     1      13.580   8.478  10.791  1.00  0.00     0.127 S 
ATOM     67  O   UNL     1      13.622   9.932  10.940  1.00  0.00    -0.237 OA
ATOM     68  O   UNL     1      14.160   7.732  11.908  1.00  0.00    -0.237 OA
ATOM     69  O   UNL     1      13.946   7.982   9.471  1.00  0.00    -0.744 OA
ENDBRANCH  63  66
ENDBRANCH  36  59
ENDBRANCH  10  11
ENDBRANCH   3   5
ENDBRANCH   2   3
ENDBRANCH   1   2
BRANCH   1  70
ATOM     70  C   UNL     1       3.218   2.742  -2.853  1.00  0.00     0.274 C 
BRANCH  70  71
ATOM     71  O   UNL     1       3.150   3.372  -1.564  1.00  0.00    -0.461 OA
BRANCH  71  72
ATOM     72  C   UNL     1       2.008   3.108  -0.890  1.00  0.00     0.324 C 
ATOM     73  O   UNL     1       0.927   3.005  -1.467  1.00  0.00    -0.250 OA
BRANCH  72  74
ATOM     74  C   UNL     1       2.138   2.913   0.607  1.00  0.00     0.183 C 
ATOM     75  C   UNL     1       1.901   4.289   1.214  1.00  0.00     0.034 C 
ATOM     76  N   UNL     1       3.170   2.118   1.832  1.00  0.00    -0.184 NA
ATOM     77  C   UNL     1       1.449   4.012   2.623  1.00  0.00     0.019 C 
ATOM     78  C   UNL     1       2.081   2.695   3.115  1.00  0.00     0.103 C 
BRANCH  76  79
ATOM     79  S   UNL     1       5.024   0.499   1.784  1.00  0.00     0.244 S 
ATOM     80  O   UNL     1       6.148   0.876   0.898  1.00  0.00    -0.207 OA
ATOM     81  O   UNL     1       5.504   0.091   3.107  1.00  0.00    -0.207 OA
BRANCH  79  82
ATOM     82  C   UNL     1       4.873  -1.349   0.984  1.00  0.00     0.090 A 
ATOM     83  C   UNL     1       4.589  -1.461  -0.402  1.00  0.00     0.024 A 
ATOM     84  C   UNL     1       5.695  -2.422   1.547  1.00  0.00     0.005 A 
ATOM     85  C   UNL     1       4.645  -2.646  -1.150  1.00  0.00     0.028 A 
ATOM     86  C   UNL     1       5.846  -3.526   0.733  1.00  0.00     0.019 A 
ATOM     87  C   UNL     1       6.515  -2.525   2.714  1.00  0.00     0.010 A 
ATOM     88  C   UNL     1       5.308  -3.669  -0.528  1.00  0.00     0.050 A 
ATOM     89  C   UNL     1       6.709  -4.606   0.915  1.00  0.00     0.050 A 
ATOM     90  C   UNL     1       7.417  -3.597   2.931  1.00  0.00     0.002 A 
ATOM     91  N   UNL     1       5.752  -4.858  -1.068  1.00  0.00    -0.321 N 
ATOM     92  C   UNL     1       7.537  -4.655   2.027  1.00  0.00     0.014 A 
ATOM     93  C   UNL     1       6.660  -5.499  -0.228  1.00  0.00     0.256 C 
ATOM     94  H   UNL     1       5.462  -5.210  -1.941  1.00  0.00     0.170 HD
ATOM     95  O   UNL     1       7.249  -6.533  -0.512  1.00  0.00    -0.269 OA
ENDBRANCH  79  82
ENDBRANCH  76  79
ENDBRANCH  72  74
ENDBRANCH  71  72
ENDBRANCH  70  71
ENDBRANCH   1  70
TORSDOF 16
