REMARK SMILES Cc1ccc(N2C(=O)C[C@H](Sc3ccccc3C(=O)OCCOC(=O)c3ccc(-c4c5nc(c(-c6cccc(S(=O)(=O)[O-])c6F)c6ccc([nH]6)c(-c6cccc(S(=O)(=O)[O-])c6F)c6nc(c(-c7cccc(S(=O)(=O)[O-])c7F)c7ccc4[nH]7)C=C6)C=C5)cc3)C2=O)cc1
REMARK SMILES IDX 21 1 20 2 18 3 19 4 17 5 12 6 13 7 14 8 16 9 15 10 11 11
REMARK SMILES IDX 10 12 6 13 7 14 89 15 8 16 9 17 90 18 5 19 1 20 2 21 3 22
REMARK SMILES IDX 92 23 4 24 91 25 22 26 23 27 24 28 25 29 26 30 27 31 88 32
REMARK SMILES IDX 28 33 87 34 29 35 30 36 31 37 81 38 32 39 86 40 80 41 82 42
REMARK SMILES IDX 33 43 85 44 79 45 78 46 34 48 66 49 46 50 65 51 47 52 50 53
REMARK SMILES IDX 64 54 83 55 48 56 49 57 63 59 84 60 51 61 35 62 36 63 44 64
REMARK SMILES IDX 37 65 39 66 45 67 38 68 40 69 41 70 42 71 43 72 67 73 68 74
REMARK SMILES IDX 76 75 69 76 71 77 77 78 70 79 72 80 73 81 74 82 75 83 52 84
REMARK SMILES IDX 53 85 61 86 54 87 56 88 62 89 55 90 57 91 58 92 59 93 60 94
REMARK H PARENT 82 47 50 58
REMARK Flexibility Score: inf
ROOT
ATOM      1  C   UNL     1      -4.473   4.093  -2.687  1.00  0.00     0.275 C 
ENDROOT
BRANCH   1   2
ATOM      2  O   UNL     1      -4.676   3.933  -1.264  1.00  0.00    -0.458 OA
BRANCH   2   3
ATOM      3  C   UNL     1      -3.667   3.458  -0.487  1.00  0.00     0.339 C 
ATOM      4  O   UNL     1      -2.524   3.240  -0.867  1.00  0.00    -0.246 OA
BRANCH   3   5
ATOM      5  C   UNL     1      -4.138   3.492   0.922  1.00  0.00     0.073 A 
ATOM      6  C   UNL     1      -4.298   2.411   1.833  1.00  0.00     0.023 A 
ATOM      7  C   UNL     1      -4.587   2.773   3.174  1.00  0.00     0.016 A 
ATOM      8  C   UNL     1      -4.669   4.112   3.597  1.00  0.00     0.001 A 
ATOM      9  C   UNL     1      -4.281   4.831   1.356  1.00  0.00     0.017 A 
ATOM     10  C   UNL     1      -4.517   5.143   2.685  1.00  0.00     0.001 A 
BRANCH   6  11
ATOM     11  S   UNL     1      -3.509   0.805   1.728  1.00  0.00    -0.111 SA
BRANCH  11  12
ATOM     12  C   UNL     1      -4.359  -0.841   1.031  1.00  0.00     0.151 C 
ATOM     13  N   UNL     1      -2.445  -1.242  -0.212  1.00  0.00    -0.250 N 
ATOM     14  C   UNL     1      -3.410  -1.064  -1.161  1.00  0.00     0.235 C 
ATOM     15  C   UNL     1      -3.022  -1.604   0.991  1.00  0.00     0.247 C 
ATOM     16  O   UNL     1      -3.272  -1.012  -2.376  1.00  0.00    -0.274 OA
ATOM     17  C   UNL     1      -4.722  -1.221  -0.420  1.00  0.00     0.126 C 
ATOM     18  O   UNL     1      -2.557  -2.315   1.869  1.00  0.00    -0.273 OA
BRANCH  13  19
ATOM     19  C   UNL     1      -1.096  -0.890  -0.325  1.00  0.00     0.052 A 
ATOM     20  C   UNL     1       3.047   0.214   0.002  1.00  0.00     0.044 C 
ATOM     21  C   UNL     1       1.600  -0.147  -0.130  1.00  0.00    -0.051 A 
ATOM     22  C   UNL     1       1.215  -1.493  -0.053  1.00  0.00     0.005 A 
ATOM     23  C   UNL     1       0.623   0.832  -0.323  1.00  0.00     0.005 A 
ATOM     24  C   UNL     1      -0.127  -1.858  -0.120  1.00  0.00     0.027 A 
ATOM     25  C   UNL     1      -0.718   0.457  -0.442  1.00  0.00     0.027 A 
ENDBRANCH  13  19
ENDBRANCH  11  12
ENDBRANCH   6  11
ENDBRANCH   3   5
ENDBRANCH   2   3
ENDBRANCH   1   2
BRANCH   1  26
ATOM     26  C   UNL     1      -4.221   2.794  -3.496  1.00  0.00     0.275 C 
BRANCH  26  27
ATOM     27  O   UNL     1      -5.246   1.798  -3.372  1.00  0.00    -0.458 OA
BRANCH  27  28
ATOM     28  C   UNL     1      -5.438   1.446  -2.082  1.00  0.00     0.338 C 
ATOM     29  O   UNL     1      -4.548   1.172  -1.301  1.00  0.00    -0.246 OA
BRANCH  28  30
ATOM     30  C   UNL     1      -6.739   1.925  -1.610  1.00  0.00     0.060 A 
ATOM     31  C   UNL     1      -7.006   1.929  -0.222  1.00  0.00     0.016 A 
ATOM     32  C   UNL     1      -7.388   2.774  -2.500  1.00  0.00     0.016 A 
ATOM     33  C   UNL     1      -7.918   2.828   0.284  1.00  0.00     0.010 A 
ATOM     34  C   UNL     1      -8.097   3.802  -1.981  1.00  0.00     0.010 A 
ATOM     35  C   UNL     1      -8.468   3.716  -0.629  1.00  0.00    -0.014 A 
BRANCH  35  36
ATOM     36  C   UNL     1      -9.796   4.257  -0.453  1.00  0.00     0.031 A 
ATOM     37  C   UNL     1      -9.912   5.591   0.113  1.00  0.00     0.074 A 
ATOM     38  C   UNL     1     -10.634   3.531  -1.232  1.00  0.00     0.049 A 
ATOM     39  N   UNL     1     -10.922   5.989   0.799  1.00  0.00    -0.248 NA
ATOM     40  C   UNL     1      -8.817   6.566   0.062  1.00  0.00     0.031 C 
ATOM     41  C   UNL     1     -11.757   3.892  -2.067  1.00  0.00     0.029 A 
ATOM     42  N   UNL     1     -10.474   2.155  -1.479  1.00  0.00    -0.354 N 
ATOM     43  C   UNL     1     -10.798   7.362   0.825  1.00  0.00     0.074 A 
ATOM     44  C   UNL     1      -9.392   7.629   0.632  1.00  0.00     0.031 C 
ATOM     45  C   UNL     1     -12.331   2.754  -2.523  1.00  0.00     0.029 A 
ATOM     46  C   UNL     1     -11.691   1.618  -1.858  1.00  0.00     0.049 A 
ATOM     47  H   UNL     1      -9.630   1.654  -1.396  1.00  0.00     0.167 HD
ATOM     48  C   UNL     1     -11.902   8.116   0.557  1.00  0.00     0.034 A 
ATOM     49  C   UNL     1     -12.275   0.675  -1.057  1.00  0.00     0.034 A 
ATOM     50  C   UNL     1     -13.016   7.224   0.158  1.00  0.00     0.049 A 
ATOM     51  C   UNL     1     -13.427   1.323  -0.312  1.00  0.00     0.074 A 
ATOM     52  C   UNL     1     -13.485   6.861  -1.097  1.00  0.00     0.029 A 
ATOM     53  N   UNL     1     -13.531   6.282   1.046  1.00  0.00    -0.354 N 
ATOM     54  N   UNL     1     -13.653   2.607  -0.293  1.00  0.00    -0.248 NA
ATOM     55  C   UNL     1     -14.363   0.577   0.520  1.00  0.00     0.031 C 
ATOM     56  C   UNL     1     -14.239   5.663  -0.961  1.00  0.00     0.029 A 
ATOM     57  C   UNL     1     -14.222   5.279   0.369  1.00  0.00     0.049 A 
ATOM     58  H   UNL     1     -13.420   6.319   2.023  1.00  0.00     0.167 HD
ATOM     59  C   UNL     1     -14.582   2.890   0.659  1.00  0.00     0.074 A 
ATOM     60  C   UNL     1     -15.068   1.580   1.068  1.00  0.00     0.031 C 
ATOM     61  C   UNL     1     -14.809   4.161   1.108  1.00  0.00     0.034 A 
BRANCH  48  62
ATOM     62  C   UNL     1     -11.876   9.597   0.209  1.00  0.00     0.023 A 
ATOM     63  C   UNL     1     -12.988  10.102  -0.503  1.00  0.00     0.012 A 
ATOM     64  C   UNL     1     -10.867  10.539   0.529  1.00  0.00     0.148 A 
ATOM     65  C   UNL     1     -13.064  11.423  -0.951  1.00  0.00     0.002 A 
ATOM     66  C   UNL     1     -10.918  11.851   0.038  1.00  0.00     0.091 A 
ATOM     67  F   UNL     1      -9.887  10.203   1.376  1.00  0.00    -0.205 F 
ATOM     68  C   UNL     1     -12.016  12.293  -0.705  1.00  0.00     0.022 A 
BRANCH  66  69
ATOM     69  S   UNL     1      -9.582  13.040   0.271  1.00  0.00     0.127 S 
ATOM     70  O   UNL     1      -9.391  13.563  -1.084  1.00  0.00    -0.237 OA
ATOM     71  O   UNL     1     -10.170  13.992   1.210  1.00  0.00    -0.237 OA
ATOM     72  O   UNL     1      -8.446  12.276   0.774  1.00  0.00    -0.744 OA
ENDBRANCH  66  69
ENDBRANCH  48  62
BRANCH  49  73
ATOM     73  C   UNL     1     -11.275  -0.246  -0.384  1.00  0.00     0.023 A 
ATOM     74  C   UNL     1     -10.392  -0.991  -1.211  1.00  0.00     0.012 A 
ATOM     75  C   UNL     1     -10.927  -0.084   0.970  1.00  0.00     0.148 A 
ATOM     76  C   UNL     1      -9.154  -1.443  -0.735  1.00  0.00     0.002 A 
ATOM     77  C   UNL     1      -9.678  -0.509   1.425  1.00  0.00     0.091 A 
ATOM     78  F   UNL     1     -11.765   0.558   1.792  1.00  0.00    -0.205 F 
ATOM     79  C   UNL     1      -8.783  -1.173   0.576  1.00  0.00     0.022 A 
BRANCH  77  80
ATOM     80  S   UNL     1      -9.116  -0.011   3.059  1.00  0.00     0.127 S 
ATOM     81  O   UNL     1      -7.674  -0.261   2.990  1.00  0.00    -0.237 OA
ATOM     82  O   UNL     1      -9.469   1.400   3.115  1.00  0.00    -0.237 OA
ATOM     83  O   UNL     1      -9.859  -0.919   3.925  1.00  0.00    -0.744 OA
ENDBRANCH  77  80
ENDBRANCH  49  73
BRANCH  61  84
ATOM     84  C   UNL     1     -15.640   4.442   2.327  1.00  0.00     0.023 A 
ATOM     85  C   UNL     1     -15.697   3.542   3.409  1.00  0.00     0.012 A 
ATOM     86  C   UNL     1     -16.287   5.688   2.478  1.00  0.00     0.148 A 
ATOM     87  C   UNL     1     -16.469   3.811   4.538  1.00  0.00     0.002 A 
ATOM     88  C   UNL     1     -16.941   6.003   3.660  1.00  0.00     0.091 A 
ATOM     89  F   UNL     1     -16.285   6.569   1.467  1.00  0.00    -0.205 F 
ATOM     90  C   UNL     1     -17.080   5.050   4.672  1.00  0.00     0.022 A 
BRANCH  88  91
ATOM     91  S   UNL     1     -17.490   7.682   3.971  1.00  0.00     0.127 S 
ATOM     92  O   UNL     1     -18.856   7.657   3.453  1.00  0.00    -0.237 OA
ATOM     93  O   UNL     1     -17.393   7.783   5.429  1.00  0.00    -0.237 OA
ATOM     94  O   UNL     1     -16.543   8.526   3.253  1.00  0.00    -0.744 OA
ENDBRANCH  88  91
ENDBRANCH  61  84
ENDBRANCH  35  36
ENDBRANCH  28  30
ENDBRANCH  27  28
ENDBRANCH  26  27
ENDBRANCH   1  26
TORSDOF 17
