REMARK SMILES O=C(OCCOC(=O)[C@H](c1c[nH]c2cc(F)ccc12)[NH+]1CCN(c2ccccc2)CC1)c1ccc(-c2c3nc(c(-c4cccc(S(=O)(=O)[O-])c4F)c4ccc([nH]4)c(-c4cccc(S(=O)(=O)[O-])c4F)c4nc(c(-c5cccc(S(=O)(=O)[O-])c5F)c5ccc2[nH]5)C=C4)C=C3)cc1
REMARK SMILES IDX 4 1 3 2 2 3 1 4 32 5 33 6 94 7 34 8 93 9 35 10 36 11 37 12
REMARK SMILES IDX 87 13 38 14 92 15 86 16 88 17 39 18 91 19 85 20 84 21 40 23
REMARK SMILES IDX 72 24 52 25 71 26 53 27 56 28 70 29 89 30 54 31 55 32 69 34
REMARK SMILES IDX 90 35 57 36 41 37 42 38 50 39 43 40 45 41 51 42 44 43 46 44
REMARK SMILES IDX 47 45 48 46 49 47 73 48 74 49 82 50 75 51 77 52 83 53 76 54
REMARK SMILES IDX 78 55 79 56 80 57 81 58 58 59 59 60 67 61 60 62 62 63 68 64
REMARK SMILES IDX 61 65 63 66 64 67 65 68 66 69 5 70 6 71 7 72 8 73 9 74 20 75
REMARK SMILES IDX 21 76 31 77 22 79 30 80 23 81 24 82 25 83 29 84 26 85 28 86
REMARK SMILES IDX 27 87 10 88 11 89 19 90 12 91 13 92 18 93 14 95 17 96 15 97
REMARK SMILES IDX 16 98
REMARK H PARENT 88 22 56 33 20 78 12 94
REMARK Flexibility Score: inf
ROOT
ATOM      1  C   UNL     1       2.450  -0.885  -5.274  1.00  0.00     0.275 C 
ENDROOT
BRANCH   1   2
ATOM      2  O   UNL     1       1.929   0.094  -4.362  1.00  0.00    -0.458 OA
BRANCH   2   3
ATOM      3  C   UNL     1       1.089  -0.020  -3.309  1.00  0.00     0.338 C 
ATOM      4  O   UNL     1       0.826   1.014  -2.694  1.00  0.00    -0.246 OA
BRANCH   3   5
ATOM      5  C   UNL     1       0.474  -1.301  -2.799  1.00  0.00     0.060 A 
ATOM      6  C   UNL     1       0.571  -2.580  -3.355  1.00  0.00     0.016 A 
ATOM      7  C   UNL     1      -0.253  -1.192  -1.599  1.00  0.00     0.016 A 
ATOM      8  C   UNL     1       0.080  -3.713  -2.684  1.00  0.00     0.010 A 
ATOM      9  C   UNL     1      -0.777  -2.315  -0.940  1.00  0.00     0.010 A 
ATOM     10  C   UNL     1      -0.570  -3.593  -1.454  1.00  0.00    -0.014 A 
BRANCH  10  11
ATOM     11  C   UNL     1      -1.166  -4.787  -0.809  1.00  0.00     0.031 A 
ATOM     12  C   UNL     1      -2.601  -5.078  -1.089  1.00  0.00     0.074 A 
ATOM     13  C   UNL     1      -0.474  -5.579   0.034  1.00  0.00     0.049 A 
ATOM     14  N   UNL     1      -3.323  -6.084  -0.687  1.00  0.00    -0.248 NA
ATOM     15  C   UNL     1      -3.336  -4.063  -1.862  1.00  0.00     0.031 C 
ATOM     16  C   UNL     1       0.853  -5.279   0.542  1.00  0.00     0.029 A 
ATOM     17  N   UNL     1      -0.764  -6.798   0.604  1.00  0.00    -0.354 N 
ATOM     18  C   UNL     1      -4.622  -5.759  -1.037  1.00  0.00     0.074 A 
ATOM     19  C   UNL     1      -4.578  -4.506  -1.757  1.00  0.00     0.031 C 
ATOM     20  C   UNL     1       1.327  -6.339   1.221  1.00  0.00     0.029 A 
ATOM     21  C   UNL     1       0.310  -7.378   1.256  1.00  0.00     0.049 A 
ATOM     22  H   UNL     1      -1.653  -7.218   0.552  1.00  0.00     0.167 HD
ATOM     23  C   UNL     1      -5.755  -6.421  -0.722  1.00  0.00     0.034 A 
ATOM     24  C   UNL     1       0.448  -8.606   1.802  1.00  0.00     0.034 A 
ATOM     25  C   UNL     1      -5.781  -7.661  -0.005  1.00  0.00     0.049 A 
ATOM     26  C   UNL     1      -0.798  -9.449   1.911  1.00  0.00     0.074 A 
ATOM     27  C   UNL     1      -6.877  -8.434   0.328  1.00  0.00     0.029 A 
ATOM     28  N   UNL     1      -4.663  -8.298   0.512  1.00  0.00    -0.354 N 
ATOM     29  N   UNL     1      -1.997  -9.204   1.441  1.00  0.00    -0.248 NA
ATOM     30  C   UNL     1      -0.696 -10.704   2.672  1.00  0.00     0.031 C 
ATOM     31  C   UNL     1      -6.424  -9.527   1.071  1.00  0.00     0.029 A 
ATOM     32  C   UNL     1      -5.042  -9.454   1.168  1.00  0.00     0.049 A 
ATOM     33  H   UNL     1      -3.737  -7.975   0.425  1.00  0.00     0.167 HD
ATOM     34  C   UNL     1      -2.801 -10.239   1.897  1.00  0.00     0.074 A 
ATOM     35  C   UNL     1      -1.934 -11.171   2.589  1.00  0.00     0.031 C 
ATOM     36  C   UNL     1      -4.146 -10.373   1.818  1.00  0.00     0.034 A 
BRANCH  23  37
ATOM     37  C   UNL     1      -7.048  -5.762  -1.094  1.00  0.00     0.023 A 
ATOM     38  C   UNL     1      -7.461  -5.708  -2.439  1.00  0.00     0.012 A 
ATOM     39  C   UNL     1      -7.849  -5.181  -0.091  1.00  0.00     0.148 A 
ATOM     40  C   UNL     1      -8.640  -5.051  -2.786  1.00  0.00     0.002 A 
ATOM     41  C   UNL     1      -9.046  -4.573  -0.439  1.00  0.00     0.091 A 
ATOM     42  F   UNL     1      -7.413  -5.218   1.176  1.00  0.00    -0.205 F 
ATOM     43  C   UNL     1      -9.435  -4.493  -1.786  1.00  0.00     0.022 A 
BRANCH  41  44
ATOM     44  S   UNL     1     -10.171  -3.887   0.777  1.00  0.00     0.127 S 
ATOM     45  O   UNL     1     -10.214  -2.479   0.378  1.00  0.00    -0.237 OA
ATOM     46  O   UNL     1     -11.399  -4.635   0.503  1.00  0.00    -0.237 OA
ATOM     47  O   UNL     1      -9.571  -4.140   2.077  1.00  0.00    -0.744 OA
ENDBRANCH  41  44
ENDBRANCH  23  37
BRANCH  24  48
ATOM     48  C   UNL     1       1.766  -9.148   2.276  1.00  0.00     0.023 A 
ATOM     49  C   UNL     1       2.260 -10.343   1.700  1.00  0.00     0.012 A 
ATOM     50  C   UNL     1       2.527  -8.543   3.291  1.00  0.00     0.148 A 
ATOM     51  C   UNL     1       3.442 -10.937   2.155  1.00  0.00     0.002 A 
ATOM     52  C   UNL     1       3.750  -9.092   3.678  1.00  0.00     0.091 A 
ATOM     53  F   UNL     1       2.041  -7.446   3.890  1.00  0.00    -0.205 F 
ATOM     54  C   UNL     1       4.197 -10.303   3.134  1.00  0.00     0.022 A 
BRANCH  52  55
ATOM     55  S   UNL     1       4.854  -8.217   4.794  1.00  0.00     0.127 S 
ATOM     56  O   UNL     1       4.523  -8.814   6.082  1.00  0.00    -0.237 OA
ATOM     57  O   UNL     1       6.175  -8.569   4.272  1.00  0.00    -0.237 OA
ATOM     58  O   UNL     1       4.506  -6.810   4.623  1.00  0.00    -0.744 OA
ENDBRANCH  52  55
ENDBRANCH  24  48
BRANCH  36  59
ATOM     59  C   UNL     1      -4.763 -11.549   2.520  1.00  0.00     0.023 A 
ATOM     60  C   UNL     1      -4.855 -11.546   3.927  1.00  0.00     0.012 A 
ATOM     61  C   UNL     1      -5.347 -12.595   1.785  1.00  0.00     0.148 A 
ATOM     62  C   UNL     1      -5.505 -12.582   4.593  1.00  0.00     0.002 A 
ATOM     63  C   UNL     1      -6.038 -13.596   2.452  1.00  0.00     0.091 A 
ATOM     64  F   UNL     1      -5.230 -12.578   0.449  1.00  0.00    -0.205 F 
ATOM     65  C   UNL     1      -6.109 -13.598   3.856  1.00  0.00     0.022 A 
BRANCH  63  66
ATOM     66  S   UNL     1      -6.932 -14.887   1.584  1.00  0.00     0.127 S 
ATOM     67  O   UNL     1      -6.154 -16.075   1.934  1.00  0.00    -0.237 OA
ATOM     68  O   UNL     1      -8.254 -14.816   2.205  1.00  0.00    -0.237 OA
ATOM     69  O   UNL     1      -6.903 -14.521   0.174  1.00  0.00    -0.744 OA
ENDBRANCH  63  66
ENDBRANCH  36  59
ENDBRANCH  10  11
ENDBRANCH   3   5
ENDBRANCH   2   3
ENDBRANCH   1   2
BRANCH   1  70
ATOM     70  C   UNL     1       3.665  -1.611  -4.712  1.00  0.00     0.274 C 
BRANCH  70  71
ATOM     71  O   UNL     1       3.368  -2.222  -3.449  1.00  0.00    -0.457 OA
BRANCH  71  72
ATOM     72  C   UNL     1       4.030  -1.746  -2.348  1.00  0.00     0.370 C 
ATOM     73  O   UNL     1       4.795  -0.792  -2.396  1.00  0.00    -0.245 OA
BRANCH  72  74
ATOM     74  C   UNL     1       3.761  -2.686  -1.117  1.00  0.00     0.328 C 
BRANCH  74  75
ATOM     75  N   UNL     1       4.675  -3.868  -1.110  1.00  0.00    -0.316 N 
ATOM     76  C   UNL     1       4.056  -5.101  -0.555  1.00  0.00     0.284 C 
ATOM     77  C   UNL     1       5.348  -4.227  -2.373  1.00  0.00     0.284 C 
ATOM     78  H   UNL     1       5.402  -3.509  -0.490  1.00  0.00     0.349 HD
ATOM     79  C   UNL     1       3.210  -5.981  -1.544  1.00  0.00     0.178 C 
ATOM     80  C   UNL     1       4.512  -5.022  -3.400  1.00  0.00     0.178 C 
ATOM     81  N   UNL     1       3.974  -6.222  -2.771  1.00  0.00    -0.360 N 
BRANCH  81  82
ATOM     82  C   UNL     1       3.804  -7.326  -3.580  1.00  0.00     0.037 A 
ATOM     83  C   UNL     1       2.559  -7.834  -3.959  1.00  0.00     0.026 A 
ATOM     84  C   UNL     1       4.949  -7.956  -4.095  1.00  0.00     0.026 A 
ATOM     85  C   UNL     1       2.467  -8.909  -4.858  1.00  0.00     0.002 A 
ATOM     86  C   UNL     1       4.867  -9.035  -4.973  1.00  0.00     0.002 A 
ATOM     87  C   UNL     1       3.621  -9.506  -5.366  1.00  0.00     0.000 A 
ENDBRANCH  81  82
ENDBRANCH  74  75
BRANCH  74  88
ATOM     88  C   UNL     1       3.994  -1.830   0.136  1.00  0.00     0.046 A 
ATOM     89  C   UNL     1       5.232  -1.402   0.594  1.00  0.00     0.094 A 
ATOM     90  C   UNL     1       3.026  -1.139   0.959  1.00  0.00     0.009 A 
ATOM     91  N   UNL     1       5.049  -0.396   1.498  1.00  0.00    -0.361 N 
ATOM     92  C   UNL     1       3.711  -0.157   1.681  1.00  0.00     0.049 A 
ATOM     93  C   UNL     1       1.628  -1.189   1.128  1.00  0.00     0.014 A 
ATOM     94  H   UNL     1       5.774   0.089   1.955  1.00  0.00     0.166 HD
ATOM     95  C   UNL     1       3.064   0.842   2.426  1.00  0.00     0.065 A 
ATOM     96  C   UNL     1       0.955  -0.209   1.874  1.00  0.00     0.040 A 
ATOM     97  C   UNL     1       1.674   0.806   2.481  1.00  0.00     0.125 A 
ATOM     98  F   UNL     1       1.020   1.765   3.154  1.00  0.00    -0.207 F 
ENDBRANCH  74  88
ENDBRANCH  72  74
ENDBRANCH  71  72
ENDBRANCH  70  71
ENDBRANCH   1  70
TORSDOF 17
