REMARK SMILES O=C(OCCOC(=O)c1[nH]nc2c1CCC2)c1ccc(-c2c3nc(c(-c4cccc(S(=O)(=O)[O-])c4F)c4ccc([nH]4)c(-c4cccc(S(=O)(=O)[O-])c4F)c4nc(c(-c5cccc(S(=O)(=O)[O-])c5F)c5ccc2[nH]5)C=C4)C=C3)cc1
REMARK SMILES IDX 3 1 2 2 1 3 17 4 18 5 79 6 19 7 78 8 20 9 21 10 22 11 72 12
REMARK SMILES IDX 23 13 77 14 71 15 73 16 24 17 76 18 70 19 69 20 25 22 57 23
REMARK SMILES IDX 37 24 56 25 38 26 41 27 55 28 74 29 39 30 40 31 54 33 75 34
REMARK SMILES IDX 42 35 26 36 27 37 35 38 28 39 30 40 36 41 29 42 31 43 32 44
REMARK SMILES IDX 33 45 34 46 58 47 59 48 67 49 60 50 62 51 68 52 61 53 63 54
REMARK SMILES IDX 64 55 65 56 66 57 43 58 44 59 52 60 45 61 47 62 53 63 46 64
REMARK SMILES IDX 48 65 49 66 50 67 51 68 4 69 5 70 6 71 7 72 8 73 9 74 10 75
REMARK SMILES IDX 13 76 11 77 12 79 14 80 16 81 15 82
REMARK H PARENT 73 21 41 32 10 78
REMARK Flexibility Score: inf
ROOT
ATOM      1  O   UNL     1       3.216  -1.145   0.889  1.00  0.00    -0.458 OA
ENDROOT
BRANCH   1   2
ATOM      2  C   UNL     1       2.285  -0.217   0.576  1.00  0.00     0.338 C 
ATOM      3  O   UNL     1       1.357  -0.414  -0.197  1.00  0.00    -0.246 OA
BRANCH   2   4
ATOM      4  C   UNL     1       2.288   0.956   1.469  1.00  0.00     0.060 A 
ATOM      5  C   UNL     1       3.459   1.585   1.901  1.00  0.00     0.016 A 
ATOM      6  C   UNL     1       1.034   1.447   1.855  1.00  0.00     0.016 A 
ATOM      7  C   UNL     1       3.379   2.628   2.806  1.00  0.00     0.010 A 
ATOM      8  C   UNL     1       0.951   2.507   2.737  1.00  0.00     0.010 A 
ATOM      9  C   UNL     1       2.125   3.060   3.245  1.00  0.00    -0.014 A 
BRANCH   9  10
ATOM     10  C   UNL     1       2.064   4.242   4.093  1.00  0.00     0.031 A 
ATOM     11  C   UNL     1       2.555   5.468   3.407  1.00  0.00     0.074 A 
ATOM     12  C   UNL     1       1.477   4.230   5.307  1.00  0.00     0.049 A 
ATOM     13  N   UNL     1       3.600   6.173   3.700  1.00  0.00    -0.248 NA
ATOM     14  C   UNL     1       1.927   5.845   2.129  1.00  0.00     0.031 C 
ATOM     15  C   UNL     1       0.732   3.121   5.912  1.00  0.00     0.029 A 
ATOM     16  N   UNL     1       1.283   5.245   6.197  1.00  0.00    -0.354 N 
ATOM     17  C   UNL     1       3.575   7.249   2.812  1.00  0.00     0.074 A 
ATOM     18  C   UNL     1       2.700   6.860   1.742  1.00  0.00     0.031 C 
ATOM     19  C   UNL     1      -0.045   3.599   6.909  1.00  0.00     0.029 A 
ATOM     20  C   UNL     1       0.243   5.009   7.098  1.00  0.00     0.049 A 
ATOM     21  H   UNL     1       1.825   6.067   6.202  1.00  0.00     0.167 HD
ATOM     22  C   UNL     1       4.001   8.479   3.213  1.00  0.00     0.034 A 
ATOM     23  C   UNL     1      -0.391   5.923   7.879  1.00  0.00     0.034 A 
ATOM     24  C   UNL     1       4.851   8.370   4.377  1.00  0.00     0.049 A 
ATOM     25  C   UNL     1       0.488   7.109   7.972  1.00  0.00     0.074 A 
ATOM     26  C   UNL     1       6.004   7.678   4.692  1.00  0.00     0.029 A 
ATOM     27  N   UNL     1       4.302   8.751   5.576  1.00  0.00    -0.354 N 
ATOM     28  N   UNL     1       1.634   7.106   8.590  1.00  0.00    -0.248 NA
ATOM     29  C   UNL     1       0.298   8.171   7.000  1.00  0.00     0.031 C 
ATOM     30  C   UNL     1       5.832   7.276   6.051  1.00  0.00     0.029 A 
ATOM     31  C   UNL     1       4.633   7.818   6.516  1.00  0.00     0.049 A 
ATOM     32  H   UNL     1       3.761   9.559   5.732  1.00  0.00     0.167 HD
ATOM     33  C   UNL     1       2.469   7.823   7.745  1.00  0.00     0.074 A 
ATOM     34  C   UNL     1       1.569   8.553   6.851  1.00  0.00     0.031 C 
ATOM     35  C   UNL     1       3.796   7.515   7.653  1.00  0.00     0.034 A 
BRANCH  22  36
ATOM     36  C   UNL     1       3.281   9.786   2.889  1.00  0.00     0.023 A 
ATOM     37  C   UNL     1       3.836  10.964   3.445  1.00  0.00     0.012 A 
ATOM     38  C   UNL     1       1.967   9.894   2.373  1.00  0.00     0.148 A 
ATOM     39  C   UNL     1       3.084  12.133   3.603  1.00  0.00     0.002 A 
ATOM     40  C   UNL     1       1.245  11.079   2.471  1.00  0.00     0.091 A 
ATOM     41  F   UNL     1       1.345   8.831   1.868  1.00  0.00    -0.205 F 
ATOM     42  C   UNL     1       1.783  12.188   3.124  1.00  0.00     0.022 A 
BRANCH  40  43
ATOM     43  S   UNL     1      -0.431  11.227   1.832  1.00  0.00     0.127 S 
ATOM     44  O   UNL     1      -1.198  11.375   3.066  1.00  0.00    -0.237 OA
ATOM     45  O   UNL     1      -0.325  12.437   1.017  1.00  0.00    -0.237 OA
ATOM     46  O   UNL     1      -0.680  10.011   1.071  1.00  0.00    -0.744 OA
ENDBRANCH  40  43
ENDBRANCH  22  36
BRANCH  23  47
ATOM     47  C   UNL     1      -1.800   5.978   8.344  1.00  0.00     0.023 A 
ATOM     48  C   UNL     1      -2.152   6.838   9.407  1.00  0.00     0.012 A 
ATOM     49  C   UNL     1      -2.844   5.423   7.572  1.00  0.00     0.148 A 
ATOM     50  C   UNL     1      -3.490   7.163   9.667  1.00  0.00     0.002 A 
ATOM     51  C   UNL     1      -4.173   5.742   7.838  1.00  0.00     0.091 A 
ATOM     52  F   UNL     1      -2.532   4.660   6.517  1.00  0.00    -0.205 F 
ATOM     53  C   UNL     1      -4.500   6.622   8.877  1.00  0.00     0.022 A 
BRANCH  51  54
ATOM     54  S   UNL     1      -5.529   5.098   6.846  1.00  0.00     0.127 S 
ATOM     55  O   UNL     1      -6.451   4.613   7.873  1.00  0.00    -0.237 OA
ATOM     56  O   UNL     1      -5.977   6.293   6.136  1.00  0.00    -0.237 OA
ATOM     57  O   UNL     1      -4.951   4.048   6.018  1.00  0.00    -0.744 OA
ENDBRANCH  51  54
ENDBRANCH  23  47
BRANCH  35  58
ATOM     58  C   UNL     1       4.390   6.610   8.699  1.00  0.00     0.023 A 
ATOM     59  C   UNL     1       3.976   5.275   8.891  1.00  0.00     0.012 A 
ATOM     60  C   UNL     1       5.503   7.085   9.410  1.00  0.00     0.148 A 
ATOM     61  C   UNL     1       4.644   4.444   9.795  1.00  0.00     0.002 A 
ATOM     62  C   UNL     1       6.194   6.243  10.270  1.00  0.00     0.091 A 
ATOM     63  F   UNL     1       5.883   8.357   9.216  1.00  0.00    -0.205 F 
ATOM     64  C   UNL     1       5.761   4.924  10.475  1.00  0.00     0.022 A 
BRANCH  62  65
ATOM     65  S   UNL     1       7.705   6.777  11.073  1.00  0.00     0.127 S 
ATOM     66  O   UNL     1       7.248   7.050  12.433  1.00  0.00    -0.237 OA
ATOM     67  O   UNL     1       8.566   5.601  10.940  1.00  0.00    -0.237 OA
ATOM     68  O   UNL     1       8.168   7.937  10.320  1.00  0.00    -0.744 OA
ENDBRANCH  62  65
ENDBRANCH  35  58
ENDBRANCH   9  10
ENDBRANCH   2   4
ENDBRANCH   1   2
BRANCH   1  69
ATOM     69  C   UNL     1       4.524  -1.082   0.288  1.00  0.00     0.275 C 
BRANCH  69  70
ATOM     70  C   UNL     1       4.565  -0.841  -1.220  1.00  0.00     0.275 C 
BRANCH  70  71
ATOM     71  O   UNL     1       4.081   0.472  -1.534  1.00  0.00    -0.457 OA
BRANCH  71  72
ATOM     72  C   UNL     1       2.994   0.534  -2.349  1.00  0.00     0.356 C 
ATOM     73  O   UNL     1       2.470  -0.422  -2.922  1.00  0.00    -0.244 OA
BRANCH  72  74
ATOM     74  C   UNL     1       2.552   1.881  -2.417  1.00  0.00     0.146 A 
ATOM     75  N   UNL     1       1.417   2.375  -1.807  1.00  0.00    -0.271 N 
ATOM     76  C   UNL     1       3.079   2.955  -3.077  1.00  0.00     0.008 A 
ATOM     77  N   UNL     1       1.206   3.701  -2.033  1.00  0.00    -0.180 NA
ATOM     78  H   UNL     1       0.816   1.821  -1.259  1.00  0.00     0.190 HD
ATOM     79  C   UNL     1       2.233   4.022  -2.804  1.00  0.00     0.066 A 
ATOM     80  C   UNL     1       4.166   3.309  -3.994  1.00  0.00     0.040 C 
ATOM     81  C   UNL     1       2.626   5.261  -3.497  1.00  0.00     0.059 C 
ATOM     82  C   UNL     1       4.034   4.867  -4.072  1.00  0.00     0.011 C 
ENDBRANCH  72  74
ENDBRANCH  71  72
ENDBRANCH  70  71
ENDBRANCH  69  70
ENDBRANCH   1  69
TORSDOF 14
