REMARK SMILES CCCc1c(C(=O)OCCOC(=O)c2ccc(-c3c4nc(c(-c5cccc(S(=O)(=O)[O-])c5F)c5ccc([nH]5)c(-c5cccc(S(=O)(=O)[O-])c5F)c5nc(c(-c6cccc(S(=O)(=O)[O-])c6F)c6ccc3[nH]6)C=C5)C=C4)cc2)nnn1-c1ccccc1[N+](=O)[O-]
REMARK SMILES IDX 10 1 9 2 8 3 6 4 7 5 5 6 4 7 79 8 77 9 78 10 3 11 2 12 1 13
REMARK SMILES IDX 80 14 81 15 85 16 82 17 84 18 83 19 86 20 87 21 88 22 11 23
REMARK SMILES IDX 12 24 13 25 14 26 15 27 76 28 16 29 75 30 17 31 18 32 19 33
REMARK SMILES IDX 69 34 20 35 74 36 68 37 70 38 21 39 73 40 67 41 66 42 22 44
REMARK SMILES IDX 54 45 34 46 53 47 35 48 38 49 52 50 71 51 36 52 37 53 51 55
REMARK SMILES IDX 72 56 39 57 23 58 24 59 32 60 25 61 27 62 33 63 26 64 28 65
REMARK SMILES IDX 29 66 30 67 31 68 55 69 56 70 64 71 57 72 59 73 65 74 58 75
REMARK SMILES IDX 60 76 61 77 62 78 63 79 40 80 41 81 49 82 42 83 44 84 50 85
REMARK SMILES IDX 43 86 45 87 46 88 47 89 48 90
REMARK H PARENT 70 43 38 54
REMARK Flexibility Score: inf
ROOT
ATOM      1  C   UNL     1       5.298  -2.862  -2.976  1.00  0.00     0.275 C 
ENDROOT
BRANCH   1   2
ATOM      2  C   UNL     1       4.498  -2.333  -4.159  1.00  0.00     0.275 C 
BRANCH   2   3
ATOM      3  O   UNL     1       3.143  -2.032  -3.783  1.00  0.00    -0.457 OA
BRANCH   3   4
ATOM      4  C   UNL     1       2.257  -3.076  -3.855  1.00  0.00     0.360 C 
ATOM      5  O   UNL     1       2.496  -4.123  -4.443  1.00  0.00    -0.244 OA
BRANCH   4   6
ATOM      6  C   UNL     1       1.020  -2.842  -3.113  1.00  0.00     0.194 A 
ATOM      7  C   UNL     1       0.477  -1.667  -2.593  1.00  0.00     0.080 A 
ATOM      8  N   UNL     1      -0.769  -2.083  -2.151  1.00  0.00    -0.210 N 
ATOM      9  N   UNL     1       0.210  -3.898  -2.759  1.00  0.00    -0.122 NA
ATOM     10  N   UNL     1      -0.812  -3.426  -2.066  1.00  0.00    -0.061 NA
BRANCH   7  11
ATOM     11  C   UNL     1       1.039  -0.279  -2.507  1.00  0.00     0.059 C 
BRANCH  11  12
ATOM     12  C   UNL     1       0.668   0.556  -1.276  1.00  0.00     0.003 C 
ATOM     13  C   UNL     1       1.113  -0.048   0.048  1.00  0.00     0.004 C 
ENDBRANCH  11  12
ENDBRANCH   7  11
BRANCH   8  14
ATOM     14  C   UNL     1      -1.929  -1.341  -1.863  1.00  0.00     0.144 A 
ATOM     15  C   UNL     1      -2.581  -1.583  -0.645  1.00  0.00     0.036 A 
ATOM     16  C   UNL     1      -2.443  -0.377  -2.740  1.00  0.00     0.294 A 
ATOM     17  C   UNL     1      -3.688  -0.810  -0.283  1.00  0.00     0.003 A 
ATOM     18  C   UNL     1      -3.562   0.388  -2.380  1.00  0.00     0.088 A 
ATOM     19  C   UNL     1      -4.171   0.178  -1.143  1.00  0.00     0.007 A 
BRANCH  16  20
ATOM     20  N   UNL     1      -1.937  -0.212  -4.096  1.00  0.00     0.065 N 
ATOM     21  O   UNL     1      -1.790   0.949  -4.503  1.00  0.00    -0.258 OA
ATOM     22  O   UNL     1      -1.718  -1.231  -4.760  1.00  0.00    -0.258 OA
ENDBRANCH  16  20
ENDBRANCH   8  14
ENDBRANCH   4   6
ENDBRANCH   3   4
ENDBRANCH   2   3
ENDBRANCH   1   2
BRANCH   1  23
ATOM     23  O   UNL     1       4.845  -4.153  -2.577  1.00  0.00    -0.458 OA
BRANCH  23  24
ATOM     24  C   UNL     1       3.951  -4.148  -1.561  1.00  0.00     0.338 C 
ATOM     25  O   UNL     1       3.276  -3.204  -1.186  1.00  0.00    -0.246 OA
BRANCH  24  26
ATOM     26  C   UNL     1       4.077  -5.393  -0.804  1.00  0.00     0.060 A 
ATOM     27  C   UNL     1       3.112  -5.657   0.174  1.00  0.00     0.016 A 
ATOM     28  C   UNL     1       5.291  -6.091  -0.861  1.00  0.00     0.016 A 
ATOM     29  C   UNL     1       3.432  -6.523   1.198  1.00  0.00     0.010 A 
ATOM     30  C   UNL     1       5.621  -6.926   0.176  1.00  0.00     0.010 A 
ATOM     31  C   UNL     1       4.710  -7.086   1.220  1.00  0.00    -0.014 A 
BRANCH  31  32
ATOM     32  C   UNL     1       5.076  -7.940   2.328  1.00  0.00     0.031 A 
ATOM     33  C   UNL     1       4.562  -9.323   2.202  1.00  0.00     0.074 A 
ATOM     34  C   UNL     1       5.964  -7.539   3.257  1.00  0.00     0.049 A 
ATOM     35  N   UNL     1       3.748  -9.943   2.990  1.00  0.00    -0.248 NA
ATOM     36  C   UNL     1       4.875 -10.052   0.962  1.00  0.00     0.031 C 
ATOM     37  C   UNL     1       6.763  -6.309   3.242  1.00  0.00     0.029 A 
ATOM     38  N   UNL     1       6.472  -8.230   4.314  1.00  0.00    -0.354 N 
ATOM     39  C   UNL     1       3.647 -11.227   2.460  1.00  0.00     0.074 A 
ATOM     40  C   UNL     1       4.152 -11.159   1.117  1.00  0.00     0.031 C 
ATOM     41  C   UNL     1       7.816  -6.461   4.074  1.00  0.00     0.029 A 
ATOM     42  C   UNL     1       7.701  -7.743   4.749  1.00  0.00     0.049 A 
ATOM     43  H   UNL     1       6.016  -8.997   4.730  1.00  0.00     0.167 HD
ATOM     44  C   UNL     1       3.451 -12.306   3.263  1.00  0.00     0.034 A 
ATOM     45  C   UNL     1       8.602  -8.403   5.516  1.00  0.00     0.034 A 
ATOM     46  C   UNL     1       2.941 -11.919   4.554  1.00  0.00     0.049 A 
ATOM     47  C   UNL     1       7.900  -9.537   6.162  1.00  0.00     0.074 A 
ATOM     48  C   UNL     1       1.851 -11.197   4.999  1.00  0.00     0.029 A 
ATOM     49  N   UNL     1       3.811 -11.983   5.615  1.00  0.00    -0.354 N 
ATOM     50  N   UNL     1       6.991  -9.399   7.085  1.00  0.00    -0.248 NA
ATOM     51  C   UNL     1       7.920 -10.829   5.494  1.00  0.00     0.031 C 
ATOM     52  C   UNL     1       2.319 -10.483   6.140  1.00  0.00     0.029 A 
ATOM     53  C   UNL     1       3.651 -10.844   6.356  1.00  0.00     0.049 A 
ATOM     54  H   UNL     1       4.438 -12.717   5.808  1.00  0.00     0.167 HD
ATOM     55  C   UNL     1       6.054 -10.383   6.797  1.00  0.00     0.074 A 
ATOM     56  C   UNL     1       6.742 -11.308   5.900  1.00  0.00     0.031 C 
ATOM     57  C   UNL     1       4.728 -10.193   7.068  1.00  0.00     0.034 A 
BRANCH  44  58
ATOM     58  C   UNL     1       4.095 -13.658   3.035  1.00  0.00     0.023 A 
ATOM     59  C   UNL     1       3.695 -14.707   3.890  1.00  0.00     0.012 A 
ATOM     60  C   UNL     1       5.247 -13.886   2.244  1.00  0.00     0.148 A 
ATOM     61  C   UNL     1       4.440 -15.885   4.007  1.00  0.00     0.002 A 
ATOM     62  C   UNL     1       5.933 -15.094   2.297  1.00  0.00     0.091 A 
ATOM     63  F   UNL     1       5.790 -12.897   1.530  1.00  0.00    -0.205 F 
ATOM     64  C   UNL     1       5.557 -16.083   3.205  1.00  0.00     0.022 A 
BRANCH  62  65
ATOM     65  S   UNL     1       7.347 -15.413   1.234  1.00  0.00     0.127 S 
ATOM     66  O   UNL     1       8.457 -15.236   2.165  1.00  0.00    -0.237 OA
ATOM     67  O   UNL     1       7.102 -16.794   0.814  1.00  0.00    -0.237 OA
ATOM     68  O   UNL     1       7.249 -14.439   0.154  1.00  0.00    -0.744 OA
ENDBRANCH  62  65
ENDBRANCH  44  58
BRANCH  45  69
ATOM     69  C   UNL     1      10.078  -8.284   5.550  1.00  0.00     0.023 A 
ATOM     70  C   UNL     1      10.783  -8.743   6.680  1.00  0.00     0.012 A 
ATOM     71  C   UNL     1      10.818  -7.964   4.389  1.00  0.00     0.148 A 
ATOM     72  C   UNL     1      12.173  -8.906   6.647  1.00  0.00     0.002 A 
ATOM     73  C   UNL     1      12.202  -8.111   4.367  1.00  0.00     0.091 A 
ATOM     74  F   UNL     1      10.161  -7.608   3.278  1.00  0.00    -0.205 F 
ATOM     75  C   UNL     1      12.882  -8.595   5.490  1.00  0.00     0.022 A 
BRANCH  73  76
ATOM     76  S   UNL     1      13.177  -7.730   2.904  1.00  0.00     0.127 S 
ATOM     77  O   UNL     1      14.294  -6.972   3.471  1.00  0.00    -0.237 OA
ATOM     78  O   UNL     1      13.525  -9.061   2.417  1.00  0.00    -0.237 OA
ATOM     79  O   UNL     1      12.303  -6.944   2.041  1.00  0.00    -0.744 OA
ENDBRANCH  73  76
ENDBRANCH  45  69
BRANCH  57  80
ATOM     80  C   UNL     1       4.344  -9.033   7.953  1.00  0.00     0.023 A 
ATOM     81  C   UNL     1       4.643  -7.696   7.615  1.00  0.00     0.012 A 
ATOM     82  C   UNL     1       3.532  -9.281   9.074  1.00  0.00     0.148 A 
ATOM     83  C   UNL     1       4.179  -6.636   8.399  1.00  0.00     0.002 A 
ATOM     84  C   UNL     1       3.032  -8.221   9.822  1.00  0.00     0.091 A 
ATOM     85  F   UNL     1       3.246 -10.555   9.385  1.00  0.00    -0.205 F 
ATOM     86  C   UNL     1       3.364  -6.898   9.496  1.00  0.00     0.022 A 
BRANCH  84  87
ATOM     87  S   UNL     1       1.874  -8.500  11.164  1.00  0.00     0.127 S 
ATOM     88  O   UNL     1       2.748  -8.479  12.334  1.00  0.00    -0.237 OA
ATOM     89  O   UNL     1       0.972  -7.352  11.054  1.00  0.00    -0.237 OA
ATOM     90  O   UNL     1       1.237  -9.779  10.870  1.00  0.00    -0.744 OA
ENDBRANCH  84  87
ENDBRANCH  57  80
ENDBRANCH  31  32
ENDBRANCH  24  26
ENDBRANCH  23  24
ENDBRANCH   1  23
TORSDOF 18
