REMARK SMILES CC(C)[C@H](CNc1ncnc2c1CCCCC2)C(=O)OCCOC(=O)c1ccc(-c2c3nc(c(-c4cccc(S(=O)(=O)[O-])c4F)c4ccc([nH]4)c(-c4cccc(S(=O)(=O)[O-])c4F)c4nc(c(-c5cccc(S(=O)(=O)[O-])c5F)c5ccc2[nH]5)C=C4)C=C3)cc1
REMARK SMILES IDX 20 1 18 2 19 3 4 4 2 5 1 6 3 7 5 8 6 9 7 11 8 12 12 13 9 14
REMARK SMILES IDX 11 15 10 16 13 17 14 18 15 19 17 21 16 22 21 24 22 25 23 26
REMARK SMILES IDX 24 27 25 28 26 29 27 30 88 31 28 32 87 33 29 34 30 35 31 36
REMARK SMILES IDX 81 37 32 38 86 39 80 40 82 41 33 42 85 43 79 44 78 45 34 47
REMARK SMILES IDX 66 48 46 49 65 50 47 51 50 52 64 53 83 54 48 55 49 56 63 58
REMARK SMILES IDX 84 59 51 60 35 61 36 62 44 63 37 64 39 65 45 66 38 67 40 68
REMARK SMILES IDX 41 69 42 70 43 71 67 72 68 73 76 74 69 75 71 76 77 77 70 78
REMARK SMILES IDX 72 79 73 80 74 81 75 82 52 83 53 84 61 85 54 86 56 87 62 88
REMARK SMILES IDX 55 89 57 90 58 91 59 92 60 93
REMARK H PARENT 6 10 82 46 50 57
REMARK Flexibility Score: 90.00
ROOT
ATOM      1  O   UNL     1      -0.935  -2.967   2.273  1.00  0.00    -0.462 OA
ENDROOT
BRANCH   1   2
ATOM      2  C   UNL     1      -1.660  -1.950   1.739  1.00  0.00     0.311 C 
ATOM      3  O   UNL     1      -2.815  -1.692   2.060  1.00  0.00    -0.252 OA
BRANCH   2   4
ATOM      4  C   UNL     1      -0.950  -1.192   0.621  1.00  0.00     0.121 C 
BRANCH   4   5
ATOM      5  C   UNL     1      -1.312  -1.766  -0.783  1.00  0.00    -0.001 C 
ATOM      6  C   UNL     1      -0.398  -2.894  -1.268  1.00  0.00     0.008 C 
ATOM      7  C   UNL     1      -2.775  -2.217  -0.894  1.00  0.00     0.008 C 
ENDBRANCH   4   5
BRANCH   4   8
ATOM      8  C   UNL     1       0.564  -1.036   0.863  1.00  0.00     0.130 C 
BRANCH   8   9
ATOM      9  N   UNL     1       0.930   0.247   1.439  1.00  0.00    -0.369 N 
ATOM     10  H   UNL     1       0.440   1.036   1.112  1.00  0.00     0.162 HD
BRANCH   9  11
ATOM     11  C   UNL     1       1.892   0.468   2.395  1.00  0.00     0.132 A 
ATOM     12  N   UNL     1       1.579   1.530   3.158  1.00  0.00    -0.219 NA
ATOM     13  C   UNL     1       3.052  -0.275   2.614  1.00  0.00     0.016 A 
ATOM     14  C   UNL     1       2.361   1.779   4.214  1.00  0.00     0.224 A 
ATOM     15  C   UNL     1       3.759   0.042   3.778  1.00  0.00     0.049 A 
ATOM     16  N   UNL     1       3.436   1.077   4.577  1.00  0.00    -0.241 NA
BRANCH  13  17
ATOM     17  C   UNL     1       3.582  -1.330   1.682  1.00  0.00     0.041 C 
BRANCH  17  18
ATOM     18  C   UNL     1       4.989  -1.037   1.147  1.00  0.00     0.005 C 
BRANCH  18  19
ATOM     19  C   UNL     1       6.116  -1.435   2.092  1.00  0.00     0.001 CG0
ATOM     20  G   UNL     1       6.174  -0.616   3.377  1.00  0.00     0.000 G0
ENDBRANCH  18  19
ENDBRANCH  17  18
ENDBRANCH  13  17
BRANCH  15  21
ATOM     21  C   UNL     1       4.935  -0.777   4.250  1.00  0.00     0.057 C 
BRANCH  21  22
ATOM     22  C   UNL     1       6.174  -0.616   3.377  1.00  0.00     0.006 CG0
ATOM     23  G   UNL     1       6.116  -1.435   2.092  1.00  0.00     0.000 G0
ENDBRANCH  21  22
ENDBRANCH  15  21
ENDBRANCH   9  11
ENDBRANCH   8   9
ENDBRANCH   4   8
ENDBRANCH   2   4
ENDBRANCH   1   2
BRANCH   1  24
ATOM     24  C   UNL     1      -1.598  -3.714   3.316  1.00  0.00     0.274 C 
BRANCH  24  25
ATOM     25  C   UNL     1      -1.310  -3.154   4.711  1.00  0.00     0.275 C 
BRANCH  25  26
ATOM     26  O   UNL     1      -1.832  -1.823   4.855  1.00  0.00    -0.458 OA
BRANCH  26  27
ATOM     27  C   UNL     1      -0.904  -0.836   4.838  1.00  0.00     0.338 C 
ATOM     28  O   UNL     1       0.303  -0.979   4.783  1.00  0.00    -0.246 OA
BRANCH  27  29
ATOM     29  C   UNL     1      -1.582   0.471   4.849  1.00  0.00     0.060 A 
ATOM     30  C   UNL     1      -1.905   1.083   3.637  1.00  0.00     0.016 A 
ATOM     31  C   UNL     1      -1.830   1.127   6.054  1.00  0.00     0.016 A 
ATOM     32  C   UNL     1      -2.461   2.360   3.615  1.00  0.00     0.010 A 
ATOM     33  C   UNL     1      -2.414   2.399   6.034  1.00  0.00     0.010 A 
ATOM     34  C   UNL     1      -2.719   3.030   4.815  1.00  0.00    -0.014 A 
BRANCH  34  35
ATOM     35  C   UNL     1      -3.270   4.407   4.788  1.00  0.00     0.031 A 
ATOM     36  C   UNL     1      -2.393   5.568   5.157  1.00  0.00     0.074 A 
ATOM     37  C   UNL     1      -4.550   4.612   4.422  1.00  0.00     0.049 A 
ATOM     38  N   UNL     1      -2.705   6.832   5.278  1.00  0.00    -0.248 NA
ATOM     39  C   UNL     1      -0.976   5.269   5.423  1.00  0.00     0.031 C 
ATOM     40  C   UNL     1      -5.484   3.566   4.004  1.00  0.00     0.029 A 
ATOM     41  N   UNL     1      -5.288   5.767   4.352  1.00  0.00    -0.354 N 
ATOM     42  C   UNL     1      -1.536   7.475   5.666  1.00  0.00     0.074 A 
ATOM     43  C   UNL     1      -0.509   6.462   5.769  1.00  0.00     0.031 C 
ATOM     44  C   UNL     1      -6.672   4.127   3.724  1.00  0.00     0.029 A 
ATOM     45  C   UNL     1      -6.598   5.562   3.985  1.00  0.00     0.049 A 
ATOM     46  H   UNL     1      -4.916   6.658   4.546  1.00  0.00     0.167 HD
ATOM     47  C   UNL     1      -1.336   8.794   5.897  1.00  0.00     0.034 A 
ATOM     48  C   UNL     1      -7.627   6.428   3.891  1.00  0.00     0.034 A 
ATOM     49  C   UNL     1      -2.354   9.801   5.756  1.00  0.00     0.049 A 
ATOM     50  C   UNL     1      -7.386   7.883   4.199  1.00  0.00     0.074 A 
ATOM     51  C   UNL     1      -2.244  11.166   5.956  1.00  0.00     0.029 A 
ATOM     52  N   UNL     1      -3.664   9.557   5.375  1.00  0.00    -0.354 N 
ATOM     53  N   UNL     1      -6.264   8.485   4.510  1.00  0.00    -0.248 NA
ATOM     54  C   UNL     1      -8.548   8.781   4.127  1.00  0.00     0.031 C 
ATOM     55  C   UNL     1      -3.492  11.745   5.710  1.00  0.00     0.029 A 
ATOM     56  C   UNL     1      -4.376  10.743   5.339  1.00  0.00     0.049 A 
ATOM     57  H   UNL     1      -4.034   8.670   5.161  1.00  0.00     0.167 HD
ATOM     58  C   UNL     1      -6.577   9.833   4.648  1.00  0.00     0.074 A 
ATOM     59  C   UNL     1      -7.991   9.963   4.361  1.00  0.00     0.031 C 
ATOM     60  C   UNL     1      -5.771  10.865   5.000  1.00  0.00     0.034 A 
BRANCH  47  61
ATOM     61  C   UNL     1       0.048   9.239   6.288  1.00  0.00     0.023 A 
ATOM     62  C   UNL     1       1.060   9.291   5.309  1.00  0.00     0.012 A 
ATOM     63  C   UNL     1       0.328   9.679   7.597  1.00  0.00     0.148 A 
ATOM     64  C   UNL     1       2.335   9.755   5.630  1.00  0.00     0.002 A 
ATOM     65  C   UNL     1       1.590  10.178   7.900  1.00  0.00     0.091 A 
ATOM     66  F   UNL     1      -0.643   9.602   8.518  1.00  0.00    -0.205 F 
ATOM     67  C   UNL     1       2.596  10.208   6.920  1.00  0.00     0.022 A 
BRANCH  65  68
ATOM     68  S   UNL     1       2.005  10.857   9.511  1.00  0.00     0.127 S 
ATOM     69  O   UNL     1       2.929   9.848  10.027  1.00  0.00    -0.237 OA
ATOM     70  O   UNL     1       2.631  12.131   9.156  1.00  0.00    -0.237 OA
ATOM     71  O   UNL     1       0.747  10.977  10.233  1.00  0.00    -0.744 OA
ENDBRANCH  65  68
ENDBRANCH  47  61
BRANCH  48  72
ATOM     72  C   UNL     1      -8.964   5.946   3.442  1.00  0.00     0.023 A 
ATOM     73  C   UNL     1      -9.453   6.348   2.183  1.00  0.00     0.012 A 
ATOM     74  C   UNL     1      -9.731   5.057   4.222  1.00  0.00     0.148 A 
ATOM     75  C   UNL     1     -10.684   5.887   1.717  1.00  0.00     0.002 A 
ATOM     76  C   UNL     1     -10.930   4.557   3.726  1.00  0.00     0.091 A 
ATOM     77  F   UNL     1      -9.263   4.704   5.428  1.00  0.00    -0.205 F 
ATOM     78  C   UNL     1     -11.416   4.981   2.480  1.00  0.00     0.022 A 
BRANCH  76  79
ATOM     79  S   UNL     1     -11.870   3.284   4.579  1.00  0.00     0.127 S 
ATOM     80  O   UNL     1     -13.043   4.029   5.030  1.00  0.00    -0.237 OA
ATOM     81  O   UNL     1     -12.126   2.325   3.503  1.00  0.00    -0.237 OA
ATOM     82  O   UNL     1     -10.994   2.785   5.630  1.00  0.00    -0.744 OA
ENDBRANCH  76  79
ENDBRANCH  48  72
BRANCH  60  83
ATOM     83  C   UNL     1      -6.383  12.239   5.093  1.00  0.00     0.023 A 
ATOM     84  C   UNL     1      -7.207  12.556   6.190  1.00  0.00     0.012 A 
ATOM     85  C   UNL     1      -6.048  13.245   4.164  1.00  0.00     0.148 A 
ATOM     86  C   UNL     1      -7.702  13.849   6.354  1.00  0.00     0.002 A 
ATOM     87  C   UNL     1      -6.508  14.542   4.359  1.00  0.00     0.091 A 
ATOM     88  F   UNL     1      -5.276  12.918   3.117  1.00  0.00    -0.205 F 
ATOM     89  C   UNL     1      -7.342  14.844   5.448  1.00  0.00     0.022 A 
BRANCH  87  90
ATOM     90  S   UNL     1      -6.014  15.910   3.303  1.00  0.00     0.127 S 
ATOM     91  O   UNL     1      -7.247  16.175   2.563  1.00  0.00    -0.237 OA
ATOM     92  O   UNL     1      -5.654  16.941   4.277  1.00  0.00    -0.237 OA
ATOM     93  O   UNL     1      -4.900  15.419   2.504  1.00  0.00    -0.744 OA
ENDBRANCH  87  90
ENDBRANCH  60  83
ENDBRANCH  34  35
ENDBRANCH  27  29
ENDBRANCH  26  27
ENDBRANCH  25  26
ENDBRANCH  24  25
ENDBRANCH   1  24
TORSDOF 18
