REMARK SMILES C/C(=N\NC(N)=S)c1nnn(-c2ccc(C(=O)OCCOC(=O)c3ccc(-c4c5nc(c(-c6cccc(S(=O)(=O)[O-])c6F)c6ccc([nH]6)c(-c6cccc(S(=O)(=O)[O-])c6F)c6nc(c(-c7cccc(S(=O)(=O)[O-])c7F)c7ccc4[nH]7)C=C6)C=C5)cc3)cc2)c1C
REMARK SMILES IDX 19 1 18 2 16 3 17 4 15 5 12 6 13 7 88 8 14 9 87 10 11 11
REMARK SMILES IDX 8 12 9 13 89 14 10 15 90 16 2 17 1 18 3 19 4 20 5 22 7 23
REMARK SMILES IDX 6 24 20 27 21 28 22 29 23 30 24 31 25 32 86 33 26 34 85 35
REMARK SMILES IDX 27 36 28 37 29 38 79 39 30 40 84 41 78 42 80 43 31 44 83 45
REMARK SMILES IDX 77 46 76 47 32 49 64 50 44 51 63 52 45 53 48 54 62 55 81 56
REMARK SMILES IDX 46 57 47 58 61 60 82 61 49 62 33 63 34 64 42 65 35 66 37 67
REMARK SMILES IDX 43 68 36 69 38 70 39 71 40 72 41 73 65 74 66 75 74 76 67 77
REMARK SMILES IDX 69 78 75 79 68 80 70 81 71 82 72 83 73 84 50 85 51 86 59 87
REMARK SMILES IDX 52 88 54 89 60 90 53 91 55 92 56 93 57 94 58 95
REMARK H PARENT 4 21 6 25 6 26 80 48 48 59
REMARK Flexibility Score: inf
ROOT
ATOM      1  C   UNL     1       9.423  -5.480   4.054  1.00  0.00     0.275 C 
ENDROOT
BRANCH   1   2
ATOM      2  O   UNL     1       8.167  -4.798   3.932  1.00  0.00    -0.458 OA
BRANCH   2   3
ATOM      3  C   UNL     1       7.300  -5.317   3.018  1.00  0.00     0.338 C 
ATOM      4  O   UNL     1       7.548  -6.145   2.172  1.00  0.00    -0.246 OA
BRANCH   3   5
ATOM      5  C   UNL     1       5.945  -4.739   3.233  1.00  0.00     0.060 A 
ATOM      6  C   UNL     1       3.448  -3.541   3.308  1.00  0.00     0.067 A 
ATOM      7  C   UNL     1       3.567  -4.819   2.751  1.00  0.00     0.029 A 
ATOM      8  C   UNL     1       4.526  -2.933   3.959  1.00  0.00     0.029 A 
ATOM      9  C   UNL     1       4.833  -5.406   2.695  1.00  0.00     0.018 A 
ATOM     10  C   UNL     1       5.776  -3.537   3.926  1.00  0.00     0.018 A 
BRANCH   6  11
ATOM     11  N   UNL     1       2.311  -2.766   3.012  1.00  0.00    -0.217 N 
ATOM     12  C   UNL     1       0.987  -1.320   2.067  1.00  0.00     0.132 A 
ATOM     13  N   UNL     1       0.234  -2.362   2.536  1.00  0.00    -0.128 NA
ATOM     14  C   UNL     1       2.319  -1.549   2.344  1.00  0.00     0.071 A 
ATOM     15  N   UNL     1       1.057  -3.267   3.049  1.00  0.00    -0.061 NA
ATOM     16  C   UNL     1       3.531  -0.859   1.839  1.00  0.00     0.069 C 
BRANCH  12  17
ATOM     17  C   UNL     1       0.451  -0.322   1.162  1.00  0.00     0.087 C 
ATOM     18  C   UNL     1       0.392  -0.733  -0.285  1.00  0.00     0.071 C 
ATOM     19  N   UNL     1       0.083   0.801   1.704  1.00  0.00    -0.176 NA
BRANCH  19  20
ATOM     20  N   UNL     1      -0.498   1.794   0.970  1.00  0.00    -0.254 N 
ATOM     21  H   UNL     1      -1.436   1.996   1.192  1.00  0.00     0.193 HD
BRANCH  20  22
ATOM     22  C   UNL     1       0.055   2.551  -0.042  1.00  0.00     0.184 C 
ATOM     23  S   UNL     1       1.552   2.446  -0.756  1.00  0.00    -0.040 S 
BRANCH  22  24
ATOM     24  N   UNL     1      -0.805   3.521  -0.484  1.00  0.00    -0.375 N 
ATOM     25  H   UNL     1      -1.698   3.608  -0.080  1.00  0.00     0.159 HD
ATOM     26  H   UNL     1      -0.530   4.131  -1.206  1.00  0.00     0.159 HD
ENDBRANCH  22  24
ENDBRANCH  20  22
ENDBRANCH  19  20
ENDBRANCH  12  17
ENDBRANCH   6  11
ENDBRANCH   3   5
ENDBRANCH   2   3
ENDBRANCH   1   2
BRANCH   1  27
ATOM     27  C   UNL     1       9.327  -6.606   5.070  1.00  0.00     0.275 C 
BRANCH  27  28
ATOM     28  O   UNL     1       8.527  -7.681   4.582  1.00  0.00    -0.458 OA
BRANCH  28  29
ATOM     29  C   UNL     1       7.245  -7.663   5.008  1.00  0.00     0.338 C 
ATOM     30  O   UNL     1       6.601  -6.699   5.391  1.00  0.00    -0.246 OA
BRANCH  29  31
ATOM     31  C   UNL     1       6.793  -9.037   5.208  1.00  0.00     0.060 A 
ATOM     32  C   UNL     1       5.426  -9.249   5.408  1.00  0.00     0.016 A 
ATOM     33  C   UNL     1       7.752 -10.022   5.481  1.00  0.00     0.016 A 
ATOM     34  C   UNL     1       5.029 -10.425   6.007  1.00  0.00     0.010 A 
ATOM     35  C   UNL     1       7.358 -11.181   6.098  1.00  0.00     0.010 A 
ATOM     36  C   UNL     1       6.008 -11.346   6.401  1.00  0.00    -0.014 A 
BRANCH  36  37
ATOM     37  C   UNL     1       5.575 -12.614   6.951  1.00  0.00     0.031 A 
ATOM     38  C   UNL     1       4.951 -13.466   5.912  1.00  0.00     0.074 A 
ATOM     39  C   UNL     1       5.875 -12.996   8.207  1.00  0.00     0.049 A 
ATOM     40  N   UNL     1       3.713 -13.824   5.827  1.00  0.00    -0.248 NA
ATOM     41  C   UNL     1       5.744 -13.765   4.705  1.00  0.00     0.031 C 
ATOM     42  C   UNL     1       6.750 -12.297   9.155  1.00  0.00     0.029 A 
ATOM     43  N   UNL     1       5.596 -14.165   8.849  1.00  0.00    -0.354 N 
ATOM     44  C   UNL     1       3.661 -14.643   4.702  1.00  0.00     0.074 A 
ATOM     45  C   UNL     1       4.828 -14.340   3.925  1.00  0.00     0.031 C 
ATOM     46  C   UNL     1       7.133 -13.161  10.121  1.00  0.00     0.029 A 
ATOM     47  C   UNL     1       6.444 -14.424   9.925  1.00  0.00     0.049 A 
ATOM     48  H   UNL     1       4.867 -14.768   8.579  1.00  0.00     0.167 HD
ATOM     49  C   UNL     1       2.878 -15.755   4.707  1.00  0.00     0.034 A 
ATOM     50  C   UNL     1       6.633 -15.620  10.537  1.00  0.00     0.034 A 
ATOM     51  C   UNL     1       1.865 -15.662   5.732  1.00  0.00     0.049 A 
ATOM     52  C   UNL     1       5.478 -16.477  10.190  1.00  0.00     0.074 A 
ATOM     53  C   UNL     1       0.855 -14.776   6.048  1.00  0.00     0.029 A 
ATOM     54  N   UNL     1       2.092 -16.410   6.860  1.00  0.00    -0.354 N 
ATOM     55  N   UNL     1       4.263 -16.257  10.602  1.00  0.00    -0.248 NA
ATOM     56  C   UNL     1       5.601 -17.368   9.048  1.00  0.00     0.031 C 
ATOM     57  C   UNL     1       0.795 -14.767   7.473  1.00  0.00     0.029 A 
ATOM     58  C   UNL     1       1.720 -15.693   7.960  1.00  0.00     0.049 A 
ATOM     59  H   UNL     1       2.465 -17.321   6.873  1.00  0.00     0.167 HD
ATOM     60  C   UNL     1       3.472 -16.570   9.506  1.00  0.00     0.074 A 
ATOM     61  C   UNL     1       4.327 -17.386   8.647  1.00  0.00     0.031 C 
ATOM     62  C   UNL     1       2.319 -15.879   9.264  1.00  0.00     0.034 A 
BRANCH  49  63
ATOM     63  C   UNL     1       3.321 -17.108   4.164  1.00  0.00     0.023 A 
ATOM     64  C   UNL     1       2.377 -18.157   4.249  1.00  0.00     0.012 A 
ATOM     65  C   UNL     1       4.658 -17.484   3.883  1.00  0.00     0.148 A 
ATOM     66  C   UNL     1       2.758 -19.501   4.162  1.00  0.00     0.002 A 
ATOM     67  C   UNL     1       5.020 -18.816   3.723  1.00  0.00     0.091 A 
ATOM     68  F   UNL     1       5.636 -16.580   3.885  1.00  0.00    -0.205 F 
ATOM     69  C   UNL     1       4.081 -19.832   3.900  1.00  0.00     0.022 A 
BRANCH  67  70
ATOM     70  S   UNL     1       6.713 -19.298   3.347  1.00  0.00     0.127 S 
ATOM     71  O   UNL     1       7.115 -19.940   4.595  1.00  0.00    -0.237 OA
ATOM     72  O   UNL     1       6.515 -20.204   2.216  1.00  0.00    -0.237 OA
ATOM     73  O   UNL     1       7.414 -18.066   3.010  1.00  0.00    -0.744 OA
ENDBRANCH  67  70
ENDBRANCH  49  63
BRANCH  50  74
ATOM     74  C   UNL     1       7.842 -16.189  11.182  1.00  0.00     0.023 A 
ATOM     75  C   UNL     1       7.712 -17.308  12.033  1.00  0.00     0.012 A 
ATOM     76  C   UNL     1       9.139 -15.834  10.751  1.00  0.00     0.148 A 
ATOM     77  C   UNL     1       8.826 -18.070  12.404  1.00  0.00     0.002 A 
ATOM     78  C   UNL     1      10.245 -16.588  11.132  1.00  0.00     0.091 A 
ATOM     79  F   UNL     1       9.279 -14.819   9.890  1.00  0.00    -0.205 F 
ATOM     80  C   UNL     1      10.091 -17.716  11.946  1.00  0.00     0.022 A 
BRANCH  78  81
ATOM     81  S   UNL     1      11.907 -16.201  10.564  1.00  0.00     0.127 S 
ATOM     82  O   UNL     1      12.671 -16.241  11.812  1.00  0.00    -0.237 OA
ATOM     83  O   UNL     1      12.179 -17.302   9.645  1.00  0.00    -0.237 OA
ATOM     84  O   UNL     1      11.823 -14.877   9.958  1.00  0.00    -0.744 OA
ENDBRANCH  78  81
ENDBRANCH  50  74
BRANCH  62  85
ATOM     85  C   UNL     1       1.735 -15.070  10.393  1.00  0.00     0.023 A 
ATOM     86  C   UNL     1       2.398 -13.975  10.984  1.00  0.00     0.012 A 
ATOM     87  C   UNL     1       0.413 -15.351  10.775  1.00  0.00     0.148 A 
ATOM     88  C   UNL     1       1.764 -13.198  11.958  1.00  0.00     0.002 A 
ATOM     89  C   UNL     1      -0.232 -14.548  11.705  1.00  0.00     0.091 A 
ATOM     90  F   UNL     1      -0.203 -16.398  10.205  1.00  0.00    -0.205 F 
ATOM     91  C   UNL     1       0.444 -13.476  12.309  1.00  0.00     0.022 A 
BRANCH  89  92
ATOM     92  S   UNL     1      -1.964 -14.791  12.100  1.00  0.00     0.127 S 
ATOM     93  O   UNL     1      -1.890 -15.460  13.397  1.00  0.00    -0.237 OA
ATOM     94  O   UNL     1      -2.474 -13.420  12.145  1.00  0.00    -0.237 OA
ATOM     95  O   UNL     1      -2.512 -15.591  11.011  1.00  0.00    -0.744 OA
ENDBRANCH  89  92
ENDBRANCH  62  85
ENDBRANCH  36  37
ENDBRANCH  29  31
ENDBRANCH  28  29
ENDBRANCH  27  28
ENDBRANCH   1  27
TORSDOF 19
