REMARK SMILES Cc1cc(Br)cc2c1O[C@H](C(F)(F)F)C(C(=O)OCCOC(=O)c1ccc(-c3c4nc(c(-c5cccc(S(=O)(=O)[O-])c5F)c5ccc([nH]5)c(-c5cccc(S(=O)(=O)[O-])c5F)c5nc(c(-c6cccc(S(=O)(=O)[O-])c6F)c6ccc3[nH]6)C=C5)C=C4)cc1)=C2
REMARK SMILES IDX 20 1 19 2 18 3 16 4 17 5 15 6 1 7 2 8 3 9 8 10 4 11 7 12
REMARK SMILES IDX 9 13 5 14 6 15 87 16 10 17 11 18 12 19 13 20 14 21 21 22
REMARK SMILES IDX 22 23 23 24 24 25 25 26 86 27 26 28 85 29 27 30 28 31 29 32
REMARK SMILES IDX 79 33 30 34 84 35 78 36 80 37 31 38 83 39 77 40 76 41 32 43
REMARK SMILES IDX 64 44 44 45 63 46 45 47 48 48 62 49 81 50 46 51 47 52 61 54
REMARK SMILES IDX 82 55 49 56 33 57 34 58 42 59 35 60 37 61 43 62 36 63 38 64
REMARK SMILES IDX 39 65 40 66 41 67 65 68 66 69 74 70 67 71 69 72 75 73 68 74
REMARK SMILES IDX 70 75 71 76 72 77 73 78 50 79 51 80 59 81 52 82 54 83 60 84
REMARK SMILES IDX 53 85 55 86 56 87 57 88 58 89
REMARK H PARENT 80 42 48 53
REMARK Flexibility Score: inf
ROOT
ATOM      1  C   UNL     1       1.193  -9.178  -0.115  1.00  0.00     0.275 C 
ENDROOT
BRANCH   1   2
ATOM      2  C   UNL     1       2.345  -8.219   0.191  1.00  0.00     0.275 C 
BRANCH   2   3
ATOM      3  O   UNL     1       1.905  -6.843   0.207  1.00  0.00    -0.459 OA
BRANCH   3   4
ATOM      4  C   UNL     1       2.215  -6.125  -0.897  1.00  0.00     0.338 C 
ATOM      5  O   UNL     1       2.853  -6.517  -1.863  1.00  0.00    -0.246 OA
BRANCH   4   6
ATOM      6  C   UNL     1       1.683  -4.753  -0.803  1.00  0.00     0.087 C 
ATOM      7  C   UNL     1       1.073   0.221   0.281  1.00  0.00     0.048 C 
ATOM      8  C   UNL     1       0.680  -0.689  -0.845  1.00  0.00    -0.007 A 
ATOM      9  C   UNL     1       0.072  -0.157  -1.995  1.00  0.00     0.023 A 
ATOM     10  C   UNL     1       0.960  -2.063  -0.789  1.00  0.00     0.130 A 
ATOM     11  C   UNL     1      -0.272  -0.988  -3.059  1.00  0.00     0.019 A 
ATOM     12  C   UNL     1       0.626  -2.882  -1.868  1.00  0.00     0.019 A 
ATOM     13  O   UNL     1       1.550  -2.544   0.351  1.00  0.00    -0.475 OA
ATOM     14  Br  UNL     1      -1.081  -0.257  -4.603  1.00  0.00    -0.051 Br
ATOM     15  C   UNL     1      -0.004  -2.349  -3.000  1.00  0.00     0.027 A 
ATOM     16  C   UNL     1       0.989  -4.282  -1.843  1.00  0.00     0.027 C 
ATOM     17  C   UNL     1       2.081  -3.900   0.362  1.00  0.00     0.316 C 
BRANCH  17  18
ATOM     18  C   UNL     1       3.609  -3.827   0.513  1.00  0.00     0.430 C 
ATOM     19  F   UNL     1       3.960  -3.047   1.565  1.00  0.00    -0.167 F 
ATOM     20  F   UNL     1       4.148  -5.048   0.749  1.00  0.00    -0.167 F 
ATOM     21  F   UNL     1       4.213  -3.321  -0.585  1.00  0.00    -0.167 F 
ENDBRANCH  17  18
ENDBRANCH   4   6
ENDBRANCH   3   4
ENDBRANCH   2   3
ENDBRANCH   1   2
BRANCH   1  22
ATOM     22  O   UNL     1       0.733  -9.012  -1.468  1.00  0.00    -0.458 OA
BRANCH  22  23
ATOM     23  C   UNL     1      -0.387  -8.266  -1.594  1.00  0.00     0.338 C 
ATOM     24  O   UNL     1      -1.036  -7.754  -0.697  1.00  0.00    -0.246 OA
BRANCH  23  25
ATOM     25  C   UNL     1      -0.701  -8.033  -3.009  1.00  0.00     0.060 A 
ATOM     26  C   UNL     1       0.064  -7.103  -3.699  1.00  0.00     0.016 A 
ATOM     27  C   UNL     1      -1.878  -8.520  -3.568  1.00  0.00     0.016 A 
ATOM     28  C   UNL     1      -0.444  -6.499  -4.843  1.00  0.00     0.010 A 
ATOM     29  C   UNL     1      -2.293  -8.040  -4.816  1.00  0.00     0.010 A 
ATOM     30  C   UNL     1      -1.616  -6.976  -5.441  1.00  0.00    -0.014 A 
BRANCH  30  31
ATOM     31  C   UNL     1      -2.126  -6.367  -6.706  1.00  0.00     0.031 A 
ATOM     32  C   UNL     1      -3.561  -5.911  -6.813  1.00  0.00     0.074 A 
ATOM     33  C   UNL     1      -1.306  -6.231  -7.770  1.00  0.00     0.049 A 
ATOM     34  N   UNL     1      -4.243  -5.573  -7.877  1.00  0.00    -0.248 NA
ATOM     35  C   UNL     1      -4.339  -5.842  -5.563  1.00  0.00     0.031 C 
ATOM     36  C   UNL     1       0.115  -6.590  -7.801  1.00  0.00     0.029 A 
ATOM     37  N   UNL     1      -1.547  -5.764  -9.040  1.00  0.00    -0.354 N 
ATOM     38  C   UNL     1      -5.542  -5.330  -7.441  1.00  0.00     0.074 A 
ATOM     39  C   UNL     1      -5.554  -5.553  -6.011  1.00  0.00     0.031 C 
ATOM     40  C   UNL     1       0.625  -6.296  -9.002  1.00  0.00     0.029 A 
ATOM     41  C   UNL     1      -0.453  -5.848  -9.871  1.00  0.00     0.049 A 
ATOM     42  H   UNL     1      -2.417  -5.404  -9.327  1.00  0.00     0.167 HD
ATOM     43  C   UNL     1      -6.621  -4.948  -8.166  1.00  0.00     0.034 A 
ATOM     44  C   UNL     1      -0.330  -5.655 -11.198  1.00  0.00     0.034 A 
ATOM     45  C   UNL     1      -6.578  -4.663  -9.577  1.00  0.00     0.049 A 
ATOM     46  C   UNL     1      -1.547  -5.266 -11.985  1.00  0.00     0.074 A 
ATOM     47  C   UNL     1      -7.609  -4.246 -10.400  1.00  0.00     0.029 A 
ATOM     48  N   UNL     1      -5.444  -4.750 -10.371  1.00  0.00    -0.354 N 
ATOM     49  N   UNL     1      -2.764  -5.036 -11.557  1.00  0.00    -0.248 NA
ATOM     50  C   UNL     1      -1.375  -5.101 -13.434  1.00  0.00     0.031 C 
ATOM     51  C   UNL     1      -7.106  -4.110 -11.697  1.00  0.00     0.029 A 
ATOM     52  C   UNL     1      -5.752  -4.402 -11.676  1.00  0.00     0.049 A 
ATOM     53  H   UNL     1      -4.552  -5.019 -10.054  1.00  0.00     0.167 HD
ATOM     54  C   UNL     1      -3.499  -4.674 -12.678  1.00  0.00     0.074 A 
ATOM     55  C   UNL     1      -2.581  -4.689 -13.800  1.00  0.00     0.031 C 
ATOM     56  C   UNL     1      -4.818  -4.376 -12.773  1.00  0.00     0.034 A 
BRANCH  43  57
ATOM     57  C   UNL     1      -7.945  -4.791  -7.457  1.00  0.00     0.023 A 
ATOM     58  C   UNL     1      -8.152  -3.706  -6.582  1.00  0.00     0.012 A 
ATOM     59  C   UNL     1      -9.018  -5.665  -7.734  1.00  0.00     0.148 A 
ATOM     60  C   UNL     1      -9.394  -3.507  -5.976  1.00  0.00     0.002 A 
ATOM     61  C   UNL     1     -10.266  -5.431  -7.166  1.00  0.00     0.091 A 
ATOM     62  F   UNL     1      -8.800  -6.702  -8.555  1.00  0.00    -0.205 F 
ATOM     63  C   UNL     1     -10.452  -4.360  -6.278  1.00  0.00     0.022 A 
BRANCH  61  64
ATOM     64  S   UNL     1     -11.717  -6.415  -7.562  1.00  0.00     0.127 S 
ATOM     65  O   UNL     1     -11.986  -7.072  -6.283  1.00  0.00    -0.237 OA
ATOM     66  O   UNL     1     -12.690  -5.389  -7.936  1.00  0.00    -0.237 OA
ATOM     67  O   UNL     1     -11.320  -7.305  -8.644  1.00  0.00    -0.744 OA
ENDBRANCH  61  64
ENDBRANCH  43  57
BRANCH  44  68
ATOM     68  C   UNL     1       1.002  -5.824 -11.850  1.00  0.00     0.023 A 
ATOM     69  C   UNL     1       1.661  -4.695 -12.372  1.00  0.00     0.012 A 
ATOM     70  C   UNL     1       1.651  -7.075 -11.889  1.00  0.00     0.148 A 
ATOM     71  C   UNL     1       2.934  -4.810 -12.931  1.00  0.00     0.002 A 
ATOM     72  C   UNL     1       2.946  -7.170 -12.383  1.00  0.00     0.091 A 
ATOM     73  F   UNL     1       1.002  -8.143 -11.402  1.00  0.00    -0.205 F 
ATOM     74  C   UNL     1       3.583  -6.042 -12.921  1.00  0.00     0.022 A 
BRANCH  72  75
ATOM     75  S   UNL     1       3.918  -8.678 -12.265  1.00  0.00     0.127 S 
ATOM     76  O   UNL     1       4.051  -9.059 -13.669  1.00  0.00    -0.237 OA
ATOM     77  O   UNL     1       5.149  -8.193 -11.639  1.00  0.00    -0.237 OA
ATOM     78  O   UNL     1       3.139  -9.587 -11.436  1.00  0.00    -0.744 OA
ENDBRANCH  72  75
ENDBRANCH  44  68
BRANCH  56  79
ATOM     79  C   UNL     1      -5.353  -4.009 -14.132  1.00  0.00     0.023 A 
ATOM     80  C   UNL     1      -5.490  -5.001 -15.123  1.00  0.00     0.012 A 
ATOM     81  C   UNL     1      -5.802  -2.699 -14.396  1.00  0.00     0.148 A 
ATOM     82  C   UNL     1      -6.036  -4.688 -16.367  1.00  0.00     0.002 A 
ATOM     83  C   UNL     1      -6.397  -2.409 -15.617  1.00  0.00     0.091 A 
ATOM     84  F   UNL     1      -5.646  -1.766 -13.446  1.00  0.00    -0.205 F 
ATOM     85  C   UNL     1      -6.502  -3.398 -16.609  1.00  0.00     0.022 A 
BRANCH  83  86
ATOM     86  S   UNL     1      -7.127  -0.808 -15.979  1.00  0.00     0.127 S 
ATOM     87  O   UNL     1      -6.204  -0.281 -16.984  1.00  0.00    -0.237 OA
ATOM     88  O   UNL     1      -8.444  -1.179 -16.495  1.00  0.00    -0.237 OA
ATOM     89  O   UNL     1      -7.152  -0.082 -14.717  1.00  0.00    -0.744 OA
ENDBRANCH  83  86
ENDBRANCH  56  79
ENDBRANCH  30  31
ENDBRANCH  23  25
ENDBRANCH  22  23
ENDBRANCH   1  22
TORSDOF 15
