REMARK SMILES COc1ccc([C@@H](CC(=O)OCCOC(=O)c2ccc(-c3c4nc(c(-c5cccc(S(=O)(=O)[O-])c5F)c5ccc([nH]5)c(-c5cccc(S(=O)(=O)[O-])c5F)c5nc(c(-c6cccc(S(=O)(=O)[O-])c6F)c6ccc3[nH]6)C=C5)C=C4)cc2)NC(=O)c2ccc(Cl)c([N+](=O)[O-])c2)cc1
REMARK SMILES IDX 12 1 11 2 9 3 10 4 8 5 7 6 6 7 3 8 4 9 94 10 5 11 93 12 2 13
REMARK SMILES IDX 1 14 80 15 81 16 82 18 83 19 84 20 92 21 85 22 88 23 86 24
REMARK SMILES IDX 87 25 89 26 90 27 91 28 13 29 14 30 15 31 16 32 17 33 18 34
REMARK SMILES IDX 79 35 19 36 78 37 20 38 21 39 22 40 72 41 23 42 77 43 71 44
REMARK SMILES IDX 73 45 24 46 76 47 70 48 69 49 25 51 57 52 37 53 56 54 38 55
REMARK SMILES IDX 41 56 55 57 74 58 39 59 40 60 54 62 75 63 42 64 26 65 27 66
REMARK SMILES IDX 35 67 28 68 30 69 36 70 29 71 31 72 32 73 33 74 34 75 58 76
REMARK SMILES IDX 59 77 67 78 60 79 62 80 68 81 61 82 63 83 64 84 65 85 66 86
REMARK SMILES IDX 43 87 44 88 52 89 45 90 47 91 53 92 46 93 48 94 49 95 50 96
REMARK SMILES IDX 51 97
REMARK H PARENT 80 17 73 50 41 61
REMARK Flexibility Score: inf
ROOT
ATOM      1  C   UNL     1      -1.363   2.820   6.329  1.00  0.00     0.274 C 
ENDROOT
BRANCH   1   2
ATOM      2  O   UNL     1      -0.129   2.117   6.070  1.00  0.00    -0.462 OA
BRANCH   2   3
ATOM      3  C   UNL     1       0.875   2.292   6.958  1.00  0.00     0.308 C 
ATOM      4  O   UNL     1       0.797   3.012   7.948  1.00  0.00    -0.252 OA
BRANCH   3   5
ATOM      5  C   UNL     1       2.170   1.608   6.582  1.00  0.00     0.152 C 
BRANCH   5   6
ATOM      6  C   UNL     1       2.155   0.189   5.990  1.00  0.00     0.123 C 
BRANCH   6   7
ATOM      7  C   UNL     1       1.707   0.163   4.537  1.00  0.00    -0.025 A 
ATOM      8  C   UNL     1       0.929   0.424   1.848  1.00  0.00     0.118 A 
ATOM      9  C   UNL     1      -0.022   0.161   2.828  1.00  0.00     0.047 A 
ATOM     10  C   UNL     1       2.273   0.540   2.194  1.00  0.00     0.047 A 
ATOM     11  C   UNL     1       0.367   0.001   4.159  1.00  0.00     0.010 A 
ATOM     12  C   UNL     1       2.658   0.410   3.530  1.00  0.00     0.010 A 
BRANCH   8  13
ATOM     13  O   UNL     1       0.463   0.655   0.583  1.00  0.00    -0.497 OA
ATOM     14  C   UNL     1       1.108  -0.151  -0.397  1.00  0.00     0.278 C 
ENDBRANCH   8  13
ENDBRANCH   6   7
BRANCH   6  15
ATOM     15  N   UNL     1       1.488  -0.808   6.821  1.00  0.00    -0.345 N 
ATOM     16  C   UNL     1       1.970  -1.950   7.409  1.00  0.00     0.252 C 
ATOM     17  H   UNL     1       0.534  -0.632   6.987  1.00  0.00     0.164 HD
ATOM     18  O   UNL     1       1.209  -2.794   7.871  1.00  0.00    -0.269 OA
BRANCH  16  19
ATOM     19  C   UNL     1       3.422  -2.205   7.490  1.00  0.00     0.046 A 
ATOM     20  C   UNL     1       3.908  -3.447   7.068  1.00  0.00     0.016 A 
ATOM     21  C   UNL     1       4.295  -1.259   8.027  1.00  0.00     0.101 A 
ATOM     22  C   UNL     1       5.280  -3.715   7.109  1.00  0.00     0.028 A 
ATOM     23  C   UNL     1       5.673  -1.532   8.047  1.00  0.00     0.288 A 
ATOM     24  C   UNL     1       6.179  -2.748   7.575  1.00  0.00     0.118 A 
ATOM     25  Cl  UNL     1       7.859  -3.123   7.453  1.00  0.00    -0.077 Cl
BRANCH  23  26
ATOM     26  N   UNL     1       6.551  -0.470   8.507  1.00  0.00     0.064 N 
ATOM     27  O   UNL     1       7.458  -0.756   9.295  1.00  0.00    -0.258 OA
ATOM     28  O   UNL     1       6.302   0.669   8.083  1.00  0.00    -0.258 OA
ENDBRANCH  23  26
ENDBRANCH  16  19
ENDBRANCH   6  15
ENDBRANCH   5   6
ENDBRANCH   3   5
ENDBRANCH   2   3
ENDBRANCH   1   2
BRANCH   1  29
ATOM     29  C   UNL     1      -2.430   1.906   6.939  1.00  0.00     0.275 C 
BRANCH  29  30
ATOM     30  O   UNL     1      -2.086   1.513   8.279  1.00  0.00    -0.458 OA
BRANCH  30  31
ATOM     31  C   UNL     1      -1.404   0.348   8.368  1.00  0.00     0.338 C 
ATOM     32  O   UNL     1      -1.111  -0.392   7.444  1.00  0.00    -0.246 OA
BRANCH  31  33
ATOM     33  C   UNL     1      -0.898   0.169   9.737  1.00  0.00     0.060 A 
ATOM     34  C   UNL     1       0.471   0.339   9.963  1.00  0.00     0.016 A 
ATOM     35  C   UNL     1      -1.744  -0.226  10.771  1.00  0.00     0.016 A 
ATOM     36  C   UNL     1       1.007   0.108  11.225  1.00  0.00     0.010 A 
ATOM     37  C   UNL     1      -1.207  -0.444  12.044  1.00  0.00     0.010 A 
ATOM     38  C   UNL     1       0.171  -0.287  12.276  1.00  0.00    -0.014 A 
BRANCH  38  39
ATOM     39  C   UNL     1       0.751  -0.540  13.615  1.00  0.00     0.031 A 
ATOM     40  C   UNL     1       0.872  -1.944  14.132  1.00  0.00     0.074 A 
ATOM     41  C   UNL     1       1.156   0.501  14.367  1.00  0.00     0.049 A 
ATOM     42  N   UNL     1       1.302  -2.358  15.295  1.00  0.00    -0.248 NA
ATOM     43  C   UNL     1       0.451  -3.023  13.225  1.00  0.00     0.031 C 
ATOM     44  C   UNL     1       1.082   1.908  13.968  1.00  0.00     0.029 A 
ATOM     45  N   UNL     1       1.690   0.538  15.630  1.00  0.00    -0.354 N 
ATOM     46  C   UNL     1       1.165  -3.740  15.280  1.00  0.00     0.074 A 
ATOM     47  C   UNL     1       0.612  -4.095  13.990  1.00  0.00     0.031 C 
ATOM     48  C   UNL     1       1.538   2.672  14.974  1.00  0.00     0.029 A 
ATOM     49  C   UNL     1       1.905   1.814  16.096  1.00  0.00     0.049 A 
ATOM     50  H   UNL     1       1.898  -0.270  16.152  1.00  0.00     0.167 HD
ATOM     51  C   UNL     1       1.484  -4.630  16.248  1.00  0.00     0.034 A 
ATOM     52  C   UNL     1       2.331   2.243  17.300  1.00  0.00     0.034 A 
ATOM     53  C   UNL     1       2.074  -4.275  17.512  1.00  0.00     0.049 A 
ATOM     54  C   UNL     1       2.690   1.228  18.352  1.00  0.00     0.074 A 
ATOM     55  C   UNL     1       2.484  -5.111  18.535  1.00  0.00     0.029 A 
ATOM     56  N   UNL     1       2.335  -2.978  17.927  1.00  0.00    -0.354 N 
ATOM     57  N   UNL     1       2.663  -0.081  18.279  1.00  0.00    -0.248 NA
ATOM     58  C   UNL     1       3.167   1.748  19.642  1.00  0.00     0.031 C 
ATOM     59  C   UNL     1       2.984  -4.318  19.575  1.00  0.00     0.029 A 
ATOM     60  C   UNL     1       2.896  -2.989  19.193  1.00  0.00     0.049 A 
ATOM     61  H   UNL     1       2.150  -2.168  17.399  1.00  0.00     0.167 HD
ATOM     62  C   UNL     1       3.143  -0.541  19.499  1.00  0.00     0.074 A 
ATOM     63  C   UNL     1       3.478   0.630  20.284  1.00  0.00     0.031 C 
ATOM     64  C   UNL     1       3.276  -1.817  19.939  1.00  0.00     0.034 A 
BRANCH  51  65
ATOM     65  C   UNL     1       1.236  -6.088  15.966  1.00  0.00     0.023 A 
ATOM     66  C   UNL     1       2.102  -6.784  15.099  1.00  0.00     0.012 A 
ATOM     67  C   UNL     1       0.187  -6.781  16.600  1.00  0.00     0.148 A 
ATOM     68  C   UNL     1       1.913  -8.143  14.849  1.00  0.00     0.002 A 
ATOM     69  C   UNL     1       0.027  -8.144  16.374  1.00  0.00     0.091 A 
ATOM     70  F   UNL     1      -0.642  -6.096  17.401  1.00  0.00    -0.205 F 
ATOM     71  C   UNL     1       0.884  -8.824  15.493  1.00  0.00     0.022 A 
BRANCH  69  72
ATOM     72  S   UNL     1      -1.227  -9.120  17.213  1.00  0.00     0.127 S 
ATOM     73  O   UNL     1      -2.205  -9.324  16.146  1.00  0.00    -0.237 OA
ATOM     74  O   UNL     1      -0.482 -10.321  17.594  1.00  0.00    -0.237 OA
ATOM     75  O   UNL     1      -1.679  -8.309  18.335  1.00  0.00    -0.744 OA
ENDBRANCH  69  72
ENDBRANCH  51  65
BRANCH  52  76
ATOM     76  C   UNL     1       2.486   3.702  17.555  1.00  0.00     0.023 A 
ATOM     77  C   UNL     1       3.778   4.247  17.683  1.00  0.00     0.012 A 
ATOM     78  C   UNL     1       1.369   4.556  17.636  1.00  0.00     0.148 A 
ATOM     79  C   UNL     1       3.953   5.613  17.911  1.00  0.00     0.002 A 
ATOM     80  C   UNL     1       1.553   5.923  17.809  1.00  0.00     0.091 A 
ATOM     81  F   UNL     1       0.146   4.016  17.534  1.00  0.00    -0.205 F 
ATOM     82  C   UNL     1       2.843   6.452  17.962  1.00  0.00     0.022 A 
BRANCH  80  83
ATOM     83  S   UNL     1       0.182   7.084  17.752  1.00  0.00     0.127 S 
ATOM     84  O   UNL     1      -0.012   7.388  19.167  1.00  0.00    -0.237 OA
ATOM     85  O   UNL     1       0.740   8.180  16.958  1.00  0.00    -0.237 OA
ATOM     86  O   UNL     1      -0.904   6.368  17.097  1.00  0.00    -0.744 OA
ENDBRANCH  80  83
ENDBRANCH  52  76
BRANCH  64  87
ATOM     87  C   UNL     1       3.826  -2.019  21.326  1.00  0.00     0.023 A 
ATOM     88  C   UNL     1       3.011  -1.744  22.443  1.00  0.00     0.012 A 
ATOM     89  C   UNL     1       5.119  -2.540  21.525  1.00  0.00     0.148 A 
ATOM     90  C   UNL     1       3.486  -1.958  23.736  1.00  0.00     0.002 A 
ATOM     91  C   UNL     1       5.570  -2.790  22.816  1.00  0.00     0.091 A 
ATOM     92  F   UNL     1       5.889  -2.773  20.452  1.00  0.00    -0.205 F 
ATOM     93  C   UNL     1       4.759  -2.490  23.923  1.00  0.00     0.022 A 
BRANCH  91  94
ATOM     94  S   UNL     1       7.162  -3.559  23.136  1.00  0.00     0.127 S 
ATOM     95  O   UNL     1       7.985  -2.406  23.495  1.00  0.00    -0.237 OA
ATOM     96  O   UNL     1       6.860  -4.461  24.248  1.00  0.00    -0.237 OA
ATOM     97  O   UNL     1       7.528  -4.236  21.899  1.00  0.00    -0.744 OA
ENDBRANCH  91  94
ENDBRANCH  64  87
ENDBRANCH  38  39
ENDBRANCH  31  33
ENDBRANCH  30  31
ENDBRANCH  29  30
ENDBRANCH   1  29
TORSDOF 20
