REMARK SMILES Cc1c(Cl)cccc1NC(=O)C[C@](C)(C(=O)OCCOC(=O)c1ccc(-c2c3nc(c(-c4cccc(S(=O)(=O)[O-])c4F)c4ccc([nH]4)c(-c4cccc(S(=O)(=O)[O-])c4F)c4nc(c(-c5cccc(S(=O)(=O)[O-])c5F)c5ccc2[nH]5)C=C4)C=C3)cc1)c1ccccc1
REMARK SMILES IDX 18 1 17 2 15 3 16 4 13 5 14 6 12 7 10 8 9 9 11 11 8 12 1 13
REMARK SMILES IDX 2 14 3 15 4 16 5 17 7 18 6 19 86 20 87 21 91 22 88 23 90 24
REMARK SMILES IDX 89 25 19 26 20 27 21 28 22 29 23 30 24 31 85 32 25 33 84 34
REMARK SMILES IDX 26 35 27 36 28 37 78 38 29 39 83 40 77 41 79 42 30 43 82 44
REMARK SMILES IDX 76 45 75 46 31 48 63 49 43 50 62 51 44 52 47 53 61 54 80 55
REMARK SMILES IDX 45 56 46 57 60 59 81 60 48 61 32 62 33 63 41 64 34 65 36 66
REMARK SMILES IDX 42 67 35 68 37 69 38 70 39 71 40 72 64 73 65 74 73 75 66 76
REMARK SMILES IDX 68 77 74 78 67 79 69 80 70 81 71 82 72 83 49 84 50 85 58 86
REMARK SMILES IDX 51 87 53 88 59 89 52 90 54 91 55 92 56 93 57 94
REMARK H PARENT 9 10 79 47 47 58
REMARK Flexibility Score: inf
ROOT
ATOM      1  C   UNL     1      -6.448  -2.549  -0.989  1.00  0.00     0.274 C 
ENDROOT
BRANCH   1   2
ATOM      2  O   UNL     1      -5.690  -1.323  -0.873  1.00  0.00    -0.461 OA
BRANCH   2   3
ATOM      3  C   UNL     1      -4.791  -1.051  -1.862  1.00  0.00     0.316 C 
ATOM      4  O   UNL     1      -4.615  -1.807  -2.810  1.00  0.00    -0.251 OA
BRANCH   3   5
ATOM      5  C   UNL     1      -3.944   0.239  -1.585  1.00  0.00     0.099 C 
ATOM      6  C   UNL     1      -4.561   1.032  -0.392  1.00  0.00     0.029 C 
BRANCH   5   7
ATOM      7  C   UNL     1      -2.477  -0.145  -1.217  1.00  0.00     0.123 C 
BRANCH   7   8
ATOM      8  C   UNL     1      -2.086  -1.612  -1.239  1.00  0.00     0.225 C 
ATOM      9  N   UNL     1      -2.494  -2.545  -0.336  1.00  0.00    -0.326 N 
ATOM     10  H   UNL     1      -2.202  -3.453  -0.581  1.00  0.00     0.169 HD
ATOM     11  O   UNL     1      -1.347  -2.022  -2.144  1.00  0.00    -0.275 OA
BRANCH   9  12
ATOM     12  C   UNL     1      -3.232  -2.528   0.863  1.00  0.00     0.045 A 
ATOM     13  C   UNL     1      -3.701  -5.056   0.638  1.00  0.00     0.048 C 
ATOM     14  C   UNL     1      -3.857  -3.716   1.321  1.00  0.00    -0.009 A 
ATOM     15  C   UNL     1      -4.723  -3.637   2.439  1.00  0.00     0.046 A 
ATOM     16  Cl  UNL     1      -5.601  -5.014   3.017  1.00  0.00    -0.084 Cl
ATOM     17  C   UNL     1      -4.936  -2.434   3.109  1.00  0.00     0.021 A 
ATOM     18  C   UNL     1      -3.377  -1.364   1.622  1.00  0.00     0.026 A 
ATOM     19  C   UNL     1      -4.241  -1.303   2.716  1.00  0.00     0.004 A 
ENDBRANCH   9  12
ENDBRANCH   7   8
ENDBRANCH   5   7
BRANCH   5  20
ATOM     20  C   UNL     1      -3.876   1.190  -2.832  1.00  0.00    -0.030 A 
ATOM     21  C   UNL     1      -3.868   2.598  -2.696  1.00  0.00     0.005 A 
ATOM     22  C   UNL     1      -3.779   0.688  -4.143  1.00  0.00     0.005 A 
ATOM     23  C   UNL     1      -3.848   3.448  -3.809  1.00  0.00     0.000 A 
ATOM     24  C   UNL     1      -3.764   1.539  -5.257  1.00  0.00     0.000 A 
ATOM     25  C   UNL     1      -3.810   2.918  -5.091  1.00  0.00     0.000 A 
ENDBRANCH   5  20
ENDBRANCH   3   5
ENDBRANCH   2   3
ENDBRANCH   1   2
BRANCH   1  26
ATOM     26  C   UNL     1      -7.883  -2.334  -0.505  1.00  0.00     0.275 C 
BRANCH  26  27
ATOM     27  O   UNL     1      -8.594  -1.561  -1.482  1.00  0.00    -0.458 OA
BRANCH  27  28
ATOM     28  C   UNL     1      -8.448  -0.219  -1.348  1.00  0.00     0.338 C 
ATOM     29  O   UNL     1      -8.067   0.387  -0.368  1.00  0.00    -0.246 OA
BRANCH  28  30
ATOM     30  C   UNL     1      -8.536   0.361  -2.700  1.00  0.00     0.060 A 
ATOM     31  C   UNL     1      -7.449   1.126  -3.120  1.00  0.00     0.016 A 
ATOM     32  C   UNL     1      -9.608   0.120  -3.559  1.00  0.00     0.016 A 
ATOM     33  C   UNL     1      -7.405   1.632  -4.410  1.00  0.00     0.010 A 
ATOM     34  C   UNL     1      -9.576   0.652  -4.852  1.00  0.00     0.010 A 
ATOM     35  C   UNL     1      -8.467   1.401  -5.281  1.00  0.00    -0.014 A 
BRANCH  35  36
ATOM     36  C   UNL     1      -8.451   2.056  -6.602  1.00  0.00     0.031 A 
ATOM     37  C   UNL     1      -9.121   3.385  -6.745  1.00  0.00     0.074 A 
ATOM     38  C   UNL     1      -7.796   1.501  -7.636  1.00  0.00     0.049 A 
ATOM     39  N   UNL     1      -9.341   4.088  -7.822  1.00  0.00    -0.248 NA
ATOM     40  C   UNL     1      -9.591   4.015  -5.500  1.00  0.00     0.031 C 
ATOM     41  C   UNL     1      -6.993   0.281  -7.573  1.00  0.00     0.029 A 
ATOM     42  N   UNL     1      -7.716   1.892  -8.948  1.00  0.00    -0.354 N 
ATOM     43  C   UNL     1     -10.013   5.224  -7.394  1.00  0.00     0.074 A 
ATOM     44  C   UNL     1     -10.144   5.128  -5.957  1.00  0.00     0.031 C 
ATOM     45  C   UNL     1      -6.524   0.006  -8.802  1.00  0.00     0.029 A 
ATOM     46  C   UNL     1      -7.044   0.995  -9.743  1.00  0.00     0.049 A 
ATOM     47  H   UNL     1      -8.101   2.733  -9.286  1.00  0.00     0.167 HD
ATOM     48  C   UNL     1     -10.488   6.248  -8.139  1.00  0.00     0.034 A 
ATOM     49  C   UNL     1      -6.915   0.958 -11.085  1.00  0.00     0.034 A 
ATOM     50  C   UNL     1     -10.362   6.321  -9.568  1.00  0.00     0.049 A 
ATOM     51  C   UNL     1      -7.577   2.037 -11.906  1.00  0.00     0.074 A 
ATOM     52  C   UNL     1     -10.842   7.293 -10.426  1.00  0.00     0.029 A 
ATOM     53  N   UNL     1      -9.724   5.371 -10.351  1.00  0.00    -0.354 N 
ATOM     54  N   UNL     1      -8.202   3.118 -11.503  1.00  0.00    -0.248 NA
ATOM     55  C   UNL     1      -7.516   1.891 -13.367  1.00  0.00     0.031 C 
ATOM     56  C   UNL     1     -10.526   6.910 -11.734  1.00  0.00     0.029 A 
ATOM     57  C   UNL     1      -9.817   5.719 -11.687  1.00  0.00     0.049 A 
ATOM     58  H   UNL     1      -9.272   4.567 -10.008  1.00  0.00     0.167 HD
ATOM     59  C   UNL     1      -8.586   3.792 -12.658  1.00  0.00     0.074 A 
ATOM     60  C   UNL     1      -8.103   3.008 -13.776  1.00  0.00     0.031 C 
ATOM     61  C   UNL     1      -9.287   4.947 -12.784  1.00  0.00     0.034 A 
BRANCH  48  62
ATOM     62  C   UNL     1     -11.226   7.335  -7.410  1.00  0.00     0.023 A 
ATOM     63  C   UNL     1     -10.521   8.254  -6.607  1.00  0.00     0.012 A 
ATOM     64  C   UNL     1     -12.627   7.435  -7.512  1.00  0.00     0.148 A 
ATOM     65  C   UNL     1     -11.205   9.230  -5.883  1.00  0.00     0.002 A 
ATOM     66  C   UNL     1     -13.296   8.437  -6.822  1.00  0.00     0.091 A 
ATOM     67  F   UNL     1     -13.280   6.531  -8.255  1.00  0.00    -0.205 F 
ATOM     68  C   UNL     1     -12.589   9.326  -5.996  1.00  0.00     0.022 A 
BRANCH  66  69
ATOM     69  S   UNL     1     -15.070   8.679  -6.957  1.00  0.00     0.127 S 
ATOM     70  O   UNL     1     -15.531   8.215  -5.649  1.00  0.00    -0.237 OA
ATOM     71  O   UNL     1     -15.169  10.124  -7.160  1.00  0.00    -0.237 OA
ATOM     72  O   UNL     1     -15.499   7.876  -8.093  1.00  0.00    -0.744 OA
ENDBRANCH  66  69
ENDBRANCH  48  62
BRANCH  49  73
ATOM     73  C   UNL     1      -6.154  -0.142 -11.743  1.00  0.00     0.023 A 
ATOM     74  C   UNL     1      -4.969   0.159 -12.442  1.00  0.00     0.012 A 
ATOM     75  C   UNL     1      -6.598  -1.478 -11.693  1.00  0.00     0.148 A 
ATOM     76  C   UNL     1      -4.255  -0.845 -13.100  1.00  0.00     0.002 A 
ATOM     77  C   UNL     1      -5.855  -2.481 -12.305  1.00  0.00     0.091 A 
ATOM     78  F   UNL     1      -7.742  -1.743 -11.045  1.00  0.00    -0.205 F 
ATOM     79  C   UNL     1      -4.693  -2.164 -13.024  1.00  0.00     0.022 A 
BRANCH  77  80
ATOM     80  S   UNL     1      -6.283  -4.221 -12.174  1.00  0.00     0.127 S 
ATOM     81  O   UNL     1      -6.637  -4.547 -13.553  1.00  0.00    -0.237 OA
ATOM     82  O   UNL     1      -5.025  -4.804 -11.707  1.00  0.00    -0.237 OA
ATOM     83  O   UNL     1      -7.374  -4.290 -11.211  1.00  0.00    -0.744 OA
ENDBRANCH  77  80
ENDBRANCH  49  73
BRANCH  61  84
ATOM     84  C   UNL     1      -9.557   5.458 -14.175  1.00  0.00     0.023 A 
ATOM     85  C   UNL     1     -10.516   4.817 -14.983  1.00  0.00     0.012 A 
ATOM     86  C   UNL     1      -8.937   6.636 -14.638  1.00  0.00     0.148 A 
ATOM     87  C   UNL     1     -10.840   5.329 -16.239  1.00  0.00     0.002 A 
ATOM     88  C   UNL     1      -9.302   7.169 -15.868  1.00  0.00     0.091 A 
ATOM     89  F   UNL     1      -8.017   7.222 -13.858  1.00  0.00    -0.205 F 
ATOM     90  C   UNL     1     -10.245   6.511 -16.675  1.00  0.00     0.022 A 
BRANCH  88  91
ATOM     91  S   UNL     1      -8.668   8.739 -16.470  1.00  0.00     0.127 S 
ATOM     92  O   UNL     1      -7.869   8.316 -17.619  1.00  0.00    -0.237 OA
ATOM     93  O   UNL     1      -9.896   9.456 -16.811  1.00  0.00    -0.237 OA
ATOM     94  O   UNL     1      -7.910   9.318 -15.369  1.00  0.00    -0.744 OA
ENDBRANCH  88  91
ENDBRANCH  61  84
ENDBRANCH  35  36
ENDBRANCH  28  30
ENDBRANCH  27  28
ENDBRANCH  26  27
ENDBRANCH   1  26
TORSDOF 18
