REMARK SMILES Cc1ccc(-c2nn(-c3ccccc3)cc2[C@@H]2[NH2+][C@H](C(=O)OCCOC(=O)c3ccc(-c4c5nc(c(-c6cccc(S(=O)(=O)[O-])c6F)c6ccc([nH]6)c(-c6cccc(S(=O)(=O)[O-])c6F)c6nc(c(-c7cccc(S(=O)(=O)[O-])c7F)c7ccc4[nH]7)C=C6)C=C5)cc3)CS2)cc1
REMARK SMILES IDX 24 1 23 2 22 3 20 4 21 5 19 6 17 7 18 8 92 9 91 12 16 13
REMARK SMILES IDX 6 14 7 15 8 16 15 17 5 18 1 19 2 20 3 21 94 22 4 23 93 24
REMARK SMILES IDX 9 25 10 26 14 27 11 28 13 29 12 30 25 31 26 32 27 33 28 34
REMARK SMILES IDX 29 35 90 36 30 37 89 38 31 39 32 40 33 41 83 42 34 43 88 44
REMARK SMILES IDX 82 45 84 46 35 47 87 48 81 49 80 50 36 52 68 53 48 54 67 55
REMARK SMILES IDX 49 56 52 57 66 58 85 59 50 60 51 61 65 63 86 64 53 65 37 66
REMARK SMILES IDX 38 67 46 68 39 69 41 70 47 71 40 72 42 73 43 74 44 75 45 76
REMARK SMILES IDX 69 77 70 78 78 79 71 80 73 81 79 82 72 83 74 84 75 85 76 86
REMARK SMILES IDX 77 87 54 88 55 89 63 90 56 91 58 92 64 93 57 94 59 95 60 96
REMARK SMILES IDX 61 97 62 98
REMARK H PARENT 18 10 18 11 84 51 52 62
REMARK Flexibility Score: inf
ROOT
ATOM      1  C   UNL     1      -5.553  -3.743  -2.067  1.00  0.00     0.275 C 
ENDROOT
BRANCH   1   2
ATOM      2  C   UNL     1      -5.669  -2.259  -1.613  1.00  0.00     0.274 C 
BRANCH   2   3
ATOM      3  O   UNL     1      -5.388  -1.905  -0.246  1.00  0.00    -0.458 OA
BRANCH   3   4
ATOM      4  C   UNL     1      -4.194  -2.304   0.235  1.00  0.00     0.365 C 
ATOM      5  O   UNL     1      -3.394  -2.936  -0.452  1.00  0.00    -0.245 OA
BRANCH   4   6
ATOM      6  C   UNL     1      -3.920  -1.950   1.721  1.00  0.00     0.304 C 
ATOM      7  C   UNL     1      -2.841   0.190   1.822  1.00  0.00     0.278 C 
ATOM      8  N   UNL     1      -2.596  -1.263   1.792  1.00  0.00    -0.319 N 
ATOM      9  S   UNL     1      -4.044   0.336   3.146  1.00  0.00    -0.087 SA
ATOM     10  H   UNL     1      -2.102  -1.548   2.638  1.00  0.00     0.348 HD
ATOM     11  H   UNL     1      -2.023  -1.510   0.985  1.00  0.00     0.348 HD
ATOM     12  C   UNL     1      -4.914  -1.152   2.576  1.00  0.00     0.153 C 
BRANCH   7  13
ATOM     13  C   UNL     1      -3.366   0.667   0.497  1.00  0.00     0.067 A 
ATOM     14  C   UNL     1      -2.706   0.598  -0.759  1.00  0.00     0.103 A 
ATOM     15  N   UNL     1      -3.522   0.904  -1.782  1.00  0.00    -0.167 NA
ATOM     16  N   UNL     1      -4.674   1.316  -1.180  1.00  0.00    -0.240 N 
ATOM     17  C   UNL     1      -4.528   1.343   0.186  1.00  0.00     0.126 A 
BRANCH  14  18
ATOM     18  C   UNL     1      -1.275   0.373  -0.875  1.00  0.00     0.003 A 
ATOM     19  C   UNL     1       2.891  -0.142   0.055  1.00  0.00     0.044 C 
ATOM     20  C   UNL     1       1.453   0.044  -0.319  1.00  0.00    -0.051 A 
ATOM     21  C   UNL     1       0.631  -1.072  -0.523  1.00  0.00     0.004 A 
ATOM     22  C   UNL     1       0.908   1.327  -0.433  1.00  0.00     0.004 A 
ATOM     23  C   UNL     1      -0.727  -0.908  -0.807  1.00  0.00     0.011 A 
ATOM     24  C   UNL     1      -0.446   1.490  -0.713  1.00  0.00     0.011 A 
ENDBRANCH  14  18
BRANCH  16  25
ATOM     25  C   UNL     1      -5.882   1.560  -1.900  1.00  0.00     0.065 A 
ATOM     26  C   UNL     1      -6.028   1.090  -3.211  1.00  0.00     0.028 A 
ATOM     27  C   UNL     1      -6.969   2.195  -1.281  1.00  0.00     0.028 A 
ATOM     28  C   UNL     1      -7.265   1.199  -3.860  1.00  0.00     0.002 A 
ATOM     29  C   UNL     1      -8.202   2.299  -1.930  1.00  0.00     0.002 A 
ATOM     30  C   UNL     1      -8.352   1.791  -3.216  1.00  0.00     0.000 A 
ENDBRANCH  16  25
ENDBRANCH   7  13
ENDBRANCH   4   6
ENDBRANCH   3   4
ENDBRANCH   2   3
ENDBRANCH   1   2
BRANCH   1  31
ATOM     31  O   UNL     1      -5.551  -4.920  -1.183  1.00  0.00    -0.458 OA
BRANCH  31  32
ATOM     32  C   UNL     1      -5.906  -5.170   0.107  1.00  0.00     0.338 C 
ATOM     33  O   UNL     1      -5.469  -6.115   0.727  1.00  0.00    -0.246 OA
BRANCH  32  34
ATOM     34  C   UNL     1      -6.866  -4.240   0.710  1.00  0.00     0.060 A 
ATOM     35  C   UNL     1      -6.824  -3.867   2.063  1.00  0.00     0.016 A 
ATOM     36  C   UNL     1      -7.736  -3.631  -0.161  1.00  0.00     0.016 A 
ATOM     37  C   UNL     1      -7.619  -2.801   2.504  1.00  0.00     0.010 A 
ATOM     38  C   UNL     1      -8.190  -2.396   0.187  1.00  0.00     0.010 A 
ATOM     39  C   UNL     1      -8.270  -2.042   1.540  1.00  0.00    -0.014 A 
BRANCH  39  40
ATOM     40  C   UNL     1      -9.337  -1.065   1.742  1.00  0.00     0.031 A 
ATOM     41  C   UNL     1      -9.082   0.312   2.183  1.00  0.00     0.074 A 
ATOM     42  C   UNL     1     -10.472  -1.493   1.135  1.00  0.00     0.049 A 
ATOM     43  N   UNL     1      -9.856   1.026   2.923  1.00  0.00    -0.248 NA
ATOM     44  C   UNL     1      -7.868   1.019   1.800  1.00  0.00     0.031 C 
ATOM     45  C   UNL     1     -11.630  -0.799   0.626  1.00  0.00     0.029 A 
ATOM     46  N   UNL     1     -10.749  -2.831   0.792  1.00  0.00    -0.354 N 
ATOM     47  C   UNL     1      -9.421   2.339   2.781  1.00  0.00     0.074 A 
ATOM     48  C   UNL     1      -8.074   2.250   2.284  1.00  0.00     0.031 C 
ATOM     49  C   UNL     1     -12.589  -1.722   0.378  1.00  0.00     0.029 A 
ATOM     50  C   UNL     1     -12.110  -3.014   0.881  1.00  0.00     0.049 A 
ATOM     51  H   UNL     1     -10.087  -3.513   0.534  1.00  0.00     0.167 HD
ATOM     52  C   UNL     1     -10.333   3.357   2.740  1.00  0.00     0.034 A 
ATOM     53  C   UNL     1     -12.576  -3.758   1.934  1.00  0.00     0.034 A 
ATOM     54  C   UNL     1     -11.680   2.767   2.689  1.00  0.00     0.049 A 
ATOM     55  C   UNL     1     -13.339  -2.862   2.886  1.00  0.00     0.074 A 
ATOM     56  C   UNL     1     -12.506   2.494   1.610  1.00  0.00     0.029 A 
ATOM     57  N   UNL     1     -12.175   2.037   3.760  1.00  0.00    -0.354 N 
ATOM     58  N   UNL     1     -13.283  -1.560   2.856  1.00  0.00    -0.248 NA
ATOM     59  C   UNL     1     -14.181  -3.360   3.966  1.00  0.00     0.031 C 
ATOM     60  C   UNL     1     -13.444   1.510   2.021  1.00  0.00     0.029 A 
ATOM     61  C   UNL     1     -13.196   1.191   3.345  1.00  0.00     0.049 A 
ATOM     62  H   UNL     1     -11.847   2.109   4.686  1.00  0.00     0.167 HD
ATOM     63  C   UNL     1     -13.916  -1.047   3.943  1.00  0.00     0.074 A 
ATOM     64  C   UNL     1     -14.540  -2.209   4.559  1.00  0.00     0.031 C 
ATOM     65  C   UNL     1     -13.806   0.269   4.298  1.00  0.00     0.034 A 
BRANCH  52  66
ATOM     66  C   UNL     1     -10.095   4.819   2.349  1.00  0.00     0.023 A 
ATOM     67  C   UNL     1     -11.239   5.557   1.953  1.00  0.00     0.012 A 
ATOM     68  C   UNL     1      -8.877   5.543   2.362  1.00  0.00     0.148 A 
ATOM     69  C   UNL     1     -11.188   6.887   1.526  1.00  0.00     0.002 A 
ATOM     70  C   UNL     1      -8.819   6.876   1.912  1.00  0.00     0.091 A 
ATOM     71  F   UNL     1      -7.774   4.973   2.860  1.00  0.00    -0.205 F 
ATOM     72  C   UNL     1      -9.973   7.544   1.488  1.00  0.00     0.022 A 
BRANCH  70  73
ATOM     73  S   UNL     1      -7.292   7.833   1.807  1.00  0.00     0.127 S 
ATOM     74  O   UNL     1      -7.302   8.275   0.411  1.00  0.00    -0.237 OA
ATOM     75  O   UNL     1      -7.522   8.899   2.780  1.00  0.00    -0.237 OA
ATOM     76  O   UNL     1      -6.214   6.908   2.134  1.00  0.00    -0.744 OA
ENDBRANCH  70  73
ENDBRANCH  52  66
BRANCH  53  77
ATOM     77  C   UNL     1     -11.623  -4.857   2.401  1.00  0.00     0.023 A 
ATOM     78  C   UNL     1     -11.146  -5.783   1.431  1.00  0.00     0.012 A 
ATOM     79  C   UNL     1     -10.936  -4.796   3.635  1.00  0.00     0.148 A 
ATOM     80  C   UNL     1      -9.960  -6.504   1.625  1.00  0.00     0.002 A 
ATOM     81  C   UNL     1      -9.771  -5.547   3.835  1.00  0.00     0.091 A 
ATOM     82  F   UNL     1     -11.376  -3.947   4.570  1.00  0.00    -0.205 F 
ATOM     83  C   UNL     1      -9.263  -6.371   2.819  1.00  0.00     0.022 A 
BRANCH  81  84
ATOM     84  S   UNL     1      -8.831  -5.505   5.374  1.00  0.00     0.127 S 
ATOM     85  O   UNL     1      -8.682  -6.930   5.668  1.00  0.00    -0.237 OA
ATOM     86  O   UNL     1      -7.597  -4.835   4.969  1.00  0.00    -0.237 OA
ATOM     87  O   UNL     1      -9.664  -4.774   6.316  1.00  0.00    -0.744 OA
ENDBRANCH  81  84
ENDBRANCH  53  77
BRANCH  65  88
ATOM     88  C   UNL     1     -14.284   0.791   5.622  1.00  0.00     0.023 A 
ATOM     89  C   UNL     1     -14.310  -0.022   6.769  1.00  0.00     0.012 A 
ATOM     90  C   UNL     1     -14.606   2.158   5.783  1.00  0.00     0.148 A 
ATOM     91  C   UNL     1     -14.777   0.457   7.991  1.00  0.00     0.002 A 
ATOM     92  C   UNL     1     -14.938   2.661   7.032  1.00  0.00     0.091 A 
ATOM     93  F   UNL     1     -14.609   2.975   4.719  1.00  0.00    -0.205 F 
ATOM     94  C   UNL     1     -15.081   1.804   8.126  1.00  0.00     0.022 A 
BRANCH  92  95
ATOM     95  S   UNL     1     -15.053   4.429   7.313  1.00  0.00     0.127 S 
ATOM     96  O   UNL     1     -16.488   4.664   7.172  1.00  0.00    -0.237 OA
ATOM     97  O   UNL     1     -14.542   4.562   8.678  1.00  0.00    -0.237 OA
ATOM     98  O   UNL     1     -14.200   5.034   6.298  1.00  0.00    -0.744 OA
ENDBRANCH  92  95
ENDBRANCH  65  88
ENDBRANCH  39  40
ENDBRANCH  32  34
ENDBRANCH  31  32
ENDBRANCH   1  31
TORSDOF 17
