REMARK SMILES C[C@]12C[C@@H](O)[C@@H]3[C@@H](CCC4=CC(=O)CC[C@]43C)[C@H]1CC[C@]2(O)C(=O)COC(=O)CCC(=O)OCCOC(=O)c1ccc(-c2c3nc(c(-c4cccc(S(=O)(=O)[O-])c4F)c4ccc([nH]4)c(-c4cccc(S(=O)(=O)[O-])c4F)c4nc(c(-c5cccc(S(=O)(=O)[O-])c5F)c5ccc2[nH]5)C=C4)C=C3)cc1
REMARK SMILES IDX 31 1 32 2 30 3 29 4 27 5 28 6 26 7 25 8 23 9 24 10 21 11
REMARK SMILES IDX 17 12 16 13 15 14 10 15 6 16 14 17 11 18 9 19 7 20 4 21
REMARK SMILES IDX 12 22 8 23 18 24 3 25 13 26 2 27 19 28 1 29 20 30 5 31 22 33
REMARK SMILES IDX 33 35 34 36 35 37 36 38 37 39 38 40 39 41 40 42 101 43 41 44
REMARK SMILES IDX 100 45 42 46 43 47 44 48 94 49 45 50 99 51 93 52 95 53 46 54
REMARK SMILES IDX 98 55 92 56 91 57 47 59 79 60 59 61 78 62 60 63 63 64 77 65
REMARK SMILES IDX 96 66 61 67 62 68 76 70 97 71 64 72 48 73 49 74 57 75 50 76
REMARK SMILES IDX 52 77 58 78 51 79 53 80 54 81 55 82 56 83 80 84 81 85 89 86
REMARK SMILES IDX 82 87 84 88 90 89 83 90 85 91 86 92 87 93 88 94 65 95 66 96
REMARK SMILES IDX 74 97 67 98 69 99 75 100 68 101 70 102 71 103 72 104 73 105
REMARK H PARENT 5 32 22 34 95 58 63 69
REMARK Flexibility Score: inf
ROOT
ATOM      1  C   UNL     1       4.898   6.750  -3.374  1.00  0.00     0.306 C 
ATOM      2  O   UNL     1       4.301   6.395  -4.381  1.00  0.00    -0.252 OA
ENDROOT
BRANCH   1   3
ATOM      3  C   UNL     1       6.171   6.056  -2.894  1.00  0.00     0.134 C 
BRANCH   3   4
ATOM      4  C   UNL     1       6.988   6.787  -1.833  1.00  0.00     0.134 C 
BRANCH   4   5
ATOM      5  C   UNL     1       6.319   6.631  -0.496  1.00  0.00     0.306 C 
ATOM      6  O   UNL     1       6.308   5.575   0.117  1.00  0.00    -0.252 OA
BRANCH   5   7
ATOM      7  O   UNL     1       5.606   7.741  -0.199  1.00  0.00    -0.458 OA
BRANCH   7   8
ATOM      8  C   UNL     1       4.506   7.675   0.698  1.00  0.00     0.311 C 
BRANCH   8   9
ATOM      9  C   UNL     1       3.980   6.375   1.300  1.00  0.00     0.202 C 
ATOM     10  O   UNL     1       4.616   5.837   2.224  1.00  0.00    -0.293 OA
BRANCH   9  11
ATOM     11  C   UNL     1       2.610   5.766   0.894  1.00  0.00     0.132 C 
ATOM     12  C   UNL     1       0.585  -0.525  -0.453  1.00  0.00     0.016 C 
ATOM     13  C   UNL     1       0.102   0.772   0.274  1.00  0.00    -0.005 C 
ATOM     14  C   UNL     1      -1.447   0.732   0.129  1.00  0.00     0.020 C 
ATOM     15  C   UNL     1       0.261   0.837   1.790  1.00  0.00    -0.060 C 
ATOM     16  C   UNL     1       0.826   2.015  -0.379  1.00  0.00     0.031 C 
ATOM     17  C   UNL     1      -2.098  -0.284   1.110  1.00  0.00     0.081 C 
ATOM     18  C   UNL     1       0.040  -0.243   2.557  1.00  0.00     0.047 C 
ATOM     19  C   UNL     1      -0.036   2.162   2.459  1.00  0.00     0.032 C 
ATOM     20  C   UNL     1       0.301   3.361   0.177  1.00  0.00    -0.000 C 
ATOM     21  C   UNL     1       2.414   2.026  -0.421  1.00  0.00     0.119 C 
ATOM     22  C   UNL     1      -1.122  -1.022   2.041  1.00  0.00     0.155 C 
ATOM     23  C   UNL     1       0.426   3.379   1.699  1.00  0.00     0.009 C 
ATOM     24  C   UNL     1       1.050   4.502  -0.553  1.00  0.00     0.002 C 
ATOM     25  C   UNL     1       3.153   3.252   0.180  1.00  0.00     0.042 C 
ATOM     26  O   UNL     1      -1.358  -2.137   2.499  1.00  0.00    -0.295 OA
ATOM     27  C   UNL     1       2.552   4.619  -0.197  1.00  0.00     0.009 C 
ATOM     28  C   UNL     1       0.504   5.924  -0.394  1.00  0.00     0.008 C 
ATOM     29  C   UNL     1       3.243   5.055  -1.486  1.00  0.00     0.015 C 
ATOM     30  C   UNL     1       1.440   6.698   0.545  1.00  0.00     0.044 C 
BRANCH  21  31
ATOM     31  O   UNL     1       2.991   0.890   0.211  1.00  0.00    -0.393 OA
ATOM     32  H   UNL     1       2.825   0.931   1.165  1.00  0.00     0.210 HD
ENDBRANCH  21  31
BRANCH  11  33
ATOM     33  O   UNL     1       2.242   5.291   2.215  1.00  0.00    -0.381 OA
ATOM     34  H   UNL     1       1.375   4.859   2.174  1.00  0.00     0.212 HD
ENDBRANCH  11  33
ENDBRANCH   9  11
ENDBRANCH   8   9
ENDBRANCH   7   8
ENDBRANCH   5   7
ENDBRANCH   4   5
ENDBRANCH   3   4
ENDBRANCH   1   3
BRANCH   1  35
ATOM     35  O   UNL     1       4.453   7.713  -2.528  1.00  0.00    -0.462 OA
BRANCH  35  36
ATOM     36  C   UNL     1       3.222   8.408  -2.837  1.00  0.00     0.274 C 
BRANCH  36  37
ATOM     37  C   UNL     1       3.485   9.900  -3.038  1.00  0.00     0.275 C 
BRANCH  37  38
ATOM     38  O   UNL     1       4.169  10.102  -4.280  1.00  0.00    -0.458 OA
BRANCH  38  39
ATOM     39  C   UNL     1       5.507   9.942  -4.213  1.00  0.00     0.338 C 
ATOM     40  O   UNL     1       6.199   9.870  -3.203  1.00  0.00    -0.246 OA
BRANCH  39  41
ATOM     41  C   UNL     1       5.986   9.578  -5.546  1.00  0.00     0.060 A 
ATOM     42  C   UNL     1       6.630   8.345  -5.681  1.00  0.00     0.016 A 
ATOM     43  C   UNL     1       5.810  10.417  -6.642  1.00  0.00     0.016 A 
ATOM     44  C   UNL     1       7.085   7.918  -6.912  1.00  0.00     0.010 A 
ATOM     45  C   UNL     1       6.309  10.013  -7.877  1.00  0.00     0.010 A 
ATOM     46  C   UNL     1       6.957   8.771  -8.005  1.00  0.00    -0.014 A 
BRANCH  46  47
ATOM     47  C   UNL     1       7.674   8.422  -9.240  1.00  0.00     0.031 A 
ATOM     48  C   UNL     1       8.975   9.110  -9.511  1.00  0.00     0.074 A 
ATOM     49  C   UNL     1       7.179   7.480 -10.057  1.00  0.00     0.049 A 
ATOM     50  N   UNL     1       9.736   9.048 -10.566  1.00  0.00    -0.248 NA
ATOM     51  C   UNL     1       9.486   9.994  -8.447  1.00  0.00     0.031 C 
ATOM     52  C   UNL     1       5.951   6.718  -9.822  1.00  0.00     0.029 A 
ATOM     53  N   UNL     1       7.640   7.018 -11.259  1.00  0.00    -0.354 N 
ATOM     54  C   UNL     1      10.782   9.928 -10.323  1.00  0.00     0.074 A 
ATOM     55  C   UNL     1      10.567  10.504  -9.015  1.00  0.00     0.031 C 
ATOM     56  C   UNL     1       5.737   5.904 -10.868  1.00  0.00     0.029 A 
ATOM     57  C   UNL     1       6.786   6.123 -11.858  1.00  0.00     0.049 A 
ATOM     58  H   UNL     1       8.496   7.298 -11.655  1.00  0.00     0.167 HD
ATOM     59  C   UNL     1      11.827  10.222 -11.128  1.00  0.00     0.034 A 
ATOM     60  C   UNL     1       6.837   5.582 -13.089  1.00  0.00     0.034 A 
ATOM     61  C   UNL     1      12.023   9.609 -12.412  1.00  0.00     0.049 A 
ATOM     62  C   UNL     1       8.002   5.939 -13.972  1.00  0.00     0.074 A 
ATOM     63  C   UNL     1      13.050   9.807 -13.315  1.00  0.00     0.029 A 
ATOM     64  N   UNL     1      11.164   8.675 -12.975  1.00  0.00    -0.354 N 
ATOM     65  N   UNL     1       9.014   6.736 -13.719  1.00  0.00    -0.248 NA
ATOM     66  C   UNL     1       8.050   5.306 -15.296  1.00  0.00     0.031 C 
ATOM     67  C   UNL     1      12.796   9.012 -14.437  1.00  0.00     0.029 A 
ATOM     68  C   UNL     1      11.632   8.289 -14.216  1.00  0.00     0.049 A 
ATOM     69  H   UNL     1      10.341   8.338 -12.552  1.00  0.00     0.167 HD
ATOM     70  C   UNL     1       9.840   6.672 -14.834  1.00  0.00     0.074 A 
ATOM     71  C   UNL     1       9.213   5.744 -15.757  1.00  0.00     0.031 C 
ATOM     72  C   UNL     1      11.003   7.323 -15.082  1.00  0.00     0.034 A 
BRANCH  59  73
ATOM     73  C   UNL     1      12.811  11.252 -10.646  1.00  0.00     0.023 A 
ATOM     74  C   UNL     1      13.693  10.951  -9.588  1.00  0.00     0.012 A 
ATOM     75  C   UNL     1      12.872  12.520 -11.256  1.00  0.00     0.148 A 
ATOM     76  C   UNL     1      14.596  11.908  -9.123  1.00  0.00     0.002 A 
ATOM     77  C   UNL     1      13.806  13.451 -10.819  1.00  0.00     0.091 A 
ATOM     78  F   UNL     1      12.002  12.799 -12.238  1.00  0.00    -0.205 F 
ATOM     79  C   UNL     1      14.659  13.152  -9.745  1.00  0.00     0.022 A 
BRANCH  77  80
ATOM     80  S   UNL     1      14.015  15.053 -11.603  1.00  0.00     0.127 S 
ATOM     81  O   UNL     1      13.515  15.956 -10.567  1.00  0.00    -0.237 OA
ATOM     82  O   UNL     1      15.462  15.105 -11.811  1.00  0.00    -0.237 OA
ATOM     83  O   UNL     1      13.226  15.009 -12.826  1.00  0.00    -0.744 OA
ENDBRANCH  77  80
ENDBRANCH  59  73
BRANCH  60  84
ATOM     84  C   UNL     1       5.770   4.644 -13.535  1.00  0.00     0.023 A 
ATOM     85  C   UNL     1       6.073   3.283 -13.726  1.00  0.00     0.012 A 
ATOM     86  C   UNL     1       4.446   5.086 -13.731  1.00  0.00     0.148 A 
ATOM     87  C   UNL     1       5.085   2.384 -14.129  1.00  0.00     0.002 A 
ATOM     88  C   UNL     1       3.454   4.176 -14.076  1.00  0.00     0.091 A 
ATOM     89  F   UNL     1       4.179   6.388 -13.558  1.00  0.00    -0.205 F 
ATOM     90  C   UNL     1       3.775   2.827 -14.292  1.00  0.00     0.022 A 
BRANCH  88  91
ATOM     91  S   UNL     1       1.720   4.633 -14.177  1.00  0.00     0.127 S 
ATOM     92  O   UNL     1       1.474   4.560 -15.614  1.00  0.00    -0.237 OA
ATOM     93  O   UNL     1       1.083   3.578 -13.388  1.00  0.00    -0.237 OA
ATOM     94  O   UNL     1       1.628   5.961 -13.585  1.00  0.00    -0.744 OA
ENDBRANCH  88  91
ENDBRANCH  60  84
BRANCH  72  95
ATOM     95  C   UNL     1      11.701   7.013 -16.378  1.00  0.00     0.023 A 
ATOM     96  C   UNL     1      11.183   7.501 -17.593  1.00  0.00     0.012 A 
ATOM     97  C   UNL     1      12.918   6.303 -16.374  1.00  0.00     0.148 A 
ATOM     98  C   UNL     1      11.849   7.254 -18.792  1.00  0.00     0.002 A 
ATOM     99  C   UNL     1      13.603   6.109 -17.565  1.00  0.00     0.091 A 
ATOM    100  F   UNL     1      13.381   5.833 -15.207  1.00  0.00    -0.205 F 
ATOM    101  C   UNL     1      13.064   6.571 -18.777  1.00  0.00     0.022 A 
BRANCH  99 102
ATOM    102  S   UNL     1      15.222   5.336 -17.622  1.00  0.00     0.127 S 
ATOM    103  O   UNL     1      14.908   4.032 -18.204  1.00  0.00    -0.237 OA
ATOM    104  O   UNL     1      15.964   6.236 -18.505  1.00  0.00    -0.237 OA
ATOM    105  O   UNL     1      15.703   5.309 -16.247  1.00  0.00    -0.744 OA
ENDBRANCH  99 102
ENDBRANCH  72  95
ENDBRANCH  46  47
ENDBRANCH  39  41
ENDBRANCH  38  39
ENDBRANCH  37  38
ENDBRANCH  36  37
ENDBRANCH  35  36
ENDBRANCH   1  35
TORSDOF 22
