REMARK SMILES COc1cc(OC)cc(-c2cc3nc(C)c(CCC(=O)OCCOC(=O)c4ccc(-c5c6nc(c(-c7cccc(S(=O)(=O)[O-])c7F)c7ccc([nH]7)c(-c7cccc(S(=O)(=O)[O-])c7F)c7nc(c(-c8cccc(S(=O)(=O)[O-])c8F)c8ccc5[nH]8)C=C7)C=C6)cc4)c(C)n3n2)c1
REMARK SMILES IDX 22 1 21 2 19 3 20 4 18 5 17 6 16 7 10 8 11 9 93 10 12 11
REMARK SMILES IDX 92 12 13 13 90 14 14 15 91 16 15 17 9 18 3 19 4 20 94 21
REMARK SMILES IDX 5 22 8 23 2 24 1 25 6 26 7 27 23 28 24 29 25 30 26 31 27 32
REMARK SMILES IDX 28 33 89 34 29 35 88 36 30 37 31 38 32 39 82 40 33 41 87 42
REMARK SMILES IDX 81 43 83 44 34 45 86 46 80 47 79 48 35 50 67 51 47 52 66 53
REMARK SMILES IDX 48 54 51 55 65 56 84 57 49 58 50 59 64 61 85 62 52 63 36 64
REMARK SMILES IDX 37 65 45 66 38 67 40 68 46 69 39 70 41 71 42 72 43 73 44 74
REMARK SMILES IDX 68 75 69 76 77 77 70 78 72 79 78 80 71 81 73 82 74 83 75 84
REMARK SMILES IDX 76 85 53 86 54 87 62 88 55 89 57 90 63 91 56 92 58 93 59 94
REMARK SMILES IDX 60 95 61 96
REMARK H PARENT 83 49 51 60
REMARK Flexibility Score: inf
ROOT
ATOM      1  C   UNL     1       7.703  -1.606  -1.705  1.00  0.00     0.274 C 
ENDROOT
BRANCH   1   2
ATOM      2  O   UNL     1       8.192  -0.493  -2.486  1.00  0.00    -0.462 OA
BRANCH   2   3
ATOM      3  C   UNL     1       9.424  -0.014  -2.169  1.00  0.00     0.306 C 
ATOM      4  O   UNL     1      10.041  -0.321  -1.152  1.00  0.00    -0.252 OA
BRANCH   3   5
ATOM      5  C   UNL     1       9.978   0.992  -3.176  1.00  0.00     0.127 C 
BRANCH   5   6
ATOM      6  C   UNL     1       9.549   0.929  -4.657  1.00  0.00     0.051 C 
BRANCH   6   7
ATOM      7  C   UNL     1       8.150   1.430  -4.886  1.00  0.00    -0.005 A 
ATOM      8  C   UNL     1       3.740   1.442  -4.356  1.00  0.00     0.095 A 
ATOM      9  C   UNL     1       4.308   2.728  -4.280  1.00  0.00     0.080 A 
ATOM     10  N   UNL     1       4.618   0.540  -4.798  1.00  0.00    -0.166 NA
ATOM     11  C   UNL     1       5.633   2.560  -4.609  1.00  0.00     0.156 A 
ATOM     12  N   UNL     1       5.795   1.204  -4.887  1.00  0.00    -0.219 N 
ATOM     13  N   UNL     1       6.668   3.440  -4.698  1.00  0.00    -0.234 NA
ATOM     14  C   UNL     1       7.065   0.646  -5.089  1.00  0.00     0.046 A 
ATOM     15  C   UNL     1       7.853   2.919  -4.856  1.00  0.00     0.045 A 
ATOM     16  C   UNL     1       7.075  -0.832  -5.373  1.00  0.00     0.067 C 
ATOM     17  C   UNL     1       8.961   3.906  -5.171  1.00  0.00     0.067 C 
BRANCH   8  18
ATOM     18  C   UNL     1       2.383   1.026  -4.064  1.00  0.00     0.009 A 
ATOM     19  C   UNL     1       0.764   0.060  -2.553  1.00  0.00     0.123 A 
ATOM     20  C   UNL     1      -0.152  -0.001  -3.607  1.00  0.00     0.092 A 
ATOM     21  C   UNL     1       2.044   0.563  -2.786  1.00  0.00     0.057 A 
ATOM     22  C   UNL     1       0.186   0.454  -4.885  1.00  0.00     0.123 A 
ATOM     23  C   UNL     1       1.454   0.983  -5.107  1.00  0.00     0.057 A 
BRANCH  19  24
ATOM     24  O   UNL     1       0.316  -0.452  -1.366  1.00  0.00    -0.497 OA
ATOM     25  C   UNL     1       0.954   0.041  -0.194  1.00  0.00     0.278 C 
ENDBRANCH  19  24
BRANCH  22  26
ATOM     26  O   UNL     1      -0.793   0.329  -5.832  1.00  0.00    -0.497 OA
ATOM     27  C   UNL     1      -0.365   0.449  -7.186  1.00  0.00     0.278 C 
ENDBRANCH  22  26
ENDBRANCH   8  18
ENDBRANCH   6   7
ENDBRANCH   5   6
ENDBRANCH   3   5
ENDBRANCH   2   3
ENDBRANCH   1   2
BRANCH   1  28
ATOM     28  C   UNL     1       7.830  -2.935  -2.453  1.00  0.00     0.275 C 
BRANCH  28  29
ATOM     29  O   UNL     1       9.145  -3.507  -2.426  1.00  0.00    -0.458 OA
BRANCH  29  30
ATOM     30  C   UNL     1       9.977  -3.015  -3.360  1.00  0.00     0.338 C 
ATOM     31  O   UNL     1      10.082  -1.845  -3.713  1.00  0.00    -0.246 OA
BRANCH  30  32
ATOM     32  C   UNL     1      10.573  -4.042  -4.194  1.00  0.00     0.060 A 
ATOM     33  C   UNL     1      11.390  -3.578  -5.238  1.00  0.00     0.016 A 
ATOM     34  C   UNL     1      10.114  -5.359  -4.131  1.00  0.00     0.016 A 
ATOM     35  C   UNL     1      11.662  -4.412  -6.290  1.00  0.00     0.010 A 
ATOM     36  C   UNL     1      10.390  -6.196  -5.186  1.00  0.00     0.010 A 
ATOM     37  C   UNL     1      11.122  -5.697  -6.266  1.00  0.00    -0.014 A 
BRANCH  37  38
ATOM     38  C   UNL     1      11.480  -6.568  -7.358  1.00  0.00     0.031 A 
ATOM     39  C   UNL     1      12.887  -7.025  -7.309  1.00  0.00     0.074 A 
ATOM     40  C   UNL     1      10.575  -7.032  -8.231  1.00  0.00     0.049 A 
ATOM     41  N   UNL     1      13.835  -6.788  -8.155  1.00  0.00    -0.248 NA
ATOM     42  C   UNL     1      13.322  -7.703  -6.078  1.00  0.00     0.031 C 
ATOM     43  C   UNL     1       9.118  -6.908  -8.165  1.00  0.00     0.029 A 
ATOM     44  N   UNL     1      10.782  -7.876  -9.272  1.00  0.00    -0.354 N 
ATOM     45  C   UNL     1      14.940  -7.473  -7.657  1.00  0.00     0.074 A 
ATOM     46  C   UNL     1      14.628  -7.838  -6.300  1.00  0.00     0.031 C 
ATOM     47  C   UNL     1       8.571  -7.861  -8.951  1.00  0.00     0.029 A 
ATOM     48  C   UNL     1       9.637  -8.555  -9.653  1.00  0.00     0.049 A 
ATOM     49  H   UNL     1      11.655  -7.993  -9.711  1.00  0.00     0.167 HD
ATOM     50  C   UNL     1      15.936  -7.920  -8.464  1.00  0.00     0.034 A 
ATOM     51  C   UNL     1       9.605  -9.687 -10.392  1.00  0.00     0.034 A 
ATOM     52  C   UNL     1      15.905  -7.308  -9.763  1.00  0.00     0.049 A 
ATOM     53  C   UNL     1      10.899  -9.797 -11.108  1.00  0.00     0.074 A 
ATOM     54  C   UNL     1      16.011  -6.019 -10.243  1.00  0.00     0.029 A 
ATOM     55  N   UNL     1      15.377  -8.055 -10.787  1.00  0.00    -0.354 N 
ATOM     56  N   UNL     1      11.291  -8.956 -12.027  1.00  0.00    -0.248 NA
ATOM     57  C   UNL     1      11.955 -10.609 -10.524  1.00  0.00     0.031 C 
ATOM     58  C   UNL     1      15.134  -5.969 -11.365  1.00  0.00     0.029 A 
ATOM     59  C   UNL     1      14.556  -7.233 -11.513  1.00  0.00     0.049 A 
ATOM     60  H   UNL     1      15.555  -9.007 -10.966  1.00  0.00     0.167 HD
ATOM     61  C   UNL     1      12.662  -8.828 -11.833  1.00  0.00     0.074 A 
ATOM     62  C   UNL     1      13.028  -9.966 -10.994  1.00  0.00     0.031 C 
ATOM     63  C   UNL     1      13.312  -7.660 -12.123  1.00  0.00     0.034 A 
BRANCH  50  64
ATOM     64  C   UNL     1      16.730  -9.169  -8.192  1.00  0.00     0.023 A 
ATOM     65  C   UNL     1      17.912  -9.372  -8.931  1.00  0.00     0.012 A 
ATOM     66  C   UNL     1      16.249 -10.261  -7.433  1.00  0.00     0.148 A 
ATOM     67  C   UNL     1      18.573 -10.606  -8.925  1.00  0.00     0.002 A 
ATOM     68  C   UNL     1      16.960 -11.450  -7.353  1.00  0.00     0.091 A 
ATOM     69  F   UNL     1      15.025 -10.217  -6.892  1.00  0.00    -0.205 F 
ATOM     70  C   UNL     1      18.108 -11.640  -8.120  1.00  0.00     0.022 A 
BRANCH  68  71
ATOM     71  S   UNL     1      16.422 -12.762  -6.252  1.00  0.00     0.127 S 
ATOM     72  O   UNL     1      15.645 -13.604  -7.154  1.00  0.00    -0.237 OA
ATOM     73  O   UNL     1      17.695 -13.334  -5.809  1.00  0.00    -0.237 OA
ATOM     74  O   UNL     1      15.684 -12.078  -5.196  1.00  0.00    -0.744 OA
ENDBRANCH  68  71
ENDBRANCH  50  64
BRANCH  51  75
ATOM     75  C   UNL     1       8.636 -10.796 -10.282  1.00  0.00     0.023 A 
ATOM     76  C   UNL     1       8.405 -11.639 -11.382  1.00  0.00     0.012 A 
ATOM     77  C   UNL     1       8.087 -11.162  -9.029  1.00  0.00     0.148 A 
ATOM     78  C   UNL     1       7.653 -12.811 -11.240  1.00  0.00     0.002 A 
ATOM     79  C   UNL     1       7.323 -12.314  -8.897  1.00  0.00     0.091 A 
ATOM     80  F   UNL     1       8.385 -10.422  -7.952  1.00  0.00    -0.205 F 
ATOM     81  C   UNL     1       7.112 -13.148 -10.001  1.00  0.00     0.022 A 
BRANCH  79  82
ATOM     82  S   UNL     1       6.589 -12.803  -7.330  1.00  0.00     0.127 S 
ATOM     83  O   UNL     1       5.206 -13.082  -7.718  1.00  0.00    -0.237 OA
ATOM     84  O   UNL     1       7.377 -13.982  -6.982  1.00  0.00    -0.237 OA
ATOM     85  O   UNL     1       6.741 -11.656  -6.443  1.00  0.00    -0.744 OA
ENDBRANCH  79  82
ENDBRANCH  51  75
BRANCH  63  86
ATOM     86  C   UNL     1      12.545  -6.591 -12.869  1.00  0.00     0.023 A 
ATOM     87  C   UNL     1      11.418  -5.965 -12.294  1.00  0.00     0.012 A 
ATOM     88  C   UNL     1      13.068  -6.071 -14.065  1.00  0.00     0.148 A 
ATOM     89  C   UNL     1      10.809  -4.868 -12.905  1.00  0.00     0.002 A 
ATOM     90  C   UNL     1      12.486  -4.950 -14.649  1.00  0.00     0.091 A 
ATOM     91  F   UNL     1      14.153  -6.659 -14.591  1.00  0.00    -0.205 F 
ATOM     92  C   UNL     1      11.350  -4.353 -14.078  1.00  0.00     0.022 A 
BRANCH  90  93
ATOM     93  S   UNL     1      13.202  -4.145 -16.085  1.00  0.00     0.127 S 
ATOM     94  O   UNL     1      12.258  -4.504 -17.141  1.00  0.00    -0.237 OA
ATOM     95  O   UNL     1      13.176  -2.733 -15.697  1.00  0.00    -0.237 OA
ATOM     96  O   UNL     1      14.543  -4.697 -16.228  1.00  0.00    -0.744 OA
ENDBRANCH  90  93
ENDBRANCH  63  86
ENDBRANCH  37  38
ENDBRANCH  30  32
ENDBRANCH  29  30
ENDBRANCH  28  29
ENDBRANCH   1  28
TORSDOF 19
