REMARK SMILES O=C(COc1cccc(NC(=O)c2ccc3c(c2)C(=O)N(c2ccccc2-c2ccccc2)C3=O)c1)OCCOC(=O)c1ccc(-c2c3nc(c(-c4cccc(S(=O)(=O)[O-])c4F)c4ccc([nH]4)c(-c4cccc(S(=O)(=O)[O-])c4F)c4nc(c(-c5cccc(S(=O)(=O)[O-])c5F)c5ccc2[nH]5)C=C4)C=C3)cc1
REMARK SMILES IDX 37 1 2 2 1 3 3 4 4 5 5 6 6 7 36 8 7 9 9 10 8 11 10 12 11 13
REMARK SMILES IDX 12 15 13 16 14 17 18 18 15 19 17 20 16 21 19 22 34 23 20 24
REMARK SMILES IDX 21 25 35 26 22 27 23 28 27 29 24 30 26 31 25 32 28 33 29 34
REMARK SMILES IDX 33 35 30 36 32 37 31 38 38 39 39 40 40 41 41 42 42 43 43 44
REMARK SMILES IDX 44 45 105 46 45 47 104 48 46 49 47 50 48 51 98 52 49 53
REMARK SMILES IDX 103 54 97 55 99 56 50 57 102 58 96 59 95 60 51 62 83 63
REMARK SMILES IDX 63 64 82 65 64 66 67 67 81 68 100 69 65 70 66 71 80 73
REMARK SMILES IDX 101 74 68 75 52 76 53 77 61 78 54 79 56 80 62 81 55 82 57 83
REMARK SMILES IDX 58 84 59 85 60 86 84 87 85 88 93 89 86 90 88 91 94 92 87 93
REMARK SMILES IDX 89 94 90 95 91 96 92 97 69 98 70 99 78 100 71 101 73 102
REMARK SMILES IDX 79 103 72 104 74 105 75 106 76 107 77 108
REMARK H PARENT 10 14 99 61 67 72
REMARK Flexibility Score: inf
ROOT
ATOM      1  O   UNL     1       3.198  -0.136  -0.948  1.00  0.00    -0.460 OA
ENDROOT
BRANCH   1   2
ATOM      2  C   UNL     1       2.374  -0.055   0.125  1.00  0.00     0.344 C 
ATOM      3  O   UNL     1       1.155  -0.135  -0.025  1.00  0.00    -0.248 OA
BRANCH   2   4
ATOM      4  C   UNL     1       2.988   0.059   1.513  1.00  0.00     0.351 C 
BRANCH   4   5
ATOM      5  O   UNL     1       3.983  -0.906   1.814  1.00  0.00    -0.482 OA
BRANCH   5   6
ATOM      6  C   UNL     1       3.484  -2.080   2.298  1.00  0.00     0.122 A 
ATOM      7  C   UNL     1       4.060  -2.531   3.477  1.00  0.00     0.046 A 
ATOM      8  C   UNL     1       2.538  -2.859   1.617  1.00  0.00     0.072 A 
ATOM      9  C   UNL     1       3.692  -3.768   3.972  1.00  0.00     0.006 A 
ATOM     10  C   UNL     1       2.136  -4.100   2.119  1.00  0.00     0.045 A 
ATOM     11  C   UNL     1       2.752  -4.544   3.288  1.00  0.00     0.026 A 
BRANCH  10  12
ATOM     12  N   UNL     1       1.196  -4.836   1.352  1.00  0.00    -0.322 N 
ATOM     13  C   UNL     1       0.443  -5.968   1.614  1.00  0.00     0.255 C 
ATOM     14  H   UNL     1       1.049  -4.467   0.451  1.00  0.00     0.170 HD
ATOM     15  O   UNL     1      -0.168  -6.557   0.729  1.00  0.00    -0.269 OA
BRANCH  13  16
ATOM     16  C   UNL     1       0.266  -6.407   3.006  1.00  0.00     0.041 A 
ATOM     17  C   UNL     1       1.079  -7.440   3.528  1.00  0.00     0.015 A 
ATOM     18  C   UNL     1      -0.494  -5.576   3.826  1.00  0.00     0.028 A 
ATOM     19  C   UNL     1       1.315  -7.498   4.912  1.00  0.00     0.015 A 
ATOM     20  C   UNL     1      -0.226  -5.665   5.172  1.00  0.00     0.054 A 
ATOM     21  C   UNL     1       0.702  -6.531   5.696  1.00  0.00     0.053 A 
ATOM     22  C   UNL     1      -0.542  -4.688   6.185  1.00  0.00     0.266 C 
ATOM     23  C   UNL     1       1.054  -6.013   7.025  1.00  0.00     0.266 C 
ATOM     24  O   UNL     1      -1.543  -4.005   6.049  1.00  0.00    -0.268 OA
ATOM     25  N   UNL     1       0.443  -4.777   7.144  1.00  0.00    -0.242 N 
ATOM     26  O   UNL     1       1.714  -6.701   7.771  1.00  0.00    -0.268 OA
BRANCH  25  27
ATOM     27  C   UNL     1       0.767  -3.690   8.035  1.00  0.00     0.060 A 
ATOM     28  C   UNL     1      -0.108  -2.572   8.053  1.00  0.00     0.027 A 
ATOM     29  C   UNL     1       1.965  -3.564   8.790  1.00  0.00     0.006 A 
ATOM     30  C   UNL     1       0.166  -1.391   8.740  1.00  0.00     0.002 A 
ATOM     31  C   UNL     1       2.193  -2.374   9.525  1.00  0.00     0.011 A 
ATOM     32  C   UNL     1       1.323  -1.297   9.477  1.00  0.00     0.001 A 
BRANCH  29  33
ATOM     33  C   UNL     1       3.122  -4.470   8.783  1.00  0.00    -0.016 A 
ATOM     34  C   UNL     1       3.324  -5.401   9.811  1.00  0.00     0.009 A 
ATOM     35  C   UNL     1       4.141  -4.292   7.833  1.00  0.00     0.009 A 
ATOM     36  C   UNL     1       4.483  -6.181   9.846  1.00  0.00     0.001 A 
ATOM     37  C   UNL     1       5.301  -5.067   7.868  1.00  0.00     0.001 A 
ATOM     38  C   UNL     1       5.465  -6.020   8.870  1.00  0.00     0.000 A 
ENDBRANCH  29  33
ENDBRANCH  25  27
ENDBRANCH  13  16
ENDBRANCH  10  12
ENDBRANCH   5   6
ENDBRANCH   4   5
ENDBRANCH   2   4
ENDBRANCH   1   2
BRANCH   1  39
ATOM     39  C   UNL     1       4.584   0.269  -0.941  1.00  0.00     0.274 C 
BRANCH  39  40
ATOM     40  C   UNL     1       4.718   1.735  -1.350  1.00  0.00     0.275 C 
BRANCH  40  41
ATOM     41  O   UNL     1       4.192   2.572  -0.304  1.00  0.00    -0.458 OA
BRANCH  41  42
ATOM     42  C   UNL     1       2.934   3.044  -0.498  1.00  0.00     0.338 C 
ATOM     43  O   UNL     1       2.273   2.951  -1.516  1.00  0.00    -0.246 OA
BRANCH  42  44
ATOM     44  C   UNL     1       2.396   3.505   0.804  1.00  0.00     0.060 A 
ATOM     45  C   UNL     1       1.065   3.197   1.112  1.00  0.00     0.016 A 
ATOM     46  C   UNL     1       3.191   4.187   1.732  1.00  0.00     0.016 A 
ATOM     47  C   UNL     1       0.516   3.607   2.329  1.00  0.00     0.010 A 
ATOM     48  C   UNL     1       2.639   4.599   2.949  1.00  0.00     0.010 A 
ATOM     49  C   UNL     1       1.289   4.341   3.240  1.00  0.00    -0.014 A 
BRANCH  49  50
ATOM     50  C   UNL     1       0.629   4.985   4.403  1.00  0.00     0.031 A 
ATOM     51  C   UNL     1       0.179   6.418   4.271  1.00  0.00     0.074 A 
ATOM     52  C   UNL     1       0.429   4.324   5.559  1.00  0.00     0.049 A 
ATOM     53  N   UNL     1      -0.495   7.156   5.114  1.00  0.00    -0.248 NA
ATOM     54  C   UNL     1       0.547   7.112   3.025  1.00  0.00     0.031 C 
ATOM     55  C   UNL     1       0.882   2.966   5.861  1.00  0.00     0.029 A 
ATOM     56  N   UNL     1      -0.192   4.733   6.713  1.00  0.00    -0.354 N 
ATOM     57  C   UNL     1      -0.634   8.397   4.503  1.00  0.00     0.074 A 
ATOM     58  C   UNL     1       0.057   8.325   3.235  1.00  0.00     0.031 C 
ATOM     59  C   UNL     1       0.559   2.671   7.135  1.00  0.00     0.029 A 
ATOM     60  C   UNL     1      -0.148   3.805   7.726  1.00  0.00     0.049 A 
ATOM     61  H   UNL     1      -0.629   5.611   6.806  1.00  0.00     0.167 HD
ATOM     62  C   UNL     1      -1.304   9.491   4.938  1.00  0.00     0.034 A 
ATOM     63  C   UNL     1      -0.631   3.871   8.983  1.00  0.00     0.034 A 
ATOM     64  C   UNL     1      -1.994   9.575   6.195  1.00  0.00     0.049 A 
ATOM     65  C   UNL     1      -1.417   5.081   9.421  1.00  0.00     0.074 A 
ATOM     66  C   UNL     1      -2.733  10.630   6.704  1.00  0.00     0.029 A 
ATOM     67  N   UNL     1      -2.023   8.572   7.148  1.00  0.00    -0.354 N 
ATOM     68  N   UNL     1      -1.696   6.175   8.757  1.00  0.00    -0.248 NA
ATOM     69  C   UNL     1      -2.002   5.033  10.771  1.00  0.00     0.031 C 
ATOM     70  C   UNL     1      -3.203  10.265   7.971  1.00  0.00     0.029 A 
ATOM     71  C   UNL     1      -2.766   8.980   8.242  1.00  0.00     0.049 A 
ATOM     72  H   UNL     1      -1.580   7.697   7.060  1.00  0.00     0.167 HD
ATOM     73  C   UNL     1      -2.496   6.936   9.603  1.00  0.00     0.074 A 
ATOM     74  C   UNL     1      -2.698   6.160  10.806  1.00  0.00     0.031 C 
ATOM     75  C   UNL     1      -2.995   8.182   9.415  1.00  0.00     0.034 A 
BRANCH  62  76
ATOM     76  C   UNL     1      -1.376  10.671   4.009  1.00  0.00     0.023 A 
ATOM     77  C   UNL     1      -2.231  10.605   2.889  1.00  0.00     0.012 A 
ATOM     78  C   UNL     1      -0.658  11.853   4.266  1.00  0.00     0.148 A 
ATOM     79  C   UNL     1      -2.352  11.691   2.024  1.00  0.00     0.002 A 
ATOM     80  C   UNL     1      -0.812  12.945   3.419  1.00  0.00     0.091 A 
ATOM     81  F   UNL     1       0.169  11.884   5.321  1.00  0.00    -0.205 F 
ATOM     82  C   UNL     1      -1.651  12.863   2.295  1.00  0.00     0.022 A 
BRANCH  80  83
ATOM     83  S   UNL     1      -0.005  14.521   3.718  1.00  0.00     0.127 S 
ATOM     84  O   UNL     1       1.014  14.534   2.669  1.00  0.00    -0.237 OA
ATOM     85  O   UNL     1      -1.099  15.472   3.517  1.00  0.00    -0.237 OA
ATOM     86  O   UNL     1       0.501  14.460   5.082  1.00  0.00    -0.744 OA
ENDBRANCH  80  83
ENDBRANCH  62  76
BRANCH  63  87
ATOM     87  C   UNL     1      -0.432   2.757   9.947  1.00  0.00     0.023 A 
ATOM     88  C   UNL     1      -1.514   1.918  10.277  1.00  0.00     0.012 A 
ATOM     89  C   UNL     1       0.792   2.598  10.616  1.00  0.00     0.148 A 
ATOM     90  C   UNL     1      -1.393   0.975  11.299  1.00  0.00     0.002 A 
ATOM     91  C   UNL     1       0.916   1.632  11.609  1.00  0.00     0.091 A 
ATOM     92  F   UNL     1       1.813   3.407  10.296  1.00  0.00    -0.205 F 
ATOM     93  C   UNL     1      -0.179   0.832  11.967  1.00  0.00     0.022 A 
BRANCH  91  94
ATOM     94  S   UNL     1       2.525   1.292  12.336  1.00  0.00     0.127 S 
ATOM     95  O   UNL     1       2.629   2.324  13.361  1.00  0.00    -0.237 OA
ATOM     96  O   UNL     1       2.370  -0.071  12.844  1.00  0.00    -0.237 OA
ATOM     97  O   UNL     1       3.441   1.393  11.205  1.00  0.00    -0.744 OA
ENDBRANCH  91  94
ENDBRANCH  63  87
BRANCH  75  98
ATOM     98  C   UNL     1      -3.807   8.779  10.534  1.00  0.00     0.023 A 
ATOM     99  C   UNL     1      -3.158   9.199  11.713  1.00  0.00     0.012 A 
ATOM    100  C   UNL     1      -5.197   8.962  10.408  1.00  0.00     0.148 A 
ATOM    101  C   UNL     1      -3.886   9.757  12.763  1.00  0.00     0.002 A 
ATOM    102  C   UNL     1      -5.909   9.560  11.441  1.00  0.00     0.091 A 
ATOM    103  F   UNL     1      -5.802   8.533   9.290  1.00  0.00    -0.205 F 
ATOM    104  C   UNL     1      -5.258   9.947  12.624  1.00  0.00     0.022 A 
BRANCH 102 105
ATOM    105  S   UNL     1      -7.664   9.918  11.304  1.00  0.00     0.127 S 
ATOM    106  O   UNL     1      -8.256   8.811  12.053  1.00  0.00    -0.237 OA
ATOM    107  O   UNL     1      -7.773  11.223  11.957  1.00  0.00    -0.237 OA
ATOM    108  O   UNL     1      -7.950   9.939   9.875  1.00  0.00    -0.744 OA
ENDBRANCH 102 105
ENDBRANCH  75  98
ENDBRANCH  49  50
ENDBRANCH  42  44
ENDBRANCH  41  42
ENDBRANCH  40  41
ENDBRANCH  39  40
ENDBRANCH   1  39
TORSDOF 20
