REMARK SMILES Cc1ccc(C)c(S(=O)(=O)N[C@H](CC2=c3ccccc3=NC2)C(=O)OCCOC(=O)c2ccc(-c3c4nc(c(-c5cccc(S(=O)(=O)[O-])c5F)c5ccc([nH]5)c(-c5cccc(S(=O)(=O)[O-])c5F)c5nc(c(-c6cccc(S(=O)(=O)[O-])c6F)c6ccc3[nH]6)C=C5)C=C4)cc2)c1
REMARK SMILES IDX 26 1 25 2 23 3 24 4 12 5 11 6 8 8 9 9 10 10 7 11 1 12 2 13
REMARK SMILES IDX 3 14 94 15 4 16 5 17 6 18 13 19 14 20 15 21 22 22 16 23
REMARK SMILES IDX 20 24 21 25 17 26 19 27 18 28 27 29 28 30 29 31 30 32 31 33
REMARK SMILES IDX 32 34 93 35 33 36 92 37 34 38 35 39 36 40 86 41 37 42 91 43
REMARK SMILES IDX 85 44 87 45 38 46 90 47 84 48 83 49 39 51 71 52 51 53 70 54
REMARK SMILES IDX 52 55 55 56 69 57 88 58 53 59 54 60 68 62 89 63 56 64 40 65
REMARK SMILES IDX 41 66 49 67 42 68 44 69 50 70 43 71 45 72 46 73 47 74 48 75
REMARK SMILES IDX 72 76 73 77 81 78 74 79 76 80 82 81 75 82 77 83 78 84 79 85
REMARK SMILES IDX 80 86 57 87 58 88 66 89 59 90 61 91 67 92 60 93 62 94 63 95
REMARK SMILES IDX 64 96 65 97
REMARK H PARENT 11 7 87 50 55 61
REMARK Flexibility Score: inf
ROOT
ATOM      1  C   UNL     1       3.647   8.377  -0.682  1.00  0.00     0.274 C 
ENDROOT
BRANCH   1   2
ATOM      2  O   UNL     1       2.557   7.892  -1.474  1.00  0.00    -0.461 OA
BRANCH   2   3
ATOM      3  C   UNL     1       2.627   6.502  -1.913  1.00  0.00     0.324 C 
ATOM      4  O   UNL     1       3.855   6.356  -2.195  1.00  0.00    -0.250 OA
BRANCH   3   5
ATOM      5  C   UNL     1       0.916   5.136  -1.900  1.00  0.00     0.183 C 
BRANCH   5   6
ATOM      6  N   UNL     1      -0.089   4.508  -3.110  1.00  0.00    -0.197 NA
ATOM      7  H   UNL     1      -1.030   4.564  -2.720  1.00  0.00     0.142 HD
BRANCH   6   8
ATOM      8  S   UNL     1      -0.011   2.947  -3.844  1.00  0.00     0.241 S 
ATOM      9  O   UNL     1       1.357   2.730  -4.260  1.00  0.00    -0.207 OA
ATOM     10  O   UNL     1      -1.091   2.970  -4.812  1.00  0.00    -0.207 OA
BRANCH   8  11
ATOM     11  C   UNL     1      -0.409   1.453  -2.849  1.00  0.00     0.085 A 
ATOM     12  C   UNL     1      -1.634   0.285   0.615  1.00  0.00     0.044 C 
ATOM     13  C   UNL     1      -1.124   0.291  -0.800  1.00  0.00    -0.050 A 
ATOM     14  C   UNL     1      -0.813  -0.949  -1.364  1.00  0.00     0.004 A 
ATOM     15  C   UNL     1      -0.954   1.484  -1.558  1.00  0.00     0.025 A 
ATOM     16  C   UNL     1      -0.349  -1.010  -2.666  1.00  0.00     0.005 A 
ATOM     17  C   UNL     1      -0.148   0.167  -3.425  1.00  0.00    -0.031 A 
ATOM     18  C   UNL     1       0.318  -0.094  -4.836  1.00  0.00     0.046 C 
ENDBRANCH   8  11
ENDBRANCH   6   8
ENDBRANCH   5   6
BRANCH   5  19
ATOM     19  C   UNL     1      -0.401   4.822  -0.574  1.00  0.00     0.065 C 
BRANCH  19  20
ATOM     20  C   UNL     1      -0.780   5.568   0.725  1.00  0.00    -0.037 C 
ATOM     21  C   UNL     1      -0.320   5.396   1.974  1.00  0.00     0.001 A 
ATOM     22  C   UNL     1      -1.628   6.818   0.678  1.00  0.00     0.174 C 
ATOM     23  C   UNL     1       0.442   4.417   2.686  1.00  0.00     0.010 A 
ATOM     24  C   UNL     1      -0.519   6.747   2.553  1.00  0.00     0.065 A 
ATOM     25  N   UNL     1      -1.243   7.590   1.885  1.00  0.00    -0.280 NA
ATOM     26  C   UNL     1       1.012   4.750   3.859  1.00  0.00     0.001 A 
ATOM     27  C   UNL     1       0.252   7.076   3.776  1.00  0.00     0.028 A 
ATOM     28  C   UNL     1       0.975   6.110   4.366  1.00  0.00     0.002 A 
ENDBRANCH  19  20
ENDBRANCH   5  19
ENDBRANCH   3   5
ENDBRANCH   2   3
ENDBRANCH   1   2
BRANCH   1  29
ATOM     29  C   UNL     1       3.627   7.768   0.732  1.00  0.00     0.275 C 
BRANCH  29  30
ATOM     30  O   UNL     1       4.060   6.376   0.881  1.00  0.00    -0.458 OA
BRANCH  30  31
ATOM     31  C   UNL     1       3.296   5.254   0.785  1.00  0.00     0.338 C 
ATOM     32  O   UNL     1       3.483   4.231   1.427  1.00  0.00    -0.246 OA
BRANCH  31  33
ATOM     33  C   UNL     1       2.372   5.232  -0.351  1.00  0.00     0.060 A 
ATOM     34  C   UNL     1       2.949   4.442  -1.877  1.00  0.00     0.016 A 
ATOM     35  C   UNL     1       1.188   6.588  -0.459  1.00  0.00     0.016 A 
ATOM     36  C   UNL     1       2.440   5.160  -3.472  1.00  0.00     0.010 A 
ATOM     37  C   UNL     1       0.618   7.201  -2.059  1.00  0.00     0.010 A 
ATOM     38  C   UNL     1       1.404   6.623  -3.543  1.00  0.00    -0.014 A 
BRANCH  38  39
ATOM     39  C   UNL     1       1.538   7.769  -4.595  1.00  0.00     0.031 A 
ATOM     40  C   UNL     1       0.232   7.738  -5.270  1.00  0.00     0.074 A 
ATOM     41  C   UNL     1       2.373   8.848  -4.881  1.00  0.00     0.049 A 
ATOM     42  N   UNL     1      -0.074   6.848  -6.157  1.00  0.00    -0.248 NA
ATOM     43  C   UNL     1      -0.932   8.406  -4.667  1.00  0.00     0.031 C 
ATOM     44  C   UNL     1       3.605   9.336  -4.223  1.00  0.00     0.029 A 
ATOM     45  N   UNL     1       2.268   9.829  -5.887  1.00  0.00    -0.354 N 
ATOM     46  C   UNL     1      -1.381   7.145  -6.472  1.00  0.00     0.074 A 
ATOM     47  C   UNL     1      -1.927   7.772  -5.300  1.00  0.00     0.031 C 
ATOM     48  C   UNL     1       3.971  10.575  -4.676  1.00  0.00     0.029 A 
ATOM     49  C   UNL     1       3.117  10.977  -5.783  1.00  0.00     0.049 A 
ATOM     50  H   UNL     1       1.634   9.729  -6.633  1.00  0.00     0.167 HD
ATOM     51  C   UNL     1      -1.743   7.306  -7.773  1.00  0.00     0.034 A 
ATOM     52  C   UNL     1       3.219  12.088  -6.608  1.00  0.00     0.034 A 
ATOM     53  C   UNL     1      -0.657   6.940  -8.659  1.00  0.00     0.049 A 
ATOM     54  C   UNL     1       2.717  11.656  -7.916  1.00  0.00     0.074 A 
ATOM     55  C   UNL     1       0.113   5.817  -8.889  1.00  0.00     0.029 A 
ATOM     56  N   UNL     1       0.070   8.013  -9.106  1.00  0.00    -0.354 N 
ATOM     57  N   UNL     1       3.313  10.786  -8.669  1.00  0.00    -0.248 NA
ATOM     58  C   UNL     1       1.326  11.929  -8.201  1.00  0.00     0.031 C 
ATOM     59  C   UNL     1       1.424   6.297  -9.186  1.00  0.00     0.029 A 
ATOM     60  C   UNL     1       1.390   7.688  -9.237  1.00  0.00     0.049 A 
ATOM     61  H   UNL     1      -0.308   8.899  -9.306  1.00  0.00     0.167 HD
ATOM     62  C   UNL     1       2.260  10.014  -9.117  1.00  0.00     0.074 A 
ATOM     63  C   UNL     1       1.063  10.832  -8.907  1.00  0.00     0.031 C 
ATOM     64  C   UNL     1       2.439   8.676  -9.281  1.00  0.00     0.034 A 
BRANCH  51  65
ATOM     65  C   UNL     1      -2.847   8.229  -8.228  1.00  0.00     0.023 A 
ATOM     66  C   UNL     1      -3.357   8.028  -9.523  1.00  0.00     0.012 A 
ATOM     67  C   UNL     1      -3.258   9.404  -7.551  1.00  0.00     0.148 A 
ATOM     68  C   UNL     1      -4.262   8.927 -10.097  1.00  0.00     0.002 A 
ATOM     69  C   UNL     1      -4.216  10.251  -8.088  1.00  0.00     0.091 A 
ATOM     70  F   UNL     1      -2.626   9.794  -6.442  1.00  0.00    -0.205 F 
ATOM     71  C   UNL     1      -4.714  10.024  -9.370  1.00  0.00     0.022 A 
BRANCH  69  72
ATOM     72  S   UNL     1      -4.826  11.683  -7.187  1.00  0.00     0.127 S 
ATOM     73  O   UNL     1      -4.269  12.779  -7.973  1.00  0.00    -0.237 OA
ATOM     74  O   UNL     1      -6.274  11.508  -7.299  1.00  0.00    -0.237 OA
ATOM     75  O   UNL     1      -4.311  11.542  -5.831  1.00  0.00    -0.744 OA
ENDBRANCH  69  72
ENDBRANCH  51  65
BRANCH  52  76
ATOM     76  C   UNL     1       3.414  13.599  -6.466  1.00  0.00     0.023 A 
ATOM     77  C   UNL     1       3.464  14.437  -7.633  1.00  0.00     0.012 A 
ATOM     78  C   UNL     1       3.128  14.249  -5.257  1.00  0.00     0.148 A 
ATOM     79  C   UNL     1       3.133  15.808  -7.604  1.00  0.00     0.002 A 
ATOM     80  C   UNL     1       2.799  15.617  -5.231  1.00  0.00     0.091 A 
ATOM     81  F   UNL     1       3.094  13.509  -4.143  1.00  0.00    -0.205 F 
ATOM     82  C   UNL     1       2.772  16.393  -6.402  1.00  0.00     0.022 A 
BRANCH  80  83
ATOM     83  S   UNL     1       2.318  16.456  -3.713  1.00  0.00     0.127 S 
ATOM     84  O   UNL     1       3.128  17.675  -3.765  1.00  0.00    -0.237 OA
ATOM     85  O   UNL     1       0.888  16.665  -3.919  1.00  0.00    -0.237 OA
ATOM     86  O   UNL     1       2.678  15.543  -2.636  1.00  0.00    -0.744 OA
ENDBRANCH  80  83
ENDBRANCH  52  76
BRANCH  64  87
ATOM     87  C   UNL     1       3.854   8.168  -9.389  1.00  0.00     0.023 A 
ATOM     88  C   UNL     1       4.749   8.065  -8.303  1.00  0.00     0.012 A 
ATOM     89  C   UNL     1       4.222   7.633 -10.632  1.00  0.00     0.148 A 
ATOM     90  C   UNL     1       5.975   7.404  -8.456  1.00  0.00     0.002 A 
ATOM     91  C   UNL     1       5.422   6.955 -10.772  1.00  0.00     0.091 A 
ATOM     92  F   UNL     1       3.357   7.764 -11.648  1.00  0.00    -0.205 F 
ATOM     93  C   UNL     1       6.302   6.832  -9.686  1.00  0.00     0.022 A 
BRANCH  91  94
ATOM     94  S   UNL     1       5.861   6.146 -12.310  1.00  0.00     0.127 S 
ATOM     95  O   UNL     1       7.046   6.896 -12.721  1.00  0.00    -0.237 OA
ATOM     96  O   UNL     1       6.123   4.775 -11.872  1.00  0.00    -0.237 OA
ATOM     97  O   UNL     1       4.707   6.287 -13.190  1.00  0.00    -0.744 OA
ENDBRANCH  91  94
ENDBRANCH  64  87
ENDBRANCH  38  39
ENDBRANCH  31  33
ENDBRANCH  30  31
ENDBRANCH  29  30
ENDBRANCH   1  29
TORSDOF 19
