REMARK SMILES C[C@](NC(=O)CSCc1cccs1)(C(=O)OCCOC(=O)c1ccc(-c2c3nc(c(-c4cccc(S(=O)(=O)[O-])c4F)c4ccc([nH]4)c(-c4cccc(S(=O)(=O)[O-])c4F)c4nc(c(-c5cccc(S(=O)(=O)[O-])c5F)c5ccc2[nH]5)C=C4)C=C3)cc1)C(F)(F)F
REMARK SMILES IDX 17 1 16 2 14 3 15 4 2 5 1 6 85 7 86 8 87 9 88 10 3 11 4 12
REMARK SMILES IDX 5 14 6 15 7 16 8 17 9 18 10 19 13 20 11 21 12 22 18 23 19 24
REMARK SMILES IDX 20 25 21 26 22 27 23 28 84 29 24 30 83 31 25 32 26 33 27 34
REMARK SMILES IDX 77 35 28 36 82 37 76 38 78 39 29 40 81 41 75 42 74 43 30 45
REMARK SMILES IDX 62 46 42 47 61 48 43 49 46 50 60 51 79 52 44 53 45 54 59 56
REMARK SMILES IDX 80 57 47 58 31 59 32 60 40 61 33 62 35 63 41 64 34 65 36 66
REMARK SMILES IDX 37 67 38 68 39 69 63 70 64 71 72 72 65 73 67 74 73 75 66 76
REMARK SMILES IDX 68 77 69 78 70 79 71 80 48 81 49 82 57 83 50 84 52 85 58 86
REMARK SMILES IDX 51 87 53 88 54 89 55 90 56 91
REMARK H PARENT 3 13 78 44 46 55
REMARK Flexibility Score: inf
ROOT
ATOM      1  C   UNL     1      -2.783  -0.171   1.093  1.00  0.00     0.274 C 
ENDROOT
BRANCH   1   2
ATOM      2  O   UNL     1      -1.350  -0.271   0.900  1.00  0.00    -0.460 OA
BRANCH   2   3
ATOM      3  C   UNL     1      -0.794  -1.466   1.260  1.00  0.00     0.341 C 
ATOM      4  O   UNL     1      -1.449  -2.423   1.654  1.00  0.00    -0.249 OA
BRANCH   3   5
ATOM      5  C   UNL     1       0.732  -1.403   1.344  1.00  0.00     0.231 C 
ATOM      6  C   UNL     1       1.025  -1.050   2.825  1.00  0.00     0.058 C 
BRANCH   5   7
ATOM      7  C   UNL     1       1.240  -2.838   1.119  1.00  0.00     0.422 C 
ATOM      8  F   UNL     1       0.718  -3.402   0.016  1.00  0.00    -0.168 F 
ATOM      9  F   UNL     1       2.592  -2.838   0.994  1.00  0.00    -0.168 F 
ATOM     10  F   UNL     1       0.960  -3.656   2.160  1.00  0.00    -0.168 F 
ENDBRANCH   5   7
BRANCH   5  11
ATOM     11  N   UNL     1       1.423  -0.307   0.565  1.00  0.00    -0.332 N 
ATOM     12  C   UNL     1       1.827  -0.101  -0.711  1.00  0.00     0.231 C 
ATOM     13  H   UNL     1       1.638   0.463   1.140  1.00  0.00     0.164 HD
ATOM     14  O   UNL     1       2.553   0.887  -0.881  1.00  0.00    -0.274 OA
BRANCH  12  15
ATOM     15  C   UNL     1       1.411  -0.939  -1.891  1.00  0.00     0.169 C 
BRANCH  15  16
ATOM     16  S   UNL     1       2.318  -2.480  -2.158  1.00  0.00    -0.146 SA
BRANCH  16  17
ATOM     17  C   UNL     1       4.028  -2.068  -1.698  1.00  0.00     0.116 C 
BRANCH  17  18
ATOM     18  C   UNL     1       4.912  -2.071  -2.903  1.00  0.00     0.014 A 
ATOM     19  C   UNL     1       5.110  -1.059  -3.822  1.00  0.00     0.016 A 
ATOM     20  S   UNL     1       5.855  -3.454  -3.278  1.00  0.00    -0.148 S 
ATOM     21  C   UNL     1       6.028  -1.431  -4.846  1.00  0.00     0.012 A 
ATOM     22  C   UNL     1       6.504  -2.711  -4.673  1.00  0.00     0.065 A 
ENDBRANCH  17  18
ENDBRANCH  16  17
ENDBRANCH  15  16
ENDBRANCH  12  15
ENDBRANCH   5  11
ENDBRANCH   3   5
ENDBRANCH   2   3
ENDBRANCH   1   2
BRANCH   1  23
ATOM     23  C   UNL     1      -3.516  -0.071  -0.238  1.00  0.00     0.275 C 
BRANCH  23  24
ATOM     24  O   UNL     1      -3.175  -1.209  -1.040  1.00  0.00    -0.458 OA
BRANCH  24  25
ATOM     25  C   UNL     1      -2.705  -0.944  -2.279  1.00  0.00     0.338 C 
ATOM     26  O   UNL     1      -2.638   0.155  -2.818  1.00  0.00    -0.246 OA
BRANCH  25  27
ATOM     27  C   UNL     1      -2.196  -2.181  -2.896  1.00  0.00     0.060 A 
ATOM     28  C   UNL     1      -1.476  -3.098  -2.131  1.00  0.00     0.016 A 
ATOM     29  C   UNL     1      -2.325  -2.375  -4.271  1.00  0.00     0.016 A 
ATOM     30  C   UNL     1      -0.813  -4.154  -2.751  1.00  0.00     0.010 A 
ATOM     31  C   UNL     1      -1.757  -3.506  -4.868  1.00  0.00     0.010 A 
ATOM     32  C   UNL     1      -0.972  -4.403  -4.121  1.00  0.00    -0.014 A 
BRANCH  32  33
ATOM     33  C   UNL     1      -0.352  -5.600  -4.766  1.00  0.00     0.031 A 
ATOM     34  C   UNL     1       0.461  -5.461  -6.029  1.00  0.00     0.074 A 
ATOM     35  C   UNL     1      -0.569  -6.835  -4.263  1.00  0.00     0.049 A 
ATOM     36  N   UNL     1       0.810  -6.384  -6.890  1.00  0.00    -0.248 NA
ATOM     37  C   UNL     1       0.916  -4.108  -6.389  1.00  0.00     0.031 C 
ATOM     38  C   UNL     1      -1.325  -7.137  -3.046  1.00  0.00     0.029 A 
ATOM     39  N   UNL     1      -0.194  -8.074  -4.729  1.00  0.00    -0.354 N 
ATOM     40  C   UNL     1       1.430  -5.714  -7.938  1.00  0.00     0.074 A 
ATOM     41  C   UNL     1       1.442  -4.308  -7.591  1.00  0.00     0.031 C 
ATOM     42  C   UNL     1      -1.340  -8.461  -2.848  1.00  0.00     0.029 A 
ATOM     43  C   UNL     1      -0.697  -9.114  -3.980  1.00  0.00     0.049 A 
ATOM     44  H   UNL     1       0.378  -8.204  -5.520  1.00  0.00     0.167 HD
ATOM     45  C   UNL     1       1.945  -6.227  -9.081  1.00  0.00     0.034 A 
ATOM     46  C   UNL     1      -0.712 -10.444  -4.200  1.00  0.00     0.034 A 
ATOM     47  C   UNL     1       2.054  -7.635  -9.363  1.00  0.00     0.049 A 
ATOM     48  C   UNL     1      -0.102 -10.988  -5.457  1.00  0.00     0.074 A 
ATOM     49  C   UNL     1       2.653  -8.248 -10.450  1.00  0.00     0.029 A 
ATOM     50  N   UNL     1       1.576  -8.648  -8.548  1.00  0.00    -0.354 N 
ATOM     51  N   UNL     1       0.512 -10.344  -6.419  1.00  0.00    -0.248 NA
ATOM     52  C   UNL     1      -0.194 -12.440  -5.666  1.00  0.00     0.031 C 
ATOM     53  C   UNL     1       2.531  -9.632 -10.297  1.00  0.00     0.029 A 
ATOM     54  C   UNL     1       1.857  -9.880  -9.114  1.00  0.00     0.049 A 
ATOM     55  H   UNL     1       1.105  -8.512  -7.694  1.00  0.00     0.167 HD
ATOM     56  C   UNL     1       0.873 -11.310  -7.349  1.00  0.00     0.074 A 
ATOM     57  C   UNL     1       0.451 -12.588  -6.815  1.00  0.00     0.031 C 
ATOM     58  C   UNL     1       1.468 -11.148  -8.556  1.00  0.00     0.034 A 
BRANCH  45  59
ATOM     59  C   UNL     1       2.472  -5.277 -10.123  1.00  0.00     0.023 A 
ATOM     60  C   UNL     1       3.747  -4.702  -9.967  1.00  0.00     0.012 A 
ATOM     61  C   UNL     1       1.754  -5.062 -11.318  1.00  0.00     0.148 A 
ATOM     62  C   UNL     1       4.299  -3.921 -10.982  1.00  0.00     0.002 A 
ATOM     63  C   UNL     1       2.325  -4.311 -12.339  1.00  0.00     0.091 A 
ATOM     64  F   UNL     1       0.533  -5.604 -11.436  1.00  0.00    -0.205 F 
ATOM     65  C   UNL     1       3.595  -3.737 -12.171  1.00  0.00     0.022 A 
BRANCH  63  66
ATOM     66  S   UNL     1       1.532  -4.083 -13.936  1.00  0.00     0.127 S 
ATOM     67  O   UNL     1       1.161  -2.670 -13.882  1.00  0.00    -0.237 OA
ATOM     68  O   UNL     1       2.617  -4.392 -14.867  1.00  0.00    -0.237 OA
ATOM     69  O   UNL     1       0.417  -5.020 -13.970  1.00  0.00    -0.744 OA
ENDBRANCH  63  66
ENDBRANCH  45  59
BRANCH  46  70
ATOM     70  C   UNL     1      -1.362 -11.344  -3.205  1.00  0.00     0.023 A 
ATOM     71  C   UNL     1      -0.570 -12.215  -2.436  1.00  0.00     0.012 A 
ATOM     72  C   UNL     1      -2.750 -11.290  -2.967  1.00  0.00     0.148 A 
ATOM     73  C   UNL     1      -1.150 -13.020  -1.453  1.00  0.00     0.002 A 
ATOM     74  C   UNL     1      -3.308 -12.039  -1.939  1.00  0.00     0.091 A 
ATOM     75  F   UNL     1      -3.502 -10.482  -3.730  1.00  0.00    -0.205 F 
ATOM     76  C   UNL     1      -2.514 -12.918  -1.191  1.00  0.00     0.022 A 
BRANCH  74  77
ATOM     77  S   UNL     1      -5.019 -11.793  -1.447  1.00  0.00     0.127 S 
ATOM     78  O   UNL     1      -5.719 -12.772  -2.272  1.00  0.00    -0.237 OA
ATOM     79  O   UNL     1      -4.989 -12.104  -0.017  1.00  0.00    -0.237 OA
ATOM     80  O   UNL     1      -5.286 -10.389  -1.737  1.00  0.00    -0.744 OA
ENDBRANCH  74  77
ENDBRANCH  46  70
BRANCH  58  81
ATOM     81  C   UNL     1       1.685 -12.380  -9.389  1.00  0.00     0.023 A 
ATOM     82  C   UNL     1       0.589 -12.943 -10.072  1.00  0.00     0.012 A 
ATOM     83  C   UNL     1       2.965 -12.943  -9.546  1.00  0.00     0.148 A 
ATOM     84  C   UNL     1       0.759 -14.065 -10.881  1.00  0.00     0.002 A 
ATOM     85  C   UNL     1       3.134 -14.041 -10.382  1.00  0.00     0.091 A 
ATOM     86  F   UNL     1       3.990 -12.403  -8.871  1.00  0.00    -0.205 F 
ATOM     87  C   UNL     1       2.032 -14.608 -11.043  1.00  0.00     0.022 A 
BRANCH  85  88
ATOM     88  S   UNL     1       4.747 -14.762 -10.707  1.00  0.00     0.127 S 
ATOM     89  O   UNL     1       4.697 -15.981  -9.902  1.00  0.00    -0.237 OA
ATOM     90  O   UNL     1       4.707 -14.984 -12.153  1.00  0.00    -0.237 OA
ATOM     91  O   UNL     1       5.721 -13.767 -10.278  1.00  0.00    -0.744 OA
ENDBRANCH  85  88
ENDBRANCH  58  81
ENDBRANCH  32  33
ENDBRANCH  25  27
ENDBRANCH  24  25
ENDBRANCH  23  24
ENDBRANCH   1  23
TORSDOF 20
