REMARK SMILES CC(C)C[C@H](CNC(=O)[C@]1([NH3+])CCC[C@@H](C)C1)C(=O)OCCOC(=O)c1ccc(-c2c3nc(c(-c4cccc(S(=O)(=O)[O-])c4F)c4ccc([nH]4)c(-c4cccc(S(=O)(=O)[O-])c4F)c4nc(c(-c5cccc(S(=O)(=O)[O-])c5F)c5ccc2[nH]5)C=C4)C=C3)cc1
REMARK SMILES IDX 21 1 20 2 18 3 19 4 5 5 4 6 2 7 1 8 3 9 6 10 7 11 8 12 9 14
REMARK SMILES IDX 10 15 12 16 17 17 13 18 15 19 14 20 16 21 11 22 22 26 23 27
REMARK SMILES IDX 24 28 25 29 26 30 27 31 88 32 28 33 87 34 29 35 30 36 31 37
REMARK SMILES IDX 81 38 32 39 86 40 80 41 82 42 33 43 85 44 79 45 78 46 34 48
REMARK SMILES IDX 66 49 46 50 65 51 47 52 50 53 64 54 83 55 48 56 49 57 63 59
REMARK SMILES IDX 84 60 51 61 35 62 36 63 44 64 37 65 39 66 45 67 38 68 40 69
REMARK SMILES IDX 41 70 42 71 43 72 67 73 68 74 76 75 69 76 71 77 77 78 70 79
REMARK SMILES IDX 72 80 73 81 74 82 75 83 52 84 53 85 61 86 54 87 56 88 62 89
REMARK SMILES IDX 55 90 57 91 58 92 59 93 60 94
REMARK H PARENT 7 13 11 23 11 24 11 25 82 47 50 58
REMARK Flexibility Score: inf
ROOT
ATOM      1  C   UNL     1      -5.426  -1.822  -6.207  1.00  0.00     0.274 C 
ENDROOT
BRANCH   1   2
ATOM      2  O   UNL     1      -5.772  -2.825  -5.232  1.00  0.00    -0.462 OA
BRANCH   2   3
ATOM      3  C   UNL     1      -5.431  -2.560  -3.947  1.00  0.00     0.310 C 
ATOM      4  O   UNL     1      -4.795  -1.573  -3.592  1.00  0.00    -0.252 OA
BRANCH   3   5
ATOM      5  C   UNL     1      -5.888  -3.619  -2.951  1.00  0.00     0.118 C 
BRANCH   5   6
ATOM      6  C   UNL     1      -4.661  -4.328  -2.350  1.00  0.00     0.020 C 
BRANCH   6   7
ATOM      7  C   UNL     1      -4.666  -4.413  -0.800  1.00  0.00    -0.017 C 
ATOM      8  C   UNL     1      -5.922  -5.013  -0.163  1.00  0.00     0.007 C 
ATOM      9  C   UNL     1      -3.437  -5.189  -0.320  1.00  0.00     0.007 C 
ENDBRANCH   6   7
ENDBRANCH   5   6
BRANCH   5  10
ATOM     10  C   UNL     1      -7.075  -4.497  -3.398  1.00  0.00     0.131 C 
BRANCH  10  11
ATOM     11  N   UNL     1      -6.929  -5.163  -4.683  1.00  0.00    -0.350 N 
ATOM     12  C   UNL     1      -7.048  -6.465  -5.064  1.00  0.00     0.281 C 
ATOM     13  H   UNL     1      -6.700  -4.553  -5.421  1.00  0.00     0.163 HD
ATOM     14  O   UNL     1      -7.148  -6.680  -6.278  1.00  0.00    -0.268 OA
BRANCH  12  15
ATOM     15  C   UNL     1      -7.042  -7.639  -4.022  1.00  0.00     0.174 C 
ATOM     16  C   UNL     1      -5.813  -7.508  -3.116  1.00  0.00     0.079 C 
ATOM     17  C   UNL     1      -6.958  -8.985  -4.794  1.00  0.00     0.082 C 
ATOM     18  C   UNL     1      -5.479  -8.718  -2.262  1.00  0.00     0.007 C 
ATOM     19  C   UNL     1      -6.533 -10.229  -3.990  1.00  0.00    -0.008 C 
ATOM     20  C   UNL     1      -5.297  -9.947  -3.131  1.00  0.00     0.004 C 
ATOM     21  C   UNL     1      -7.667 -10.836  -3.164  1.00  0.00     0.008 C 
BRANCH  15  22
ATOM     22  N   UNL     1      -8.289  -7.556  -3.236  1.00  0.00    -0.345 N 
ATOM     23  H   UNL     1      -8.309  -8.311  -2.550  1.00  0.00     0.345 HD
ATOM     24  H   UNL     1      -9.091  -7.642  -3.860  1.00  0.00     0.345 HD
ATOM     25  H   UNL     1      -8.328  -6.658  -2.754  1.00  0.00     0.345 HD
ENDBRANCH  15  22
ENDBRANCH  12  15
ENDBRANCH  10  11
ENDBRANCH   5  10
ENDBRANCH   3   5
ENDBRANCH   2   3
ENDBRANCH   1   2
BRANCH   1  26
ATOM     26  C   UNL     1      -6.636  -0.953  -6.559  1.00  0.00     0.275 C 
BRANCH  26  27
ATOM     27  O   UNL     1      -7.071  -0.167  -5.434  1.00  0.00    -0.458 OA
BRANCH  27  28
ATOM     28  C   UNL     1      -8.060  -0.725  -4.698  1.00  0.00     0.338 C 
ATOM     29  O   UNL     1      -8.621  -1.788  -4.902  1.00  0.00    -0.246 OA
BRANCH  28  30
ATOM     30  C   UNL     1      -8.285   0.067  -3.481  1.00  0.00     0.060 A 
ATOM     31  C   UNL     1      -7.824  -0.453  -2.271  1.00  0.00     0.016 A 
ATOM     32  C   UNL     1      -9.036   1.237  -3.502  1.00  0.00     0.016 A 
ATOM     33  C   UNL     1      -8.123   0.165  -1.067  1.00  0.00     0.010 A 
ATOM     34  C   UNL     1      -9.320   1.878  -2.292  1.00  0.00     0.010 A 
ATOM     35  C   UNL     1      -8.880   1.336  -1.068  1.00  0.00    -0.014 A 
BRANCH  35  36
ATOM     36  C   UNL     1      -9.269   1.965   0.212  1.00  0.00     0.031 A 
ATOM     37  C   UNL     1     -10.713   1.965   0.616  1.00  0.00     0.074 A 
ATOM     38  C   UNL     1      -8.339   2.550   0.988  1.00  0.00     0.049 A 
ATOM     39  N   UNL     1     -11.306   2.643   1.559  1.00  0.00    -0.248 NA
ATOM     40  C   UNL     1     -11.610   1.089  -0.157  1.00  0.00     0.031 C 
ATOM     41  C   UNL     1      -6.899   2.558   0.724  1.00  0.00     0.029 A 
ATOM     42  N   UNL     1      -8.473   3.282   2.141  1.00  0.00    -0.354 N 
ATOM     43  C   UNL     1     -12.656   2.340   1.447  1.00  0.00     0.074 A 
ATOM     44  C   UNL     1     -12.792   1.395   0.359  1.00  0.00     0.031 C 
ATOM     45  C   UNL     1      -6.286   3.288   1.669  1.00  0.00     0.029 A 
ATOM     46  C   UNL     1      -7.293   3.848   2.563  1.00  0.00     0.049 A 
ATOM     47  H   UNL     1      -9.328   3.390   2.617  1.00  0.00     0.167 HD
ATOM     48  C   UNL     1     -13.686   2.812   2.186  1.00  0.00     0.034 A 
ATOM     49  C   UNL     1      -7.061   4.760   3.527  1.00  0.00     0.034 A 
ATOM     50  C   UNL     1     -13.526   3.708   3.298  1.00  0.00     0.049 A 
ATOM     51  C   UNL     1      -8.222   5.275   4.332  1.00  0.00     0.074 A 
ATOM     52  C   UNL     1     -14.498   4.231   4.131  1.00  0.00     0.029 A 
ATOM     53  N   UNL     1     -12.308   4.208   3.737  1.00  0.00    -0.354 N 
ATOM     54  N   UNL     1      -9.492   4.957   4.243  1.00  0.00    -0.248 NA
ATOM     55  C   UNL     1      -7.921   6.262   5.378  1.00  0.00     0.031 C 
ATOM     56  C   UNL     1     -13.867   5.051   5.073  1.00  0.00     0.029 A 
ATOM     57  C   UNL     1     -12.501   5.030   4.833  1.00  0.00     0.049 A 
ATOM     58  H   UNL     1     -11.435   4.007   3.329  1.00  0.00     0.167 HD
ATOM     59  C   UNL     1     -10.137   5.679   5.238  1.00  0.00     0.074 A 
ATOM     60  C   UNL     1      -9.115   6.441   5.929  1.00  0.00     0.031 C 
ATOM     61  C   UNL     1     -11.458   5.724   5.543  1.00  0.00     0.034 A 
BRANCH  48  62
ATOM     62  C   UNL     1     -15.072   2.360   1.815  1.00  0.00     0.023 A 
ATOM     63  C   UNL     1     -15.494   1.057   2.141  1.00  0.00     0.012 A 
ATOM     64  C   UNL     1     -15.964   3.236   1.167  1.00  0.00     0.148 A 
ATOM     65  C   UNL     1     -16.775   0.621   1.801  1.00  0.00     0.002 A 
ATOM     66  C   UNL     1     -17.252   2.807   0.865  1.00  0.00     0.091 A 
ATOM     67  F   UNL     1     -15.534   4.461   0.835  1.00  0.00    -0.205 F 
ATOM     68  C   UNL     1     -17.656   1.498   1.173  1.00  0.00     0.022 A 
BRANCH  66  69
ATOM     69  S   UNL     1     -18.471   3.895   0.117  1.00  0.00     0.127 S 
ATOM     70  O   UNL     1     -18.434   3.466  -1.279  1.00  0.00    -0.237 OA
ATOM     71  O   UNL     1     -19.695   3.533   0.833  1.00  0.00    -0.237 OA
ATOM     72  O   UNL     1     -18.001   5.249   0.377  1.00  0.00    -0.744 OA
ENDBRANCH  66  69
ENDBRANCH  48  62
BRANCH  49  73
ATOM     73  C   UNL     1      -5.668   5.224   3.781  1.00  0.00     0.023 A 
ATOM     74  C   UNL     1      -5.014   4.828   4.962  1.00  0.00     0.012 A 
ATOM     75  C   UNL     1      -4.969   6.000   2.835  1.00  0.00     0.148 A 
ATOM     76  C   UNL     1      -3.693   5.207   5.204  1.00  0.00     0.002 A 
ATOM     77  C   UNL     1      -3.636   6.328   3.057  1.00  0.00     0.091 A 
ATOM     78  F   UNL     1      -5.615   6.385   1.725  1.00  0.00    -0.205 F 
ATOM     79  C   UNL     1      -3.001   5.944   4.247  1.00  0.00     0.022 A 
BRANCH  77  80
ATOM     80  S   UNL     1      -2.630   7.155   1.818  1.00  0.00     0.127 S 
ATOM     81  O   UNL     1      -2.484   8.489   2.394  1.00  0.00    -0.237 OA
ATOM     82  O   UNL     1      -1.411   6.344   1.827  1.00  0.00    -0.237 OA
ATOM     83  O   UNL     1      -3.391   7.077   0.579  1.00  0.00    -0.744 OA
ENDBRANCH  77  80
ENDBRANCH  49  73
BRANCH  61  84
ATOM     84  C   UNL     1     -11.877   6.592   6.698  1.00  0.00     0.023 A 
ATOM     85  C   UNL     1     -11.947   7.988   6.530  1.00  0.00     0.012 A 
ATOM     86  C   UNL     1     -12.291   6.016   7.914  1.00  0.00     0.148 A 
ATOM     87  C   UNL     1     -12.409   8.801   7.564  1.00  0.00     0.002 A 
ATOM     88  C   UNL     1     -12.789   6.828   8.925  1.00  0.00     0.091 A 
ATOM     89  F   UNL     1     -12.194   4.686   8.058  1.00  0.00    -0.205 F 
ATOM     90  C   UNL     1     -12.842   8.221   8.755  1.00  0.00     0.022 A 
BRANCH  88  91
ATOM     91  S   UNL     1     -13.452   6.154  10.453  1.00  0.00     0.127 S 
ATOM     92  O   UNL     1     -12.372   6.435  11.396  1.00  0.00    -0.237 OA
ATOM     93  O   UNL     1     -14.660   6.957  10.652  1.00  0.00    -0.237 OA
ATOM     94  O   UNL     1     -13.706   4.744  10.188  1.00  0.00    -0.744 OA
ENDBRANCH  88  91
ENDBRANCH  61  84
ENDBRANCH  35  36
ENDBRANCH  28  30
ENDBRANCH  27  28
ENDBRANCH  26  27
ENDBRANCH   1  26
TORSDOF 20
