REMARK SMILES O=C1OC(c2ccc(Cl)cc2)=N/C1=C/Nc1ccc(O)c(C(=O)OCCOC(=O)c2ccc(-c3c4nc(c(-c5cccc(S(=O)(=O)[O-])c5F)c5ccc([nH]5)c(-c5cccc(S(=O)(=O)[O-])c5F)c5nc(c(-c6cccc(S(=O)(=O)[O-])c6F)c6ccc3[nH]6)C=C5)C=C4)cc2)c1
REMARK SMILES IDX 25 1 24 2 22 3 23 4 21 5 16 6 17 7 93 8 18 9 19 10 15 11
REMARK SMILES IDX 14 13 1 14 2 15 3 16 13 17 4 18 12 19 5 20 6 21 11 22 7 23
REMARK SMILES IDX 10 24 8 25 9 26 20 27 26 29 27 30 28 31 29 32 30 33 31 34
REMARK SMILES IDX 92 35 32 36 91 37 33 38 34 39 35 40 85 41 36 42 90 43 84 44
REMARK SMILES IDX 86 45 37 46 89 47 83 48 82 49 38 51 70 52 50 53 69 54 51 55
REMARK SMILES IDX 54 56 68 57 87 58 52 59 53 60 67 62 88 63 55 64 39 65 40 66
REMARK SMILES IDX 48 67 41 68 43 69 49 70 42 71 44 72 45 73 46 74 47 75 71 76
REMARK SMILES IDX 72 77 80 78 73 79 75 80 81 81 74 82 76 83 77 84 78 85 79 86
REMARK SMILES IDX 56 87 57 88 65 89 58 90 60 91 66 92 59 93 61 94 62 95 63 96
REMARK SMILES IDX 64 97
REMARK H PARENT 15 12 20 28 86 50 54 61
REMARK Flexibility Score: inf
ROOT
ATOM      1  C   UNL     1      -3.571  -9.004  -2.327  1.00  0.00     0.275 C 
ENDROOT
BRANCH   1   2
ATOM      2  O   UNL     1      -2.815  -8.314  -1.310  1.00  0.00    -0.458 OA
BRANCH   2   3
ATOM      3  C   UNL     1      -2.002  -7.320  -1.746  1.00  0.00     0.342 C 
ATOM      4  O   UNL     1      -1.893  -6.935  -2.901  1.00  0.00    -0.246 OA
BRANCH   3   5
ATOM      5  C   UNL     1      -1.301  -6.642  -0.633  1.00  0.00     0.103 A 
ATOM      6  C   UNL     1      -0.574  -4.502   0.319  1.00  0.00     0.039 A 
ATOM      7  C   UNL     1       0.198  -5.204   1.244  1.00  0.00     0.030 A 
ATOM      8  C   UNL     1      -1.284  -5.238  -0.631  1.00  0.00     0.045 A 
ATOM      9  C   UNL     1       0.189  -6.607   1.265  1.00  0.00     0.049 A 
ATOM     10  C   UNL     1      -0.567  -7.325   0.333  1.00  0.00     0.130 A 
BRANCH   6  11
ATOM     11  N   UNL     1      -0.593  -3.104   0.242  1.00  0.00    -0.360 N 
ATOM     12  H   UNL     1      -1.479  -2.675   0.210  1.00  0.00     0.166 HD
BRANCH  11  13
ATOM     13  C   UNL     1       0.498  -2.271   0.208  1.00  0.00     0.119 C 
ATOM     14  O   UNL     1      -1.839  -0.382   0.191  1.00  0.00    -0.244 OA
ATOM     15  C   UNL     1      -0.666  -0.060   0.137  1.00  0.00     0.365 C 
ATOM     16  O   UNL     1      -0.131   1.193   0.119  1.00  0.00    -0.402 OA
ATOM     17  C   UNL     1       0.536  -0.936   0.117  1.00  0.00     0.168 C 
ATOM     18  C   UNL     1       1.209   1.023   0.043  1.00  0.00     0.231 C 
ATOM     19  N   UNL     1       1.677  -0.183   0.028  1.00  0.00    -0.204 NA
BRANCH  18  20
ATOM     20  C   UNL     1       1.998   2.251  -0.032  1.00  0.00     0.037 A 
ATOM     21  C   UNL     1       1.879   3.227   0.962  1.00  0.00     0.015 A 
ATOM     22  C   UNL     1       2.936   2.392  -1.061  1.00  0.00     0.015 A 
ATOM     23  C   UNL     1       2.720   4.343   0.933  1.00  0.00     0.021 A 
ATOM     24  C   UNL     1       3.760   3.519  -1.095  1.00  0.00     0.021 A 
ATOM     25  C   UNL     1       3.657   4.483  -0.092  1.00  0.00     0.041 A 
ATOM     26  Cl  UNL     1       4.715   5.841  -0.106  1.00  0.00    -0.084 Cl
ENDBRANCH  18  20
ENDBRANCH  11  13
ENDBRANCH   6  11
BRANCH  10  27
ATOM     27  O   UNL     1      -0.528  -8.690   0.344  1.00  0.00    -0.507 OA
ATOM     28  H   UNL     1      -0.030  -9.139   0.999  1.00  0.00     0.293 HD
ENDBRANCH  10  27
ENDBRANCH   3   5
ENDBRANCH   2   3
ENDBRANCH   1   2
BRANCH   1  29
ATOM     29  C   UNL     1      -5.059  -8.663  -2.249  1.00  0.00     0.275 C 
BRANCH  29  30
ATOM     30  O   UNL     1      -5.288  -7.299  -2.643  1.00  0.00    -0.458 OA
BRANCH  30  31
ATOM     31  C   UNL     1      -5.429  -6.434  -1.616  1.00  0.00     0.338 C 
ATOM     32  O   UNL     1      -5.439  -6.692  -0.423  1.00  0.00    -0.246 OA
BRANCH  31  33
ATOM     33  C   UNL     1      -5.473  -5.055  -2.114  1.00  0.00     0.060 A 
ATOM     34  C   UNL     1      -4.263  -4.438  -2.400  1.00  0.00     0.016 A 
ATOM     35  C   UNL     1      -6.646  -4.310  -2.073  1.00  0.00     0.016 A 
ATOM     36  C   UNL     1      -4.183  -3.052  -2.457  1.00  0.00     0.010 A 
ATOM     37  C   UNL     1      -6.583  -2.929  -2.298  1.00  0.00     0.010 A 
ATOM     38  C   UNL     1      -5.344  -2.271  -2.427  1.00  0.00    -0.014 A 
BRANCH  38  39
ATOM     39  C   UNL     1      -5.259  -0.781  -2.515  1.00  0.00     0.031 A 
ATOM     40  C   UNL     1      -5.945   0.086  -1.486  1.00  0.00     0.074 A 
ATOM     41  C   UNL     1      -4.582  -0.197  -3.526  1.00  0.00     0.049 A 
ATOM     42  N   UNL     1      -6.157   1.378  -1.501  1.00  0.00    -0.248 NA
ATOM     43  C   UNL     1      -6.493  -0.590  -0.298  1.00  0.00     0.031 C 
ATOM     44  C   UNL     1      -3.859  -0.905  -4.587  1.00  0.00     0.029 A 
ATOM     45  N   UNL     1      -4.403   1.129  -3.842  1.00  0.00    -0.354 N 
ATOM     46  C   UNL     1      -6.928   1.654  -0.376  1.00  0.00     0.074 A 
ATOM     47  C   UNL     1      -7.150   0.394   0.299  1.00  0.00     0.031 C 
ATOM     48  C   UNL     1      -3.297  -0.015  -5.415  1.00  0.00     0.029 A 
ATOM     49  C   UNL     1      -3.707   1.323  -5.013  1.00  0.00     0.049 A 
ATOM     50  H   UNL     1      -4.740   1.867  -3.285  1.00  0.00     0.167 HD
ATOM     51  C   UNL     1      -7.401   2.848   0.059  1.00  0.00     0.034 A 
ATOM     52  C   UNL     1      -3.470   2.441  -5.727  1.00  0.00     0.034 A 
ATOM     53  C   UNL     1      -7.111   4.106  -0.576  1.00  0.00     0.049 A 
ATOM     54  C   UNL     1      -4.011   3.749  -5.228  1.00  0.00     0.074 A 
ATOM     55  C   UNL     1      -7.492   5.377  -0.182  1.00  0.00     0.029 A 
ATOM     56  N   UNL     1      -6.366   4.256  -1.736  1.00  0.00    -0.354 N 
ATOM     57  N   UNL     1      -4.695   3.996  -4.138  1.00  0.00    -0.248 NA
ATOM     58  C   UNL     1      -3.733   4.936  -6.048  1.00  0.00     0.031 C 
ATOM     59  C   UNL     1      -7.009   6.291  -1.123  1.00  0.00     0.029 A 
ATOM     60  C   UNL     1      -6.287   5.595  -2.080  1.00  0.00     0.049 A 
ATOM     61  H   UNL     1      -5.953   3.518  -2.241  1.00  0.00     0.167 HD
ATOM     62  C   UNL     1      -4.906   5.369  -4.125  1.00  0.00     0.074 A 
ATOM     63  C   UNL     1      -4.253   5.902  -5.303  1.00  0.00     0.031 C 
ATOM     64  C   UNL     1      -5.591   6.117  -3.227  1.00  0.00     0.034 A 
BRANCH  51  65
ATOM     65  C   UNL     1      -8.280   2.859   1.287  1.00  0.00     0.023 A 
ATOM     66  C   UNL     1      -7.731   2.591   2.557  1.00  0.00     0.012 A 
ATOM     67  C   UNL     1      -9.645   3.196   1.185  1.00  0.00     0.148 A 
ATOM     68  C   UNL     1      -8.533   2.617   3.699  1.00  0.00     0.002 A 
ATOM     69  C   UNL     1     -10.427   3.270   2.333  1.00  0.00     0.091 A 
ATOM     70  F   UNL     1     -10.156   3.436  -0.031  1.00  0.00    -0.205 F 
ATOM     71  C   UNL     1      -9.876   2.967   3.588  1.00  0.00     0.022 A 
BRANCH  69  72
ATOM     72  S   UNL     1     -12.145   3.795   2.306  1.00  0.00     0.127 S 
ATOM     73  O   UNL     1     -12.839   2.555   2.653  1.00  0.00    -0.237 OA
ATOM     74  O   UNL     1     -12.169   4.819   3.351  1.00  0.00    -0.237 OA
ATOM     75  O   UNL     1     -12.396   4.293   0.961  1.00  0.00    -0.744 OA
ENDBRANCH  69  72
ENDBRANCH  51  65
BRANCH  52  76
ATOM     76  C   UNL     1      -2.693   2.363  -6.997  1.00  0.00     0.023 A 
ATOM     77  C   UNL     1      -1.418   2.957  -7.068  1.00  0.00     0.012 A 
ATOM     78  C   UNL     1      -3.196   1.679  -8.122  1.00  0.00     0.148 A 
ATOM     79  C   UNL     1      -0.671   2.895  -8.245  1.00  0.00     0.002 A 
ATOM     80  C   UNL     1      -2.420   1.567  -9.269  1.00  0.00     0.091 A 
ATOM     81  F   UNL     1      -4.417   1.132  -8.040  1.00  0.00    -0.205 F 
ATOM     82  C   UNL     1      -1.165   2.191  -9.340  1.00  0.00     0.022 A 
BRANCH  80  83
ATOM     83  S   UNL     1      -2.915   0.564 -10.675  1.00  0.00     0.127 S 
ATOM     84  O   UNL     1      -3.172   1.581 -11.691  1.00  0.00    -0.237 OA
ATOM     85  O   UNL     1      -1.718  -0.246 -10.902  1.00  0.00    -0.237 OA
ATOM     86  O   UNL     1      -4.078  -0.192 -10.230  1.00  0.00    -0.744 OA
ENDBRANCH  80  83
ENDBRANCH  52  76
BRANCH  64  87
ATOM     87  C   UNL     1      -5.624   7.606  -3.448  1.00  0.00     0.023 A 
ATOM     88  C   UNL     1      -6.392   8.149  -4.497  1.00  0.00     0.012 A 
ATOM     89  C   UNL     1      -4.941   8.470  -2.570  1.00  0.00     0.148 A 
ATOM     90  C   UNL     1      -6.449   9.529  -4.690  1.00  0.00     0.002 A 
ATOM     91  C   UNL     1      -5.047   9.845  -2.735  1.00  0.00     0.091 A 
ATOM     92  F   UNL     1      -4.201   7.931  -1.590  1.00  0.00    -0.205 F 
ATOM     93  C   UNL     1      -5.788  10.376  -3.803  1.00  0.00     0.022 A 
BRANCH  91  94
ATOM     94  S   UNL     1      -4.313  11.013  -1.585  1.00  0.00     0.127 S 
ATOM     95  O   UNL     1      -3.252  11.605  -2.399  1.00  0.00    -0.237 OA
ATOM     96  O   UNL     1      -5.434  11.908  -1.298  1.00  0.00    -0.237 OA
ATOM     97  O   UNL     1      -3.857  10.227  -0.447  1.00  0.00    -0.744 OA
ENDBRANCH  91  94
ENDBRANCH  64  87
ENDBRANCH  38  39
ENDBRANCH  31  33
ENDBRANCH  30  31
ENDBRANCH  29  30
ENDBRANCH   1  29
TORSDOF 18
