REMARK SMILES CC(C)(C)OC(=O)Nc1ccc(-c2cccc(Cl)c2C(=O)OCCOC(=O)c2ccc(-c3c4nc(c(-c5cccc(S(=O)(=O)[O-])c5F)c5ccc([nH]5)c(-c5cccc(S(=O)(=O)[O-])c5F)c5nc(c(-c6cccc(S(=O)(=O)[O-])c6F)c6ccc3[nH]6)C=C5)C=C4)cc2)cc1
REMARK SMILES IDX 23 1 22 2 20 3 21 4 19 5 13 6 14 7 15 8 17 9 16 10 18 11
REMARK SMILES IDX 12 12 9 13 10 14 92 15 11 16 91 17 8 18 6 19 7 20 5 22 2 23
REMARK SMILES IDX 1 24 3 25 4 26 24 27 25 28 26 29 27 30 28 31 29 32 90 33
REMARK SMILES IDX 30 34 89 35 31 36 32 37 33 38 83 39 34 40 88 41 82 42 84 43
REMARK SMILES IDX 35 44 87 45 81 46 80 47 36 49 68 50 48 51 67 52 49 53 52 54
REMARK SMILES IDX 66 55 85 56 50 57 51 58 65 60 86 61 53 62 37 63 38 64 46 65
REMARK SMILES IDX 39 66 41 67 47 68 40 69 42 70 43 71 44 72 45 73 69 74 70 75
REMARK SMILES IDX 78 76 71 77 73 78 79 79 72 80 74 81 75 82 76 83 77 84 54 85
REMARK SMILES IDX 55 86 63 87 56 88 58 89 64 90 57 91 59 92 60 93 61 94 62 95
REMARK H PARENT 8 21 84 48 52 59
REMARK Flexibility Score: inf
ROOT
ATOM      1  C   UNL     1       6.731   4.891   1.307  1.00  0.00     0.275 C 
ENDROOT
BRANCH   1   2
ATOM      2  O   UNL     1       6.272   4.947   2.672  1.00  0.00    -0.458 OA
BRANCH   2   3
ATOM      3  C   UNL     1       6.359   3.793   3.384  1.00  0.00     0.340 C 
ATOM      4  O   UNL     1       6.851   2.744   3.009  1.00  0.00    -0.246 OA
BRANCH   3   5
ATOM      5  C   UNL     1       5.674   3.978   4.689  1.00  0.00     0.086 A 
ATOM      6  C   UNL     1       4.322   4.409   4.725  1.00  0.00    -0.002 A 
ATOM      7  C   UNL     1       3.736   4.649   5.984  1.00  0.00     0.010 A 
ATOM      8  C   UNL     1       4.446   4.447   7.166  1.00  0.00     0.002 A 
ATOM      9  C   UNL     1       6.355   3.698   5.884  1.00  0.00     0.056 A 
ATOM     10  C   UNL     1       5.747   3.958   7.116  1.00  0.00     0.021 A 
ATOM     11  Cl  UNL     1       7.939   3.008   5.932  1.00  0.00    -0.083 Cl
BRANCH   6  12
ATOM     12  C   UNL     1       3.481   4.515   3.514  1.00  0.00    -0.017 A 
ATOM     13  C   UNL     1       1.847   4.636   1.200  1.00  0.00     0.044 A 
ATOM     14  C   UNL     1       1.870   5.697   2.109  1.00  0.00     0.027 A 
ATOM     15  C   UNL     1       2.685   3.547   1.426  1.00  0.00     0.027 A 
ATOM     16  C   UNL     1       2.678   5.635   3.254  1.00  0.00     0.011 A 
ATOM     17  C   UNL     1       3.459   3.470   2.580  1.00  0.00     0.011 A 
BRANCH  13  18
ATOM     18  N   UNL     1       0.978   4.723   0.097  1.00  0.00    -0.291 N 
ATOM     19  C   UNL     1       0.516   3.719  -0.718  1.00  0.00     0.412 C 
ATOM     20  O   UNL     1      -0.185   3.965  -1.694  1.00  0.00    -0.224 OA
ATOM     21  H   UNL     1       0.657   5.628  -0.120  1.00  0.00     0.173 HD
BRANCH  19  22
ATOM     22  O   UNL     1       0.843   2.481  -0.289  1.00  0.00    -0.444 OA
BRANCH  22  23
ATOM     23  C   UNL     1       0.412   1.265  -0.940  1.00  0.00     0.106 C 
ATOM     24  C   UNL     1       1.021   0.142  -0.085  1.00  0.00     0.056 C 
ATOM     25  C   UNL     1       0.979   1.171  -2.357  1.00  0.00     0.056 C 
ATOM     26  C   UNL     1      -1.112   1.142  -0.906  1.00  0.00     0.056 C 
ENDBRANCH  22  23
ENDBRANCH  19  22
ENDBRANCH  13  18
ENDBRANCH   6  12
ENDBRANCH   3   5
ENDBRANCH   2   3
ENDBRANCH   1   2
BRANCH   1  27
ATOM     27  C   UNL     1       7.256   6.262   0.879  1.00  0.00     0.275 C 
BRANCH  27  28
ATOM     28  O   UNL     1       8.398   6.601   1.685  1.00  0.00    -0.458 OA
BRANCH  28  29
ATOM     29  C   UNL     1       8.113   7.351   2.774  1.00  0.00     0.338 C 
ATOM     30  O   UNL     1       7.073   7.934   3.032  1.00  0.00    -0.246 OA
BRANCH  29  31
ATOM     31  C   UNL     1       9.204   7.188   3.740  1.00  0.00     0.060 A 
ATOM     32  C   UNL     1       9.009   6.265   4.767  1.00  0.00     0.016 A 
ATOM     33  C   UNL     1      10.354   7.969   3.693  1.00  0.00     0.016 A 
ATOM     34  C   UNL     1       9.950   6.137   5.782  1.00  0.00     0.010 A 
ATOM     35  C   UNL     1      11.314   7.821   4.701  1.00  0.00     0.010 A 
ATOM     36  C   UNL     1      11.108   6.922   5.767  1.00  0.00    -0.014 A 
BRANCH  36  37
ATOM     37  C   UNL     1      12.052   6.866   6.913  1.00  0.00     0.031 A 
ATOM     38  C   UNL     1      12.212   8.073   7.798  1.00  0.00     0.074 A 
ATOM     39  C   UNL     1      12.745   5.742   7.181  1.00  0.00     0.049 A 
ATOM     40  N   UNL     1      13.064   8.285   8.766  1.00  0.00    -0.248 NA
ATOM     41  C   UNL     1      11.289   9.194   7.554  1.00  0.00     0.031 C 
ATOM     42  C   UNL     1      12.641   4.486   6.437  1.00  0.00     0.029 A 
ATOM     43  N   UNL     1      13.682   5.479   8.150  1.00  0.00    -0.354 N 
ATOM     44  C   UNL     1      12.828   9.583   9.202  1.00  0.00     0.074 A 
ATOM     45  C   UNL     1      11.746  10.108   8.398  1.00  0.00     0.031 C 
ATOM     46  C   UNL     1      13.480   3.587   6.976  1.00  0.00     0.029 A 
ATOM     47  C   UNL     1      14.226   4.219   8.059  1.00  0.00     0.049 A 
ATOM     48  H   UNL     1      13.940   6.130   8.842  1.00  0.00     0.167 HD
ATOM     49  C   UNL     1      13.450  10.272  10.188  1.00  0.00     0.034 A 
ATOM     50  C   UNL     1      15.238   3.651   8.746  1.00  0.00     0.034 A 
ATOM     51  C   UNL     1      14.490   9.727  11.019  1.00  0.00     0.049 A 
ATOM     52  C   UNL     1      15.935   4.450   9.814  1.00  0.00     0.074 A 
ATOM     53  C   UNL     1      15.167  10.336  12.061  1.00  0.00     0.029 A 
ATOM     54  N   UNL     1      15.003   8.444  10.905  1.00  0.00    -0.354 N 
ATOM     55  N   UNL     1      15.675   5.661  10.244  1.00  0.00    -0.248 NA
ATOM     56  C   UNL     1      17.060   3.799  10.502  1.00  0.00     0.031 C 
ATOM     57  C   UNL     1      16.107   9.428  12.561  1.00  0.00     0.029 A 
ATOM     58  C   UNL     1      15.994   8.243  11.851  1.00  0.00     0.049 A 
ATOM     59  H   UNL     1      14.707   7.774  10.247  1.00  0.00     0.167 HD
ATOM     60  C   UNL     1      16.580   5.905  11.271  1.00  0.00     0.074 A 
ATOM     61  C   UNL     1      17.381   4.706  11.414  1.00  0.00     0.031 C 
ATOM     62  C   UNL     1      16.745   7.025  12.017  1.00  0.00     0.034 A 
BRANCH  49  63
ATOM     63  C   UNL     1      13.018  11.697  10.421  1.00  0.00     0.023 A 
ATOM     64  C   UNL     1      11.770  11.969  11.016  1.00  0.00     0.012 A 
ATOM     65  C   UNL     1      13.868  12.768  10.079  1.00  0.00     0.148 A 
ATOM     66  C   UNL     1      11.356  13.284  11.229  1.00  0.00     0.002 A 
ATOM     67  C   UNL     1      13.469  14.074  10.337  1.00  0.00     0.091 A 
ATOM     68  F   UNL     1      15.042  12.492   9.494  1.00  0.00    -0.205 F 
ATOM     69  C   UNL     1      12.208  14.335  10.898  1.00  0.00     0.022 A 
BRANCH  67  70
ATOM     70  S   UNL     1      14.529  15.489  10.019  1.00  0.00     0.127 S 
ATOM     71  O   UNL     1      13.880  16.088   8.854  1.00  0.00    -0.237 OA
ATOM     72  O   UNL     1      14.393  16.260  11.255  1.00  0.00    -0.237 OA
ATOM     73  O   UNL     1      15.860  14.948   9.786  1.00  0.00    -0.744 OA
ENDBRANCH  67  70
ENDBRANCH  49  63
BRANCH  50  74
ATOM     74  C   UNL     1      15.647   2.247   8.452  1.00  0.00     0.023 A 
ATOM     75  C   UNL     1      15.439   1.246   9.421  1.00  0.00     0.012 A 
ATOM     76  C   UNL     1      16.227   1.894   7.217  1.00  0.00     0.148 A 
ATOM     77  C   UNL     1      15.822  -0.073   9.177  1.00  0.00     0.002 A 
ATOM     78  C   UNL     1      16.552   0.568   6.957  1.00  0.00     0.091 A 
ATOM     79  F   UNL     1      16.441   2.863   6.316  1.00  0.00    -0.205 F 
ATOM     80  C   UNL     1      16.367  -0.415   7.941  1.00  0.00     0.022 A 
BRANCH  78  81
ATOM     81  S   UNL     1      17.137   0.018   5.350  1.00  0.00     0.127 S 
ATOM     82  O   UNL     1      18.532  -0.308   5.636  1.00  0.00    -0.237 OA
ATOM     83  O   UNL     1      16.276  -1.137   5.094  1.00  0.00    -0.237 OA
ATOM     84  O   UNL     1      16.921   1.140   4.447  1.00  0.00    -0.744 OA
ENDBRANCH  78  81
ENDBRANCH  50  74
BRANCH  62  85
ATOM     85  C   UNL     1      17.805   7.000  13.088  1.00  0.00     0.023 A 
ATOM     86  C   UNL     1      19.167   7.043  12.732  1.00  0.00     0.012 A 
ATOM     87  C   UNL     1      17.446   7.004  14.451  1.00  0.00     0.148 A 
ATOM     88  C   UNL     1      20.156   7.058  13.714  1.00  0.00     0.002 A 
ATOM     89  C   UNL     1      18.435   7.069  15.424  1.00  0.00     0.091 A 
ATOM     90  F   UNL     1      16.145   6.943  14.770  1.00  0.00    -0.205 F 
ATOM     91  C   UNL     1      19.791   7.082  15.058  1.00  0.00     0.022 A 
BRANCH  89  92
ATOM     92  S   UNL     1      18.056   7.203  17.175  1.00  0.00     0.127 S 
ATOM     93  O   UNL     1      18.433   5.878  17.664  1.00  0.00    -0.237 OA
ATOM     94  O   UNL     1      18.944   8.286  17.602  1.00  0.00    -0.237 OA
ATOM     95  O   UNL     1      16.637   7.519  17.256  1.00  0.00    -0.744 OA
ENDBRANCH  89  92
ENDBRANCH  62  85
ENDBRANCH  36  37
ENDBRANCH  29  31
ENDBRANCH  28  29
ENDBRANCH  27  28
ENDBRANCH   1  27
TORSDOF 18
