REMARK SMILES O=C(OCCOC(=O)c1cccc(CN2C(=O)S/C(=C/c3ccc(Cl)cc3)C2=O)c1)c1ccc(-c2c3nc(c(-c4cccc(S(=O)(=O)[O-])c4F)c4ccc([nH]4)c(-c4cccc(S(=O)(=O)[O-])c4F)c4nc(c(-c5cccc(S(=O)(=O)[O-])c5F)c5ccc2[nH]5)C=C4)C=C3)cc1
REMARK SMILES IDX 4 1 3 2 2 3 1 4 31 5 32 6 93 7 33 8 92 9 34 10 35 11 36 12
REMARK SMILES IDX 86 13 37 14 91 15 85 16 87 17 38 18 90 19 84 20 83 21 39 23
REMARK SMILES IDX 71 24 51 25 70 26 52 27 55 28 69 29 88 30 53 31 54 32 68 34
REMARK SMILES IDX 89 35 56 36 40 37 41 38 49 39 42 40 44 41 50 42 43 43 45 44
REMARK SMILES IDX 46 45 47 46 48 47 72 48 73 49 81 50 74 51 76 52 82 53 75 54
REMARK SMILES IDX 77 55 78 56 79 57 80 58 57 59 58 60 66 61 59 62 61 63 67 64
REMARK SMILES IDX 60 65 62 66 63 67 64 68 65 69 5 70 6 71 7 72 8 73 9 74 10 75
REMARK SMILES IDX 30 76 11 77 13 78 12 79 14 80 15 81 16 82 28 83 17 84 18 85
REMARK SMILES IDX 19 86 29 87 20 88 21 89 22 90 27 91 23 92 26 93 24 94 25 95
REMARK H PARENT 87 22 55 33
REMARK Flexibility Score: inf
ROOT
ATOM      1  C   UNL     1       4.194  -1.439   0.420  1.00  0.00     0.275 C 
ENDROOT
BRANCH   1   2
ATOM      2  O   UNL     1       3.097  -0.667   0.931  1.00  0.00    -0.458 OA
BRANCH   2   3
ATOM      3  C   UNL     1       2.903   0.673   0.890  1.00  0.00     0.338 C 
ATOM      4  O   UNL     1       2.034   1.155   1.616  1.00  0.00    -0.246 OA
BRANCH   3   5
ATOM      5  C   UNL     1       3.582   1.582  -0.093  1.00  0.00     0.060 A 
ATOM      6  C   UNL     1       4.810   1.359  -0.728  1.00  0.00     0.016 A 
ATOM      7  C   UNL     1       2.884   2.753  -0.429  1.00  0.00     0.016 A 
ATOM      8  C   UNL     1       5.291   2.216  -1.721  1.00  0.00     0.010 A 
ATOM      9  C   UNL     1       3.349   3.607  -1.431  1.00  0.00     0.010 A 
ATOM     10  C   UNL     1       4.565   3.344  -2.079  1.00  0.00    -0.014 A 
BRANCH  10  11
ATOM     11  C   UNL     1       5.172   4.386  -2.932  1.00  0.00     0.031 A 
ATOM     12  C   UNL     1       5.580   5.656  -2.252  1.00  0.00     0.074 A 
ATOM     13  C   UNL     1       5.371   4.228  -4.253  1.00  0.00     0.049 A 
ATOM     14  N   UNL     1       5.995   6.773  -2.776  1.00  0.00    -0.248 NA
ATOM     15  C   UNL     1       5.549   5.647  -0.777  1.00  0.00     0.031 C 
ATOM     16  C   UNL     1       5.202   2.990  -5.007  1.00  0.00     0.029 A 
ATOM     17  N   UNL     1       5.688   5.155  -5.216  1.00  0.00    -0.354 N 
ATOM     18  C   UNL     1       6.293   7.591  -1.698  1.00  0.00     0.074 A 
ATOM     19  C   UNL     1       5.932   6.879  -0.495  1.00  0.00     0.031 C 
ATOM     20  C   UNL     1       5.257   3.265  -6.325  1.00  0.00     0.029 A 
ATOM     21  C   UNL     1       5.454   4.695  -6.494  1.00  0.00     0.049 A 
ATOM     22  H   UNL     1       6.044   6.051  -5.015  1.00  0.00     0.167 HD
ATOM     23  C   UNL     1       6.874   8.810  -1.712  1.00  0.00     0.034 A 
ATOM     24  C   UNL     1       5.347   5.376  -7.649  1.00  0.00     0.034 A 
ATOM     25  C   UNL     1       7.208   9.501  -2.920  1.00  0.00     0.049 A 
ATOM     26  C   UNL     1       5.738   6.826  -7.650  1.00  0.00     0.074 A 
ATOM     27  C   UNL     1       7.833  10.722  -3.073  1.00  0.00     0.029 A 
ATOM     28  N   UNL     1       6.904   9.037  -4.192  1.00  0.00    -0.354 N 
ATOM     29  N   UNL     1       6.097   7.573  -6.635  1.00  0.00    -0.248 NA
ATOM     30  C   UNL     1       5.820   7.492  -8.956  1.00  0.00     0.031 C 
ATOM     31  C   UNL     1       7.855  11.022  -4.439  1.00  0.00     0.029 A 
ATOM     32  C   UNL     1       7.299   9.960  -5.138  1.00  0.00     0.049 A 
ATOM     33  H   UNL     1       6.470   8.175  -4.389  1.00  0.00     0.167 HD
ATOM     34  C   UNL     1       6.560   8.759  -7.187  1.00  0.00     0.074 A 
ATOM     35  C   UNL     1       6.369   8.654  -8.621  1.00  0.00     0.031 C 
ATOM     36  C   UNL     1       7.142   9.810  -6.563  1.00  0.00     0.034 A 
BRANCH  23  37
ATOM     37  C   UNL     1       7.157   9.435  -0.377  1.00  0.00     0.023 A 
ATOM     38  C   UNL     1       8.128   8.869   0.478  1.00  0.00     0.012 A 
ATOM     39  C   UNL     1       6.416  10.547   0.057  1.00  0.00     0.148 A 
ATOM     40  C   UNL     1       8.308   9.359   1.770  1.00  0.00     0.002 A 
ATOM     41  C   UNL     1       6.639  11.064   1.326  1.00  0.00     0.091 A 
ATOM     42  F   UNL     1       5.479  11.049  -0.759  1.00  0.00    -0.205 F 
ATOM     43  C   UNL     1       7.567  10.460   2.191  1.00  0.00     0.022 A 
BRANCH  41  44
ATOM     44  S   UNL     1       5.784  12.519   1.933  1.00  0.00     0.127 S 
ATOM     45  O   UNL     1       4.905  11.942   2.949  1.00  0.00    -0.237 OA
ATOM     46  O   UNL     1       6.887  13.320   2.463  1.00  0.00    -0.237 OA
ATOM     47  O   UNL     1       5.111  13.100   0.779  1.00  0.00    -0.744 OA
ENDBRANCH  41  44
ENDBRANCH  23  37
BRANCH  24  48
ATOM     48  C   UNL     1       4.871   4.722  -8.897  1.00  0.00     0.023 A 
ATOM     49  C   UNL     1       5.789   4.187  -9.816  1.00  0.00     0.012 A 
ATOM     50  C   UNL     1       3.498   4.705  -9.207  1.00  0.00     0.148 A 
ATOM     51  C   UNL     1       5.348   3.657 -11.032  1.00  0.00     0.002 A 
ATOM     52  C   UNL     1       3.068   4.201 -10.433  1.00  0.00     0.091 A 
ATOM     53  F   UNL     1       2.640   5.210  -8.309  1.00  0.00    -0.205 F 
ATOM     54  C   UNL     1       3.990   3.666 -11.343  1.00  0.00     0.022 A 
BRANCH  52  55
ATOM     55  S   UNL     1       1.347   4.254 -10.935  1.00  0.00     0.127 S 
ATOM     56  O   UNL     1       1.345   5.356 -11.891  1.00  0.00    -0.237 OA
ATOM     57  O   UNL     1       1.149   2.931 -11.525  1.00  0.00    -0.237 OA
ATOM     58  O   UNL     1       0.609   4.473  -9.700  1.00  0.00    -0.744 OA
ENDBRANCH  52  55
ENDBRANCH  24  48
BRANCH  36  59
ATOM     59  C   UNL     1       7.731  10.894  -7.418  1.00  0.00     0.023 A 
ATOM     60  C   UNL     1       6.907  11.835  -8.057  1.00  0.00     0.012 A 
ATOM     61  C   UNL     1       9.133  11.044  -7.460  1.00  0.00     0.148 A 
ATOM     62  C   UNL     1       7.473  12.913  -8.736  1.00  0.00     0.002 A 
ATOM     63  C   UNL     1       9.685  12.152  -8.083  1.00  0.00     0.091 A 
ATOM     64  F   UNL     1       9.893  10.115  -6.862  1.00  0.00    -0.205 F 
ATOM     65  C   UNL     1       8.858  13.082  -8.732  1.00  0.00     0.022 A 
BRANCH  63  66
ATOM     66  S   UNL     1      11.443  12.513  -8.015  1.00  0.00     0.127 S 
ATOM     67  O   UNL     1      11.833  12.355  -9.416  1.00  0.00    -0.237 OA
ATOM     68  O   UNL     1      11.453  13.892  -7.529  1.00  0.00    -0.237 OA
ATOM     69  O   UNL     1      12.023  11.541  -7.098  1.00  0.00    -0.744 OA
ENDBRANCH  63  66
ENDBRANCH  36  59
ENDBRANCH  10  11
ENDBRANCH   3   5
ENDBRANCH   2   3
ENDBRANCH   1   2
BRANCH   1  70
ATOM     70  C   UNL     1       4.011  -1.922  -1.027  1.00  0.00     0.275 C 
BRANCH  70  71
ATOM     71  O   UNL     1       3.469  -0.921  -1.909  1.00  0.00    -0.458 OA
BRANCH  71  72
ATOM     72  C   UNL     1       2.124  -0.982  -2.101  1.00  0.00     0.338 C 
ATOM     73  O   UNL     1       1.379  -1.860  -1.693  1.00  0.00    -0.246 OA
BRANCH  72  74
ATOM     74  C   UNL     1       1.630   0.282  -2.696  1.00  0.00     0.060 A 
ATOM     75  C   UNL     1       0.634   0.960  -1.980  1.00  0.00     0.016 A 
ATOM     76  C   UNL     1       2.119   0.814  -3.898  1.00  0.00     0.021 A 
ATOM     77  C   UNL     1       0.181   2.202  -2.415  1.00  0.00     0.001 A 
ATOM     78  C   UNL     1       1.623   2.051  -4.365  1.00  0.00    -0.027 A 
ATOM     79  C   UNL     1       0.687   2.749  -3.589  1.00  0.00     0.005 A 
BRANCH  78  80
ATOM     80  C   UNL     1       2.039   2.646  -5.698  1.00  0.00     0.165 C 
BRANCH  80  81
ATOM     81  N   UNL     1       1.108   2.342  -6.757  1.00  0.00    -0.264 N 
ATOM     82  C   UNL     1      -0.085   2.992  -6.897  1.00  0.00     0.293 C 
ATOM     83  C   UNL     1       1.415   1.381  -7.689  1.00  0.00     0.268 C 
ATOM     84  O   UNL     1      -0.525   3.897  -6.197  1.00  0.00    -0.261 OA
ATOM     85  S   UNL     1      -1.044   2.207  -8.141  1.00  0.00    -0.022 SA
ATOM     86  C   UNL     1       0.270   1.191  -8.621  1.00  0.00     0.083 C 
ATOM     87  O   UNL     1       2.458   0.737  -7.705  1.00  0.00    -0.268 OA
ATOM     88  C   UNL     1       0.208   0.364  -9.674  1.00  0.00     0.029 C 
BRANCH  88  89
ATOM     89  C   UNL     1       1.284  -0.532 -10.104  1.00  0.00    -0.024 A 
ATOM     90  C   UNL     1       1.925  -0.308 -11.326  1.00  0.00     0.009 A 
ATOM     91  C   UNL     1       1.694  -1.601  -9.297  1.00  0.00     0.009 A 
ATOM     92  C   UNL     1       2.989  -1.121 -11.724  1.00  0.00     0.021 A 
ATOM     93  C   UNL     1       2.765  -2.408  -9.688  1.00  0.00     0.021 A 
ATOM     94  C   UNL     1       3.409  -2.162 -10.898  1.00  0.00     0.041 A 
ATOM     95  Cl  UNL     1       4.735  -3.152 -11.373  1.00  0.00    -0.084 Cl
ENDBRANCH  88  89
ENDBRANCH  80  81
ENDBRANCH  78  80
ENDBRANCH  72  74
ENDBRANCH  71  72
ENDBRANCH  70  71
ENDBRANCH   1  70
TORSDOF 17
