REMARK SMILES Cc1cc(NC(=O)CCC(=O)OCCOC(=O)c2ccc(-c3c4nc(c(-c5cccc(S(=O)(=O)[O-])c5F)c5ccc([nH]5)c(-c5cccc(S(=O)(=O)[O-])c5F)c5nc(c(-c6cccc(S(=O)(=O)[O-])c6F)c6ccc3[nH]6)C=C5)C=C4)cc2)ccc1S(=O)(=O)[O-]
REMARK SMILES IDX 13 1 12 2 10 3 11 4 9 5 8 6 6 7 5 8 7 10 4 11 1 12 2 13 3 14
REMARK SMILES IDX 83 15 82 16 81 17 84 18 85 19 86 20 87 21 14 22 15 23 16 24
REMARK SMILES IDX 17 25 18 26 19 27 80 28 20 29 79 30 21 31 22 32 23 33 73 34
REMARK SMILES IDX 24 35 78 36 72 37 74 38 25 39 77 40 71 41 70 42 26 44 58 45
REMARK SMILES IDX 38 46 57 47 39 48 42 49 56 50 75 51 40 52 41 53 55 55 76 56
REMARK SMILES IDX 43 57 27 58 28 59 36 60 29 61 31 62 37 63 30 64 32 65 33 66
REMARK SMILES IDX 34 67 35 68 59 69 60 70 68 71 61 72 63 73 69 74 62 75 64 76
REMARK SMILES IDX 65 77 66 78 67 79 44 80 45 81 53 82 46 83 48 84 54 85 47 86
REMARK SMILES IDX 49 87 50 88 51 89 52 90
REMARK H PARENT 5 9 74 43 42 54
REMARK Flexibility Score: inf
ROOT
ATOM      1  C   UNL     1      -1.818  -0.269  -1.266  1.00  0.00     0.274 C 
ENDROOT
BRANCH   1   2
ATOM      2  O   UNL     1      -1.799  -1.689  -1.535  1.00  0.00    -0.462 OA
BRANCH   2   3
ATOM      3  C   UNL     1      -1.314  -2.302  -0.462  1.00  0.00     0.306 C 
ATOM      4  O   UNL     1      -0.858  -1.627   0.447  1.00  0.00    -0.252 OA
BRANCH   3   5
ATOM      5  C   UNL     1      -1.327  -3.759  -0.280  1.00  0.00     0.132 C 
BRANCH   5   6
ATOM      6  C   UNL     1      -0.871  -3.940   1.213  1.00  0.00     0.112 C 
BRANCH   6   7
ATOM      7  C   UNL     1      -1.911  -3.376   2.207  1.00  0.00     0.224 C 
ATOM      8  N   UNL     1      -2.013  -2.105   2.726  1.00  0.00    -0.326 N 
ATOM      9  H   UNL     1      -2.853  -2.006   3.230  1.00  0.00     0.169 HD
ATOM     10  O   UNL     1      -2.877  -4.115   2.472  1.00  0.00    -0.275 OA
BRANCH   8  11
ATOM     11  C   UNL     1      -1.266  -0.885   2.754  1.00  0.00     0.041 A 
ATOM     12  C   UNL     1       2.279   0.582   2.531  1.00  0.00     0.046 C 
ATOM     13  C   UNL     1       0.774   0.532   2.594  1.00  0.00    -0.032 A 
ATOM     14  C   UNL     1       0.131  -0.744   2.776  1.00  0.00     0.030 A 
ATOM     15  C   UNL     1      -0.024   1.662   2.331  1.00  0.00     0.057 A 
ATOM     16  C   UNL     1      -1.421   1.542   2.393  1.00  0.00     0.021 A 
ATOM     17  C   UNL     1      -2.026   0.293   2.625  1.00  0.00     0.027 A 
BRANCH  15  18
ATOM     18  S   UNL     1       0.580   3.234   1.696  1.00  0.00     0.124 S 
ATOM     19  O   UNL     1       0.027   3.418   0.367  1.00  0.00    -0.237 OA
ATOM     20  O   UNL     1       0.360   4.225   2.727  1.00  0.00    -0.237 OA
ATOM     21  O   UNL     1       2.166   3.145   1.446  1.00  0.00    -0.744 OA
ENDBRANCH  15  18
ENDBRANCH   8  11
ENDBRANCH   6   7
ENDBRANCH   5   6
ENDBRANCH   3   5
ENDBRANCH   2   3
ENDBRANCH   1   2
BRANCH   1  22
ATOM     22  C   UNL     1      -0.480   0.503  -0.865  1.00  0.00     0.275 C 
BRANCH  22  23
ATOM     23  O   UNL     1       0.747  -0.090  -0.159  1.00  0.00    -0.458 OA
BRANCH  23  24
ATOM     24  C   UNL     1       1.618  -1.174  -0.368  1.00  0.00     0.338 C 
ATOM     25  O   UNL     1       2.269  -1.698   0.524  1.00  0.00    -0.246 OA
BRANCH  24  26
ATOM     26  C   UNL     1       1.743  -1.593  -1.762  1.00  0.00     0.060 A 
ATOM     27  C   UNL     1       1.796  -2.843  -2.389  1.00  0.00     0.016 A 
ATOM     28  C   UNL     1       1.464  -0.544  -2.534  1.00  0.00     0.016 A 
ATOM     29  C   UNL     1       1.315  -2.904  -3.721  1.00  0.00     0.010 A 
ATOM     30  C   UNL     1       0.363  -0.867  -3.209  1.00  0.00     0.010 A 
ATOM     31  C   UNL     1       0.578  -1.812  -4.152  1.00  0.00    -0.014 A 
BRANCH  31  32
ATOM     32  C   UNL     1      -0.160  -1.377  -5.335  1.00  0.00     0.031 A 
ATOM     33  C   UNL     1      -1.147  -2.297  -5.860  1.00  0.00     0.074 A 
ATOM     34  C   UNL     1      -0.115  -0.033  -5.609  1.00  0.00     0.049 A 
ATOM     35  N   UNL     1      -1.114  -2.802  -7.043  1.00  0.00    -0.248 NA
ATOM     36  C   UNL     1      -2.242  -2.777  -5.013  1.00  0.00     0.031 C 
ATOM     37  C   UNL     1      -1.011   0.884  -6.289  1.00  0.00     0.029 A 
ATOM     38  N   UNL     1       0.823   0.864  -5.100  1.00  0.00    -0.354 N 
ATOM     39  C   UNL     1      -2.398  -3.260  -7.227  1.00  0.00     0.074 A 
ATOM     40  C   UNL     1      -2.927  -3.511  -5.894  1.00  0.00     0.031 C 
ATOM     41  C   UNL     1      -0.425   2.108  -6.367  1.00  0.00     0.029 A 
ATOM     42  C   UNL     1       0.907   2.048  -5.778  1.00  0.00     0.049 A 
ATOM     43  H   UNL     1       1.381   0.660  -4.315  1.00  0.00     0.167 HD
ATOM     44  C   UNL     1      -3.148  -2.755  -8.251  1.00  0.00     0.034 A 
ATOM     45  C   UNL     1       2.160   2.284  -6.267  1.00  0.00     0.034 A 
ATOM     46  C   UNL     1      -2.549  -1.520  -8.818  1.00  0.00     0.049 A 
ATOM     47  C   UNL     1       2.161   1.789  -7.700  1.00  0.00     0.074 A 
ATOM     48  C   UNL     1      -2.936  -0.188  -8.848  1.00  0.00     0.029 A 
ATOM     49  N   UNL     1      -1.216  -1.509  -9.221  1.00  0.00    -0.354 N 
ATOM     50  N   UNL     1       1.094   1.434  -8.363  1.00  0.00    -0.248 NA
ATOM     51  C   UNL     1       3.389   1.540  -8.436  1.00  0.00     0.031 C 
ATOM     52  C   UNL     1      -1.843   0.600  -9.330  1.00  0.00     0.029 A 
ATOM     53  C   UNL     1      -0.778  -0.242  -9.591  1.00  0.00     0.049 A 
ATOM     54  H   UNL     1      -0.646  -2.311  -9.241  1.00  0.00     0.167 HD
ATOM     55  C   UNL     1       1.468   0.661  -9.430  1.00  0.00     0.074 A 
ATOM     56  C   UNL     1       2.920   0.807  -9.457  1.00  0.00     0.031 C 
ATOM     57  C   UNL     1       0.575  -0.101 -10.143  1.00  0.00     0.034 A 
BRANCH  44  58
ATOM     58  C   UNL     1      -4.589  -3.187  -8.459  1.00  0.00     0.023 A 
ATOM     59  C   UNL     1      -5.432  -2.361  -9.226  1.00  0.00     0.012 A 
ATOM     60  C   UNL     1      -5.151  -4.408  -7.995  1.00  0.00     0.148 A 
ATOM     61  C   UNL     1      -6.775  -2.671  -9.455  1.00  0.00     0.002 A 
ATOM     62  C   UNL     1      -6.507  -4.694  -8.181  1.00  0.00     0.091 A 
ATOM     63  F   UNL     1      -4.360  -5.319  -7.409  1.00  0.00    -0.205 F 
ATOM     64  C   UNL     1      -7.321  -3.824  -8.912  1.00  0.00     0.022 A 
BRANCH  62  65
ATOM     65  S   UNL     1      -7.311  -6.123  -7.432  1.00  0.00     0.127 S 
ATOM     66  O   UNL     1      -8.568  -5.552  -6.941  1.00  0.00    -0.237 OA
ATOM     67  O   UNL     1      -7.462  -7.034  -8.563  1.00  0.00    -0.237 OA
ATOM     68  O   UNL     1      -6.416  -6.567  -6.369  1.00  0.00    -0.744 OA
ENDBRANCH  62  65
ENDBRANCH  44  58
BRANCH  45  69
ATOM     69  C   UNL     1       3.239   1.917  -5.222  1.00  0.00     0.023 A 
ATOM     70  C   UNL     1       3.240   2.644  -3.997  1.00  0.00     0.012 A 
ATOM     71  C   UNL     1       3.931   0.682  -5.231  1.00  0.00     0.148 A 
ATOM     72  C   UNL     1       3.808   2.117  -2.824  1.00  0.00     0.002 A 
ATOM     73  C   UNL     1       4.482   0.158  -4.054  1.00  0.00     0.091 A 
ATOM     74  F   UNL     1       4.006  -0.022  -6.365  1.00  0.00    -0.205 F 
ATOM     75  C   UNL     1       4.404   0.860  -2.845  1.00  0.00     0.022 A 
BRANCH  73  76
ATOM     76  S   UNL     1       5.170  -1.511  -4.047  1.00  0.00     0.127 S 
ATOM     77  O   UNL     1       5.141  -1.871  -2.628  1.00  0.00    -0.237 OA
ATOM     78  O   UNL     1       4.255  -2.281  -4.877  1.00  0.00    -0.237 OA
ATOM     79  O   UNL     1       6.505  -1.280  -4.590  1.00  0.00    -0.744 OA
ENDBRANCH  73  76
ENDBRANCH  45  69
BRANCH  57  80
ATOM     80  C   UNL     1       0.917  -0.857 -11.424  1.00  0.00     0.023 A 
ATOM     81  C   UNL     1       2.114  -0.644 -12.128  1.00  0.00     0.012 A 
ATOM     82  C   UNL     1      -0.005  -1.743 -12.043  1.00  0.00     0.148 A 
ATOM     83  C   UNL     1       2.459  -1.381 -13.264  1.00  0.00     0.002 A 
ATOM     84  C   UNL     1       0.331  -2.478 -13.172  1.00  0.00     0.091 A 
ATOM     85  F   UNL     1      -1.270  -1.810 -11.618  1.00  0.00    -0.205 F 
ATOM     86  C   UNL     1       1.579  -2.322 -13.770  1.00  0.00     0.022 A 
BRANCH  84  87
ATOM     87  S   UNL     1      -0.826  -3.617 -13.937  1.00  0.00     0.127 S 
ATOM     88  O   UNL     1      -1.221  -2.870 -15.131  1.00  0.00    -0.237 OA
ATOM     89  O   UNL     1       0.023  -4.780 -14.197  1.00  0.00    -0.237 OA
ATOM     90  O   UNL     1      -1.881  -3.844 -12.960  1.00  0.00    -0.744 OA
ENDBRANCH  84  87
ENDBRANCH  57  80
ENDBRANCH  31  32
ENDBRANCH  24  26
ENDBRANCH  23  24
ENDBRANCH  22  23
ENDBRANCH   1  22
TORSDOF 18
