REMARK SMILES COc1cccc(S(=O)(=O)[C@]2(C(=O)OCCOC(=O)c3ccc(-c4c5nc(c(-c6cccc(S(=O)(=O)[O-])c6F)c6ccc([nH]6)c(-c6cccc(S(=O)(=O)[O-])c6F)c6nc(c(-c7cccc(S(=O)(=O)[O-])c7F)c7ccc4[nH]7)C=C6)C=C5)cc3)CCC[C@@H]2C)c1
REMARK SMILES IDX 15 1 14 2 12 3 13 4 11 5 83 6 86 7 84 8 85 9 87 10 8 11 9 12
REMARK SMILES IDX 10 13 7 14 3 15 4 16 88 17 5 18 6 19 2 20 1 21 16 22 17 23
REMARK SMILES IDX 18 24 19 25 20 26 21 27 82 28 22 29 81 30 23 31 24 32 25 33
REMARK SMILES IDX 75 34 26 35 80 36 74 37 76 38 27 39 79 40 73 41 72 42 28 44
REMARK SMILES IDX 60 45 40 46 59 47 41 48 44 49 58 50 77 51 42 52 43 53 57 55
REMARK SMILES IDX 78 56 45 57 29 58 30 59 38 60 31 61 33 62 39 63 32 64 34 65
REMARK SMILES IDX 35 66 36 67 37 68 61 69 62 70 70 71 63 72 65 73 71 74 64 75
REMARK SMILES IDX 66 76 67 77 68 78 69 79 46 80 47 81 55 82 48 83 50 84 56 85
REMARK SMILES IDX 49 86 51 87 52 88 53 89 54 90
REMARK H PARENT 76 43 44 54
REMARK Flexibility Score: inf
ROOT
ATOM      1  C   UNL     1       5.549   0.475   2.080  1.00  0.00     0.274 C 
ENDROOT
BRANCH   1   2
ATOM      2  O   UNL     1       5.162  -0.467   1.052  1.00  0.00    -0.461 OA
BRANCH   2   3
ATOM      3  C   UNL     1       5.303  -1.783   1.396  1.00  0.00     0.328 C 
ATOM      4  O   UNL     1       5.546  -2.141   2.541  1.00  0.00    -0.250 OA
BRANCH   3   5
ATOM      5  C   UNL     1       5.367  -2.705   0.186  1.00  0.00     0.176 C 
ATOM      6  C   UNL     1       5.088  -2.050  -1.177  1.00  0.00     0.036 C 
ATOM      7  C   UNL     1       6.883  -3.095   0.079  1.00  0.00     0.019 C 
ATOM      8  C   UNL     1       6.395  -1.417  -1.643  1.00  0.00     0.003 C 
ATOM      9  C   UNL     1       7.498  -1.950  -0.740  1.00  0.00     0.005 C 
ATOM     10  C   UNL     1       7.231  -4.441  -0.555  1.00  0.00     0.010 C 
BRANCH   5  11
ATOM     11  S   UNL     1       4.303  -4.115   0.479  1.00  0.00     0.195 S 
ATOM     12  O   UNL     1       4.606  -4.682   1.779  1.00  0.00    -0.222 OA
ATOM     13  O   UNL     1       4.392  -4.965  -0.700  1.00  0.00    -0.222 OA
BRANCH  11  14
ATOM     14  C   UNL     1       2.573  -3.688   0.524  1.00  0.00     0.072 A 
ATOM     15  C   UNL     1       0.675  -2.223   0.269  1.00  0.00     0.120 A 
ATOM     16  C   UNL     1      -0.183  -3.306   0.471  1.00  0.00     0.046 A 
ATOM     17  C   UNL     1       2.063  -2.406   0.310  1.00  0.00     0.066 A 
ATOM     18  C   UNL     1       0.325  -4.579   0.709  1.00  0.00     0.005 A 
ATOM     19  C   UNL     1       1.701  -4.771   0.731  1.00  0.00     0.020 A 
BRANCH  15  20
ATOM     20  O   UNL     1       0.035  -1.028   0.088  1.00  0.00    -0.497 OA
ATOM     21  C   UNL     1       0.732  -0.035  -0.650  1.00  0.00     0.278 C 
ENDBRANCH  15  20
ENDBRANCH  11  14
ENDBRANCH   5  11
ENDBRANCH   3   5
ENDBRANCH   2   3
ENDBRANCH   1   2
BRANCH   1  22
ATOM     22  C   UNL     1       4.355   0.983   2.878  1.00  0.00     0.275 C 
BRANCH  22  23
ATOM     23  O   UNL     1       3.680  -0.117   3.505  1.00  0.00    -0.458 OA
BRANCH  23  24
ATOM     24  C   UNL     1       2.344  -0.176   3.294  1.00  0.00     0.338 C 
ATOM     25  O   UNL     1       1.680   0.640   2.677  1.00  0.00    -0.246 OA
BRANCH  24  26
ATOM     26  C   UNL     1       1.767  -1.399   3.892  1.00  0.00     0.060 A 
ATOM     27  C   UNL     1       2.421  -2.628   3.816  1.00  0.00     0.016 A 
ATOM     28  C   UNL     1       0.475  -1.337   4.417  1.00  0.00     0.016 A 
ATOM     29  C   UNL     1       1.736  -3.803   4.133  1.00  0.00     0.010 A 
ATOM     30  C   UNL     1      -0.168  -2.507   4.835  1.00  0.00     0.010 A 
ATOM     31  C   UNL     1       0.425  -3.763   4.634  1.00  0.00    -0.014 A 
BRANCH  31  32
ATOM     32  C   UNL     1      -0.330  -5.022   4.910  1.00  0.00     0.031 A 
ATOM     33  C   UNL     1      -1.647  -5.307   4.222  1.00  0.00     0.074 A 
ATOM     34  C   UNL     1       0.162  -5.933   5.773  1.00  0.00     0.049 A 
ATOM     35  N   UNL     1      -2.432  -6.351   4.340  1.00  0.00    -0.248 NA
ATOM     36  C   UNL     1      -2.142  -4.307   3.263  1.00  0.00     0.031 C 
ATOM     37  C   UNL     1       1.422  -5.810   6.507  1.00  0.00     0.029 A 
ATOM     38  N   UNL     1      -0.350  -7.138   6.195  1.00  0.00    -0.354 N 
ATOM     39  C   UNL     1      -3.497  -6.135   3.472  1.00  0.00     0.074 A 
ATOM     40  C   UNL     1      -3.276  -4.852   2.845  1.00  0.00     0.031 C 
ATOM     41  C   UNL     1       1.586  -6.890   7.284  1.00  0.00     0.029 A 
ATOM     42  C   UNL     1       0.413  -7.750   7.161  1.00  0.00     0.049 A 
ATOM     43  H   UNL     1      -1.183  -7.524   5.840  1.00  0.00     0.167 HD
ATOM     44  C   UNL     1      -4.555  -6.933   3.200  1.00  0.00     0.034 A 
ATOM     45  C   UNL     1       0.185  -8.851   7.904  1.00  0.00     0.034 A 
ATOM     46  C   UNL     1      -4.816  -8.195   3.836  1.00  0.00     0.049 A 
ATOM     47  C   UNL     1      -1.073  -9.643   7.690  1.00  0.00     0.074 A 
ATOM     48  C   UNL     1      -5.868  -9.067   3.616  1.00  0.00     0.029 A 
ATOM     49  N   UNL     1      -4.038  -8.751   4.837  1.00  0.00    -0.354 N 
ATOM     50  N   UNL     1      -2.007  -9.478   6.787  1.00  0.00    -0.248 NA
ATOM     51  C   UNL     1      -1.305 -10.779   8.595  1.00  0.00     0.031 C 
ATOM     52  C   UNL     1      -5.744 -10.137   4.509  1.00  0.00     0.029 A 
ATOM     53  C   UNL     1      -4.605  -9.937   5.272  1.00  0.00     0.049 A 
ATOM     54  H   UNL     1      -3.204  -8.362   5.187  1.00  0.00     0.167 HD
ATOM     55  C   UNL     1      -2.926 -10.500   6.998  1.00  0.00     0.074 A 
ATOM     56  C   UNL     1      -2.425 -11.292   8.102  1.00  0.00     0.031 C 
ATOM     57  C   UNL     1      -4.087 -10.746   6.344  1.00  0.00     0.034 A 
BRANCH  44  58
ATOM     58  C   UNL     1      -5.510  -6.481   2.129  1.00  0.00     0.023 A 
ATOM     59  C   UNL     1      -5.175  -6.705   0.778  1.00  0.00     0.012 A 
ATOM     60  C   UNL     1      -6.752  -5.904   2.451  1.00  0.00     0.148 A 
ATOM     61  C   UNL     1      -6.062  -6.356  -0.238  1.00  0.00     0.002 A 
ATOM     62  C   UNL     1      -7.641  -5.578   1.433  1.00  0.00     0.091 A 
ATOM     63  F   UNL     1      -7.035  -5.675   3.741  1.00  0.00    -0.205 F 
ATOM     64  C   UNL     1      -7.297  -5.802   0.088  1.00  0.00     0.022 A 
BRANCH  62  65
ATOM     65  S   UNL     1      -9.272  -4.898   1.754  1.00  0.00     0.127 S 
ATOM     66  O   UNL     1      -9.098  -3.508   1.335  1.00  0.00    -0.237 OA
ATOM     67  O   UNL     1     -10.122  -5.698   0.873  1.00  0.00    -0.237 OA
ATOM     68  O   UNL     1      -9.515  -5.097   3.176  1.00  0.00    -0.744 OA
ENDBRANCH  62  65
ENDBRANCH  44  58
BRANCH  45  69
ATOM     69  C   UNL     1       1.185  -9.258   8.931  1.00  0.00     0.023 A 
ATOM     70  C   UNL     1       1.933 -10.435   8.750  1.00  0.00     0.012 A 
ATOM     71  C   UNL     1       1.439  -8.448  10.056  1.00  0.00     0.148 A 
ATOM     72  C   UNL     1       2.914 -10.800   9.674  1.00  0.00     0.002 A 
ATOM     73  C   UNL     1       2.462  -8.782  10.935  1.00  0.00     0.091 A 
ATOM     74  F   UNL     1       0.689  -7.351  10.238  1.00  0.00    -0.205 F 
ATOM     75  C   UNL     1       3.191  -9.965  10.755  1.00  0.00     0.022 A 
BRANCH  73  76
ATOM     76  S   UNL     1       2.969  -7.660  12.244  1.00  0.00     0.127 S 
ATOM     77  O   UNL     1       2.235  -8.183  13.392  1.00  0.00    -0.237 OA
ATOM     78  O   UNL     1       4.417  -7.868  12.293  1.00  0.00    -0.237 OA
ATOM     79  O   UNL     1       2.578  -6.336  11.777  1.00  0.00    -0.744 OA
ENDBRANCH  73  76
ENDBRANCH  45  69
BRANCH  57  80
ATOM     80  C   UNL     1      -4.909 -11.924   6.797  1.00  0.00     0.023 A 
ATOM     81  C   UNL     1      -5.643 -11.834   7.995  1.00  0.00     0.012 A 
ATOM     82  C   UNL     1      -5.012 -13.085   6.008  1.00  0.00     0.148 A 
ATOM     83  C   UNL     1      -6.448 -12.893   8.415  1.00  0.00     0.002 A 
ATOM     84  C   UNL     1      -5.848 -14.120   6.412  1.00  0.00     0.091 A 
ATOM     85  F   UNL     1      -4.288 -13.164   4.882  1.00  0.00    -0.205 F 
ATOM     86  C   UNL     1      -6.560 -14.030   7.618  1.00  0.00     0.022 A 
BRANCH  84  87
ATOM     87  S   UNL     1      -6.113 -15.576   5.392  1.00  0.00     0.127 S 
ATOM     88  O   UNL     1      -5.199 -16.540   6.002  1.00  0.00    -0.237 OA
ATOM     89  O   UNL     1      -7.533 -15.863   5.608  1.00  0.00    -0.237 OA
ATOM     90  O   UNL     1      -5.788 -15.165   4.033  1.00  0.00    -0.744 OA
ENDBRANCH  84  87
ENDBRANCH  57  80
ENDBRANCH  31  32
ENDBRANCH  24  26
ENDBRANCH  23  24
ENDBRANCH  22  23
ENDBRANCH   1  22
TORSDOF 17
