REMARK SMILES CS(=O)(=O)c1ccc(-c2cc(Cl)cnc2-c2ccc(C(=O)OCCOC(=O)c3ccc(-c4c5nc(c(-c6cccc(S(=O)(=O)[O-])c6F)c6ccc([nH]6)c(-c6cccc(S(=O)(=O)[O-])c6F)c6nc(c(-c7cccc(S(=O)(=O)[O-])c7F)c7ccc4[nH]7)C=C6)C=C5)cc3)nc2)cc1
REMARK SMILES IDX 23 1 22 2 20 3 21 4 19 5 16 6 17 7 92 8 18 9 91 10 15 11
REMARK SMILES IDX 9 12 10 13 11 14 14 15 12 16 13 17 8 18 5 19 6 20 94 21 7 22
REMARK SMILES IDX 93 23 2 24 1 25 3 26 4 27 24 28 25 29 26 30 27 31 28 32
REMARK SMILES IDX 29 33 90 34 30 35 89 36 31 37 32 38 33 39 83 40 34 41 88 42
REMARK SMILES IDX 82 43 84 44 35 45 87 46 81 47 80 48 36 50 68 51 48 52 67 53
REMARK SMILES IDX 49 54 52 55 66 56 85 57 50 58 51 59 65 61 86 62 53 63 37 64
REMARK SMILES IDX 38 65 46 66 39 67 41 68 47 69 40 70 42 71 43 72 44 73 45 74
REMARK SMILES IDX 69 75 70 76 78 77 71 78 73 79 79 80 72 81 74 82 75 83 76 84
REMARK SMILES IDX 77 85 54 86 55 87 63 88 56 89 58 90 64 91 57 92 59 93 60 94
REMARK SMILES IDX 61 95 62 96
REMARK H PARENT 84 49 52 60
REMARK Flexibility Score: inf
ROOT
ATOM      1  C   UNL     1       1.606  -3.101  -5.663  1.00  0.00     0.275 C 
ENDROOT
BRANCH   1   2
ATOM      2  O   UNL     1       2.137  -3.647  -4.439  1.00  0.00    -0.457 OA
BRANCH   2   3
ATOM      3  C   UNL     1       1.197  -4.033  -3.535  1.00  0.00     0.357 C 
ATOM      4  O   UNL     1       0.003  -3.816  -3.617  1.00  0.00    -0.244 OA
BRANCH   3   5
ATOM      5  C   UNL     1       1.811  -4.827  -2.426  1.00  0.00     0.148 A 
ATOM      6  C   UNL     1       2.662  -6.257  -0.230  1.00  0.00     0.019 A 
ATOM      7  C   UNL     1       3.506  -5.299  -0.811  1.00  0.00     0.014 A 
ATOM      8  C   UNL     1       1.445  -6.488  -0.855  1.00  0.00     0.122 A 
ATOM      9  C   UNL     1       3.086  -4.582  -1.937  1.00  0.00     0.037 A 
ATOM     10  N   UNL     1       0.986  -5.760  -1.889  1.00  0.00    -0.249 NA
BRANCH   6  11
ATOM     11  C   UNL     1       2.908  -6.859   1.080  1.00  0.00     0.080 A 
ATOM     12  C   UNL     1       2.535  -6.191   2.270  1.00  0.00     0.010 A 
ATOM     13  C   UNL     1       2.720  -6.875   3.478  1.00  0.00     0.033 A 
ATOM     14  C   UNL     1       3.232  -8.169   3.466  1.00  0.00     0.060 A 
ATOM     15  N   UNL     1       3.416  -8.116   1.056  1.00  0.00    -0.254 NA
ATOM     16  Cl  UNL     1       3.454  -9.029   4.935  1.00  0.00    -0.083 Cl
ATOM     17  C   UNL     1       3.558  -8.744   2.248  1.00  0.00     0.132 A 
BRANCH  12  18
ATOM     18  C   UNL     1       1.969  -4.830   2.251  1.00  0.00    -0.016 A 
ATOM     19  C   UNL     1       1.015  -2.213   1.918  1.00  0.00     0.067 A 
ATOM     20  C   UNL     1       0.195  -3.289   1.584  1.00  0.00     0.021 A 
ATOM     21  C   UNL     1       2.280  -2.425   2.470  1.00  0.00     0.021 A 
ATOM     22  C   UNL     1       0.670  -4.590   1.765  1.00  0.00     0.010 A 
ATOM     23  C   UNL     1       2.755  -3.729   2.629  1.00  0.00     0.010 A 
BRANCH  19  24
ATOM     24  S   UNL     1       0.438  -0.553   1.661  1.00  0.00     0.175 S 
ATOM     25  C   UNL     1       0.985  -0.180   0.014  1.00  0.00     0.163 C 
ATOM     26  O   UNL     1       1.167   0.305   2.578  1.00  0.00    -0.224 OA
ATOM     27  O   UNL     1      -1.011  -0.578   1.668  1.00  0.00    -0.224 OA
ENDBRANCH  19  24
ENDBRANCH  12  18
ENDBRANCH   6  11
ENDBRANCH   3   5
ENDBRANCH   2   3
ENDBRANCH   1   2
BRANCH   1  28
ATOM     28  C   UNL     1       1.651  -4.130  -6.798  1.00  0.00     0.275 C 
BRANCH  28  29
ATOM     29  O   UNL     1       0.736  -5.221  -6.583  1.00  0.00    -0.458 OA
BRANCH  29  30
ATOM     30  C   UNL     1       1.276  -6.313  -5.992  1.00  0.00     0.338 C 
ATOM     31  O   UNL     1       2.434  -6.451  -5.629  1.00  0.00    -0.246 OA
BRANCH  30  32
ATOM     32  C   UNL     1       0.238  -7.326  -5.743  1.00  0.00     0.060 A 
ATOM     33  C   UNL     1      -0.208  -7.488  -4.435  1.00  0.00     0.016 A 
ATOM     34  C   UNL     1      -0.193  -8.199  -6.740  1.00  0.00     0.016 A 
ATOM     35  C   UNL     1      -1.031  -8.554  -4.090  1.00  0.00     0.010 A 
ATOM     36  C   UNL     1      -1.067  -9.245  -6.405  1.00  0.00     0.010 A 
ATOM     37  C   UNL     1      -1.469  -9.449  -5.071  1.00  0.00    -0.014 A 
BRANCH  37  38
ATOM     38  C   UNL     1      -2.310 -10.611  -4.679  1.00  0.00     0.031 A 
ATOM     39  C   UNL     1      -1.782 -12.012  -4.828  1.00  0.00     0.074 A 
ATOM     40  C   UNL     1      -3.540 -10.409  -4.165  1.00  0.00     0.049 A 
ATOM     41  N   UNL     1      -2.393 -13.151  -4.624  1.00  0.00    -0.248 NA
ATOM     42  C   UNL     1      -0.384 -12.153  -5.268  1.00  0.00     0.031 C 
ATOM     43  C   UNL     1      -4.160  -9.101  -3.945  1.00  0.00     0.029 A 
ATOM     44  N   UNL     1      -4.493 -11.303  -3.741  1.00  0.00    -0.354 N 
ATOM     45  C   UNL     1      -1.478 -14.141  -4.964  1.00  0.00     0.074 A 
ATOM     46  C   UNL     1      -0.267 -13.469  -5.385  1.00  0.00     0.031 C 
ATOM     47  C   UNL     1      -5.384  -9.276  -3.423  1.00  0.00     0.029 A 
ATOM     48  C   UNL     1      -5.659 -10.705  -3.321  1.00  0.00     0.049 A 
ATOM     49  H   UNL     1      -4.355 -12.278  -3.739  1.00  0.00     0.167 HD
ATOM     50  C   UNL     1      -1.626 -15.486  -4.916  1.00  0.00     0.034 A 
ATOM     51  C   UNL     1      -6.828 -11.245  -2.924  1.00  0.00     0.034 A 
ATOM     52  C   UNL     1      -2.808 -16.154  -4.439  1.00  0.00     0.049 A 
ATOM     53  C   UNL     1      -6.965 -12.743  -2.880  1.00  0.00     0.074 A 
ATOM     54  C   UNL     1      -3.042 -17.513  -4.326  1.00  0.00     0.029 A 
ATOM     55  N   UNL     1      -3.950 -15.513  -3.984  1.00  0.00    -0.354 N 
ATOM     56  N   UNL     1      -6.068 -13.661  -3.148  1.00  0.00    -0.248 NA
ATOM     57  C   UNL     1      -8.268 -13.279  -2.461  1.00  0.00     0.031 C 
ATOM     58  C   UNL     1      -4.330 -17.694  -3.808  1.00  0.00     0.029 A 
ATOM     59  C   UNL     1      -4.892 -16.447  -3.588  1.00  0.00     0.049 A 
ATOM     60  H   UNL     1      -4.073 -14.537  -3.948  1.00  0.00     0.167 HD
ATOM     61  C   UNL     1      -6.688 -14.881  -2.905  1.00  0.00     0.074 A 
ATOM     62  C   UNL     1      -8.029 -14.584  -2.444  1.00  0.00     0.031 C 
ATOM     63  C   UNL     1      -6.200 -16.135  -3.071  1.00  0.00     0.034 A 
BRANCH  50  64
ATOM     64  C   UNL     1      -0.465 -16.335  -5.363  1.00  0.00     0.023 A 
ATOM     65  C   UNL     1       0.657 -16.477  -4.522  1.00  0.00     0.012 A 
ATOM     66  C   UNL     1      -0.507 -17.035  -6.585  1.00  0.00     0.148 A 
ATOM     67  C   UNL     1       1.731 -17.281  -4.902  1.00  0.00     0.002 A 
ATOM     68  C   UNL     1       0.551 -17.864  -6.940  1.00  0.00     0.091 A 
ATOM     69  F   UNL     1      -1.572 -16.868  -7.382  1.00  0.00    -0.205 F 
ATOM     70  C   UNL     1       1.674 -17.981  -6.105  1.00  0.00     0.022 A 
BRANCH  68  71
ATOM     71  S   UNL     1       0.537 -18.859  -8.436  1.00  0.00     0.127 S 
ATOM     72  O   UNL     1       1.466 -18.122  -9.291  1.00  0.00    -0.237 OA
ATOM     73  O   UNL     1       1.041 -20.147  -7.958  1.00  0.00    -0.237 OA
ATOM     74  O   UNL     1      -0.848 -18.883  -8.886  1.00  0.00    -0.744 OA
ENDBRANCH  68  71
ENDBRANCH  50  64
BRANCH  51  75
ATOM     75  C   UNL     1      -7.952 -10.361  -2.506  1.00  0.00     0.023 A 
ATOM     76  C   UNL     1      -8.338 -10.327  -1.152  1.00  0.00     0.012 A 
ATOM     77  C   UNL     1      -8.618  -9.531  -3.429  1.00  0.00     0.148 A 
ATOM     78  C   UNL     1      -9.380  -9.500  -0.729  1.00  0.00     0.002 A 
ATOM     79  C   UNL     1      -9.617  -8.669  -2.992  1.00  0.00     0.091 A 
ATOM     80  F   UNL     1      -8.257  -9.596  -4.719  1.00  0.00    -0.205 F 
ATOM     81  C   UNL     1     -10.010  -8.662  -1.645  1.00  0.00     0.022 A 
BRANCH  79  82
ATOM     82  S   UNL     1     -10.382  -7.466  -4.086  1.00  0.00     0.127 S 
ATOM     83  O   UNL     1     -11.668  -8.095  -4.372  1.00  0.00    -0.237 OA
ATOM     84  O   UNL     1     -10.454  -6.277  -3.235  1.00  0.00    -0.237 OA
ATOM     85  O   UNL     1      -9.469  -7.335  -5.214  1.00  0.00    -0.744 OA
ENDBRANCH  79  82
ENDBRANCH  51  75
BRANCH  63  86
ATOM     86  C   UNL     1      -7.106 -17.286  -2.727  1.00  0.00     0.023 A 
ATOM     87  C   UNL     1      -8.161 -17.625  -3.597  1.00  0.00     0.012 A 
ATOM     88  C   UNL     1      -6.869 -18.075  -1.584  1.00  0.00     0.148 A 
ATOM     89  C   UNL     1      -8.983 -18.716  -3.322  1.00  0.00     0.002 A 
ATOM     90  C   UNL     1      -7.667 -19.187  -1.339  1.00  0.00     0.091 A 
ATOM     91  F   UNL     1      -5.875 -17.723  -0.757  1.00  0.00    -0.205 F 
ATOM     92  C   UNL     1      -8.730 -19.503  -2.201  1.00  0.00     0.022 A 
BRANCH  90  93
ATOM     93  S   UNL     1      -7.354 -20.305   0.033  1.00  0.00     0.127 S 
ATOM     94  O   UNL     1      -8.391 -19.909   0.984  1.00  0.00    -0.237 OA
ATOM     95  O   UNL     1      -7.558 -21.618  -0.579  1.00  0.00    -0.237 OA
ATOM     96  O   UNL     1      -5.983 -20.044   0.452  1.00  0.00    -0.744 OA
ENDBRANCH  90  93
ENDBRANCH  63  86
ENDBRANCH  37  38
ENDBRANCH  30  32
ENDBRANCH  29  30
ENDBRANCH  28  29
ENDBRANCH   1  28
TORSDOF 17
