REMARK SMILES COc1cc(NS(=O)(=O)c2cc(C)c(C(=O)OCCOC(=O)c3ccc(-c4c5nc(c(-c6cccc(S(=O)(=O)[O-])c6F)c6ccc([nH]6)c(-c6cccc(S(=O)(=O)[O-])c6F)c6nc(c(-c7cccc(S(=O)(=O)[O-])c7F)c7ccc4[nH]7)C=C6)C=C5)cc3)s2)cc(OC)c1
REMARK SMILES IDX 18 1 17 2 15 3 16 4 14 5 10 6 11 7 86 8 12 9 13 10 7 11 8 12
REMARK SMILES IDX 9 13 6 14 5 16 3 17 4 18 91 19 88 20 87 21 2 22 1 23 89 24
REMARK SMILES IDX 90 25 19 26 20 27 21 28 22 29 23 30 24 31 85 32 25 33 84 34
REMARK SMILES IDX 26 35 27 36 28 37 78 38 29 39 83 40 77 41 79 42 30 43 82 44
REMARK SMILES IDX 76 45 75 46 31 48 63 49 43 50 62 51 44 52 47 53 61 54 80 55
REMARK SMILES IDX 45 56 46 57 60 59 81 60 48 61 32 62 33 63 41 64 34 65 36 66
REMARK SMILES IDX 42 67 35 68 37 69 38 70 39 71 40 72 64 73 65 74 73 75 66 76
REMARK SMILES IDX 68 77 74 78 67 79 69 80 70 81 71 82 72 83 49 84 50 85 58 86
REMARK SMILES IDX 51 87 53 88 59 89 52 90 54 91 55 92 56 93 57 94
REMARK H PARENT 6 15 79 47 47 58
REMARK Flexibility Score: inf
ROOT
ATOM      1  C   UNL     1      -3.322   0.661   2.173  1.00  0.00     0.275 C 
ENDROOT
BRANCH   1   2
ATOM      2  O   UNL     1      -3.351  -0.578   1.432  1.00  0.00    -0.458 OA
BRANCH   2   3
ATOM      3  C   UNL     1      -3.901  -0.539   0.177  1.00  0.00     0.348 C 
ATOM      4  O   UNL     1      -4.482   0.433  -0.270  1.00  0.00    -0.245 OA
BRANCH   3   5
ATOM      5  C   UNL     1      -3.595  -1.768  -0.561  1.00  0.00     0.116 A 
ATOM      6  C   UNL     1      -2.844  -3.130  -2.487  1.00  0.00     0.141 A 
ATOM      7  C   UNL     1      -2.773  -3.825  -1.299  1.00  0.00     0.038 A 
ATOM      8  S   UNL     1      -3.731  -1.694  -2.285  1.00  0.00    -0.115 S 
ATOM      9  C   UNL     1      -3.167  -3.033  -0.162  1.00  0.00    -0.024 A 
ATOM     10  C   UNL     1      -3.034  -3.549   1.234  1.00  0.00     0.046 C 
BRANCH   6  11
ATOM     11  S   UNL     1      -2.146  -3.442  -4.091  1.00  0.00     0.271 S 
ATOM     12  O   UNL     1      -3.239  -3.302  -5.030  1.00  0.00    -0.200 OA
ATOM     13  O   UNL     1      -1.451  -4.705  -3.954  1.00  0.00    -0.200 OA
BRANCH  11  14
ATOM     14  N   UNL     1      -1.011  -2.238  -4.466  1.00  0.00    -0.279 N 
ATOM     15  H   UNL     1      -1.204  -1.591  -5.182  1.00  0.00     0.180 HD
BRANCH  14  16
ATOM     16  C   UNL     1       0.232  -2.155  -3.745  1.00  0.00     0.056 A 
ATOM     17  C   UNL     1       1.496  -1.842  -1.701  1.00  0.00     0.124 A 
ATOM     18  C   UNL     1       0.283  -2.061  -2.356  1.00  0.00     0.073 A 
ATOM     19  C   UNL     1       2.678  -1.717  -2.422  1.00  0.00     0.093 A 
ATOM     20  C   UNL     1       2.643  -1.780  -3.813  1.00  0.00     0.124 A 
ATOM     21  C   UNL     1       1.420  -1.996  -4.468  1.00  0.00     0.073 A 
BRANCH  17  22
ATOM     22  O   UNL     1       1.462  -1.807  -0.332  1.00  0.00    -0.497 OA
ATOM     23  C   UNL     1       2.115  -0.660   0.210  1.00  0.00     0.278 C 
ENDBRANCH  17  22
BRANCH  20  24
ATOM     24  O   UNL     1       3.732  -1.654  -4.633  1.00  0.00    -0.497 OA
ATOM     25  C   UNL     1       4.945  -1.224  -4.021  1.00  0.00     0.278 C 
ENDBRANCH  20  24
ENDBRANCH  14  16
ENDBRANCH  11  14
ENDBRANCH   6  11
ENDBRANCH   3   5
ENDBRANCH   2   3
ENDBRANCH   1   2
BRANCH   1  26
ATOM     26  C   UNL     1      -1.905   1.253   2.240  1.00  0.00     0.275 C 
BRANCH  26  27
ATOM     27  O   UNL     1      -1.525   1.926   1.024  1.00  0.00    -0.458 OA
BRANCH  27  28
ATOM     28  C   UNL     1      -1.040   1.107   0.064  1.00  0.00     0.338 C 
ATOM     29  O   UNL     1      -0.901  -0.101   0.158  1.00  0.00    -0.246 OA
BRANCH  28  30
ATOM     30  C   UNL     1      -0.794   1.829  -1.194  1.00  0.00     0.060 A 
ATOM     31  C   UNL     1      -1.351   1.282  -2.352  1.00  0.00     0.016 A 
ATOM     32  C   UNL     1       0.017   2.960  -1.272  1.00  0.00     0.016 A 
ATOM     33  C   UNL     1      -1.113   1.855  -3.594  1.00  0.00     0.010 A 
ATOM     34  C   UNL     1       0.252   3.546  -2.523  1.00  0.00     0.010 A 
ATOM     35  C   UNL     1      -0.316   2.999  -3.687  1.00  0.00    -0.014 A 
BRANCH  35  36
ATOM     36  C   UNL     1      -0.131   3.646  -5.005  1.00  0.00     0.031 A 
ATOM     37  C   UNL     1       1.172   3.527  -5.736  1.00  0.00     0.074 A 
ATOM     38  C   UNL     1      -1.151   4.351  -5.529  1.00  0.00     0.049 A 
ATOM     39  N   UNL     1       1.543   4.100  -6.850  1.00  0.00    -0.248 NA
ATOM     40  C   UNL     1       2.192   2.651  -5.138  1.00  0.00     0.031 C 
ATOM     41  C   UNL     1      -2.468   4.508  -4.909  1.00  0.00     0.029 A 
ATOM     42  N   UNL     1      -1.237   5.081  -6.687  1.00  0.00    -0.354 N 
ATOM     43  C   UNL     1       2.852   3.693  -7.069  1.00  0.00     0.074 A 
ATOM     44  C   UNL     1       3.209   2.813  -5.975  1.00  0.00     0.031 C 
ATOM     45  C   UNL     1      -3.223   5.305  -5.680  1.00  0.00     0.029 A 
ATOM     46  C   UNL     1      -2.433   5.747  -6.824  1.00  0.00     0.049 A 
ATOM     47  H   UNL     1      -0.514   5.125  -7.354  1.00  0.00     0.167 HD
ATOM     48  C   UNL     1       3.672   4.019  -8.096  1.00  0.00     0.034 A 
ATOM     49  C   UNL     1      -2.835   6.638  -7.750  1.00  0.00     0.034 A 
ATOM     50  C   UNL     1       3.288   4.862  -9.197  1.00  0.00     0.049 A 
ATOM     51  C   UNL     1      -1.900   6.987  -8.873  1.00  0.00     0.074 A 
ATOM     52  C   UNL     1       4.034   5.221 -10.306  1.00  0.00     0.029 A 
ATOM     53  N   UNL     1       2.052   5.479  -9.331  1.00  0.00    -0.354 N 
ATOM     54  N   UNL     1      -0.693   6.531  -9.110  1.00  0.00    -0.248 NA
ATOM     55  C   UNL     1      -2.384   7.952  -9.870  1.00  0.00     0.031 C 
ATOM     56  C   UNL     1       3.254   6.066 -11.103  1.00  0.00     0.029 A 
ATOM     57  C   UNL     1       2.016   6.220 -10.499  1.00  0.00     0.049 A 
ATOM     58  H   UNL     1       1.310   5.400  -8.689  1.00  0.00     0.167 HD
ATOM     59  C   UNL     1      -0.286   7.127 -10.297  1.00  0.00     0.074 A 
ATOM     60  C   UNL     1      -1.381   7.968 -10.739  1.00  0.00     0.031 C 
ATOM     61  C   UNL     1       0.894   7.003 -10.953  1.00  0.00     0.034 A 
BRANCH  48  62
ATOM     62  C   UNL     1       5.063   3.444  -8.095  1.00  0.00     0.023 A 
ATOM     63  C   UNL     1       5.258   2.093  -8.441  1.00  0.00     0.012 A 
ATOM     64  C   UNL     1       6.180   4.257  -7.819  1.00  0.00     0.148 A 
ATOM     65  C   UNL     1       6.543   1.552  -8.492  1.00  0.00     0.002 A 
ATOM     66  C   UNL     1       7.460   3.720  -7.905  1.00  0.00     0.091 A 
ATOM     67  F   UNL     1       5.972   5.534  -7.466  1.00  0.00    -0.205 F 
ATOM     68  C   UNL     1       7.643   2.367  -8.235  1.00  0.00     0.022 A 
BRANCH  66  69
ATOM     69  S   UNL     1       8.938   4.708  -7.650  1.00  0.00     0.127 S 
ATOM     70  O   UNL     1       9.361   4.266  -6.322  1.00  0.00    -0.237 OA
ATOM     71  O   UNL     1       9.803   4.264  -8.743  1.00  0.00    -0.237 OA
ATOM     72  O   UNL     1       8.511   6.097  -7.744  1.00  0.00    -0.744 OA
ENDBRANCH  66  69
ENDBRANCH  48  62
BRANCH  49  73
ATOM     73  C   UNL     1      -4.199   7.230  -7.659  1.00  0.00     0.023 A 
ATOM     74  C   UNL     1      -5.180   6.859  -8.597  1.00  0.00     0.012 A 
ATOM     75  C   UNL     1      -4.545   8.111  -6.615  1.00  0.00     0.148 A 
ATOM     76  C   UNL     1      -6.476   7.368  -8.508  1.00  0.00     0.002 A 
ATOM     77  C   UNL     1      -5.851   8.571  -6.499  1.00  0.00     0.091 A 
ATOM     78  F   UNL     1      -3.591   8.470  -5.743  1.00  0.00    -0.205 F 
ATOM     79  C   UNL     1      -6.816   8.211  -7.452  1.00  0.00     0.022 A 
BRANCH  77  80
ATOM     80  S   UNL     1      -6.399   9.549  -5.095  1.00  0.00     0.127 S 
ATOM     81  O   UNL     1      -6.481  10.886  -5.675  1.00  0.00    -0.237 OA
ATOM     82  O   UNL     1      -7.689   8.935  -4.776  1.00  0.00    -0.237 OA
ATOM     83  O   UNL     1      -5.380   9.360  -4.070  1.00  0.00    -0.744 OA
ENDBRANCH  77  80
ENDBRANCH  49  73
BRANCH  61  84
ATOM     84  C   UNL     1       1.061   7.764 -12.240  1.00  0.00     0.023 A 
ATOM     85  C   UNL     1       1.304   9.150 -12.201  1.00  0.00     0.012 A 
ATOM     86  C   UNL     1       1.075   7.089 -13.476  1.00  0.00     0.148 A 
ATOM     87  C   UNL     1       1.542   9.859 -13.378  1.00  0.00     0.002 A 
ATOM     88  C   UNL     1       1.355   7.794 -14.640  1.00  0.00     0.091 A 
ATOM     89  F   UNL     1       0.822   5.772 -13.489  1.00  0.00    -0.205 F 
ATOM     90  C   UNL     1       1.581   9.180 -14.594  1.00  0.00     0.022 A 
BRANCH  88  91
ATOM     91  S   UNL     1       1.515   6.990 -16.239  1.00  0.00     0.127 S 
ATOM     92  O   UNL     1       0.309   7.449 -16.925  1.00  0.00    -0.237 OA
ATOM     93  O   UNL     1       2.762   7.561 -16.749  1.00  0.00    -0.237 OA
ATOM     94  O   UNL     1       1.573   5.561 -15.966  1.00  0.00    -0.744 OA
ENDBRANCH  88  91
ENDBRANCH  61  84
ENDBRANCH  35  36
ENDBRANCH  28  30
ENDBRANCH  27  28
ENDBRANCH  26  27
ENDBRANCH   1  26
TORSDOF 19
