REMARK SMILES C[C@@H]1[C@@H](C(=O)OCCOC(=O)c2ccc(-c3c4nc(c(-c5cccc(S(=O)(=O)[O-])c5F)c5ccc([nH]5)c(-c5cccc(S(=O)(=O)[O-])c5F)c5nc(c(-c6cccc(S(=O)(=O)[O-])c6F)c6ccc3[nH]6)C=C5)C=C4)cc2)CCN1C(=O)[C@@H]1CCCN(C(N)=O)C1
REMARK SMILES IDX 7 1 6 2 4 3 5 4 3 5 1 6 2 7 77 8 75 9 76 10 78 11 79 12
REMARK SMILES IDX 80 13 81 14 88 15 82 16 84 17 83 18 85 19 86 20 87 21 8 24
REMARK SMILES IDX 9 25 10 26 11 27 12 28 13 29 74 30 14 31 73 32 15 33 16 34
REMARK SMILES IDX 17 35 67 36 18 37 72 38 66 39 68 40 19 41 71 42 65 43 64 44
REMARK SMILES IDX 20 46 52 47 32 48 51 49 33 50 36 51 50 52 69 53 34 54 35 55
REMARK SMILES IDX 49 57 70 58 37 59 21 60 22 61 30 62 23 63 25 64 31 65 24 66
REMARK SMILES IDX 26 67 27 68 28 69 29 70 53 71 54 72 62 73 55 74 57 75 63 76
REMARK SMILES IDX 56 77 58 78 59 79 60 80 61 81 38 82 39 83 47 84 40 85 42 86
REMARK SMILES IDX 48 87 41 88 43 89 44 90 45 91 46 92
REMARK H PARENT 86 22 86 23 68 45 36 56
REMARK Flexibility Score: inf
ROOT
ATOM      1  C   UNL     1      -1.788   2.338  -3.474  1.00  0.00     0.274 C 
ENDROOT
BRANCH   1   2
ATOM      2  O   UNL     1      -1.266   2.176  -2.143  1.00  0.00    -0.462 OA
BRANCH   2   3
ATOM      3  C   UNL     1      -1.481   0.953  -1.577  1.00  0.00     0.311 C 
ATOM      4  O   UNL     1      -2.106   0.044  -2.110  1.00  0.00    -0.252 OA
BRANCH   3   5
ATOM      5  C   UNL     1      -0.986   0.940  -0.139  1.00  0.00     0.123 C 
ATOM      6  C   UNL     1       0.878   0.300   1.404  1.00  0.00     0.032 C 
ATOM      7  C   UNL     1       0.071  -0.135   0.167  1.00  0.00     0.096 C 
ATOM      8  N   UNL     1      -0.706  -1.350   0.450  1.00  0.00    -0.339 N 
ATOM      9  C   UNL     1      -2.133   0.547   0.792  1.00  0.00     0.039 C 
ATOM     10  C   UNL     1      -2.067  -0.977   0.823  1.00  0.00     0.121 C 
BRANCH   8  11
ATOM     11  C   UNL     1      -0.440  -2.697   0.310  1.00  0.00     0.227 C 
ATOM     12  O   UNL     1      -1.317  -3.504   0.667  1.00  0.00    -0.275 OA
BRANCH  11  13
ATOM     13  C   UNL     1       0.837  -3.321  -0.290  1.00  0.00     0.098 C 
ATOM     14  C   UNL     1       2.169  -3.088   0.412  1.00  0.00     0.017 C 
ATOM     15  C   UNL     1       0.949  -3.221  -1.806  1.00  0.00     0.134 C 
ATOM     16  C   UNL     1       2.986  -1.922  -0.119  1.00  0.00     0.022 C 
ATOM     17  N   UNL     1       1.559  -1.973  -2.206  1.00  0.00    -0.324 N 
ATOM     18  C   UNL     1       2.859  -1.672  -1.616  1.00  0.00     0.121 C 
BRANCH  17  19
ATOM     19  C   UNL     1       0.970  -1.100  -3.086  1.00  0.00     0.314 C 
ATOM     20  N   UNL     1       0.077  -1.622  -3.950  1.00  0.00    -0.351 N 
ATOM     21  O   UNL     1       1.183   0.105  -3.103  1.00  0.00    -0.249 OA
ATOM     22  H   UNL     1      -0.103  -2.590  -3.947  1.00  0.00     0.161 HD
ATOM     23  H   UNL     1      -0.394  -1.036  -4.585  1.00  0.00     0.161 HD
ENDBRANCH  17  19
ENDBRANCH  11  13
ENDBRANCH   8  11
ENDBRANCH   3   5
ENDBRANCH   2   3
ENDBRANCH   1   2
BRANCH   1  24
ATOM     24  C   UNL     1      -1.020   3.427  -4.224  1.00  0.00     0.275 C 
BRANCH  24  25
ATOM     25  O   UNL     1       0.330   3.001  -4.473  1.00  0.00    -0.458 OA
BRANCH  25  26
ATOM     26  C   UNL     1       1.237   3.362  -3.530  1.00  0.00     0.338 C 
ATOM     27  O   UNL     1       1.045   4.137  -2.603  1.00  0.00    -0.246 OA
BRANCH  26  28
ATOM     28  C   UNL     1       2.494   2.594  -3.703  1.00  0.00     0.060 A 
ATOM     29  C   UNL     1       3.232   2.306  -2.550  1.00  0.00     0.016 A 
ATOM     30  C   UNL     1       2.906   2.084  -4.942  1.00  0.00     0.016 A 
ATOM     31  C   UNL     1       4.347   1.472  -2.629  1.00  0.00     0.010 A 
ATOM     32  C   UNL     1       4.038   1.261  -5.021  1.00  0.00     0.010 A 
ATOM     33  C   UNL     1       4.755   0.932  -3.862  1.00  0.00    -0.014 A 
BRANCH  33  34
ATOM     34  C   UNL     1       5.996   0.117  -3.916  1.00  0.00     0.031 A 
ATOM     35  C   UNL     1       7.304   0.806  -3.656  1.00  0.00     0.074 A 
ATOM     36  C   UNL     1       5.974  -1.213  -4.134  1.00  0.00     0.049 A 
ATOM     37  N   UNL     1       8.495   0.292  -3.503  1.00  0.00    -0.248 NA
ATOM     38  C   UNL     1       7.257   2.274  -3.540  1.00  0.00     0.031 C 
ATOM     39  C   UNL     1       4.778  -2.009  -4.399  1.00  0.00     0.029 A 
ATOM     40  N   UNL     1       6.993  -2.138  -4.143  1.00  0.00    -0.354 N 
ATOM     41  C   UNL     1       9.337   1.369  -3.268  1.00  0.00     0.074 A 
ATOM     42  C   UNL     1       8.521   2.563  -3.275  1.00  0.00     0.031 C 
ATOM     43  C   UNL     1       5.122  -3.307  -4.491  1.00  0.00     0.029 A 
ATOM     44  C   UNL     1       6.571  -3.433  -4.355  1.00  0.00     0.049 A 
ATOM     45  H   UNL     1       7.938  -1.897  -4.011  1.00  0.00     0.167 HD
ATOM     46  C   UNL     1      10.676   1.375  -3.085  1.00  0.00     0.034 A 
ATOM     47  C   UNL     1       7.276  -4.581  -4.439  1.00  0.00     0.034 A 
ATOM     48  C   UNL     1      11.513   0.215  -3.178  1.00  0.00     0.049 A 
ATOM     49  C   UNL     1       8.780  -4.527  -4.315  1.00  0.00     0.074 A 
ATOM     50  C   UNL     1      12.890   0.141  -3.090  1.00  0.00     0.029 A 
ATOM     51  N   UNL     1      11.055  -1.070  -3.422  1.00  0.00    -0.354 N 
ATOM     52  N   UNL     1       9.550  -3.518  -3.986  1.00  0.00    -0.248 NA
ATOM     53  C   UNL     1       9.515  -5.776  -4.579  1.00  0.00     0.031 C 
ATOM     54  C   UNL     1      13.269  -1.187  -3.311  1.00  0.00     0.029 A 
ATOM     55  C   UNL     1      12.124  -1.943  -3.505  1.00  0.00     0.049 A 
ATOM     56  H   UNL     1      10.108  -1.323  -3.521  1.00  0.00     0.167 HD
ATOM     57  C   UNL     1      10.851  -4.012  -3.986  1.00  0.00     0.074 A 
ATOM     58  C   UNL     1      10.764  -5.420  -4.310  1.00  0.00     0.031 C 
ATOM     59  C   UNL     1      12.016  -3.355  -3.767  1.00  0.00     0.034 A 
BRANCH  46  60
ATOM     60  C   UNL     1      11.310   2.706  -2.807  1.00  0.00     0.023 A 
ATOM     61  C   UNL     1      11.200   3.268  -1.519  1.00  0.00     0.012 A 
ATOM     62  C   UNL     1      11.996   3.403  -3.818  1.00  0.00     0.148 A 
ATOM     63  C   UNL     1      11.747   4.521  -1.248  1.00  0.00     0.002 A 
ATOM     64  C   UNL     1      12.566   4.636  -3.531  1.00  0.00     0.091 A 
ATOM     65  F   UNL     1      12.052   2.861  -5.042  1.00  0.00    -0.205 F 
ATOM     66  C   UNL     1      12.435   5.200  -2.251  1.00  0.00     0.022 A 
BRANCH  64  67
ATOM     67  S   UNL     1      13.504   5.569  -4.743  1.00  0.00     0.127 S 
ATOM     68  O   UNL     1      12.604   6.690  -5.013  1.00  0.00    -0.237 OA
ATOM     69  O   UNL     1      14.710   5.921  -3.992  1.00  0.00    -0.237 OA
ATOM     70  O   UNL     1      13.727   4.664  -5.862  1.00  0.00    -0.744 OA
ENDBRANCH  64  67
ENDBRANCH  46  60
BRANCH  47  71
ATOM     71  C   UNL     1       6.596  -5.897  -4.648  1.00  0.00     0.023 A 
ATOM     72  C   UNL     1       6.709  -6.902  -3.664  1.00  0.00     0.012 A 
ATOM     73  C   UNL     1       5.885  -6.183  -5.830  1.00  0.00     0.148 A 
ATOM     74  C   UNL     1       6.163  -8.171  -3.870  1.00  0.00     0.002 A 
ATOM     75  C   UNL     1       5.290  -7.429  -6.001  1.00  0.00     0.091 A 
ATOM     76  F   UNL     1       5.816  -5.236  -6.776  1.00  0.00    -0.205 F 
ATOM     77  C   UNL     1       5.446  -8.432  -5.033  1.00  0.00     0.022 A 
BRANCH  75  78
ATOM     78  S   UNL     1       4.240  -7.797  -7.411  1.00  0.00     0.127 S 
ATOM     79  O   UNL     1       5.114  -8.637  -8.225  1.00  0.00    -0.237 OA
ATOM     80  O   UNL     1       3.120  -8.497  -6.782  1.00  0.00    -0.237 OA
ATOM     81  O   UNL     1       3.889  -6.502  -7.978  1.00  0.00    -0.744 OA
ENDBRANCH  75  78
ENDBRANCH  47  71
BRANCH  59  82
ATOM     82  C   UNL     1      13.300  -4.141  -3.844  1.00  0.00     0.023 A 
ATOM     83  C   UNL     1      13.792  -4.555  -5.097  1.00  0.00     0.012 A 
ATOM     84  C   UNL     1      14.070  -4.372  -2.687  1.00  0.00     0.148 A 
ATOM     85  C   UNL     1      15.021  -5.206  -5.195  1.00  0.00     0.002 A 
ATOM     86  C   UNL     1      15.315  -4.978  -2.798  1.00  0.00     0.091 A 
ATOM     87  F   UNL     1      13.574  -3.988  -1.501  1.00  0.00    -0.205 F 
ATOM     88  C   UNL     1      15.789  -5.405  -4.049  1.00  0.00     0.022 A 
BRANCH  86  89
ATOM     89  S   UNL     1      16.414  -5.179  -1.390  1.00  0.00     0.127 S 
ATOM     90  O   UNL     1      16.313  -6.614  -1.136  1.00  0.00    -0.237 OA
ATOM     91  O   UNL     1      17.701  -4.745  -1.935  1.00  0.00    -0.237 OA
ATOM     92  O   UNL     1      15.883  -4.317  -0.343  1.00  0.00    -0.744 OA
ENDBRANCH  86  89
ENDBRANCH  59  82
ENDBRANCH  33  34
ENDBRANCH  26  28
ENDBRANCH  25  26
ENDBRANCH  24  25
ENDBRANCH   1  24
TORSDOF 17
