REMARK SMILES O=C(COc1ccc(/C=N/NC(=O)c2cc3cc([N+](=O)[O-])ccc3o2)cc1)OCCOC(=O)c1ccc(-c2c3nc(c(-c4cccc(S(=O)(=O)[O-])c4F)c4ccc([nH]4)c(-c4cccc(S(=O)(=O)[O-])c4F)c4nc(c(-c5cccc(S(=O)(=O)[O-])c5F)c5ccc2[nH]5)C=C4)C=C3)cc1
REMARK SMILES IDX 28 1 2 2 1 3 3 4 4 5 5 6 6 7 27 8 7 9 26 10 8 11 9 12 10 13
REMARK SMILES IDX 11 14 12 15 13 17 14 18 15 19 25 20 16 21 24 22 17 23 23 24
REMARK SMILES IDX 18 25 22 26 19 27 20 28 21 29 29 30 30 31 31 32 32 33 33 34
REMARK SMILES IDX 34 35 35 36 96 37 36 38 95 39 37 40 38 41 39 42 89 43 40 44
REMARK SMILES IDX 94 45 88 46 90 47 41 48 93 49 87 50 86 51 42 53 74 54 54 55
REMARK SMILES IDX 73 56 55 57 58 58 72 59 91 60 56 61 57 62 71 64 92 65 59 66
REMARK SMILES IDX 43 67 44 68 52 69 45 70 47 71 53 72 46 73 48 74 49 75 50 76
REMARK SMILES IDX 51 77 75 78 76 79 84 80 77 81 79 82 85 83 78 84 80 85 81 86
REMARK SMILES IDX 82 87 83 88 60 89 61 90 69 91 62 92 64 93 70 94 63 95 65 96
REMARK SMILES IDX 66 97 67 98 68 99
REMARK H PARENT 11 16 90 52 58 63
REMARK Flexibility Score: inf
ROOT
ATOM      1  O   UNL     1       3.243   0.260   0.986  1.00  0.00    -0.460 OA
ENDROOT
BRANCH   1   2
ATOM      2  C   UNL     1       2.578   0.342  -0.193  1.00  0.00     0.344 C 
ATOM      3  O   UNL     1       1.358   0.502  -0.205  1.00  0.00    -0.248 OA
BRANCH   2   4
ATOM      4  C   UNL     1       3.388   0.307  -1.483  1.00  0.00     0.351 C 
BRANCH   4   5
ATOM      5  O   UNL     1       4.265   1.423  -1.613  1.00  0.00    -0.482 OA
BRANCH   5   6
ATOM      6  C   UNL     1       3.618   2.421  -2.284  1.00  0.00     0.120 A 
ATOM      7  C   UNL     1       3.924   2.622  -3.626  1.00  0.00     0.047 A 
ATOM      8  C   UNL     1       2.676   3.211  -1.624  1.00  0.00     0.047 A 
ATOM      9  C   UNL     1       3.246   3.610  -4.332  1.00  0.00     0.013 A 
ATOM     10  C   UNL     1       1.991   4.193  -2.329  1.00  0.00     0.013 A 
ATOM     11  C   UNL     1       2.282   4.391  -3.680  1.00  0.00    -0.005 A 
BRANCH  11  12
ATOM     12  C   UNL     1       1.646   5.529  -4.365  1.00  0.00     0.141 C 
ATOM     13  N   UNL     1       1.912   5.769  -5.601  1.00  0.00    -0.180 NA
BRANCH  13  14
ATOM     14  N   UNL     1       1.551   6.930  -6.208  1.00  0.00    -0.240 N 
ATOM     15  C   UNL     1       0.959   8.070  -5.717  1.00  0.00     0.307 C 
ATOM     16  H   UNL     1       1.749   6.960  -7.172  1.00  0.00     0.194 HD
ATOM     17  O   UNL     1       1.409   9.159  -6.086  1.00  0.00    -0.264 OA
BRANCH  15  18
ATOM     18  C   UNL     1      -0.252   8.021  -4.925  1.00  0.00     0.194 A 
ATOM     19  C   UNL     1      -0.454   8.395  -3.603  1.00  0.00     0.065 A 
ATOM     20  O   UNL     1      -1.421   8.198  -5.624  1.00  0.00    -0.451 OA
ATOM     21  C   UNL     1      -1.636   9.188  -3.613  1.00  0.00     0.028 A 
ATOM     22  C   UNL     1      -2.192   9.027  -4.875  1.00  0.00     0.135 A 
ATOM     23  C   UNL     1      -2.190  10.143  -2.743  1.00  0.00     0.097 A 
ATOM     24  C   UNL     1      -3.291   9.736  -5.355  1.00  0.00     0.055 A 
ATOM     25  C   UNL     1      -3.201  10.976  -3.260  1.00  0.00     0.270 A 
ATOM     26  C   UNL     1      -3.758  10.768  -4.534  1.00  0.00     0.089 A 
BRANCH  25  27
ATOM     27  N   UNL     1      -3.590  12.169  -2.495  1.00  0.00     0.062 N 
ATOM     28  O   UNL     1      -3.230  12.237  -1.311  1.00  0.00    -0.258 OA
ATOM     29  O   UNL     1      -4.232  13.049  -3.086  1.00  0.00    -0.258 OA
ENDBRANCH  25  27
ENDBRANCH  15  18
ENDBRANCH  13  14
ENDBRANCH  11  12
ENDBRANCH   5   6
ENDBRANCH   4   5
ENDBRANCH   2   4
ENDBRANCH   1   2
BRANCH   1  30
ATOM     30  C   UNL     1       4.600  -0.214   1.101  1.00  0.00     0.274 C 
BRANCH  30  31
ATOM     31  C   UNL     1       4.631  -1.730   1.304  1.00  0.00     0.275 C 
BRANCH  31  32
ATOM     32  O   UNL     1       4.223  -2.403   0.099  1.00  0.00    -0.458 OA
BRANCH  32  33
ATOM     33  C   UNL     1       2.919  -2.797   0.041  1.00  0.00     0.338 C 
ATOM     34  O   UNL     1       2.106  -2.745   0.932  1.00  0.00    -0.246 OA
BRANCH  33  35
ATOM     35  C   UNL     1       2.596  -3.097  -1.378  1.00  0.00     0.060 A 
ATOM     36  C   UNL     1       1.384  -2.624  -1.903  1.00  0.00     0.016 A 
ATOM     37  C   UNL     1       3.493  -3.789  -2.194  1.00  0.00     0.016 A 
ATOM     38  C   UNL     1       1.059  -2.864  -3.243  1.00  0.00     0.010 A 
ATOM     39  C   UNL     1       3.163  -4.036  -3.527  1.00  0.00     0.010 A 
ATOM     40  C   UNL     1       1.935  -3.598  -4.053  1.00  0.00    -0.014 A 
BRANCH  40  41
ATOM     41  C   UNL     1       1.527  -4.070  -5.398  1.00  0.00     0.031 A 
ATOM     42  C   UNL     1       1.011  -5.475  -5.532  1.00  0.00     0.074 A 
ATOM     43  C   UNL     1       1.708  -3.313  -6.494  1.00  0.00     0.049 A 
ATOM     44  N   UNL     1       0.726  -6.154  -6.611  1.00  0.00    -0.248 NA
ATOM     45  C   UNL     1       0.807  -6.218  -4.277  1.00  0.00     0.031 C 
ATOM     46  C   UNL     1       2.220  -1.945  -6.502  1.00  0.00     0.029 A 
ATOM     47  N   UNL     1       1.530  -3.617  -7.822  1.00  0.00    -0.354 N 
ATOM     48  C   UNL     1       0.347  -7.415  -6.170  1.00  0.00     0.074 A 
ATOM     49  C   UNL     1       0.443  -7.408  -4.727  1.00  0.00     0.031 C 
ATOM     50  C   UNL     1       2.368  -1.545  -7.777  1.00  0.00     0.029 A 
ATOM     51  C   UNL     1       1.986  -2.637  -8.673  1.00  0.00     0.049 A 
ATOM     52  H   UNL     1       1.116  -4.454  -8.134  1.00  0.00     0.167 HD
ATOM     53  C   UNL     1      -0.054  -8.484  -6.898  1.00  0.00     0.034 A 
ATOM     54  C   UNL     1       2.115  -2.636 -10.016  1.00  0.00     0.034 A 
ATOM     55  C   UNL     1      -0.162  -8.491  -8.330  1.00  0.00     0.049 A 
ATOM     56  C   UNL     1       1.671  -3.838 -10.811  1.00  0.00     0.074 A 
ATOM     57  C   UNL     1      -0.631  -9.502  -9.150  1.00  0.00     0.029 A 
ATOM     58  N   UNL     1       0.226  -7.450  -9.157  1.00  0.00    -0.354 N 
ATOM     59  N   UNL     1       1.165  -4.970 -10.383  1.00  0.00    -0.248 NA
ATOM     60  C   UNL     1       1.786  -3.754 -12.276  1.00  0.00     0.031 C 
ATOM     61  C   UNL     1      -0.497  -9.082 -10.478  1.00  0.00     0.029 A 
ATOM     62  C   UNL     1       0.027  -7.799 -10.481  1.00  0.00     0.049 A 
ATOM     63  H   UNL     1       0.590  -6.588  -8.849  1.00  0.00     0.167 HD
ATOM     64  C   UNL     1       0.869  -5.715 -11.521  1.00  0.00     0.074 A 
ATOM     65  C   UNL     1       1.243  -4.903 -12.660  1.00  0.00     0.031 C 
ATOM     66  C   UNL     1       0.345  -6.962 -11.611  1.00  0.00     0.034 A 
BRANCH  53  67
ATOM     67  C   UNL     1      -0.419  -9.732  -6.145  1.00  0.00     0.023 A 
ATOM     68  C   UNL     1      -1.618  -9.775  -5.404  1.00  0.00     0.012 A 
ATOM     69  C   UNL     1       0.409 -10.869  -6.189  1.00  0.00     0.148 A 
ATOM     70  C   UNL     1      -1.966 -10.917  -4.686  1.00  0.00     0.002 A 
ATOM     71  C   UNL     1       0.033 -12.019  -5.505  1.00  0.00     0.091 A 
ATOM     72  F   UNL     1       1.560 -10.799  -6.874  1.00  0.00    -0.205 F 
ATOM     73  C   UNL     1      -1.147 -12.041  -4.744  1.00  0.00     0.022 A 
BRANCH  71  74
ATOM     74  S   UNL     1       0.992 -13.535  -5.585  1.00  0.00     0.127 S 
ATOM     75  O   UNL     1       1.680 -13.518  -4.296  1.00  0.00    -0.237 OA
ATOM     76  O   UNL     1      -0.049 -14.557  -5.707  1.00  0.00    -0.237 OA
ATOM     77  O   UNL     1       1.845 -13.403  -6.758  1.00  0.00    -0.744 OA
ENDBRANCH  71  74
ENDBRANCH  53  67
BRANCH  54  78
ATOM     78  C   UNL     1       2.679  -1.437 -10.698  1.00  0.00     0.023 A 
ATOM     79  C   UNL     1       1.837  -0.613 -11.469  1.00  0.00     0.012 A 
ATOM     80  C   UNL     1       4.036  -1.089 -10.552  1.00  0.00     0.148 A 
ATOM     81  C   UNL     1       2.342   0.524 -12.102  1.00  0.00     0.002 A 
ATOM     82  C   UNL     1       4.520   0.073 -11.140  1.00  0.00     0.091 A 
ATOM     83  F   UNL     1       4.822  -1.896  -9.825  1.00  0.00    -0.205 F 
ATOM     84  C   UNL     1       3.679   0.873 -11.928  1.00  0.00     0.022 A 
BRANCH  82  85
ATOM     85  S   UNL     1       6.191   0.672 -10.864  1.00  0.00     0.127 S 
ATOM     86  O   UNL     1       6.780   0.541 -12.194  1.00  0.00    -0.237 OA
ATOM     87  O   UNL     1       5.948   2.048 -10.429  1.00  0.00    -0.237 OA
ATOM     88  O   UNL     1       6.757  -0.192  -9.837  1.00  0.00    -0.744 OA
ENDBRANCH  82  85
ENDBRANCH  54  78
BRANCH  66  89
ATOM     89  C   UNL     1       0.093  -7.537 -12.982  1.00  0.00     0.023 A 
ATOM     90  C   UNL     1       1.173  -8.000 -13.758  1.00  0.00     0.012 A 
ATOM     91  C   UNL     1      -1.225  -7.734 -13.443  1.00  0.00     0.148 A 
ATOM     92  C   UNL     1       0.946  -8.637 -14.979  1.00  0.00     0.002 A 
ATOM     93  C   UNL     1      -1.445  -8.410 -14.638  1.00  0.00     0.091 A 
ATOM     94  F   UNL     1      -2.238  -7.271 -12.696  1.00  0.00    -0.205 F 
ATOM     95  C   UNL     1      -0.360  -8.854 -15.411  1.00  0.00     0.022 A 
BRANCH  93  96
ATOM     96  S   UNL     1      -3.092  -8.825 -15.224  1.00  0.00     0.127 S 
ATOM     97  O   UNL     1      -3.225  -7.949 -16.386  1.00  0.00    -0.237 OA
ATOM     98  O   UNL     1      -2.958 -10.247 -15.544  1.00  0.00    -0.237 OA
ATOM     99  O   UNL     1      -3.998  -8.537 -14.120  1.00  0.00    -0.744 OA
ENDBRANCH  93  96
ENDBRANCH  66  89
ENDBRANCH  40  41
ENDBRANCH  33  35
ENDBRANCH  32  33
ENDBRANCH  31  32
ENDBRANCH  30  31
ENDBRANCH   1  30
TORSDOF 20
