REMARK SMILES O=C(OCCOC(=O)c1ccc(-c2c3nc(c(-c4cccc(S(=O)(=O)[O-])c4F)c4ccc([nH]4)c(-c4cccc(S(=O)(=O)[O-])c4F)c4nc(c(-c5cccc(S(=O)(=O)[O-])c5F)c5ccc2[nH]5)C=C4)C=C3)cc1)c1ccc(NC(=O)[C@@H]2CC=CC[C@H]2C(=O)Nc2cccc([N+](=O)[O-])c2)cc1
REMARK SMILES IDX 4 1 3 2 2 3 1 4 72 5 73 6 98 7 74 8 97 9 75 10 76 11 77 12
REMARK SMILES IDX 78 14 79 15 80 16 84 17 81 18 83 19 82 20 85 21 86 22 87 23
REMARK SMILES IDX 88 25 89 26 96 27 90 28 92 29 91 30 93 31 94 32 95 33 5 34
REMARK SMILES IDX 6 35 7 36 8 37 9 38 10 39 71 40 11 41 70 42 12 43 13 44
REMARK SMILES IDX 14 45 64 46 15 47 69 48 63 49 65 50 16 51 68 52 62 53 61 54
REMARK SMILES IDX 17 56 49 57 29 58 48 59 30 60 33 61 47 62 66 63 31 64 32 65
REMARK SMILES IDX 46 67 67 68 34 69 18 70 19 71 27 72 20 73 22 74 28 75 21 76
REMARK SMILES IDX 23 77 24 78 25 79 26 80 50 81 51 82 59 83 52 84 54 85 60 86
REMARK SMILES IDX 53 87 55 88 56 89 57 90 58 91 35 92 36 93 44 94 37 95 39 96
REMARK SMILES IDX 45 97 38 98 40 99 41 100 42 101 43 102
REMARK H PARENT 76 13 87 24 65 55 33 66
REMARK Flexibility Score: inf
ROOT
ATOM      1  C   UNL     1       3.374  -4.308   5.035  1.00  0.00     0.275 C 
ENDROOT
BRANCH   1   2
ATOM      2  O   UNL     1       4.234  -3.503   5.878  1.00  0.00    -0.458 OA
BRANCH   2   3
ATOM      3  C   UNL     1       5.595  -3.467   5.851  1.00  0.00     0.338 C 
ATOM      4  O   UNL     1       6.226  -3.424   6.903  1.00  0.00    -0.246 OA
BRANCH   3   5
ATOM      5  C   UNL     1       6.333  -3.302   4.558  1.00  0.00     0.060 A 
ATOM      6  C   UNL     1       5.688  -3.265   3.338  1.00  0.00     0.018 A 
ATOM      7  C   UNL     1       7.724  -3.083   4.547  1.00  0.00     0.018 A 
ATOM      8  C   UNL     1       6.355  -2.979   2.167  1.00  0.00     0.027 A 
ATOM      9  C   UNL     1       8.427  -2.917   3.333  1.00  0.00     0.027 A 
ATOM     10  C   UNL     1       7.731  -2.936   2.131  1.00  0.00     0.041 A 
BRANCH  10  11
ATOM     11  N   UNL     1       8.345  -2.882   0.879  1.00  0.00    -0.326 N 
ATOM     12  C   UNL     1       7.744  -3.286  -0.289  1.00  0.00     0.228 C 
ATOM     13  H   UNL     1       9.265  -2.534   0.830  1.00  0.00     0.169 HD
ATOM     14  O   UNL     1       7.789  -2.567  -1.290  1.00  0.00    -0.274 OA
BRANCH  12  15
ATOM     15  C   UNL     1       7.190  -4.733  -0.423  1.00  0.00     0.095 C 
ATOM     16  C   UNL     1       6.210  -5.348   0.580  1.00  0.00     0.041 C 
ATOM     17  C   UNL     1       8.381  -5.665  -0.678  1.00  0.00     0.095 C 
ATOM     18  C   UNL     1       5.829  -6.759   0.254  1.00  0.00    -0.030 C 
ATOM     19  C   UNL     1       8.073  -7.175  -0.737  1.00  0.00     0.041 C 
ATOM     20  C   UNL     1       6.686  -7.588  -0.346  1.00  0.00    -0.030 C 
BRANCH  17  21
ATOM     21  C   UNL     1       9.248  -5.240  -1.868  1.00  0.00     0.228 C 
ATOM     22  O   UNL     1      10.427  -4.942  -1.662  1.00  0.00    -0.274 OA
ATOM     23  N   UNL     1       8.836  -5.279  -3.174  1.00  0.00    -0.326 N 
ATOM     24  H   UNL     1       9.466  -4.897  -3.827  1.00  0.00     0.169 HD
BRANCH  23  25
ATOM     25  C   UNL     1       7.650  -5.784  -3.708  1.00  0.00     0.048 A 
ATOM     26  C   UNL     1       7.690  -7.002  -4.387  1.00  0.00     0.026 A 
ATOM     27  C   UNL     1       6.446  -5.098  -3.582  1.00  0.00     0.111 A 
ATOM     28  C   UNL     1       6.504  -7.610  -4.806  1.00  0.00     0.009 A 
ATOM     29  C   UNL     1       5.255  -5.736  -3.941  1.00  0.00     0.271 A 
ATOM     30  C   UNL     1       5.277  -6.994  -4.554  1.00  0.00     0.086 A 
BRANCH  29  31
ATOM     31  N   UNL     1       3.970  -5.124  -3.587  1.00  0.00     0.062 N 
ATOM     32  O   UNL     1       2.945  -5.619  -4.080  1.00  0.00    -0.258 OA
ATOM     33  O   UNL     1       3.975  -4.188  -2.775  1.00  0.00    -0.258 OA
ENDBRANCH  29  31
ENDBRANCH  23  25
ENDBRANCH  17  21
ENDBRANCH  12  15
ENDBRANCH  10  11
ENDBRANCH   3   5
ENDBRANCH   2   3
ENDBRANCH   1   2
BRANCH   1  34
ATOM     34  C   UNL     1       2.289  -3.446   4.343  1.00  0.00     0.275 C 
BRANCH  34  35
ATOM     35  O   UNL     1       2.839  -2.373   3.542  1.00  0.00    -0.458 OA
BRANCH  35  36
ATOM     36  C   UNL     1       3.104  -1.207   4.191  1.00  0.00     0.338 C 
ATOM     37  O   UNL     1       2.680  -0.899   5.295  1.00  0.00    -0.246 OA
BRANCH  36  38
ATOM     38  C   UNL     1       4.159  -0.435   3.468  1.00  0.00     0.060 A 
ATOM     39  C   UNL     1       5.111   0.253   4.236  1.00  0.00     0.016 A 
ATOM     40  C   UNL     1       4.289  -0.442   2.075  1.00  0.00     0.016 A 
ATOM     41  C   UNL     1       6.169   0.945   3.623  1.00  0.00     0.010 A 
ATOM     42  C   UNL     1       5.370   0.222   1.467  1.00  0.00     0.010 A 
ATOM     43  C   UNL     1       6.305   0.952   2.229  1.00  0.00    -0.014 A 
BRANCH  43  44
ATOM     44  C   UNL     1       7.304   1.834   1.547  1.00  0.00     0.031 A 
ATOM     45  C   UNL     1       6.799   3.020   0.762  1.00  0.00     0.074 A 
ATOM     46  C   UNL     1       8.633   1.605   1.572  1.00  0.00     0.049 A 
ATOM     47  N   UNL     1       7.465   3.890   0.046  1.00  0.00    -0.248 NA
ATOM     48  C   UNL     1       5.346   3.252   0.786  1.00  0.00     0.031 C 
ATOM     49  C   UNL     1       9.298   0.523   2.290  1.00  0.00     0.029 A 
ATOM     50  N   UNL     1       9.667   2.263   0.939  1.00  0.00    -0.354 N 
ATOM     51  C   UNL     1       6.512   4.745  -0.493  1.00  0.00     0.074 A 
ATOM     52  C   UNL     1       5.220   4.268  -0.051  1.00  0.00     0.031 C 
ATOM     53  C   UNL     1      10.615   0.552   2.014  1.00  0.00     0.029 A 
ATOM     54  C   UNL     1      10.895   1.661   1.102  1.00  0.00     0.049 A 
ATOM     55  H   UNL     1       9.539   3.088   0.418  1.00  0.00     0.167 HD
ATOM     56  C   UNL     1       6.682   5.852  -1.254  1.00  0.00     0.034 A 
ATOM     57  C   UNL     1      12.104   1.960   0.579  1.00  0.00     0.034 A 
ATOM     58  C   UNL     1       7.953   6.378  -1.664  1.00  0.00     0.049 A 
ATOM     59  C   UNL     1      12.271   3.182  -0.295  1.00  0.00     0.074 A 
ATOM     60  C   UNL     1       8.213   7.544  -2.361  1.00  0.00     0.029 A 
ATOM     61  N   UNL     1       9.174   5.770  -1.429  1.00  0.00    -0.354 N 
ATOM     62  N   UNL     1      11.379   4.073  -0.649  1.00  0.00    -0.248 NA
ATOM     63  C   UNL     1      13.627   3.468  -0.799  1.00  0.00     0.031 C 
ATOM     64  C   UNL     1       9.594   7.632  -2.567  1.00  0.00     0.029 A 
ATOM     65  C   UNL     1      10.192   6.529  -1.980  1.00  0.00     0.049 A 
ATOM     66  H   UNL     1       9.300   4.923  -0.943  1.00  0.00     0.167 HD
ATOM     67  C   UNL     1      12.070   5.048  -1.366  1.00  0.00     0.074 A 
ATOM     68  C   UNL     1      13.457   4.641  -1.397  1.00  0.00     0.031 C 
ATOM     69  C   UNL     1      11.588   6.175  -1.947  1.00  0.00     0.034 A 
BRANCH  56  70
ATOM     70  C   UNL     1       5.439   6.598  -1.653  1.00  0.00     0.023 A 
ATOM     71  C   UNL     1       4.739   7.346  -0.684  1.00  0.00     0.012 A 
ATOM     72  C   UNL     1       4.968   6.563  -2.978  1.00  0.00     0.148 A 
ATOM     73  C   UNL     1       3.560   8.009  -1.018  1.00  0.00     0.002 A 
ATOM     74  C   UNL     1       3.816   7.264  -3.313  1.00  0.00     0.091 A 
ATOM     75  F   UNL     1       5.632   5.824  -3.878  1.00  0.00    -0.205 F 
ATOM     76  C   UNL     1       3.104   7.975  -2.333  1.00  0.00     0.022 A 
BRANCH  74  77
ATOM     77  S   UNL     1       3.203   7.333  -4.999  1.00  0.00     0.127 S 
ATOM     78  O   UNL     1       2.143   6.327  -4.971  1.00  0.00    -0.237 OA
ATOM     79  O   UNL     1       2.729   8.714  -5.104  1.00  0.00    -0.237 OA
ATOM     80  O   UNL     1       4.348   7.026  -5.845  1.00  0.00    -0.744 OA
ENDBRANCH  74  77
ENDBRANCH  56  70
BRANCH  57  81
ATOM     81  C   UNL     1      13.293   1.121   0.913  1.00  0.00     0.023 A 
ATOM     82  C   UNL     1      14.289   1.643   1.762  1.00  0.00     0.012 A 
ATOM     83  C   UNL     1      13.448  -0.177   0.390  1.00  0.00     0.148 A 
ATOM     84  C   UNL     1      15.434   0.901   2.057  1.00  0.00     0.002 A 
ATOM     85  C   UNL     1      14.574  -0.925   0.718  1.00  0.00     0.091 A 
ATOM     86  F   UNL     1      12.480  -0.659  -0.402  1.00  0.00    -0.205 F 
ATOM     87  C   UNL     1      15.576  -0.382   1.538  1.00  0.00     0.022 A 
BRANCH  85  88
ATOM     88  S   UNL     1      14.819  -2.616   0.166  1.00  0.00     0.127 S 
ATOM     89  O   UNL     1      16.150  -2.550  -0.438  1.00  0.00    -0.237 OA
ATOM     90  O   UNL     1      14.754  -3.347   1.431  1.00  0.00    -0.237 OA
ATOM     91  O   UNL     1      13.735  -2.884  -0.766  1.00  0.00    -0.744 OA
ENDBRANCH  85  88
ENDBRANCH  57  81
BRANCH  69  92
ATOM     92  C   UNL     1      12.555   7.111  -2.629  1.00  0.00     0.023 A 
ATOM     93  C   UNL     1      13.098   6.770  -3.882  1.00  0.00     0.012 A 
ATOM     94  C   UNL     1      12.820   8.386  -2.086  1.00  0.00     0.148 A 
ATOM     95  C   UNL     1      13.900   7.676  -4.578  1.00  0.00     0.002 A 
ATOM     96  C   UNL     1      13.583   9.300  -2.805  1.00  0.00     0.091 A 
ATOM     97  F   UNL     1      12.309   8.687  -0.883  1.00  0.00    -0.205 F 
ATOM     98  C   UNL     1      14.130   8.944  -4.048  1.00  0.00     0.022 A 
BRANCH  96  99
ATOM     99  S   UNL     1      13.846  10.989  -2.248  1.00  0.00     0.127 S 
ATOM    100  O   UNL     1      15.256  10.961  -1.863  1.00  0.00    -0.237 OA
ATOM    101  O   UNL     1      13.560  11.764  -3.457  1.00  0.00    -0.237 OA
ATOM    102  O   UNL     1      12.904  11.204  -1.157  1.00  0.00    -0.744 OA
ENDBRANCH  96  99
ENDBRANCH  69  92
ENDBRANCH  43  44
ENDBRANCH  36  38
ENDBRANCH  35  36
ENDBRANCH  34  35
ENDBRANCH   1  34
TORSDOF 19
