REMARK SMILES CC/C(C(=O)OCCOC(=O)c1ccc(-c2c3nc(c(-c4cccc(S(=O)(=O)[O-])c4F)c4ccc([nH]4)c(-c4cccc(S(=O)(=O)[O-])c4F)c4nc(c(-c5cccc(S(=O)(=O)[O-])c5F)c5ccc2[nH]5)C=C4)C=C3)cc1)=C1\CCc2ccccc21
REMARK SMILES IDX 8 1 7 2 6 3 4 4 5 5 3 6 75 7 76 8 83 9 77 10 78 11 82 12
REMARK SMILES IDX 79 13 81 14 80 15 2 16 1 17 9 18 10 19 11 20 12 21 13 22
REMARK SMILES IDX 74 23 14 24 73 25 15 26 16 27 17 28 67 29 18 30 72 31 66 32
REMARK SMILES IDX 68 33 19 34 71 35 65 36 64 37 20 39 52 40 32 41 51 42 33 43
REMARK SMILES IDX 36 44 50 45 69 46 34 47 35 48 49 50 70 51 37 52 21 53 22 54
REMARK SMILES IDX 30 55 23 56 25 57 31 58 24 59 26 60 27 61 28 62 29 63 53 64
REMARK SMILES IDX 54 65 62 66 55 67 57 68 63 69 56 70 58 71 59 72 60 73 61 74
REMARK SMILES IDX 38 75 39 76 47 77 40 78 42 79 48 80 41 81 43 82 44 83 45 84
REMARK SMILES IDX 46 85
REMARK H PARENT 68 38 36 49
REMARK Flexibility Score: inf
ROOT
ATOM      1  C   UNL     1       3.162   0.983  -4.275  1.00  0.00     0.275 C 
ENDROOT
BRANCH   1   2
ATOM      2  C   UNL     1       1.999   1.941  -4.055  1.00  0.00     0.275 C 
BRANCH   2   3
ATOM      3  O   UNL     1       1.953   2.339  -2.669  1.00  0.00    -0.459 OA
BRANCH   3   4
ATOM      4  C   UNL     1       0.741   2.288  -2.076  1.00  0.00     0.334 C 
ATOM      5  O   UNL     1      -0.269   1.790  -2.554  1.00  0.00    -0.247 OA
BRANCH   4   6
ATOM      6  C   UNL     1       0.767   2.855  -0.699  1.00  0.00     0.041 C 
ATOM      7  C   UNL     1       0.978   4.172  -0.473  1.00  0.00    -0.030 C 
ATOM      8  C   UNL     1       0.635   4.903   0.817  1.00  0.00     0.041 C 
ATOM      9  C   UNL     1       1.304   5.259  -1.414  1.00  0.00    -0.019 A 
ATOM     10  C   UNL     1      -0.003   6.218   0.347  1.00  0.00     0.041 C 
ATOM     11  C   UNL     1       0.691   6.433  -0.961  1.00  0.00    -0.040 A 
ATOM     12  C   UNL     1       2.128   5.313  -2.526  1.00  0.00     0.009 A 
ATOM     13  C   UNL     1       0.754   7.616  -1.686  1.00  0.00     0.004 A 
ATOM     14  C   UNL     1       2.222   6.502  -3.256  1.00  0.00     0.001 A 
ATOM     15  C   UNL     1       1.515   7.640  -2.853  1.00  0.00     0.000 A 
BRANCH   6  16
ATOM     16  C   UNL     1       0.262   1.884   0.348  1.00  0.00     0.040 C 
ATOM     17  C   UNL     1       1.399   1.186   1.079  1.00  0.00     0.009 C 
ENDBRANCH   6  16
ENDBRANCH   4   6
ENDBRANCH   3   4
ENDBRANCH   2   3
ENDBRANCH   1   2
BRANCH   1  18
ATOM     18  O   UNL     1       2.849  -0.261  -3.630  1.00  0.00    -0.458 OA
BRANCH  18  19
ATOM     19  C   UNL     1       3.470  -0.453  -2.446  1.00  0.00     0.338 C 
ATOM     20  O   UNL     1       4.363   0.214  -1.954  1.00  0.00    -0.246 OA
BRANCH  19  21
ATOM     21  C   UNL     1       2.844  -1.577  -1.741  1.00  0.00     0.060 A 
ATOM     22  C   UNL     1       1.586  -1.389  -1.174  1.00  0.00     0.016 A 
ATOM     23  C   UNL     1       3.594  -2.713  -1.446  1.00  0.00     0.016 A 
ATOM     24  C   UNL     1       1.154  -2.258  -0.175  1.00  0.00     0.010 A 
ATOM     25  C   UNL     1       3.092  -3.648  -0.535  1.00  0.00     0.010 A 
ATOM     26  C   UNL     1       1.904  -3.395   0.174  1.00  0.00    -0.014 A 
BRANCH  26  27
ATOM     27  C   UNL     1       1.495  -4.261   1.326  1.00  0.00     0.031 A 
ATOM     28  C   UNL     1       2.473  -4.574   2.439  1.00  0.00     0.074 A 
ATOM     29  C   UNL     1       0.243  -4.759   1.402  1.00  0.00     0.049 A 
ATOM     30  N   UNL     1       2.369  -5.442   3.414  1.00  0.00    -0.248 NA
ATOM     31  C   UNL     1       3.746  -3.833   2.443  1.00  0.00     0.031 C 
ATOM     32  C   UNL     1      -0.818  -4.542   0.418  1.00  0.00     0.029 A 
ATOM     33  N   UNL     1      -0.352  -5.550   2.356  1.00  0.00    -0.354 N 
ATOM     34  C   UNL     1       3.594  -5.428   4.077  1.00  0.00     0.074 A 
ATOM     35  C   UNL     1       4.420  -4.448   3.405  1.00  0.00     0.031 C 
ATOM     36  C   UNL     1      -1.944  -5.131   0.844  1.00  0.00     0.029 A 
ATOM     37  C   UNL     1      -1.663  -5.859   2.075  1.00  0.00     0.049 A 
ATOM     38  H   UNL     1       0.115  -5.865   3.164  1.00  0.00     0.167 HD
ATOM     39  C   UNL     1       3.993  -6.156   5.149  1.00  0.00     0.034 A 
ATOM     40  C   UNL     1      -2.536  -6.672   2.703  1.00  0.00     0.034 A 
ATOM     41  C   UNL     1       3.134  -7.047   5.886  1.00  0.00     0.049 A 
ATOM     42  C   UNL     1      -2.090  -7.417   3.928  1.00  0.00     0.074 A 
ATOM     43  C   UNL     1       3.433  -7.799   7.009  1.00  0.00     0.029 A 
ATOM     44  N   UNL     1       1.799  -7.283   5.595  1.00  0.00    -0.354 N 
ATOM     45  N   UNL     1      -0.929  -7.389   4.535  1.00  0.00    -0.248 NA
ATOM     46  C   UNL     1      -3.078  -8.304   4.558  1.00  0.00     0.031 C 
ATOM     47  C   UNL     1       2.281  -8.494   7.394  1.00  0.00     0.029 A 
ATOM     48  C   UNL     1       1.258  -8.158   6.523  1.00  0.00     0.049 A 
ATOM     49  H   UNL     1       1.308  -6.886   4.840  1.00  0.00     0.167 HD
ATOM     50  C   UNL     1      -1.049  -8.242   5.624  1.00  0.00     0.074 A 
ATOM     51  C   UNL     1      -2.410  -8.740   5.617  1.00  0.00     0.031 C 
ATOM     52  C   UNL     1      -0.110  -8.607   6.532  1.00  0.00     0.034 A 
BRANCH  39  53
ATOM     53  C   UNL     1       5.423  -6.012   5.611  1.00  0.00     0.023 A 
ATOM     54  C   UNL     1       5.838  -4.843   6.279  1.00  0.00     0.012 A 
ATOM     55  C   UNL     1       6.342  -7.069   5.439  1.00  0.00     0.148 A 
ATOM     56  C   UNL     1       7.151  -4.712   6.735  1.00  0.00     0.002 A 
ATOM     57  C   UNL     1       7.635  -6.951   5.938  1.00  0.00     0.091 A 
ATOM     58  F   UNL     1       5.937  -8.168   4.787  1.00  0.00    -0.205 F 
ATOM     59  C   UNL     1       8.044  -5.769   6.575  1.00  0.00     0.022 A 
BRANCH  57  60
ATOM     60  S   UNL     1       8.831  -8.290   5.857  1.00  0.00     0.127 S 
ATOM     61  O   UNL     1       9.752  -7.801   4.832  1.00  0.00    -0.237 OA
ATOM     62  O   UNL     1       9.379  -8.298   7.214  1.00  0.00    -0.237 OA
ATOM     63  O   UNL     1       8.074  -9.482   5.503  1.00  0.00    -0.744 OA
ENDBRANCH  57  60
ENDBRANCH  39  53
BRANCH  40  64
ATOM     64  C   UNL     1      -3.925  -6.813   2.178  1.00  0.00     0.023 A 
ATOM     65  C   UNL     1      -5.006  -6.309   2.927  1.00  0.00     0.012 A 
ATOM     66  C   UNL     1      -4.175  -7.394   0.920  1.00  0.00     0.148 A 
ATOM     67  C   UNL     1      -6.310  -6.397   2.440  1.00  0.00     0.002 A 
ATOM     68  C   UNL     1      -5.466  -7.411   0.408  1.00  0.00     0.091 A 
ATOM     69  F   UNL     1      -3.139  -7.898   0.234  1.00  0.00    -0.205 F 
ATOM     70  C   UNL     1      -6.539  -6.931   1.174  1.00  0.00     0.022 A 
BRANCH  68  71
ATOM     71  S   UNL     1      -5.812  -7.920  -1.279  1.00  0.00     0.127 S 
ATOM     72  O   UNL     1      -6.395  -9.243  -1.081  1.00  0.00    -0.237 OA
ATOM     73  O   UNL     1      -6.753  -6.891  -1.722  1.00  0.00    -0.237 OA
ATOM     74  O   UNL     1      -4.527  -7.884  -1.965  1.00  0.00    -0.744 OA
ENDBRANCH  68  71
ENDBRANCH  40  64
BRANCH  52  75
ATOM     75  C   UNL     1      -0.536  -9.567   7.612  1.00  0.00     0.023 A 
ATOM     76  C   UNL     1      -0.768 -10.920   7.293  1.00  0.00     0.012 A 
ATOM     77  C   UNL     1      -0.681  -9.136   8.944  1.00  0.00     0.148 A 
ATOM     78  C   UNL     1      -1.183 -11.819   8.275  1.00  0.00     0.002 A 
ATOM     79  C   UNL     1      -1.050 -10.048   9.927  1.00  0.00     0.091 A 
ATOM     80  F   UNL     1      -0.479  -7.840   9.226  1.00  0.00    -0.205 F 
ATOM     81  C   UNL     1      -1.315 -11.386   9.592  1.00  0.00     0.022 A 
BRANCH  79  82
ATOM     82  S   UNL     1      -1.157  -9.588  11.659  1.00  0.00     0.127 S 
ATOM     83  O   UNL     1      -2.597  -9.412  11.834  1.00  0.00    -0.237 OA
ATOM     84  O   UNL     1      -0.600 -10.762  12.333  1.00  0.00    -0.237 OA
ATOM     85  O   UNL     1      -0.351  -8.381  11.797  1.00  0.00    -0.744 OA
ENDBRANCH  79  82
ENDBRANCH  52  75
ENDBRANCH  26  27
ENDBRANCH  19  21
ENDBRANCH  18  19
ENDBRANCH   1  18
TORSDOF 15
