REMARK SMILES COc1cc(/C=C2\SC(=S)N(CC(=O)OCCOC(=O)c3ccc(-c4c5nc(c(-c6cccc(S(=O)(=O)[O-])c6F)c6ccc([nH]6)c(-c6cccc(S(=O)(=O)[O-])c6F)c6nc(c(-c7cccc(S(=O)(=O)[O-])c7F)c7ccc4[nH]7)C=C6)C=C5)cc3)C2=O)cc2c1OCO2
REMARK SMILES IDX 16 1 15 2 13 3 14 4 12 5 11 6 6 7 7 8 8 9 84 10 9 11 85 12
REMARK SMILES IDX 10 13 5 14 3 15 4 16 88 17 87 18 89 19 86 20 91 21 90 22
REMARK SMILES IDX 2 23 1 24 17 25 18 26 19 27 20 28 21 29 22 30 83 31 23 32
REMARK SMILES IDX 82 33 24 34 25 35 26 36 76 37 27 38 81 39 75 40 77 41 28 42
REMARK SMILES IDX 80 43 74 44 73 45 29 47 61 48 41 49 60 50 42 51 45 52 59 53
REMARK SMILES IDX 78 54 43 55 44 56 58 58 79 59 46 60 30 61 31 62 39 63 32 64
REMARK SMILES IDX 34 65 40 66 33 67 35 68 36 69 37 70 38 71 62 72 63 73 71 74
REMARK SMILES IDX 64 75 66 76 72 77 65 78 67 79 68 80 69 81 70 82 47 83 48 84
REMARK SMILES IDX 56 85 49 86 51 87 57 88 50 89 52 90 53 91 54 92 55 93
REMARK H PARENT 77 46 45 57
REMARK Flexibility Score: inf
ROOT
ATOM      1  C   UNL     1      -4.845  -7.929   5.416  1.00  0.00     0.274 C 
ENDROOT
BRANCH   1   2
ATOM      2  O   UNL     1      -3.534  -8.175   4.869  1.00  0.00    -0.461 OA
BRANCH   2   3
ATOM      3  C   UNL     1      -3.201  -9.484   4.691  1.00  0.00     0.326 C 
ATOM      4  O   UNL     1      -3.904 -10.435   5.014  1.00  0.00    -0.250 OA
BRANCH   3   5
ATOM      5  C   UNL     1      -1.830  -9.674   4.054  1.00  0.00     0.250 C 
BRANCH   5   6
ATOM      6  N   UNL     1      -1.148  -8.432   3.699  1.00  0.00    -0.282 N 
ATOM      7  C   UNL     1      -0.600  -5.947   1.129  1.00  0.00     0.029 C 
ATOM      8  C   UNL     1      -0.578  -6.653   2.268  1.00  0.00     0.081 C 
ATOM      9  S   UNL     1       0.373  -6.358   3.671  1.00  0.00    -0.054 SA
ATOM     10  C   UNL     1      -1.379  -7.888   2.448  1.00  0.00     0.266 C 
ATOM     11  C   UNL     1      -0.269  -7.759   4.515  1.00  0.00     0.148 C 
ATOM     12  O   UNL     1      -2.085  -8.377   1.580  1.00  0.00    -0.268 OA
ATOM     13  S   UNL     1       0.189  -8.146   6.072  1.00  0.00    -0.052 S 
BRANCH   7  14
ATOM     14  C   UNL     1       0.305  -4.830   0.848  1.00  0.00    -0.017 A 
ATOM     15  C   UNL     1       0.778  -2.432   0.776  1.00  0.00     0.165 A 
ATOM     16  C   UNL     1      -0.111  -3.494   1.005  1.00  0.00     0.058 A 
ATOM     17  C   UNL     1       2.084  -2.746   0.437  1.00  0.00     0.207 A 
ATOM     18  C   UNL     1       2.482  -4.056   0.283  1.00  0.00     0.170 A 
ATOM     19  O   UNL     1       3.125  -1.887   0.245  1.00  0.00    -0.450 OA
ATOM     20  C   UNL     1       1.620  -5.114   0.463  1.00  0.00     0.059 A 
ATOM     21  O   UNL     1       3.800  -4.178  -0.032  1.00  0.00    -0.453 OA
ATOM     22  C   UNL     1       4.211  -2.801   0.004  1.00  0.00     0.468 C 
BRANCH  15  23
ATOM     23  O   UNL     1       0.264  -1.181   0.968  1.00  0.00    -0.493 OA
ATOM     24  C   UNL     1       0.825  -0.165   0.142  1.00  0.00     0.278 C 
ENDBRANCH  15  23
ENDBRANCH   7  14
ENDBRANCH   5   6
ENDBRANCH   3   5
ENDBRANCH   2   3
ENDBRANCH   1   2
BRANCH   1  25
ATOM     25  C   UNL     1      -5.785  -7.402   4.335  1.00  0.00     0.275 C 
BRANCH  25  26
ATOM     26  O   UNL     1      -5.854  -8.345   3.254  1.00  0.00    -0.458 OA
BRANCH  26  27
ATOM     27  C   UNL     1      -5.382  -7.903   2.064  1.00  0.00     0.338 C 
ATOM     28  O   UNL     1      -4.961  -6.789   1.804  1.00  0.00    -0.246 OA
BRANCH  27  29
ATOM     29  C   UNL     1      -5.463  -8.996   1.081  1.00  0.00     0.060 A 
ATOM     30  C   UNL     1      -4.606 -10.091   1.191  1.00  0.00     0.016 A 
ATOM     31  C   UNL     1      -6.322  -8.879  -0.010  1.00  0.00     0.016 A 
ATOM     32  C   UNL     1      -4.546 -11.035   0.168  1.00  0.00     0.010 A 
ATOM     33  C   UNL     1      -6.315  -9.867  -0.999  1.00  0.00     0.010 A 
ATOM     34  C   UNL     1      -5.401 -10.935  -0.939  1.00  0.00    -0.014 A 
BRANCH  34  35
ATOM     35  C   UNL     1      -5.311 -11.918  -2.051  1.00  0.00     0.031 A 
ATOM     36  C   UNL     1      -4.906 -11.464  -3.430  1.00  0.00     0.074 A 
ATOM     37  C   UNL     1      -5.599 -13.216  -1.830  1.00  0.00     0.049 A 
ATOM     38  N   UNL     1      -4.886 -12.141  -4.550  1.00  0.00    -0.248 NA
ATOM     39  C   UNL     1      -4.474 -10.063  -3.571  1.00  0.00     0.031 C 
ATOM     40  C   UNL     1      -5.993 -13.789  -0.541  1.00  0.00     0.029 A 
ATOM     41  N   UNL     1      -5.620 -14.288  -2.688  1.00  0.00    -0.354 N 
ATOM     42  C   UNL     1      -4.487 -11.242  -5.532  1.00  0.00     0.074 A 
ATOM     43  C   UNL     1      -4.281  -9.967  -4.880  1.00  0.00     0.031 C 
ATOM     44  C   UNL     1      -6.216 -15.104  -0.693  1.00  0.00     0.029 A 
ATOM     45  C   UNL     1      -6.032 -15.460  -2.096  1.00  0.00     0.049 A 
ATOM     46  H   UNL     1      -5.365 -14.224  -3.637  1.00  0.00     0.167 HD
ATOM     47  C   UNL     1      -4.289 -11.462  -6.854  1.00  0.00     0.034 A 
ATOM     48  C   UNL     1      -6.264 -16.677  -2.627  1.00  0.00     0.034 A 
ATOM     49  C   UNL     1      -4.438 -12.742  -7.494  1.00  0.00     0.049 A 
ATOM     50  C   UNL     1      -6.041 -16.888  -4.100  1.00  0.00     0.074 A 
ATOM     51  C   UNL     1      -4.243 -13.066  -8.825  1.00  0.00     0.029 A 
ATOM     52  N   UNL     1      -4.802 -13.913  -6.847  1.00  0.00    -0.354 N 
ATOM     53  N   UNL     1      -5.602 -16.041  -4.999  1.00  0.00    -0.248 NA
ATOM     54  C   UNL     1      -6.324 -18.231  -4.628  1.00  0.00     0.031 C 
ATOM     55  C   UNL     1      -4.490 -14.434  -8.984  1.00  0.00     0.029 A 
ATOM     56  C   UNL     1      -4.829 -14.963  -7.750  1.00  0.00     0.049 A 
ATOM     57  H   UNL     1      -5.010 -13.987  -5.888  1.00  0.00     0.167 HD
ATOM     58  C   UNL     1      -5.526 -16.755  -6.189  1.00  0.00     0.074 A 
ATOM     59  C   UNL     1      -5.939 -18.111  -5.891  1.00  0.00     0.031 C 
ATOM     60  C   UNL     1      -5.170 -16.322  -7.423  1.00  0.00     0.034 A 
BRANCH  47  61
ATOM     61  C   UNL     1      -3.836 -10.303  -7.702  1.00  0.00     0.023 A 
ATOM     62  C   UNL     1      -2.495  -9.877  -7.626  1.00  0.00     0.012 A 
ATOM     63  C   UNL     1      -4.705  -9.694  -8.629  1.00  0.00     0.148 A 
ATOM     64  C   UNL     1      -2.030  -8.849  -8.446  1.00  0.00     0.002 A 
ATOM     65  C   UNL     1      -4.224  -8.696  -9.469  1.00  0.00     0.091 A 
ATOM     66  F   UNL     1      -5.981 -10.103  -8.673  1.00  0.00    -0.205 F 
ATOM     67  C   UNL     1      -2.890  -8.267  -9.374  1.00  0.00     0.022 A 
BRANCH  65  68
ATOM     68  S   UNL     1      -5.231  -7.932 -10.747  1.00  0.00     0.127 S 
ATOM     69  O   UNL     1      -5.409  -6.582 -10.215  1.00  0.00    -0.237 OA
ATOM     70  O   UNL     1      -4.357  -8.015 -11.918  1.00  0.00    -0.237 OA
ATOM     71  O   UNL     1      -6.444  -8.733 -10.836  1.00  0.00    -0.744 OA
ENDBRANCH  65  68
ENDBRANCH  47  61
BRANCH  48  72
ATOM     72  C   UNL     1      -6.702 -17.804  -1.755  1.00  0.00     0.023 A 
ATOM     73  C   UNL     1      -5.829 -18.886  -1.534  1.00  0.00     0.012 A 
ATOM     74  C   UNL     1      -7.969 -17.810  -1.141  1.00  0.00     0.148 A 
ATOM     75  C   UNL     1      -6.220 -19.968  -0.745  1.00  0.00     0.002 A 
ATOM     76  C   UNL     1      -8.331 -18.864  -0.308  1.00  0.00     0.091 A 
ATOM     77  F   UNL     1      -8.802 -16.787  -1.381  1.00  0.00    -0.205 F 
ATOM     78  C   UNL     1      -7.466 -19.952  -0.122  1.00  0.00     0.022 A 
BRANCH  76  79
ATOM     79  S   UNL     1      -9.862 -18.838   0.630  1.00  0.00     0.127 S 
ATOM     80  O   UNL     1     -10.745 -19.640  -0.211  1.00  0.00    -0.237 OA
ATOM     81  O   UNL     1      -9.468 -19.472   1.890  1.00  0.00    -0.237 OA
ATOM     82  O   UNL     1     -10.202 -17.427   0.760  1.00  0.00    -0.744 OA
ENDBRANCH  76  79
ENDBRANCH  48  72
BRANCH  60  83
ATOM     83  C   UNL     1      -5.171 -17.330  -8.541  1.00  0.00     0.023 A 
ATOM     84  C   UNL     1      -6.396 -17.765  -9.085  1.00  0.00     0.012 A 
ATOM     85  C   UNL     1      -3.963 -17.791  -9.098  1.00  0.00     0.148 A 
ATOM     86  C   UNL     1      -6.418 -18.667 -10.147  1.00  0.00     0.002 A 
ATOM     87  C   UNL     1      -3.993 -18.658 -10.184  1.00  0.00     0.091 A 
ATOM     88  F   UNL     1      -2.808 -17.381  -8.553  1.00  0.00    -0.205 F 
ATOM     89  C   UNL     1      -5.219 -19.105 -10.703  1.00  0.00     0.022 A 
BRANCH  87  90
ATOM     90  S   UNL     1      -2.497 -19.203 -11.018  1.00  0.00     0.127 S 
ATOM     91  O   UNL     1      -2.362 -20.572 -10.524  1.00  0.00    -0.237 OA
ATOM     92  O   UNL     1      -2.868 -19.098 -12.429  1.00  0.00    -0.237 OA
ATOM     93  O   UNL     1      -1.451 -18.279 -10.601  1.00  0.00    -0.744 OA
ENDBRANCH  87  90
ENDBRANCH  60  83
ENDBRANCH  34  35
ENDBRANCH  27  29
ENDBRANCH  26  27
ENDBRANCH  25  26
ENDBRANCH   1  25
TORSDOF 17
