REMARK SMILES COc1ccc(N2C(=O)S[C@@H](CC(=O)Nc3nc(CC(=O)OCCOC(=O)c4ccc(-c5c6nc(c(-c7cccc(S(=O)(=O)[O-])c7F)c7ccc([nH]7)c(-c7cccc(S(=O)(=O)[O-])c7F)c7nc(c(-c8cccc(S(=O)(=O)[O-])c8F)c8ccc5[nH]8)C=C7)C=C6)cc4)cs3)C2=O)cc1
REMARK SMILES IDX 22 1 20 2 21 3 19 4 18 5 16 6 17 7 92 8 91 9 15 10 13 11
REMARK SMILES IDX 14 12 12 14 11 15 7 16 8 17 93 18 9 19 10 20 94 21 6 22 3 23
REMARK SMILES IDX 4 24 96 25 5 26 95 27 2 28 1 29 23 30 24 31 25 32 26 33
REMARK SMILES IDX 27 34 28 35 29 36 90 37 30 38 89 39 31 40 32 41 33 42 83 43
REMARK SMILES IDX 34 44 88 45 82 46 84 47 35 48 87 49 81 50 80 51 36 53 68 54
REMARK SMILES IDX 48 55 67 56 49 57 52 58 66 59 85 60 50 61 51 62 65 64 86 65
REMARK SMILES IDX 53 66 37 67 38 68 46 69 39 70 41 71 47 72 40 73 42 74 43 75
REMARK SMILES IDX 44 76 45 77 69 78 70 79 78 80 71 81 73 82 79 83 72 84 74 85
REMARK SMILES IDX 75 86 76 87 77 88 54 89 55 90 63 91 56 92 58 93 64 94 57 95
REMARK SMILES IDX 59 96 60 97 61 98 62 99
REMARK H PARENT 15 13 84 52 52 63
REMARK Flexibility Score: inf
ROOT
ATOM      1  O   UNL     1       2.309   2.438  -6.196  1.00  0.00    -0.462 OA
ENDROOT
BRANCH   1   2
ATOM      2  C   UNL     1       2.162   1.376  -5.367  1.00  0.00     0.312 C 
ATOM      3  O   UNL     1       2.490   1.372  -4.183  1.00  0.00    -0.252 OA
BRANCH   2   4
ATOM      4  C   UNL     1       1.646   0.138  -6.028  1.00  0.00     0.179 C 
BRANCH   4   5
ATOM      5  C   UNL     1       0.808   0.255  -7.254  1.00  0.00     0.065 A 
ATOM      6  C   UNL     1       0.273  -0.537  -9.243  1.00  0.00     0.189 A 
ATOM      7  N   UNL     1       1.181  -0.559  -8.309  1.00  0.00    -0.224 NA
ATOM      8  S   UNL     1      -0.978   0.588  -9.055  1.00  0.00    -0.105 S 
ATOM      9  C   UNL     1      -0.414   0.874  -7.448  1.00  0.00     0.093 A 
BRANCH   6  10
ATOM     10  N   UNL     1       0.258  -1.315 -10.357  1.00  0.00    -0.302 N 
ATOM     11  C   UNL     1       0.845  -2.549 -10.429  1.00  0.00     0.227 C 
ATOM     12  O   UNL     1       1.237  -2.962 -11.524  1.00  0.00    -0.275 OA
ATOM     13  H   UNL     1      -0.201  -0.972 -11.157  1.00  0.00     0.172 HD
BRANCH  11  14
ATOM     14  C   UNL     1       0.770  -3.502  -9.228  1.00  0.00     0.125 C 
BRANCH  14  15
ATOM     15  C   UNL     1       1.747  -3.268  -8.087  1.00  0.00     0.156 C 
ATOM     16  N   UNL     1       1.968  -3.395  -5.705  1.00  0.00    -0.240 N 
ATOM     17  C   UNL     1       3.099  -4.074  -6.089  1.00  0.00     0.293 C 
ATOM     18  C   UNL     1       1.061  -3.127  -6.725  1.00  0.00     0.248 C 
ATOM     19  O   UNL     1       4.089  -4.368  -5.431  1.00  0.00    -0.261 OA
ATOM     20  S   UNL     1       2.966  -4.574  -7.778  1.00  0.00    -0.050 SA
ATOM     21  O   UNL     1      -0.094  -2.736  -6.592  1.00  0.00    -0.273 OA
BRANCH  16  22
ATOM     22  C   UNL     1       1.746  -2.973  -4.357  1.00  0.00     0.053 A 
ATOM     23  C   UNL     1       1.310  -1.954  -1.758  1.00  0.00     0.119 A 
ATOM     24  C   UNL     1       0.270  -2.553  -2.464  1.00  0.00     0.048 A 
ATOM     25  C   UNL     1       2.578  -1.901  -2.325  1.00  0.00     0.048 A 
ATOM     26  C   UNL     1       0.474  -3.023  -3.768  1.00  0.00     0.031 A 
ATOM     27  C   UNL     1       2.799  -2.427  -3.605  1.00  0.00     0.031 A 
BRANCH  23  28
ATOM     28  O   UNL     1       1.023  -1.514  -0.499  1.00  0.00    -0.497 OA
ATOM     29  C   UNL     1       1.568  -0.236  -0.176  1.00  0.00     0.278 C 
ENDBRANCH  23  28
ENDBRANCH  16  22
ENDBRANCH  14  15
ENDBRANCH  11  14
ENDBRANCH   6  10
ENDBRANCH   4   5
ENDBRANCH   2   4
ENDBRANCH   1   2
BRANCH   1  30
ATOM     30  C   UNL     1       2.818   3.628  -5.562  1.00  0.00     0.274 C 
BRANCH  30  31
ATOM     31  C   UNL     1       1.681   4.540  -5.100  1.00  0.00     0.275 C 
BRANCH  31  32
ATOM     32  O   UNL     1       0.870   3.907  -4.088  1.00  0.00    -0.458 OA
BRANCH  32  33
ATOM     33  C   UNL     1      -0.305   3.409  -4.536  1.00  0.00     0.338 C 
ATOM     34  O   UNL     1      -0.737   3.479  -5.675  1.00  0.00    -0.246 OA
BRANCH  33  35
ATOM     35  C   UNL     1      -1.025   2.674  -3.484  1.00  0.00     0.060 A 
ATOM     36  C   UNL     1      -0.964   1.280  -3.468  1.00  0.00     0.016 A 
ATOM     37  C   UNL     1      -1.933   3.345  -2.667  1.00  0.00     0.016 A 
ATOM     38  C   UNL     1      -1.845   0.549  -2.675  1.00  0.00     0.010 A 
ATOM     39  C   UNL     1      -2.792   2.608  -1.839  1.00  0.00     0.010 A 
ATOM     40  C   UNL     1      -2.779   1.203  -1.863  1.00  0.00    -0.014 A 
BRANCH  40  41
ATOM     41  C   UNL     1      -3.775   0.399  -1.105  1.00  0.00     0.031 A 
ATOM     42  C   UNL     1      -5.221   0.413  -1.510  1.00  0.00     0.074 A 
ATOM     43  C   UNL     1      -3.382  -0.373  -0.075  1.00  0.00     0.049 A 
ATOM     44  N   UNL     1      -6.234  -0.205  -0.963  1.00  0.00    -0.248 NA
ATOM     45  C   UNL     1      -5.575   1.232  -2.680  1.00  0.00     0.031 C 
ATOM     46  C   UNL     1      -2.008  -0.477   0.404  1.00  0.00     0.029 A 
ATOM     47  N   UNL     1      -4.085  -1.210   0.754  1.00  0.00    -0.354 N 
ATOM     48  C   UNL     1      -7.353   0.186  -1.685  1.00  0.00     0.074 A 
ATOM     49  C   UNL     1      -6.893   1.097  -2.713  1.00  0.00     0.031 C 
ATOM     50  C   UNL     1      -1.958  -1.338   1.431  1.00  0.00     0.029 A 
ATOM     51  C   UNL     1      -3.308  -1.803   1.724  1.00  0.00     0.049 A 
ATOM     52  H   UNL     1      -5.052  -1.372   0.664  1.00  0.00     0.167 HD
ATOM     53  C   UNL     1      -8.645  -0.183  -1.512  1.00  0.00     0.034 A 
ATOM     54  C   UNL     1      -3.648  -2.607   2.750  1.00  0.00     0.034 A 
ATOM     55  C   UNL     1      -9.096  -1.103  -0.501  1.00  0.00     0.049 A 
ATOM     56  C   UNL     1      -5.092  -2.994   2.921  1.00  0.00     0.074 A 
ATOM     57  C   UNL     1     -10.383  -1.554  -0.262  1.00  0.00     0.029 A 
ATOM     58  N   UNL     1      -8.282  -1.706   0.446  1.00  0.00    -0.354 N 
ATOM     59  N   UNL     1      -6.126  -2.672   2.183  1.00  0.00    -0.248 NA
ATOM     60  C   UNL     1      -5.412  -3.878   4.050  1.00  0.00     0.031 C 
ATOM     61  C   UNL     1     -10.351  -2.403   0.850  1.00  0.00     0.029 A 
ATOM     62  C   UNL     1      -9.038  -2.520   1.275  1.00  0.00     0.049 A 
ATOM     63  H   UNL     1      -7.309  -1.575   0.519  1.00  0.00     0.167 HD
ATOM     64  C   UNL     1      -7.212  -3.342   2.734  1.00  0.00     0.074 A 
ATOM     65  C   UNL     1      -6.702  -4.109   3.852  1.00  0.00     0.031 C 
ATOM     66  C   UNL     1      -8.514  -3.315   2.357  1.00  0.00     0.034 A 
BRANCH  53  67
ATOM     67  C   UNL     1      -9.668   0.421  -2.438  1.00  0.00     0.023 A 
ATOM     68  C   UNL     1      -9.716   0.026  -3.791  1.00  0.00     0.012 A 
ATOM     69  C   UNL     1     -10.604   1.357  -1.957  1.00  0.00     0.148 A 
ATOM     70  C   UNL     1     -10.656   0.582  -4.658  1.00  0.00     0.002 A 
ATOM     71  C   UNL     1     -11.568   1.869  -2.816  1.00  0.00     0.091 A 
ATOM     72  F   UNL     1     -10.527   1.736  -0.673  1.00  0.00    -0.205 F 
ATOM     73  C   UNL     1     -11.587   1.495  -4.169  1.00  0.00     0.022 A 
BRANCH  71  74
ATOM     74  S   UNL     1     -12.858   2.991  -2.264  1.00  0.00     0.127 S 
ATOM     75  O   UNL     1     -12.478   4.232  -2.938  1.00  0.00    -0.237 OA
ATOM     76  O   UNL     1     -14.064   2.354  -2.795  1.00  0.00    -0.237 OA
ATOM     77  O   UNL     1     -12.774   3.020  -0.811  1.00  0.00    -0.744 OA
ENDBRANCH  71  74
ENDBRANCH  53  67
BRANCH  54  78
ATOM     78  C   UNL     1      -2.606  -3.114   3.690  1.00  0.00     0.023 A 
ATOM     79  C   UNL     1      -2.312  -4.491   3.732  1.00  0.00     0.012 A 
ATOM     80  C   UNL     1      -1.910  -2.240   4.548  1.00  0.00     0.148 A 
ATOM     81  C   UNL     1      -1.376  -4.993   4.638  1.00  0.00     0.002 A 
ATOM     82  C   UNL     1      -0.935  -2.737   5.404  1.00  0.00     0.091 A 
ATOM     83  F   UNL     1      -2.213  -0.935   4.507  1.00  0.00    -0.205 F 
ATOM     84  C   UNL     1      -0.681  -4.116   5.467  1.00  0.00     0.022 A 
BRANCH  82  85
ATOM     85  S   UNL     1       0.096  -1.668   6.414  1.00  0.00     0.127 S 
ATOM     86  O   UNL     1      -0.388  -1.969   7.759  1.00  0.00    -0.237 OA
ATOM     87  O   UNL     1       1.437  -2.169   6.114  1.00  0.00    -0.237 OA
ATOM     88  O   UNL     1      -0.158  -0.313   5.940  1.00  0.00    -0.744 OA
ENDBRANCH  82  85
ENDBRANCH  54  78
BRANCH  66  89
ATOM     89  C   UNL     1      -9.475  -4.187   3.124  1.00  0.00     0.023 A 
ATOM     90  C   UNL     1      -9.807  -3.879   4.459  1.00  0.00     0.012 A 
ATOM     91  C   UNL     1     -10.078  -5.300   2.504  1.00  0.00     0.148 A 
ATOM     92  C   UNL     1     -10.681  -4.694   5.179  1.00  0.00     0.002 A 
ATOM     93  C   UNL     1     -10.991  -6.073   3.209  1.00  0.00     0.091 A 
ATOM     94  F   UNL     1      -9.737  -5.592   1.240  1.00  0.00    -0.205 F 
ATOM     95  C   UNL     1     -11.280  -5.783   4.552  1.00  0.00     0.022 A 
BRANCH  93  96
ATOM     96  S   UNL     1     -11.886  -7.431   2.447  1.00  0.00     0.127 S 
ATOM     97  O   UNL     1     -11.205  -8.593   3.014  1.00  0.00    -0.237 OA
ATOM     98  O   UNL     1     -13.248  -7.221   2.940  1.00  0.00    -0.237 OA
ATOM     99  O   UNL     1     -11.734  -7.252   1.009  1.00  0.00    -0.744 OA
ENDBRANCH  93  96
ENDBRANCH  66  89
ENDBRANCH  40  41
ENDBRANCH  33  35
ENDBRANCH  32  33
ENDBRANCH  31  32
ENDBRANCH  30  31
ENDBRANCH   1  30
TORSDOF 20
