REMARK SMILES Cc1cccc(O[C@H](C)C(=O)N2CCC[C@@H](C(=O)OCCOC(=O)c3ccc(-c4c5nc(c(-c6cccc(S(=O)(=O)[O-])c6F)c6ccc([nH]6)c(-c6cccc(S(=O)(=O)[O-])c6F)c6nc(c(-c7cccc(S(=O)(=O)[O-])c7F)c7ccc4[nH]7)C=C6)C=C5)cc3)C2)c1
REMARK SMILES IDX 20 1 19 2 17 3 18 4 16 5 12 6 13 7 88 8 14 9 15 10 10 11
REMARK SMILES IDX 11 12 8 13 9 14 7 15 6 16 1 17 2 18 3 19 89 20 4 21 5 22
REMARK SMILES IDX 21 23 22 24 23 25 24 26 25 27 26 28 87 29 27 30 86 31 28 32
REMARK SMILES IDX 29 33 30 34 80 35 31 36 85 37 79 38 81 39 32 40 84 41 78 42
REMARK SMILES IDX 77 43 33 45 65 46 45 47 64 48 46 49 49 50 63 51 82 52 47 53
REMARK SMILES IDX 48 54 62 56 83 57 50 58 34 59 35 60 43 61 36 62 38 63 44 64
REMARK SMILES IDX 37 65 39 66 40 67 41 68 42 69 66 70 67 71 75 72 68 73 70 74
REMARK SMILES IDX 76 75 69 76 71 77 72 78 73 79 74 80 51 81 52 82 60 83 53 84
REMARK SMILES IDX 55 85 61 86 54 87 56 88 57 89 58 90 59 91
REMARK H PARENT 81 44 49 55
REMARK Flexibility Score: inf
ROOT
ATOM      1  C   UNL     1      -0.940  -1.672   0.159  1.00  0.00     0.274 C 
ENDROOT
BRANCH   1   2
ATOM      2  O   UNL     1      -0.010  -0.838  -0.556  1.00  0.00    -0.462 OA
BRANCH   2   3
ATOM      3  C   UNL     1      -0.446   0.372  -0.919  1.00  0.00     0.310 C 
ATOM      4  O   UNL     1      -1.586   0.765  -0.696  1.00  0.00    -0.252 OA
BRANCH   3   5
ATOM      5  C   UNL     1       0.561   1.351  -1.417  1.00  0.00     0.119 C 
ATOM      6  N   UNL     1       1.214   3.453  -0.541  1.00  0.00    -0.339 N 
ATOM      7  C   UNL     1       2.324   3.609  -1.498  1.00  0.00     0.119 C 
ATOM      8  C   UNL     1       0.980   2.092  -0.170  1.00  0.00     0.134 C 
ATOM      9  C   UNL     1       2.325   2.546  -2.638  1.00  0.00     0.022 C 
ATOM     10  C   UNL     1       1.822   1.131  -2.228  1.00  0.00     0.019 C 
BRANCH   6  11
ATOM     11  C   UNL     1       0.386   4.491  -0.147  1.00  0.00     0.263 C 
ATOM     12  O   UNL     1       0.588   5.640  -0.565  1.00  0.00    -0.271 OA
BRANCH  11  13
ATOM     13  C   UNL     1      -0.889   4.238   0.790  1.00  0.00     0.259 C 
ATOM     14  C   UNL     1      -2.064   3.566   0.067  1.00  0.00     0.064 C 
BRANCH  13  15
ATOM     15  O   UNL     1      -0.889   3.966   2.198  1.00  0.00    -0.481 OA
BRANCH  15  16
ATOM     16  C   UNL     1      -0.311   2.836   2.695  1.00  0.00     0.120 A 
ATOM     17  C   UNL     1       2.761   2.000   4.795  1.00  0.00     0.044 C 
ATOM     18  C   UNL     1       1.499   1.859   3.997  1.00  0.00    -0.047 A 
ATOM     19  C   UNL     1       0.908   0.598   3.867  1.00  0.00     0.003 A 
ATOM     20  C   UNL     1       0.889   2.972   3.394  1.00  0.00     0.049 A 
ATOM     21  C   UNL     1      -0.317   0.468   3.220  1.00  0.00     0.004 A 
ATOM     22  C   UNL     1      -0.941   1.588   2.662  1.00  0.00     0.046 A 
ENDBRANCH  15  16
ENDBRANCH  13  15
ENDBRANCH  11  13
ENDBRANCH   6  11
ENDBRANCH   3   5
ENDBRANCH   2   3
ENDBRANCH   1   2
BRANCH   1  23
ATOM     23  C   UNL     1      -2.498  -1.562   0.022  1.00  0.00     0.275 C 
BRANCH  23  24
ATOM     24  O   UNL     1      -3.248  -1.124  -1.167  1.00  0.00    -0.458 OA
BRANCH  24  25
ATOM     25  C   UNL     1      -2.929  -1.102  -2.484  1.00  0.00     0.338 C 
ATOM     26  O   UNL     1      -3.579  -0.513  -3.337  1.00  0.00    -0.246 OA
BRANCH  25  27
ATOM     27  C   UNL     1      -1.779  -1.922  -2.826  1.00  0.00     0.060 A 
ATOM     28  C   UNL     1      -0.655  -1.373  -3.460  1.00  0.00     0.016 A 
ATOM     29  C   UNL     1      -1.796  -3.213  -2.312  1.00  0.00     0.016 A 
ATOM     30  C   UNL     1       0.532  -2.098  -3.463  1.00  0.00     0.010 A 
ATOM     31  C   UNL     1      -0.604  -3.875  -2.212  1.00  0.00     0.010 A 
ATOM     32  C   UNL     1       0.551  -3.334  -2.811  1.00  0.00    -0.014 A 
BRANCH  32  33
ATOM     33  C   UNL     1       1.555  -4.348  -3.084  1.00  0.00     0.031 A 
ATOM     34  C   UNL     1       2.893  -4.386  -2.483  1.00  0.00     0.074 A 
ATOM     35  C   UNL     1       1.058  -5.292  -3.915  1.00  0.00     0.049 A 
ATOM     36  N   UNL     1       3.886  -4.990  -3.036  1.00  0.00    -0.248 NA
ATOM     37  C   UNL     1       3.242  -3.732  -1.224  1.00  0.00     0.031 C 
ATOM     38  C   UNL     1       1.537  -6.613  -4.254  1.00  0.00     0.029 A 
ATOM     39  N   UNL     1      -0.030  -5.089  -4.787  1.00  0.00    -0.354 N 
ATOM     40  C   UNL     1       4.910  -5.047  -2.112  1.00  0.00     0.074 A 
ATOM     41  C   UNL     1       4.495  -4.173  -1.037  1.00  0.00     0.031 C 
ATOM     42  C   UNL     1       0.961  -6.971  -5.421  1.00  0.00     0.029 A 
ATOM     43  C   UNL     1       0.261  -5.792  -5.940  1.00  0.00     0.049 A 
ATOM     44  H   UNL     1      -0.837  -4.553  -4.609  1.00  0.00     0.167 HD
ATOM     45  C   UNL     1       5.895  -5.976  -2.281  1.00  0.00     0.034 A 
ATOM     46  C   UNL     1       0.513  -5.137  -7.113  1.00  0.00     0.034 A 
ATOM     47  C   UNL     1       5.662  -6.740  -3.513  1.00  0.00     0.049 A 
ATOM     48  C   UNL     1       1.869  -5.516  -7.640  1.00  0.00     0.074 A 
ATOM     49  C   UNL     1       4.954  -7.913  -3.726  1.00  0.00     0.029 A 
ATOM     50  N   UNL     1       5.856  -6.160  -4.762  1.00  0.00    -0.354 N 
ATOM     51  N   UNL     1       2.857  -5.891  -6.881  1.00  0.00    -0.248 NA
ATOM     52  C   UNL     1       2.207  -5.484  -9.055  1.00  0.00     0.031 C 
ATOM     53  C   UNL     1       4.630  -7.984  -5.101  1.00  0.00     0.029 A 
ATOM     54  C   UNL     1       5.168  -6.875  -5.732  1.00  0.00     0.049 A 
ATOM     55  H   UNL     1       6.401  -5.358  -4.933  1.00  0.00     0.167 HD
ATOM     56  C   UNL     1       3.953  -6.118  -7.657  1.00  0.00     0.074 A 
ATOM     57  C   UNL     1       3.490  -5.880  -9.016  1.00  0.00     0.031 C 
ATOM     58  C   UNL     1       5.163  -6.447  -7.122  1.00  0.00     0.034 A 
BRANCH  45  59
ATOM     59  C   UNL     1       6.792  -6.489  -1.163  1.00  0.00     0.023 A 
ATOM     60  C   UNL     1       7.162  -7.855  -1.220  1.00  0.00     0.012 A 
ATOM     61  C   UNL     1       7.237  -5.771  -0.031  1.00  0.00     0.148 A 
ATOM     62  C   UNL     1       7.817  -8.509  -0.174  1.00  0.00     0.002 A 
ATOM     63  C   UNL     1       7.856  -6.434   1.039  1.00  0.00     0.091 A 
ATOM     64  F   UNL     1       7.107  -4.439  -0.006  1.00  0.00    -0.205 F 
ATOM     65  C   UNL     1       8.134  -7.805   0.974  1.00  0.00     0.022 A 
BRANCH  63  66
ATOM     66  S   UNL     1       8.258  -5.626   2.599  1.00  0.00     0.127 S 
ATOM     67  O   UNL     1       7.604  -6.501   3.576  1.00  0.00    -0.237 OA
ATOM     68  O   UNL     1       9.718  -5.684   2.617  1.00  0.00    -0.237 OA
ATOM     69  O   UNL     1       7.682  -4.289   2.519  1.00  0.00    -0.744 OA
ENDBRANCH  63  66
ENDBRANCH  45  59
BRANCH  46  70
ATOM     70  C   UNL     1      -0.053  -3.745  -7.268  1.00  0.00     0.023 A 
ATOM     71  C   UNL     1      -1.446  -3.548  -7.094  1.00  0.00     0.012 A 
ATOM     72  C   UNL     1       0.768  -2.601  -7.330  1.00  0.00     0.148 A 
ATOM     73  C   UNL     1      -1.989  -2.268  -6.922  1.00  0.00     0.002 A 
ATOM     74  C   UNL     1       0.220  -1.327  -7.148  1.00  0.00     0.091 A 
ATOM     75  F   UNL     1       2.084  -2.753  -7.526  1.00  0.00    -0.205 F 
ATOM     76  C   UNL     1      -1.154  -1.157  -6.939  1.00  0.00     0.022 A 
BRANCH  74  77
ATOM     77  S   UNL     1       1.292   0.113  -7.009  1.00  0.00     0.127 S 
ATOM     78  O   UNL     1       0.458   1.074  -6.284  1.00  0.00    -0.237 OA
ATOM     79  O   UNL     1       2.426  -0.369  -6.233  1.00  0.00    -0.237 OA
ATOM     80  O   UNL     1       1.537   0.443  -8.409  1.00  0.00    -0.744 OA
ENDBRANCH  74  77
ENDBRANCH  46  70
BRANCH  58  81
ATOM     81  C   UNL     1       6.444  -6.431  -7.905  1.00  0.00     0.023 A 
ATOM     82  C   UNL     1       6.631  -5.544  -8.983  1.00  0.00     0.012 A 
ATOM     83  C   UNL     1       7.558  -7.190  -7.483  1.00  0.00     0.148 A 
ATOM     84  C   UNL     1       7.844  -5.469  -9.666  1.00  0.00     0.002 A 
ATOM     85  C   UNL     1       8.794  -7.032  -8.098  1.00  0.00     0.091 A 
ATOM     86  F   UNL     1       7.424  -8.082  -6.489  1.00  0.00    -0.205 F 
ATOM     87  C   UNL     1       8.934  -6.199  -9.211  1.00  0.00     0.022 A 
BRANCH  85  88
ATOM     88  S   UNL     1      10.260  -7.776  -7.378  1.00  0.00     0.127 S 
ATOM     89  O   UNL     1      10.256  -9.108  -7.977  1.00  0.00    -0.237 OA
ATOM     90  O   UNL     1      11.332  -6.899  -7.853  1.00  0.00    -0.237 OA
ATOM     91  O   UNL     1      10.036  -7.712  -5.939  1.00  0.00    -0.744 OA
ENDBRANCH  85  88
ENDBRANCH  58  81
ENDBRANCH  32  33
ENDBRANCH  25  27
ENDBRANCH  24  25
ENDBRANCH  23  24
ENDBRANCH   1  23
TORSDOF 18
