REMARK SMILES COC(=O)c1ccc2c(c1)=N[C@H](c1cn(CCC(=O)OCCOC(=O)c3ccc(-c4c5nc(c(-c6cccc(S(=O)(=O)[O-])c6F)c6ccc([nH]6)c(-c6cccc(S(=O)(=O)[O-])c6F)c6nc(c(-c7cccc(S(=O)(=O)[O-])c7F)c7ccc4[nH]7)C=C6)C=C5)cc3)c3ccccc13)N=2
REMARK SMILES IDX 21 1 20 2 18 3 19 4 17 5 16 6 15 7 13 8 14 9 94 10 89 11
REMARK SMILES IDX 93 12 90 13 92 14 91 15 12 16 5 17 6 18 10 19 7 20 9 21 8 22
REMARK SMILES IDX 11 23 95 24 3 25 4 26 2 27 1 28 22 29 23 30 24 31 25 32
REMARK SMILES IDX 26 33 27 34 88 35 28 36 87 37 29 38 30 39 31 40 81 41 32 42
REMARK SMILES IDX 86 43 80 44 82 45 33 46 85 47 79 48 78 49 34 51 66 52 46 53
REMARK SMILES IDX 65 54 47 55 50 56 64 57 83 58 48 59 49 60 63 62 84 63 51 64
REMARK SMILES IDX 35 65 36 66 44 67 37 68 39 69 45 70 38 71 40 72 41 73 42 74
REMARK SMILES IDX 43 75 67 76 68 77 76 78 69 79 71 80 77 81 70 82 72 83 73 84
REMARK SMILES IDX 74 85 75 86 52 87 53 88 61 89 54 90 56 91 62 92 55 93 57 94
REMARK SMILES IDX 58 95 59 96 60 97
REMARK H PARENT 82 50 50 61
REMARK Flexibility Score: inf
ROOT
ATOM      1  C   UNL     1      -3.464 -12.048  -4.140  1.00  0.00     0.274 C 
ENDROOT
BRANCH   1   2
ATOM      2  O   UNL     1      -2.160 -11.957  -3.535  1.00  0.00    -0.462 OA
BRANCH   2   3
ATOM      3  C   UNL     1      -1.727 -12.976  -2.762  1.00  0.00     0.307 C 
ATOM      4  O   UNL     1      -2.359 -14.005  -2.560  1.00  0.00    -0.252 OA
BRANCH   3   5
ATOM      5  C   UNL     1      -0.374 -12.704  -2.135  1.00  0.00     0.144 C 
BRANCH   5   6
ATOM      6  C   UNL     1       0.428 -11.534  -2.721  1.00  0.00     0.134 C 
BRANCH   6   7
ATOM      7  N   UNL     1       0.145 -10.306  -1.993  1.00  0.00    -0.346 N 
ATOM      8  C   UNL     1      -0.259  -9.261  -0.089  1.00  0.00     0.024 A 
ATOM      9  C   UNL     1       0.696  -9.992  -0.780  1.00  0.00     0.094 A 
ATOM     10  C   UNL     1      -1.438  -9.295  -0.900  1.00  0.00     0.007 A 
ATOM     11  C   UNL     1      -0.969  -9.524  -2.187  1.00  0.00     0.048 A 
ATOM     12  C   UNL     1      -2.792  -8.960  -0.734  1.00  0.00     0.011 A 
ATOM     13  C   UNL     1      -1.653  -9.086  -3.323  1.00  0.00     0.027 A 
ATOM     14  C   UNL     1      -3.541  -8.621  -1.863  1.00  0.00     0.001 A 
ATOM     15  C   UNL     1      -2.944  -8.586  -3.123  1.00  0.00     0.002 A 
BRANCH   8  16
ATOM     16  C   UNL     1      -0.021  -8.415   1.132  1.00  0.00     0.255 C 
ATOM     17  C   UNL     1       0.294  -4.030   0.103  1.00  0.00     0.062 A 
ATOM     18  C   UNL     1      -1.110  -4.091   0.498  1.00  0.00     0.018 A 
ATOM     19  C   UNL     1       1.091  -5.113   0.106  1.00  0.00     0.046 A 
ATOM     20  C   UNL     1      -1.711  -5.215   0.916  1.00  0.00     0.031 A 
ATOM     21  C   UNL     1       0.520  -6.376   0.585  1.00  0.00     0.087 A 
ATOM     22  C   UNL     1      -0.897  -6.431   0.992  1.00  0.00     0.086 A 
ATOM     23  N   UNL     1       1.114  -7.499   0.782  1.00  0.00    -0.252 NA
ATOM     24  N   UNL     1      -1.231  -7.591   1.437  1.00  0.00    -0.252 NA
BRANCH  17  25
ATOM     25  C   UNL     1       0.937  -2.747  -0.322  1.00  0.00     0.337 C 
ATOM     26  O   UNL     1       1.867  -2.659  -1.090  1.00  0.00    -0.246 OA
BRANCH  25  27
ATOM     27  O   UNL     1       0.343  -1.710   0.336  1.00  0.00    -0.465 OA
ATOM     28  C   UNL     1       0.933  -0.436   0.070  1.00  0.00     0.282 C 
ENDBRANCH  25  27
ENDBRANCH  17  25
ENDBRANCH   8  16
ENDBRANCH   6   7
ENDBRANCH   5   6
ENDBRANCH   3   5
ENDBRANCH   2   3
ENDBRANCH   1   2
BRANCH   1  29
ATOM     29  C   UNL     1      -3.353 -11.573  -5.593  1.00  0.00     0.275 C 
BRANCH  29  30
ATOM     30  O   UNL     1      -2.706 -12.598  -6.365  1.00  0.00    -0.458 OA
BRANCH  30  31
ATOM     31  C   UNL     1      -1.356 -12.480  -6.442  1.00  0.00     0.338 C 
ATOM     32  O   UNL     1      -0.730 -11.444  -6.593  1.00  0.00    -0.246 OA
BRANCH  31  33
ATOM     33  C   UNL     1      -0.767 -13.758  -5.976  1.00  0.00     0.060 A 
ATOM     34  C   UNL     1      -1.518 -14.938  -5.959  1.00  0.00     0.016 A 
ATOM     35  C   UNL     1       0.476 -13.698  -5.333  1.00  0.00     0.016 A 
ATOM     36  C   UNL     1      -1.083 -16.010  -5.194  1.00  0.00     0.010 A 
ATOM     37  C   UNL     1       0.897 -14.764  -4.547  1.00  0.00     0.010 A 
ATOM     38  C   UNL     1       0.094 -15.900  -4.444  1.00  0.00    -0.014 A 
BRANCH  38  39
ATOM     39  C   UNL     1       0.598 -17.107  -3.799  1.00  0.00     0.031 A 
ATOM     40  C   UNL     1       1.277 -18.000  -4.767  1.00  0.00     0.074 A 
ATOM     41  C   UNL     1       0.586 -17.410  -2.486  1.00  0.00     0.049 A 
ATOM     42  N   UNL     1       0.816 -19.095  -5.276  1.00  0.00    -0.248 NA
ATOM     43  C   UNL     1       2.534 -17.529  -5.366  1.00  0.00     0.031 C 
ATOM     44  C   UNL     1       0.250 -16.545  -1.357  1.00  0.00     0.029 A 
ATOM     45  N   UNL     1       0.994 -18.566  -1.879  1.00  0.00    -0.354 N 
ATOM     46  C   UNL     1       1.836 -19.563  -6.093  1.00  0.00     0.074 A 
ATOM     47  C   UNL     1       2.766 -18.478  -6.271  1.00  0.00     0.031 C 
ATOM     48  C   UNL     1       0.699 -17.113  -0.212  1.00  0.00     0.029 A 
ATOM     49  C   UNL     1       1.200 -18.445  -0.509  1.00  0.00     0.049 A 
ATOM     50  H   UNL     1       1.129 -19.409  -2.369  1.00  0.00     0.167 HD
ATOM     51  C   UNL     1       2.008 -20.889  -6.332  1.00  0.00     0.034 A 
ATOM     52  C   UNL     1       1.785 -19.367   0.294  1.00  0.00     0.034 A 
ATOM     53  C   UNL     1       0.903 -21.680  -5.876  1.00  0.00     0.049 A 
ATOM     54  C   UNL     1       1.625 -20.685  -0.362  1.00  0.00     0.074 A 
ATOM     55  C   UNL     1      -0.402 -21.901  -6.254  1.00  0.00     0.029 A 
ATOM     56  N   UNL     1       1.040 -22.121  -4.587  1.00  0.00    -0.354 N 
ATOM     57  N   UNL     1       0.476 -21.277  -0.534  1.00  0.00    -0.248 NA
ATOM     58  C   UNL     1       2.750 -21.282  -1.072  1.00  0.00     0.031 C 
ATOM     59  C   UNL     1      -1.095 -22.277  -5.065  1.00  0.00     0.029 A 
ATOM     60  C   UNL     1      -0.189 -22.281  -4.005  1.00  0.00     0.049 A 
ATOM     61  H   UNL     1       1.899 -22.297  -4.141  1.00  0.00     0.167 HD
ATOM     62  C   UNL     1       0.651 -22.024  -1.684  1.00  0.00     0.074 A 
ATOM     63  C   UNL     1       2.091 -22.145  -1.848  1.00  0.00     0.031 C 
ATOM     64  C   UNL     1      -0.369 -22.189  -2.571  1.00  0.00     0.034 A 
BRANCH  51  65
ATOM     65  C   UNL     1       3.360 -21.505  -6.559  1.00  0.00     0.023 A 
ATOM     66  C   UNL     1       3.432 -22.757  -7.196  1.00  0.00     0.012 A 
ATOM     67  C   UNL     1       4.536 -21.015  -5.947  1.00  0.00     0.148 A 
ATOM     68  C   UNL     1       4.633 -23.472  -7.249  1.00  0.00     0.002 A 
ATOM     69  C   UNL     1       5.745 -21.681  -6.085  1.00  0.00     0.091 A 
ATOM     70  F   UNL     1       4.460 -19.971  -5.112  1.00  0.00    -0.205 F 
ATOM     71  C   UNL     1       5.797 -22.922  -6.719  1.00  0.00     0.022 A 
BRANCH  69  72
ATOM     72  S   UNL     1       7.274 -20.964  -5.477  1.00  0.00     0.127 S 
ATOM     73  O   UNL     1       7.498 -21.738  -4.260  1.00  0.00    -0.237 OA
ATOM     74  O   UNL     1       8.197 -21.249  -6.575  1.00  0.00    -0.237 OA
ATOM     75  O   UNL     1       6.981 -19.547  -5.300  1.00  0.00    -0.744 OA
ENDBRANCH  69  72
ENDBRANCH  51  65
BRANCH  52  76
ATOM     76  C   UNL     1       2.642 -19.224   1.499  1.00  0.00     0.023 A 
ATOM     77  C   UNL     1       2.920 -20.372   2.276  1.00  0.00     0.012 A 
ATOM     78  C   UNL     1       3.443 -18.081   1.703  1.00  0.00     0.148 A 
ATOM     79  C   UNL     1       4.010 -20.413   3.152  1.00  0.00     0.002 A 
ATOM     80  C   UNL     1       4.520 -18.122   2.587  1.00  0.00     0.091 A 
ATOM     81  F   UNL     1       3.217 -16.989   0.961  1.00  0.00    -0.205 F 
ATOM     82  C   UNL     1       4.821 -19.294   3.295  1.00  0.00     0.022 A 
BRANCH  80  83
ATOM     83  S   UNL     1       5.615 -16.715   2.821  1.00  0.00     0.127 S 
ATOM     84  O   UNL     1       5.814 -16.717   4.271  1.00  0.00    -0.237 OA
ATOM     85  O   UNL     1       6.785 -17.108   2.043  1.00  0.00    -0.237 OA
ATOM     86  O   UNL     1       4.877 -15.560   2.324  1.00  0.00    -0.744 OA
ENDBRANCH  80  83
ENDBRANCH  52  76
BRANCH  64  87
ATOM     87  C   UNL     1      -1.770 -22.038  -2.054  1.00  0.00     0.023 A 
ATOM     88  C   UNL     1      -2.297 -20.803  -1.630  1.00  0.00     0.012 A 
ATOM     89  C   UNL     1      -2.607 -23.166  -2.095  1.00  0.00     0.148 A 
ATOM     90  C   UNL     1      -3.634 -20.701  -1.238  1.00  0.00     0.002 A 
ATOM     91  C   UNL     1      -3.944 -23.052  -1.741  1.00  0.00     0.091 A 
ATOM     92  F   UNL     1      -2.079 -24.331  -2.501  1.00  0.00    -0.205 F 
ATOM     93  C   UNL     1      -4.461 -21.822  -1.305  1.00  0.00     0.022 A 
BRANCH  91  94
ATOM     94  S   UNL     1      -5.082 -24.430  -1.897  1.00  0.00     0.127 S 
ATOM     95  O   UNL     1      -5.356 -24.762  -0.500  1.00  0.00    -0.237 OA
ATOM     96  O   UNL     1      -6.206 -23.826  -2.615  1.00  0.00    -0.237 OA
ATOM     97  O   UNL     1      -4.375 -25.456  -2.654  1.00  0.00    -0.744 OA
ENDBRANCH  91  94
ENDBRANCH  64  87
ENDBRANCH  38  39
ENDBRANCH  31  33
ENDBRANCH  30  31
ENDBRANCH  29  30
ENDBRANCH   1  29
TORSDOF 19
