REMARK SMILES Cc1cc(C)c2c(=O)n(CCCC(=O)OCCOC(=O)c3ccc(-c4c5nc(c(-c6cccc(S(=O)(=O)[O-])c6F)c6ccc([nH]6)c(-c6cccc(S(=O)(=O)[O-])c6F)c6nc(c(-c7cccc(S(=O)(=O)[O-])c7F)c7ccc4[nH]7)C=C6)C=C5)cc3)sc2n1
REMARK SMILES IDX 16 1 15 2 13 3 14 4 12 5 11 6 10 7 9 8 1 9 2 10 3 11 86 12
REMARK SMILES IDX 4 13 85 14 5 15 6 16 84 17 7 18 8 19 17 20 18 21 19 22 20 23
REMARK SMILES IDX 21 24 22 25 83 26 23 27 82 28 24 29 25 30 26 31 76 32 27 33
REMARK SMILES IDX 81 34 75 35 77 36 28 37 80 38 74 39 73 40 29 42 61 43 41 44
REMARK SMILES IDX 60 45 42 46 45 47 59 48 78 49 43 50 44 51 58 53 79 54 46 55
REMARK SMILES IDX 30 56 31 57 39 58 32 59 34 60 40 61 33 62 35 63 36 64 37 65
REMARK SMILES IDX 38 66 62 67 63 68 71 69 64 70 66 71 72 72 65 73 67 74 68 75
REMARK SMILES IDX 69 76 70 77 47 78 48 79 56 80 49 81 51 82 57 83 50 84 52 85
REMARK SMILES IDX 53 86 54 87 55 88
REMARK H PARENT 77 41 45 52
REMARK Flexibility Score: inf
ROOT
ATOM      1  C   UNL     1      -4.408  -0.107   6.310  1.00  0.00     0.274 C 
ENDROOT
BRANCH   1   2
ATOM      2  O   UNL     1      -3.054  -0.584   6.389  1.00  0.00    -0.462 OA
BRANCH   2   3
ATOM      3  C   UNL     1      -2.107   0.220   6.925  1.00  0.00     0.305 C 
ATOM      4  O   UNL     1      -2.292   1.390   7.240  1.00  0.00    -0.252 OA
BRANCH   3   5
ATOM      5  C   UNL     1      -0.745  -0.448   7.039  1.00  0.00     0.124 C 
BRANCH   5   6
ATOM      6  C   UNL     1      -0.611  -1.978   7.103  1.00  0.00     0.035 C 
BRANCH   6   7
ATOM      7  C   UNL     1      -1.391  -2.857   6.112  1.00  0.00     0.139 C 
BRANCH   7   8
ATOM      8  N   UNL     1      -1.079  -2.615   4.711  1.00  0.00    -0.262 N 
ATOM      9  C   UNL     1       1.077  -0.002  -0.321  1.00  0.00     0.067 C 
ATOM     10  C   UNL     1       0.641  -1.040   0.666  1.00  0.00     0.039 A 
ATOM     11  C   UNL     1       1.092  -2.365   0.574  1.00  0.00     0.027 A 
ATOM     12  N   UNL     1      -0.184  -0.616   1.642  1.00  0.00    -0.241 NA
ATOM     13  C   UNL     1       0.748  -3.297   1.568  1.00  0.00    -0.033 A 
ATOM     14  C   UNL     1      -0.480  -1.526   2.582  1.00  0.00     0.146 A 
ATOM     15  C   UNL     1       1.180  -4.726   1.487  1.00  0.00     0.045 C 
ATOM     16  C   UNL     1      -0.011  -2.824   2.628  1.00  0.00     0.081 A 
ATOM     17  S   UNL     1      -1.535  -1.161   3.932  1.00  0.00    -0.035 S 
ATOM     18  C   UNL     1      -0.357  -3.483   3.907  1.00  0.00     0.270 A 
ATOM     19  O   UNL     1       0.018  -4.612   4.192  1.00  0.00    -0.268 OA
ENDBRANCH   7   8
ENDBRANCH   6   7
ENDBRANCH   5   6
ENDBRANCH   3   5
ENDBRANCH   2   3
ENDBRANCH   1   2
BRANCH   1  20
ATOM     20  C   UNL     1      -5.212  -0.648   7.479  1.00  0.00     0.275 C 
BRANCH  20  21
ATOM     21  O   UNL     1      -4.686  -0.142   8.700  1.00  0.00    -0.458 OA
BRANCH  21  22
ATOM     22  C   UNL     1      -3.707  -0.903   9.235  1.00  0.00     0.338 C 
ATOM     23  O   UNL     1      -3.151  -1.871   8.744  1.00  0.00    -0.246 OA
BRANCH  22  24
ATOM     24  C   UNL     1      -3.486  -0.496  10.610  1.00  0.00     0.060 A 
ATOM     25  C   UNL     1      -2.247  -0.779  11.196  1.00  0.00     0.016 A 
ATOM     26  C   UNL     1      -4.621  -0.148  11.347  1.00  0.00     0.016 A 
ATOM     27  C   UNL     1      -2.189  -0.864  12.568  1.00  0.00     0.010 A 
ATOM     28  C   UNL     1      -4.567  -0.260  12.706  1.00  0.00     0.010 A 
ATOM     29  C   UNL     1      -3.373  -0.684  13.288  1.00  0.00    -0.014 A 
BRANCH  29  30
ATOM     30  C   UNL     1      -3.350  -0.854  14.720  1.00  0.00     0.031 A 
ATOM     31  C   UNL     1      -2.749   0.299  15.426  1.00  0.00     0.074 A 
ATOM     32  C   UNL     1      -4.008  -1.876  15.299  1.00  0.00     0.049 A 
ATOM     33  N   UNL     1      -1.700   0.308  16.177  1.00  0.00    -0.248 NA
ATOM     34  C   UNL     1      -3.285   1.639  15.120  1.00  0.00     0.031 C 
ATOM     35  C   UNL     1      -4.889  -2.856  14.651  1.00  0.00     0.029 A 
ATOM     36  N   UNL     1      -4.170  -2.143  16.619  1.00  0.00    -0.354 N 
ATOM     37  C   UNL     1      -1.594   1.621  16.626  1.00  0.00     0.074 A 
ATOM     38  C   UNL     1      -2.438   2.422  15.783  1.00  0.00     0.031 C 
ATOM     39  C   UNL     1      -5.685  -3.419  15.588  1.00  0.00     0.029 A 
ATOM     40  C   UNL     1      -5.280  -2.936  16.896  1.00  0.00     0.049 A 
ATOM     41  H   UNL     1      -3.561  -1.808  17.316  1.00  0.00     0.167 HD
ATOM     42  C   UNL     1      -1.048   1.914  17.835  1.00  0.00     0.034 A 
ATOM     43  C   UNL     1      -5.873  -3.079  18.107  1.00  0.00     0.034 A 
ATOM     44  C   UNL     1      -0.274   0.821  18.352  1.00  0.00     0.049 A 
ATOM     45  C   UNL     1      -4.894  -2.629  19.126  1.00  0.00     0.074 A 
ATOM     46  C   UNL     1       0.830   0.121  17.909  1.00  0.00     0.029 A 
ATOM     47  N   UNL     1      -0.871   0.034  19.306  1.00  0.00    -0.354 N 
ATOM     48  N   UNL     1      -3.770  -3.241  19.373  1.00  0.00    -0.248 NA
ATOM     49  C   UNL     1      -4.968  -1.248  19.575  1.00  0.00     0.031 C 
ATOM     50  C   UNL     1       0.583  -1.231  18.284  1.00  0.00     0.029 A 
ATOM     51  C   UNL     1      -0.626  -1.275  18.983  1.00  0.00     0.049 A 
ATOM     52  H   UNL     1      -1.384   0.353  20.083  1.00  0.00     0.167 HD
ATOM     53  C   UNL     1      -2.858  -2.215  19.584  1.00  0.00     0.074 A 
ATOM     54  C   UNL     1      -3.673  -1.024  19.813  1.00  0.00     0.031 C 
ATOM     55  C   UNL     1      -1.540  -2.365  19.258  1.00  0.00     0.034 A 
BRANCH  42  56
ATOM     56  C   UNL     1      -1.510   3.059  18.695  1.00  0.00     0.023 A 
ATOM     57  C   UNL     1      -0.693   3.441  19.776  1.00  0.00     0.012 A 
ATOM     58  C   UNL     1      -2.806   3.624  18.633  1.00  0.00     0.148 A 
ATOM     59  C   UNL     1      -1.147   4.340  20.748  1.00  0.00     0.002 A 
ATOM     60  C   UNL     1      -3.213   4.592  19.539  1.00  0.00     0.091 A 
ATOM     61  F   UNL     1      -3.711   3.130  17.780  1.00  0.00    -0.205 F 
ATOM     62  C   UNL     1      -2.398   4.933  20.618  1.00  0.00     0.022 A 
BRANCH  60  63
ATOM     63  S   UNL     1      -4.782   5.448  19.358  1.00  0.00     0.127 S 
ATOM     64  O   UNL     1      -5.570   4.851  20.432  1.00  0.00    -0.237 OA
ATOM     65  O   UNL     1      -4.389   6.841  19.576  1.00  0.00    -0.237 OA
ATOM     66  O   UNL     1      -5.224   5.162  17.998  1.00  0.00    -0.744 OA
ENDBRANCH  60  63
ENDBRANCH  42  56
BRANCH  43  67
ATOM     67  C   UNL     1      -7.307  -3.258  18.444  1.00  0.00     0.023 A 
ATOM     68  C   UNL     1      -7.655  -3.716  19.731  1.00  0.00     0.012 A 
ATOM     69  C   UNL     1      -8.326  -2.702  17.637  1.00  0.00     0.148 A 
ATOM     70  C   UNL     1      -8.960  -3.580  20.218  1.00  0.00     0.002 A 
ATOM     71  C   UNL     1      -9.623  -2.572  18.125  1.00  0.00     0.091 A 
ATOM     72  F   UNL     1      -8.004  -2.214  16.433  1.00  0.00    -0.205 F 
ATOM     73  C   UNL     1      -9.941  -2.997  19.421  1.00  0.00     0.022 A 
BRANCH  71  74
ATOM     74  S   UNL     1     -10.934  -1.791  17.173  1.00  0.00     0.127 S 
ATOM     75  O   UNL     1     -12.019  -2.765  17.296  1.00  0.00    -0.237 OA
ATOM     76  O   UNL     1     -11.141  -0.548  17.911  1.00  0.00    -0.237 OA
ATOM     77  O   UNL     1     -10.411  -1.643  15.821  1.00  0.00    -0.744 OA
ENDBRANCH  71  74
ENDBRANCH  43  67
BRANCH  55  78
ATOM     78  C   UNL     1      -1.050  -3.749  18.892  1.00  0.00     0.023 A 
ATOM     79  C   UNL     1      -1.527  -4.446  17.760  1.00  0.00     0.012 A 
ATOM     80  C   UNL     1       0.055  -4.268  19.587  1.00  0.00     0.148 A 
ATOM     81  C   UNL     1      -0.925  -5.637  17.343  1.00  0.00     0.002 A 
ATOM     82  C   UNL     1       0.684  -5.423  19.137  1.00  0.00     0.091 A 
ATOM     83  F   UNL     1       0.499  -3.596  20.660  1.00  0.00    -0.205 F 
ATOM     84  C   UNL     1       0.191  -6.117  18.021  1.00  0.00     0.022 A 
BRANCH  82  85
ATOM     85  S   UNL     1       2.211  -6.009  19.877  1.00  0.00     0.127 S 
ATOM     86  O   UNL     1       1.759  -7.181  20.623  1.00  0.00    -0.237 OA
ATOM     87  O   UNL     1       3.033  -6.309  18.704  1.00  0.00    -0.237 OA
ATOM     88  O   UNL     1       2.713  -4.905  20.687  1.00  0.00    -0.744 OA
ENDBRANCH  82  85
ENDBRANCH  55  78
ENDBRANCH  29  30
ENDBRANCH  22  24
ENDBRANCH  21  22
ENDBRANCH  20  21
ENDBRANCH   1  20
TORSDOF 17
