REMARK SMILES C[C@@H](CC(=O)OCCOC(=O)c1ccc(-c2c3nc(c(-c4cccc(S(=O)(=O)[O-])c4F)c4ccc([nH]4)c(-c4cccc(S(=O)(=O)[O-])c4F)c4nc(c(-c5cccc(S(=O)(=O)[O-])c5F)c5ccc2[nH]5)C=C4)C=C3)cc1)NC(=O)N[C@H]1CCOC1
REMARK SMILES IDX 7 1 6 2 4 3 5 4 3 5 2 6 1 7 75 8 76 9 77 11 78 12 79 14
REMARK SMILES IDX 80 15 83 16 81 17 82 18 8 19 9 20 10 21 11 22 12 23 13 24
REMARK SMILES IDX 74 25 14 26 73 27 15 28 16 29 17 30 67 31 18 32 72 33 66 34
REMARK SMILES IDX 68 35 19 36 71 37 65 38 64 39 20 41 52 42 32 43 51 44 33 45
REMARK SMILES IDX 36 46 50 47 69 48 34 49 35 50 49 52 70 53 37 54 21 55 22 56
REMARK SMILES IDX 30 57 23 58 25 59 31 60 24 61 26 62 27 63 28 64 29 65 53 66
REMARK SMILES IDX 54 67 62 68 55 69 57 70 63 71 56 72 58 73 59 74 60 75 61 76
REMARK SMILES IDX 38 77 39 78 47 79 40 80 42 81 48 82 41 83 43 84 44 85 45 86
REMARK SMILES IDX 46 87
REMARK H PARENT 75 10 78 13 68 40 36 51
REMARK Flexibility Score: inf
ROOT
ATOM      1  C   UNL     1      -1.458  10.232  -1.114  1.00  0.00     0.274 C 
ENDROOT
BRANCH   1   2
ATOM      2  O   UNL     1      -0.995   8.987  -0.554  1.00  0.00    -0.462 OA
BRANCH   2   3
ATOM      3  C   UNL     1      -1.934   8.030  -0.369  1.00  0.00     0.307 C 
ATOM      4  O   UNL     1      -3.132   8.186  -0.575  1.00  0.00    -0.252 OA
BRANCH   3   5
ATOM      5  C   UNL     1      -1.395   6.761   0.241  1.00  0.00     0.147 C 
BRANCH   5   6
ATOM      6  C   UNL     1       0.000   6.247  -0.124  1.00  0.00     0.091 C 
ATOM      7  C   UNL     1       1.150   7.199   0.190  1.00  0.00     0.031 C 
BRANCH   6   8
ATOM      8  N   UNL     1       0.125   5.752  -1.487  1.00  0.00    -0.335 N 
ATOM      9  C   UNL     1       0.676   4.668  -2.047  1.00  0.00     0.315 C 
ATOM     10  H   UNL     1      -0.290   6.351  -2.149  1.00  0.00     0.165 HD
ATOM     11  O   UNL     1       0.846   4.653  -3.267  1.00  0.00    -0.249 OA
ATOM     12  N   UNL     1       1.065   3.582  -1.369  1.00  0.00    -0.333 N 
ATOM     13  H   UNL     1       1.551   2.937  -1.932  1.00  0.00     0.165 HD
BRANCH  12  14
ATOM     14  C   UNL     1       0.934   3.138   0.004  1.00  0.00     0.112 C 
ATOM     15  C   UNL     1       1.120   1.637   0.135  1.00  0.00     0.056 C 
ATOM     16  C   UNL     1       2.021   3.652   0.953  1.00  0.00     0.185 C 
ATOM     17  C   UNL     1       1.451   1.499   1.601  1.00  0.00     0.162 C 
ATOM     18  O   UNL     1       2.292   2.615   1.914  1.00  0.00    -0.379 OA
ENDBRANCH  12  14
ENDBRANCH   6   8
ENDBRANCH   5   6
ENDBRANCH   3   5
ENDBRANCH   2   3
ENDBRANCH   1   2
BRANCH   1  19
ATOM     19  C   UNL     1      -1.192  10.311  -2.620  1.00  0.00     0.275 C 
BRANCH  19  20
ATOM     20  O   UNL     1      -1.990   9.370  -3.361  1.00  0.00    -0.458 OA
BRANCH  20  21
ATOM     21  C   UNL     1      -1.403   8.171  -3.580  1.00  0.00     0.338 C 
ATOM     22  O   UNL     1      -0.288   7.829  -3.224  1.00  0.00    -0.246 OA
BRANCH  21  23
ATOM     23  C   UNL     1      -2.372   7.243  -4.176  1.00  0.00     0.060 A 
ATOM     24  C   UNL     1      -2.931   6.251  -3.365  1.00  0.00     0.016 A 
ATOM     25  C   UNL     1      -2.688   7.315  -5.531  1.00  0.00     0.016 A 
ATOM     26  C   UNL     1      -3.836   5.340  -3.898  1.00  0.00     0.010 A 
ATOM     27  C   UNL     1      -3.610   6.410  -6.062  1.00  0.00     0.010 A 
ATOM     28  C   UNL     1      -4.200   5.427  -5.247  1.00  0.00    -0.014 A 
BRANCH  28  29
ATOM     29  C   UNL     1      -5.239   4.529  -5.802  1.00  0.00     0.031 A 
ATOM     30  C   UNL     1      -4.875   3.478  -6.806  1.00  0.00     0.074 A 
ATOM     31  C   UNL     1      -6.523   4.713  -5.438  1.00  0.00     0.049 A 
ATOM     32  N   UNL     1      -5.661   2.721  -7.525  1.00  0.00    -0.248 NA
ATOM     33  C   UNL     1      -3.440   3.249  -7.032  1.00  0.00     0.031 C 
ATOM     34  C   UNL     1      -6.987   5.692  -4.453  1.00  0.00     0.029 A 
ATOM     35  N   UNL     1      -7.673   4.110  -5.878  1.00  0.00    -0.354 N 
ATOM     36  C   UNL     1      -4.822   1.957  -8.325  1.00  0.00     0.074 A 
ATOM     37  C   UNL     1      -3.464   2.338  -7.997  1.00  0.00     0.031 C 
ATOM     38  C   UNL     1      -8.326   5.636  -4.377  1.00  0.00     0.029 A 
ATOM     39  C   UNL     1      -8.815   4.664  -5.348  1.00  0.00     0.049 A 
ATOM     40  H   UNL     1      -7.681   3.355  -6.510  1.00  0.00     0.167 HD
ATOM     41  C   UNL     1      -5.157   1.018  -9.242  1.00  0.00     0.034 A 
ATOM     42  C   UNL     1     -10.111   4.447  -5.644  1.00  0.00     0.034 A 
ATOM     43  C   UNL     1      -6.511   0.627  -9.537  1.00  0.00     0.049 A 
ATOM     44  C   UNL     1     -10.455   3.443  -6.708  1.00  0.00     0.074 A 
ATOM     45  C   UNL     1      -6.954  -0.348 -10.412  1.00  0.00     0.029 A 
ATOM     46  N   UNL     1      -7.641   1.198  -8.970  1.00  0.00    -0.354 N 
ATOM     47  N   UNL     1      -9.655   2.667  -7.399  1.00  0.00    -0.248 NA
ATOM     48  C   UNL     1     -11.880   3.279  -7.031  1.00  0.00     0.031 C 
ATOM     49  C   UNL     1      -8.354  -0.353 -10.389  1.00  0.00     0.029 A 
ATOM     50  C   UNL     1      -8.782   0.610  -9.489  1.00  0.00     0.049 A 
ATOM     51  H   UNL     1      -7.633   1.916  -8.296  1.00  0.00     0.167 HD
ATOM     52  C   UNL     1     -10.476   1.909  -8.223  1.00  0.00     0.074 A 
ATOM     53  C   UNL     1     -11.840   2.303  -7.929  1.00  0.00     0.031 C 
ATOM     54  C   UNL     1     -10.133   0.985  -9.154  1.00  0.00     0.034 A 
BRANCH  41  55
ATOM     55  C   UNL     1      -4.038   0.330  -9.976  1.00  0.00     0.023 A 
ATOM     56  C   UNL     1      -3.264  -0.641  -9.309  1.00  0.00     0.012 A 
ATOM     57  C   UNL     1      -3.780   0.607 -11.332  1.00  0.00     0.148 A 
ATOM     58  C   UNL     1      -2.232  -1.304  -9.971  1.00  0.00     0.002 A 
ATOM     59  C   UNL     1      -2.772  -0.084 -11.996  1.00  0.00     0.091 A 
ATOM     60  F   UNL     1      -4.508   1.552 -11.944  1.00  0.00    -0.205 F 
ATOM     61  C   UNL     1      -1.992  -1.033 -11.316  1.00  0.00     0.022 A 
BRANCH  59  62
ATOM     62  S   UNL     1      -2.438   0.151 -13.746  1.00  0.00     0.127 S 
ATOM     63  O   UNL     1      -1.236   0.983 -13.709  1.00  0.00    -0.237 OA
ATOM     64  O   UNL     1      -2.214  -1.219 -14.209  1.00  0.00    -0.237 OA
ATOM     65  O   UNL     1      -3.628   0.785 -14.295  1.00  0.00    -0.744 OA
ENDBRANCH  59  62
ENDBRANCH  41  55
BRANCH  42  66
ATOM     66  C   UNL     1     -11.172   5.188  -4.906  1.00  0.00     0.023 A 
ATOM     67  C   UNL     1     -11.989   4.490  -3.997  1.00  0.00     0.012 A 
ATOM     68  C   UNL     1     -11.342   6.579  -5.056  1.00  0.00     0.148 A 
ATOM     69  C   UNL     1     -12.964   5.162  -3.258  1.00  0.00     0.002 A 
ATOM     70  C   UNL     1     -12.278   7.250  -4.278  1.00  0.00     0.091 A 
ATOM     71  F   UNL     1     -10.569   7.221  -5.944  1.00  0.00    -0.205 F 
ATOM     72  C   UNL     1     -13.099   6.542  -3.388  1.00  0.00     0.022 A 
BRANCH  70  73
ATOM     73  S   UNL     1     -12.429   9.041  -4.284  1.00  0.00     0.127 S 
ATOM     74  O   UNL     1     -13.698   9.232  -4.981  1.00  0.00    -0.237 OA
ATOM     75  O   UNL     1     -12.460   9.348  -2.853  1.00  0.00    -0.237 OA
ATOM     76  O   UNL     1     -11.245   9.532  -4.976  1.00  0.00    -0.744 OA
ENDBRANCH  70  73
ENDBRANCH  42  66
BRANCH  54  77
ATOM     77  C   UNL     1     -11.248   0.326  -9.922  1.00  0.00     0.023 A 
ATOM     78  C   UNL     1     -11.900   1.042 -10.944  1.00  0.00     0.012 A 
ATOM     79  C   UNL     1     -11.593  -1.019  -9.688  1.00  0.00     0.148 A 
ATOM     80  C   UNL     1     -12.895   0.435 -11.710  1.00  0.00     0.002 A 
ATOM     81  C   UNL     1     -12.555  -1.630 -10.482  1.00  0.00     0.091 A 
ATOM     82  F   UNL     1     -10.971  -1.676  -8.697  1.00  0.00    -0.205 F 
ATOM     83  C   UNL     1     -13.213  -0.902 -11.487  1.00  0.00     0.022 A 
BRANCH  81  84
ATOM     84  S   UNL     1     -12.974  -3.371 -10.328  1.00  0.00     0.127 S 
ATOM     85  O   UNL     1     -14.321  -3.304  -9.763  1.00  0.00    -0.237 OA
ATOM     86  O   UNL     1     -12.917  -3.828 -11.716  1.00  0.00    -0.237 OA
ATOM     87  O   UNL     1     -11.962  -3.953  -9.457  1.00  0.00    -0.744 OA
ENDBRANCH  81  84
ENDBRANCH  54  77
ENDBRANCH  28  29
ENDBRANCH  21  23
ENDBRANCH  20  21
ENDBRANCH  19  20
ENDBRANCH   1  19
TORSDOF 17
