REMARK SMILES [NH3+][C@@H]1CCCCC[C@H]1C(=O)N1[C@@H](C2CC2)SC[C@H]1C(=O)OCCOC(=O)c1ccc(-c2c3nc(c(-c4cccc(S(=O)(=O)[O-])c4F)c4ccc([nH]4)c(-c4cccc(S(=O)(=O)[O-])c4F)c4nc(c(-c5cccc(S(=O)(=O)[O-])c5F)c5ccc2[nH]5)C=C4)C=C3)cc1
REMARK SMILES IDX 21 1 19 2 20 3 18 4 11 5 12 6 16 7 17 8 9 9 10 10 8 11 2 12
REMARK SMILES IDX 1 13 3 17 7 19 6 20 5 21 4 22 13 24 14 25 15 26 22 27 23 28
REMARK SMILES IDX 24 29 25 30 26 31 27 32 28 33 89 34 29 35 88 36 30 37 31 38
REMARK SMILES IDX 32 39 82 40 33 41 87 42 81 43 83 44 34 45 86 46 80 47 79 48
REMARK SMILES IDX 35 50 67 51 47 52 66 53 48 54 51 55 65 56 84 57 49 58 50 59
REMARK SMILES IDX 64 61 85 62 52 63 36 64 37 65 45 66 38 67 40 68 46 69 39 70
REMARK SMILES IDX 41 71 42 72 43 73 44 74 68 75 69 76 77 77 70 78 72 79 78 80
REMARK SMILES IDX 71 81 73 82 74 83 75 84 76 85 53 86 54 87 62 88 55 89 57 90
REMARK SMILES IDX 63 91 56 92 58 93 59 94 60 95 61 96
REMARK H PARENT 1 14 1 15 1 16 83 49 51 60
REMARK Flexibility Score: 90.00
ROOT
ATOM      1  O   UNL     1       2.122   4.897   1.802  1.00  0.00    -0.461 OA
ENDROOT
BRANCH   1   2
ATOM      2  C   UNL     1       1.800   4.719   3.108  1.00  0.00     0.329 C 
ATOM      3  O   UNL     1       1.695   5.631   3.925  1.00  0.00    -0.250 OA
BRANCH   2   4
ATOM      4  C   UNL     1       1.573   3.257   3.518  1.00  0.00     0.206 C 
ATOM      5  N   UNL     1       1.700   2.161   2.558  1.00  0.00    -0.315 N 
ATOM      6  C   UNL     1       3.041   1.632   2.448  1.00  0.00     0.147 C 
ATOM      7  S   UNL     1       3.724   1.747   4.113  1.00  0.00    -0.134 SA
ATOM      8  C   UNL     1       2.487   2.941   4.703  1.00  0.00     0.109 C 
BRANCH   5   9
ATOM      9  C   UNL     1       0.660   1.886   1.702  1.00  0.00     0.233 C 
ATOM     10  O   UNL     1       0.144   2.793   1.047  1.00  0.00    -0.274 OA
BRANCH   9  11
ATOM     11  C   UNL     1      -0.041   0.512   1.790  1.00  0.00     0.136 C 
BRANCH  11  12
ATOM     12  C   UNL     1       0.769  -0.697   1.285  1.00  0.00     0.193 C 
BRANCH  12  13
ATOM     13  N   UNL     1       1.158  -0.530  -0.125  1.00  0.00    -0.354 N 
ATOM     14  H   UNL     1       1.691  -1.344  -0.429  1.00  0.00     0.344 HD
ATOM     15  H   UNL     1       1.731   0.308  -0.223  1.00  0.00     0.344 HD
ATOM     16  H   UNL     1       0.320  -0.438  -0.700  1.00  0.00     0.344 HD
ENDBRANCH  12  13
BRANCH  12  17
ATOM     17  C   UNL     1       0.034  -2.050   1.389  1.00  0.00     0.066 CG0
ATOM     18  G   UNL     1      -0.080  -2.551   2.830  1.00  0.00     0.000 G0
ENDBRANCH  12  17
ENDBRANCH  11  12
BRANCH  11  19
ATOM     19  C   UNL     1      -0.616   0.362   3.217  1.00  0.00     0.020 C 
BRANCH  19  20
ATOM     20  C   UNL     1      -1.760  -0.645   3.316  1.00  0.00     0.001 C 
BRANCH  20  21
ATOM     21  C   UNL     1      -1.323  -2.082   3.574  1.00  0.00     0.000 C 
BRANCH  21  22
ATOM     22  C   UNL     1      -0.080  -2.551   2.830  1.00  0.00     0.006 CG0
ATOM     23  G   UNL     1       0.034  -2.050   1.389  1.00  0.00     0.000 G0
ENDBRANCH  21  22
ENDBRANCH  20  21
ENDBRANCH  19  20
ENDBRANCH  11  19
ENDBRANCH   9  11
ENDBRANCH   5   9
BRANCH   6  24
ATOM     24  C   UNL     1       3.812   2.369   1.382  1.00  0.00     0.022 C 
ATOM     25  C   UNL     1       4.739   3.547   1.615  1.00  0.00     0.007 C 
ATOM     26  C   UNL     1       5.309   2.213   1.230  1.00  0.00     0.007 C 
ENDBRANCH   6  24
ENDBRANCH   2   4
ENDBRANCH   1   2
BRANCH   1  27
ATOM     27  C   UNL     1       2.309   6.267   1.389  1.00  0.00     0.274 C 
BRANCH  27  28
ATOM     28  C   UNL     1       1.082   6.776   0.646  1.00  0.00     0.275 C 
BRANCH  28  29
ATOM     29  O   UNL     1      -0.073   6.577   1.470  1.00  0.00    -0.458 OA
BRANCH  29  30
ATOM     30  C   UNL     1      -1.118   5.967   0.863  1.00  0.00     0.338 C 
ATOM     31  O   UNL     1      -1.231   5.691  -0.317  1.00  0.00    -0.246 OA
BRANCH  30  32
ATOM     32  C   UNL     1      -2.181   5.757   1.860  1.00  0.00     0.060 A 
ATOM     33  C   UNL     1      -1.925   5.092   3.062  1.00  0.00     0.016 A 
ATOM     34  C   UNL     1      -3.466   6.201   1.560  1.00  0.00     0.016 A 
ATOM     35  C   UNL     1      -2.966   4.825   3.951  1.00  0.00     0.010 A 
ATOM     36  C   UNL     1      -4.493   5.993   2.478  1.00  0.00     0.010 A 
ATOM     37  C   UNL     1      -4.259   5.282   3.668  1.00  0.00    -0.014 A 
BRANCH  37  38
ATOM     38  C   UNL     1      -5.392   5.022   4.590  1.00  0.00     0.031 A 
ATOM     39  C   UNL     1      -6.559   4.199   4.117  1.00  0.00     0.074 A 
ATOM     40  C   UNL     1      -5.415   5.604   5.805  1.00  0.00     0.049 A 
ATOM     41  N   UNL     1      -7.730   4.032   4.671  1.00  0.00    -0.248 NA
ATOM     42  C   UNL     1      -6.394   3.487   2.837  1.00  0.00     0.031 C 
ATOM     43  C   UNL     1      -4.348   6.436   6.365  1.00  0.00     0.029 A 
ATOM     44  N   UNL     1      -6.394   5.627   6.767  1.00  0.00    -0.354 N 
ATOM     45  C   UNL     1      -8.466   3.261   3.779  1.00  0.00     0.074 A 
ATOM     46  C   UNL     1      -7.604   2.975   2.654  1.00  0.00     0.031 C 
ATOM     47  C   UNL     1      -4.742   6.913   7.556  1.00  0.00     0.029 A 
ATOM     48  C   UNL     1      -6.106   6.468   7.818  1.00  0.00     0.049 A 
ATOM     49  H   UNL     1      -7.220   5.094   6.712  1.00  0.00     0.167 HD
ATOM     50  C   UNL     1      -9.745   2.832   3.893  1.00  0.00     0.034 A 
ATOM     51  C   UNL     1      -6.872   6.876   8.848  1.00  0.00     0.034 A 
ATOM     52  C   UNL     1     -10.572   3.068   5.045  1.00  0.00     0.049 A 
ATOM     53  C   UNL     1      -8.277   6.352   8.963  1.00  0.00     0.074 A 
ATOM     54  C   UNL     1     -11.850   2.601   5.295  1.00  0.00     0.029 A 
ATOM     55  N   UNL     1     -10.205   3.839   6.137  1.00  0.00    -0.354 N 
ATOM     56  N   UNL     1      -8.916   5.525   8.171  1.00  0.00    -0.248 NA
ATOM     57  C   UNL     1      -9.060   6.795  10.126  1.00  0.00     0.031 C 
ATOM     58  C   UNL     1     -12.263   3.104   6.532  1.00  0.00     0.029 A 
ATOM     59  C   UNL     1     -11.235   3.868   7.060  1.00  0.00     0.049 A 
ATOM     60  H   UNL     1      -9.341   4.298   6.240  1.00  0.00     0.167 HD
ATOM     61  C   UNL     1     -10.162   5.326   8.753  1.00  0.00     0.074 A 
ATOM     62  C   UNL     1     -10.179   6.098   9.979  1.00  0.00     0.031 C 
ATOM     63  C   UNL     1     -11.207   4.589   8.305  1.00  0.00     0.034 A 
BRANCH  50  64
ATOM     64  C   UNL     1     -10.332   2.034   2.760  1.00  0.00     0.023 A 
ATOM     65  C   UNL     1      -9.964   0.685   2.589  1.00  0.00     0.012 A 
ATOM     66  C   UNL     1     -11.324   2.593   1.929  1.00  0.00     0.148 A 
ATOM     67  C   UNL     1     -10.563  -0.092   1.598  1.00  0.00     0.002 A 
ATOM     68  C   UNL     1     -11.944   1.802   0.970  1.00  0.00     0.091 A 
ATOM     69  F   UNL     1     -11.645   3.884   2.098  1.00  0.00    -0.205 F 
ATOM     70  C   UNL     1     -11.560   0.462   0.798  1.00  0.00     0.022 A 
BRANCH  68  71
ATOM     71  S   UNL     1     -13.293   2.396  -0.058  1.00  0.00     0.127 S 
ATOM     72  O   UNL     1     -12.672   2.408  -1.381  1.00  0.00    -0.237 OA
ATOM     73  O   UNL     1     -14.304   1.356   0.132  1.00  0.00    -0.237 OA
ATOM     74  O   UNL     1     -13.657   3.704   0.470  1.00  0.00    -0.744 OA
ENDBRANCH  68  71
ENDBRANCH  50  64
BRANCH  51  75
ATOM     75  C   UNL     1      -6.321   7.821   9.861  1.00  0.00     0.023 A 
ATOM     76  C   UNL     1      -6.077   7.367  11.171  1.00  0.00     0.012 A 
ATOM     77  C   UNL     1      -6.016   9.156   9.531  1.00  0.00     0.148 A 
ATOM     78  C   UNL     1      -5.572   8.233  12.142  1.00  0.00     0.002 A 
ATOM     79  C   UNL     1      -5.456   9.997  10.486  1.00  0.00     0.091 A 
ATOM     80  F   UNL     1      -6.274   9.581   8.286  1.00  0.00    -0.205 F 
ATOM     81  C   UNL     1      -5.250   9.543  11.797  1.00  0.00     0.022 A 
BRANCH  79  82
ATOM     82  S   UNL     1      -4.885  11.649  10.075  1.00  0.00     0.127 S 
ATOM     83  O   UNL     1      -5.991  12.477  10.546  1.00  0.00    -0.237 OA
ATOM     84  O   UNL     1      -3.655  11.758  10.862  1.00  0.00    -0.237 OA
ATOM     85  O   UNL     1      -4.665  11.629   8.634  1.00  0.00    -0.744 OA
ENDBRANCH  79  82
ENDBRANCH  51  75
BRANCH  63  86
ATOM     86  C   UNL     1     -12.445   4.545   9.160  1.00  0.00     0.023 A 
ATOM     87  C   UNL     1     -13.298   5.665   9.211  1.00  0.00     0.012 A 
ATOM     88  C   UNL     1     -12.801   3.369   9.848  1.00  0.00     0.148 A 
ATOM     89  C   UNL     1     -14.473   5.625   9.960  1.00  0.00     0.002 A 
ATOM     90  C   UNL     1     -13.996   3.321  10.554  1.00  0.00     0.091 A 
ATOM     91  F   UNL     1     -11.964   2.322   9.802  1.00  0.00    -0.205 F 
ATOM     92  C   UNL     1     -14.828   4.450  10.620  1.00  0.00     0.022 A 
BRANCH  90  93
ATOM     93  S   UNL     1     -14.575   1.819  11.353  1.00  0.00     0.127 S 
ATOM     94  O   UNL     1     -14.300   2.105  12.760  1.00  0.00    -0.237 OA
ATOM     95  O   UNL     1     -15.995   1.803  10.999  1.00  0.00    -0.237 OA
ATOM     96  O   UNL     1     -13.798   0.734  10.769  1.00  0.00    -0.744 OA
ENDBRANCH  90  93
ENDBRANCH  63  86
ENDBRANCH  37  38
ENDBRANCH  30  32
ENDBRANCH  29  30
ENDBRANCH  28  29
ENDBRANCH  27  28
ENDBRANCH   1  27
TORSDOF 18
