REMARK SMILES O=C(OCCOC(=O)c1ccc(-c2c3nc(c(-c4cccc(S(=O)(=O)[O-])c4F)c4ccc([nH]4)c(-c4cccc(S(=O)(=O)[O-])c4F)c4nc(c(-c5cccc(S(=O)(=O)[O-])c5F)c5ccc2[nH]5)C=C4)C=C3)cc1)C1=Cc2c(ccc(Cl)c2Oc2ccccc2)O[C@H]1C(F)(F)F
REMARK SMILES IDX 5 1 4 2 3 3 2 4 1 5 72 6 73 7 89 8 74 9 88 10 75 11 80 12
REMARK SMILES IDX 76 13 78 14 77 15 79 16 90 17 91 18 92 19 93 20 81 21 82 22
REMARK SMILES IDX 83 23 87 24 84 25 86 26 85 27 6 28 7 29 8 30 9 31 10 32
REMARK SMILES IDX 71 33 11 34 70 35 12 36 13 37 14 38 64 39 15 40 69 41 63 42
REMARK SMILES IDX 65 43 16 44 68 45 62 46 61 47 17 49 49 50 29 51 48 52 30 53
REMARK SMILES IDX 33 54 47 55 66 56 31 57 32 58 46 60 67 61 34 62 18 63 19 64
REMARK SMILES IDX 27 65 20 66 22 67 28 68 21 69 23 70 24 71 25 72 26 73 50 74
REMARK SMILES IDX 51 75 59 76 52 77 54 78 60 79 53 80 55 81 56 82 57 83 58 84
REMARK SMILES IDX 35 85 36 86 44 87 37 88 39 89 45 90 38 91 40 92 41 93 42 94
REMARK SMILES IDX 43 95
REMARK H PARENT 65 48 33 59
REMARK Flexibility Score: inf
ROOT
ATOM      1  C   UNL     1       2.692   1.290   0.898  1.00  0.00     0.275 C 
ENDROOT
BRANCH   1   2
ATOM      2  C   UNL     1       2.355   0.443  -0.332  1.00  0.00     0.275 C 
BRANCH   2   3
ATOM      3  O   UNL     1       2.141  -0.914   0.057  1.00  0.00    -0.459 OA
BRANCH   3   4
ATOM      4  C   UNL     1       3.156  -1.709   0.443  1.00  0.00     0.338 C 
ATOM      5  O   UNL     1       2.997  -2.925   0.452  1.00  0.00    -0.246 OA
BRANCH   4   6
ATOM      6  C   UNL     1       4.432  -1.110   0.944  1.00  0.00     0.088 C 
ATOM      7  C   UNL     1       4.948   0.144   0.852  1.00  0.00     0.031 C 
ATOM      8  C   UNL     1       5.475  -2.159   1.164  1.00  0.00     0.316 C 
ATOM      9  C   UNL     1       5.606   0.359  -0.440  1.00  0.00     0.062 A 
ATOM     10  O   UNL     1       6.693  -1.741   0.433  1.00  0.00    -0.475 OA
ATOM     11  C   UNL     1       6.524  -0.757  -0.568  1.00  0.00     0.131 A 
ATOM     12  C   UNL     1       5.500   1.412  -1.420  1.00  0.00     0.156 A 
ATOM     13  C   UNL     1       7.348  -0.853  -1.665  1.00  0.00     0.049 A 
ATOM     14  C   UNL     1       6.379   1.233  -2.518  1.00  0.00     0.084 A 
ATOM     15  C   UNL     1       7.266   0.139  -2.636  1.00  0.00     0.028 A 
ATOM     16  Cl  UNL     1       6.442   2.388  -3.823  1.00  0.00    -0.080 Cl
BRANCH   8  17
ATOM     17  C   UNL     1       5.589  -2.374   2.694  1.00  0.00     0.430 C 
ATOM     18  F   UNL     1       4.364  -2.321   3.285  1.00  0.00    -0.167 F 
ATOM     19  F   UNL     1       6.129  -3.568   3.008  1.00  0.00    -0.167 F 
ATOM     20  F   UNL     1       6.335  -1.405   3.276  1.00  0.00    -0.167 F 
ENDBRANCH   8  17
BRANCH  12  21
ATOM     21  O   UNL     1       4.838   2.646  -1.577  1.00  0.00    -0.455 OA
BRANCH  21  22
ATOM     22  C   UNL     1       3.708   3.246  -1.059  1.00  0.00     0.127 A 
ATOM     23  C   UNL     1       2.418   3.092  -1.605  1.00  0.00     0.047 A 
ATOM     24  C   UNL     1       3.851   4.216  -0.052  1.00  0.00     0.047 A 
ATOM     25  C   UNL     1       1.283   3.667  -0.975  1.00  0.00     0.004 A 
ATOM     26  C   UNL     1       2.727   4.804   0.568  1.00  0.00     0.004 A 
ATOM     27  C   UNL     1       1.438   4.495   0.137  1.00  0.00     0.000 A 
ENDBRANCH  21  22
ENDBRANCH  12  21
ENDBRANCH   4   6
ENDBRANCH   3   4
ENDBRANCH   2   3
ENDBRANCH   1   2
BRANCH   1  28
ATOM     28  O   UNL     1       1.632   2.083   1.340  1.00  0.00    -0.458 OA
BRANCH  28  29
ATOM     29  C   UNL     1       0.697   1.260   1.774  1.00  0.00     0.338 C 
ATOM     30  O   UNL     1      -0.266   0.897   1.099  1.00  0.00    -0.246 OA
BRANCH  29  31
ATOM     31  C   UNL     1       0.996   0.913   3.158  1.00  0.00     0.060 A 
ATOM     32  C   UNL     1      -0.010   0.163   3.723  1.00  0.00     0.016 A 
ATOM     33  C   UNL     1       2.129   1.384   3.887  1.00  0.00     0.016 A 
ATOM     34  C   UNL     1      -0.032   0.106   5.074  1.00  0.00     0.010 A 
ATOM     35  C   UNL     1       2.183   1.186   5.239  1.00  0.00     0.010 A 
ATOM     36  C   UNL     1       1.048   0.633   5.807  1.00  0.00    -0.014 A 
BRANCH  36  37
ATOM     37  C   UNL     1       0.892   0.569   7.236  1.00  0.00     0.031 A 
ATOM     38  C   UNL     1       0.398   1.783   7.924  1.00  0.00     0.074 A 
ATOM     39  C   UNL     1       0.970  -0.679   7.708  1.00  0.00     0.049 A 
ATOM     40  N   UNL     1      -0.152   1.866   9.094  1.00  0.00    -0.248 NA
ATOM     41  C   UNL     1       0.502   3.069   7.205  1.00  0.00     0.031 C 
ATOM     42  C   UNL     1       1.439  -1.840   6.931  1.00  0.00     0.029 A 
ATOM     43  N   UNL     1       0.573  -1.196   8.890  1.00  0.00    -0.354 N 
ATOM     44  C   UNL     1      -0.438   3.209   9.271  1.00  0.00     0.074 A 
ATOM     45  C   UNL     1      -0.000   3.916   8.093  1.00  0.00     0.031 C 
ATOM     46  C   UNL     1       1.248  -2.950   7.652  1.00  0.00     0.029 A 
ATOM     47  C   UNL     1       0.709  -2.558   8.942  1.00  0.00     0.049 A 
ATOM     48  H   UNL     1       0.225  -0.653   9.633  1.00  0.00     0.167 HD
ATOM     49  C   UNL     1      -1.021   3.763  10.354  1.00  0.00     0.034 A 
ATOM     50  C   UNL     1       0.425  -3.376   9.961  1.00  0.00     0.034 A 
ATOM     51  C   UNL     1      -1.401   2.959  11.483  1.00  0.00     0.049 A 
ATOM     52  C   UNL     1      -0.210  -2.722  11.147  1.00  0.00     0.074 A 
ATOM     53  C   UNL     1      -1.986   3.346  12.668  1.00  0.00     0.029 A 
ATOM     54  N   UNL     1      -1.203   1.580  11.556  1.00  0.00    -0.354 N 
ATOM     55  N   UNL     1      -0.537  -1.457  11.306  1.00  0.00    -0.248 NA
ATOM     56  C   UNL     1      -0.548  -3.587  12.272  1.00  0.00     0.031 C 
ATOM     57  C   UNL     1      -2.096   2.207  13.475  1.00  0.00     0.029 A 
ATOM     58  C   UNL     1      -1.634   1.098  12.773  1.00  0.00     0.049 A 
ATOM     59  H   UNL     1      -0.811   1.029  10.840  1.00  0.00     0.167 HD
ATOM     60  C   UNL     1      -1.137  -1.367  12.546  1.00  0.00     0.074 A 
ATOM     61  C   UNL     1      -1.154  -2.724  13.077  1.00  0.00     0.031 C 
ATOM     62  C   UNL     1      -1.619  -0.282  13.203  1.00  0.00     0.034 A 
BRANCH  49  63
ATOM     63  C   UNL     1      -1.202   5.253  10.363  1.00  0.00     0.023 A 
ATOM     64  C   UNL     1      -2.131   5.871   9.499  1.00  0.00     0.012 A 
ATOM     65  C   UNL     1      -0.426   6.053  11.223  1.00  0.00     0.148 A 
ATOM     66  C   UNL     1      -2.261   7.261   9.471  1.00  0.00     0.002 A 
ATOM     67  C   UNL     1      -0.594   7.432  11.223  1.00  0.00     0.091 A 
ATOM     68  F   UNL     1       0.482   5.452  12.004  1.00  0.00    -0.205 F 
ATOM     69  C   UNL     1      -1.501   8.040  10.339  1.00  0.00     0.022 A 
BRANCH  67  70
ATOM     70  S   UNL     1       0.295   8.516  12.345  1.00  0.00     0.127 S 
ATOM     71  O   UNL     1       1.085   9.322  11.414  1.00  0.00    -0.237 OA
ATOM     72  O   UNL     1      -0.797   9.234  13.000  1.00  0.00    -0.237 OA
ATOM     73  O   UNL     1       1.070   7.647  13.219  1.00  0.00    -0.744 OA
ENDBRANCH  67  70
ENDBRANCH  49  63
BRANCH  50  74
ATOM     74  C   UNL     1       0.744  -4.819   9.852  1.00  0.00     0.023 A 
ATOM     75  C   UNL     1      -0.283  -5.776   9.804  1.00  0.00     0.012 A 
ATOM     76  C   UNL     1       2.084  -5.236   9.695  1.00  0.00     0.148 A 
ATOM     77  C   UNL     1       0.021  -7.128   9.636  1.00  0.00     0.002 A 
ATOM     78  C   UNL     1       2.376  -6.574   9.475  1.00  0.00     0.091 A 
ATOM     79  F   UNL     1       3.047  -4.304   9.730  1.00  0.00    -0.205 F 
ATOM     80  C   UNL     1       1.347  -7.526   9.463  1.00  0.00     0.022 A 
BRANCH  78  81
ATOM     81  S   UNL     1       4.040  -7.145   9.115  1.00  0.00     0.127 S 
ATOM     82  O   UNL     1       4.389  -7.838  10.352  1.00  0.00    -0.237 OA
ATOM     83  O   UNL     1       3.820  -8.017   7.960  1.00  0.00    -0.237 OA
ATOM     84  O   UNL     1       4.814  -5.947   8.821  1.00  0.00    -0.744 OA
ENDBRANCH  78  81
ENDBRANCH  50  74
BRANCH  62  85
ATOM     85  C   UNL     1      -2.220  -0.559  14.546  1.00  0.00     0.023 A 
ATOM     86  C   UNL     1      -1.387  -0.886  15.633  1.00  0.00     0.012 A 
ATOM     87  C   UNL     1      -3.607  -0.430  14.728  1.00  0.00     0.148 A 
ATOM     88  C   UNL     1      -1.941  -1.126  16.885  1.00  0.00     0.002 A 
ATOM     89  C   UNL     1      -4.142  -0.603  15.992  1.00  0.00     0.091 A 
ATOM     90  F   UNL     1      -4.369  -0.137  13.664  1.00  0.00    -0.205 F 
ATOM     91  C   UNL     1      -3.315  -0.970  17.067  1.00  0.00     0.022 A 
BRANCH  89  92
ATOM     92  S   UNL     1      -5.873  -0.301  16.339  1.00  0.00     0.127 S 
ATOM     93  O   UNL     1      -6.367  -1.656  16.579  1.00  0.00    -0.237 OA
ATOM     94  O   UNL     1      -5.802   0.546  17.530  1.00  0.00    -0.237 OA
ATOM     95  O   UNL     1      -6.413   0.360  15.159  1.00  0.00    -0.744 OA
ENDBRANCH  89  92
ENDBRANCH  62  85
ENDBRANCH  36  37
ENDBRANCH  29  31
ENDBRANCH  28  29
ENDBRANCH   1  28
TORSDOF 17
