REMARK SMILES O=C(OCCOC(=O)c1cc(-c2ccccc2)nc(Nc2nc3ccccc3s2)n1)c1ccc(-c2c3nc(c(-c4cccc(S(=O)(=O)[O-])c4F)c4ccc([nH]4)c(-c4cccc(S(=O)(=O)[O-])c4F)c4nc(c(-c5cccc(S(=O)(=O)[O-])c5F)c5ccc2[nH]5)C=C4)C=C3)cc1
REMARK SMILES IDX 4 1 3 2 2 3 1 4 31 5 32 6 93 7 33 8 92 9 34 10 35 11 36 12
REMARK SMILES IDX 86 13 37 14 91 15 85 16 87 17 38 18 90 19 84 20 83 21 39 23
REMARK SMILES IDX 71 24 51 25 70 26 52 27 55 28 69 29 88 30 53 31 54 32 68 34
REMARK SMILES IDX 89 35 56 36 40 37 41 38 49 39 42 40 44 41 50 42 43 43 45 44
REMARK SMILES IDX 46 45 47 46 48 47 72 48 73 49 81 50 74 51 76 52 82 53 75 54
REMARK SMILES IDX 77 55 78 56 79 57 80 58 57 59 58 60 66 61 59 62 61 63 67 64
REMARK SMILES IDX 60 65 62 66 63 67 64 68 65 69 5 70 6 71 7 72 8 73 9 74 10 75
REMARK SMILES IDX 30 76 11 77 19 78 18 79 12 80 13 81 17 82 14 83 16 84 15 85
REMARK SMILES IDX 20 86 21 88 22 89 29 90 23 91 28 92 24 93 27 94 25 95 26 96
REMARK H PARENT 87 22 55 33 20 87
REMARK Flexibility Score: inf
ROOT
ATOM      1  C   UNL     1       4.298   1.445  -1.035  1.00  0.00     0.275 C 
ENDROOT
BRANCH   1   2
ATOM      2  O   UNL     1       3.262   0.493  -1.319  1.00  0.00    -0.458 OA
BRANCH   2   3
ATOM      3  C   UNL     1       3.039  -0.749  -0.828  1.00  0.00     0.338 C 
ATOM      4  O   UNL     1       2.133  -1.405  -1.334  1.00  0.00    -0.246 OA
BRANCH   3   5
ATOM      5  C   UNL     1       3.794  -1.361   0.315  1.00  0.00     0.060 A 
ATOM      6  C   UNL     1       5.097  -1.037   0.688  1.00  0.00     0.016 A 
ATOM      7  C   UNL     1       3.142  -2.369   1.052  1.00  0.00     0.016 A 
ATOM      8  C   UNL     1       5.716  -1.656   1.774  1.00  0.00     0.010 A 
ATOM      9  C   UNL     1       3.747  -2.981   2.158  1.00  0.00     0.010 A 
ATOM     10  C   UNL     1       5.052  -2.634   2.515  1.00  0.00    -0.014 A 
BRANCH  10  11
ATOM     11  C   UNL     1       5.815  -3.364   3.553  1.00  0.00     0.031 A 
ATOM     12  C   UNL     1       6.313  -4.746   3.229  1.00  0.00     0.074 A 
ATOM     13  C   UNL     1       6.158  -2.747   4.702  1.00  0.00     0.049 A 
ATOM     14  N   UNL     1       7.150  -5.492   3.898  1.00  0.00    -0.248 NA
ATOM     15  C   UNL     1       5.858  -5.347   1.961  1.00  0.00     0.031 C 
ATOM     16  C   UNL     1       5.797  -1.375   5.066  1.00  0.00     0.029 A 
ATOM     17  N   UNL     1       6.884  -3.183   5.780  1.00  0.00    -0.354 N 
ATOM     18  C   UNL     1       7.352  -6.625   3.119  1.00  0.00     0.074 A 
ATOM     19  C   UNL     1       6.507  -6.502   1.955  1.00  0.00     0.031 C 
ATOM     20  C   UNL     1       6.241  -1.107   6.307  1.00  0.00     0.029 A 
ATOM     21  C   UNL     1       6.944  -2.274   6.815  1.00  0.00     0.049 A 
ATOM     22  H   UNL     1       7.321  -4.065   5.813  1.00  0.00     0.167 HD
ATOM     23  C   UNL     1       8.205  -7.651   3.339  1.00  0.00     0.034 A 
ATOM     24  C   UNL     1       7.518  -2.378   8.029  1.00  0.00     0.034 A 
ATOM     25  C   UNL     1       9.012  -7.762   4.522  1.00  0.00     0.049 A 
ATOM     26  C   UNL     1       8.354  -3.592   8.296  1.00  0.00     0.074 A 
ATOM     27  C   UNL     1       9.908  -8.755   4.869  1.00  0.00     0.029 A 
ATOM     28  N   UNL     1       8.998  -6.849   5.569  1.00  0.00    -0.354 N 
ATOM     29  N   UNL     1       8.591  -4.616   7.512  1.00  0.00    -0.248 NA
ATOM     30  C   UNL     1       9.075  -3.617   9.573  1.00  0.00     0.031 C 
ATOM     31  C   UNL     1      10.407  -8.462   6.143  1.00  0.00     0.029 A 
ATOM     32  C   UNL     1       9.855  -7.263   6.571  1.00  0.00     0.049 A 
ATOM     33  H   UNL     1       8.456  -6.027   5.594  1.00  0.00     0.167 HD
ATOM     34  C   UNL     1       9.526  -5.391   8.181  1.00  0.00     0.074 A 
ATOM     35  C   UNL     1       9.814  -4.708   9.429  1.00  0.00     0.031 C 
ATOM     36  C   UNL     1      10.106  -6.555   7.800  1.00  0.00     0.034 A 
BRANCH  23  37
ATOM     37  C   UNL     1       8.318  -8.706   2.269  1.00  0.00     0.023 A 
ATOM     38  C   UNL     1       8.962  -8.398   1.052  1.00  0.00     0.012 A 
ATOM     39  C   UNL     1       7.816 -10.005   2.472  1.00  0.00     0.148 A 
ATOM     40  C   UNL     1       9.078  -9.355   0.044  1.00  0.00     0.002 A 
ATOM     41  C   UNL     1       7.970 -10.966   1.479  1.00  0.00     0.091 A 
ATOM     42  F   UNL     1       7.189 -10.273   3.626  1.00  0.00    -0.205 F 
ATOM     43  C   UNL     1       8.589 -10.640   0.261  1.00  0.00     0.022 A 
BRANCH  41  44
ATOM     44  S   UNL     1       7.430 -12.668   1.679  1.00  0.00     0.127 S 
ATOM     45  O   UNL     1       6.393 -12.771   0.652  1.00  0.00    -0.237 OA
ATOM     46  O   UNL     1       8.655 -13.411   1.385  1.00  0.00    -0.237 OA
ATOM     47  O   UNL     1       6.956 -12.783   3.050  1.00  0.00    -0.744 OA
ENDBRANCH  41  44
ENDBRANCH  23  37
BRANCH  24  48
ATOM     48  C   UNL     1       7.424  -1.290   9.043  1.00  0.00     0.023 A 
ATOM     49  C   UNL     1       8.436  -0.316   9.117  1.00  0.00     0.012 A 
ATOM     50  C   UNL     1       6.365  -1.246   9.970  1.00  0.00     0.148 A 
ATOM     51  C   UNL     1       8.389   0.687  10.089  1.00  0.00     0.002 A 
ATOM     52  C   UNL     1       6.292  -0.209  10.898  1.00  0.00     0.091 A 
ATOM     53  F   UNL     1       5.464  -2.237   9.941  1.00  0.00    -0.205 F 
ATOM     54  C   UNL     1       7.312   0.750  10.968  1.00  0.00     0.022 A 
BRANCH  52  55
ATOM     55  S   UNL     1       4.905   0.001  12.026  1.00  0.00     0.127 S 
ATOM     56  O   UNL     1       5.564   0.372  13.277  1.00  0.00    -0.237 OA
ATOM     57  O   UNL     1       4.167   1.084  11.378  1.00  0.00    -0.237 OA
ATOM     58  O   UNL     1       4.229  -1.289  12.056  1.00  0.00    -0.744 OA
ENDBRANCH  52  55
ENDBRANCH  24  48
BRANCH  36  59
ATOM     59  C   UNL     1      11.107  -7.144   8.750  1.00  0.00     0.023 A 
ATOM     60  C   UNL     1      10.673  -7.708   9.966  1.00  0.00     0.012 A 
ATOM     61  C   UNL     1      12.475  -7.162   8.421  1.00  0.00     0.148 A 
ATOM     62  C   UNL     1      11.595  -8.238  10.865  1.00  0.00     0.002 A 
ATOM     63  C   UNL     1      13.380  -7.745   9.295  1.00  0.00     0.091 A 
ATOM     64  F   UNL     1      12.865  -6.596   7.269  1.00  0.00    -0.205 F 
ATOM     65  C   UNL     1      12.945  -8.267  10.524  1.00  0.00     0.022 A 
BRANCH  63  66
ATOM     66  S   UNL     1      15.120  -7.920   8.891  1.00  0.00     0.127 S 
ATOM     67  O   UNL     1      15.731  -6.922   9.766  1.00  0.00    -0.237 OA
ATOM     68  O   UNL     1      15.386  -9.309   9.268  1.00  0.00    -0.237 OA
ATOM     69  O   UNL     1      15.229  -7.652   7.463  1.00  0.00    -0.744 OA
ENDBRANCH  63  66
ENDBRANCH  36  59
ENDBRANCH  10  11
ENDBRANCH   3   5
ENDBRANCH   2   3
ENDBRANCH   1   2
BRANCH   1  70
ATOM     70  C   UNL     1       4.080   2.270   0.235  1.00  0.00     0.275 C 
BRANCH  70  71
ATOM     71  O   UNL     1       3.585   1.497   1.338  1.00  0.00    -0.457 OA
BRANCH  71  72
ATOM     72  C   UNL     1       2.229   1.492   1.487  1.00  0.00     0.357 C 
ATOM     73  O   UNL     1       1.438   2.167   0.846  1.00  0.00    -0.244 OA
BRANCH  72  74
ATOM     74  C   UNL     1       1.852   0.487   2.520  1.00  0.00     0.154 A 
ATOM     75  C   UNL     1       2.549   0.420   3.701  1.00  0.00     0.065 A 
ATOM     76  N   UNL     1       0.799  -0.304   2.221  1.00  0.00    -0.206 NA
ATOM     77  C   UNL     1       2.077  -0.507   4.597  1.00  0.00     0.077 A 
ATOM     78  C   UNL     1       0.451  -1.222   3.128  1.00  0.00     0.230 A 
ATOM     79  N   UNL     1       1.039  -1.322   4.317  1.00  0.00    -0.213 NA
BRANCH  77  80
ATOM     80  C   UNL     1       2.576  -0.640   5.964  1.00  0.00     0.000 A 
ATOM     81  C   UNL     1       2.717  -1.916   6.543  1.00  0.00     0.010 A 
ATOM     82  C   UNL     1       2.833   0.493   6.755  1.00  0.00     0.010 A 
ATOM     83  C   UNL     1       3.033  -2.052   7.888  1.00  0.00     0.001 A 
ATOM     84  C   UNL     1       3.139   0.355   8.104  1.00  0.00     0.001 A 
ATOM     85  C   UNL     1       3.198  -0.915   8.668  1.00  0.00     0.000 A 
ENDBRANCH  77  80
BRANCH  78  86
ATOM     86  N   UNL     1      -0.606  -2.093   2.925  1.00  0.00    -0.300 N 
ATOM     87  H   UNL     1      -1.058  -2.469   3.716  1.00  0.00     0.172 HD
BRANCH  86  88
ATOM     88  C   UNL     1      -1.048  -2.453   1.714  1.00  0.00     0.190 A 
ATOM     89  N   UNL     1      -0.269  -2.788   0.717  1.00  0.00    -0.220 NA
ATOM     90  S   UNL     1      -2.731  -2.541   1.365  1.00  0.00    -0.097 S 
ATOM     91  C   UNL     1      -0.987  -2.858  -0.453  1.00  0.00     0.084 A 
ATOM     92  C   UNL     1      -2.362  -2.682  -0.313  1.00  0.00     0.056 A 
ATOM     93  C   UNL     1      -0.447  -3.042  -1.738  1.00  0.00     0.030 A 
ATOM     94  C   UNL     1      -3.214  -2.633  -1.427  1.00  0.00     0.021 A 
ATOM     95  C   UNL     1      -1.273  -2.941  -2.856  1.00  0.00     0.002 A 
ATOM     96  C   UNL     1      -2.639  -2.731  -2.700  1.00  0.00     0.002 A 
ENDBRANCH  86  88
ENDBRANCH  78  86
ENDBRANCH  72  74
ENDBRANCH  71  72
ENDBRANCH  70  71
ENDBRANCH   1  70
TORSDOF 17
