REMARK SMILES NC(=O)c1ccccc1N[C@@H]1CCCCC[C@@H]1C(=O)OCCOC(=O)c1ccc(-c2c3nc(c(-c4cccc(S(=O)(=O)[O-])c4F)c4ccc([nH]4)c(-c4cccc(S(=O)(=O)[O-])c4F)c4nc(c(-c5cccc(S(=O)(=O)[O-])c5F)c5ccc2[nH]5)C=C4)C=C3)cc1
REMARK SMILES IDX 21 1 20 2 18 3 19 4 17 5 11 6 10 7 9 9 4 10 5 11 6 12 8 13
REMARK SMILES IDX 7 14 2 15 1 16 3 19 12 20 13 21 14 22 16 24 15 25 22 27
REMARK SMILES IDX 23 28 24 29 25 30 26 31 27 32 88 33 28 34 87 35 29 36 30 37
REMARK SMILES IDX 31 38 81 39 32 40 86 41 80 42 82 43 33 44 85 45 79 46 78 47
REMARK SMILES IDX 34 49 66 50 46 51 65 52 47 53 50 54 64 55 83 56 48 57 49 58
REMARK SMILES IDX 63 60 84 61 51 62 35 63 36 64 44 65 37 66 39 67 45 68 38 69
REMARK SMILES IDX 40 70 41 71 42 72 43 73 67 74 68 75 76 76 69 77 71 78 77 79
REMARK SMILES IDX 70 80 72 81 73 82 74 83 75 84 52 85 53 86 61 87 54 88 56 89
REMARK SMILES IDX 62 90 55 91 57 92 58 93 59 94 60 95
REMARK H PARENT 10 8 1 17 1 18 82 48 50 59
REMARK Flexibility Score: 100.00
ROOT
ATOM      1  C   UNL     1       0.506   4.179   3.606  1.00  0.00     0.274 C 
ENDROOT
BRANCH   1   2
ATOM      2  O   UNL     1       1.789   3.577   3.294  1.00  0.00    -0.462 OA
BRANCH   2   3
ATOM      3  C   UNL     1       2.264   2.737   4.256  1.00  0.00     0.311 C 
ATOM      4  O   UNL     1       1.594   2.399   5.229  1.00  0.00    -0.252 OA
BRANCH   3   5
ATOM      5  C   UNL     1       3.766   2.430   4.129  1.00  0.00     0.121 C 
BRANCH   5   6
ATOM      6  C   UNL     1       4.213   1.655   2.840  1.00  0.00     0.093 C 
BRANCH   6   7
ATOM      7  N   UNL     1       3.254   0.758   2.163  1.00  0.00    -0.381 N 
ATOM      8  H   UNL     1       2.897   1.055   1.295  1.00  0.00     0.160 HD
BRANCH   7   9
ATOM      9  C   UNL     1       2.797  -0.511   2.662  1.00  0.00     0.047 A 
ATOM     10  C   UNL     1       1.276  -1.196   1.900  1.00  0.00     0.062 A 
ATOM     11  C   UNL     1      -0.074  -1.967   3.216  1.00  0.00     0.016 A 
ATOM     12  C   UNL     1       0.308  -1.977   4.973  1.00  0.00     0.001 A 
ATOM     13  C   UNL     1       3.065  -0.728   4.389  1.00  0.00     0.026 A 
ATOM     14  C   UNL     1       1.868  -1.401   5.489  1.00  0.00     0.002 A 
BRANCH  10  15
ATOM     15  C   UNL     1       1.398  -0.962   0.279  1.00  0.00     0.250 C 
ATOM     16  N   UNL     1       2.565  -0.398  -0.168  1.00  0.00    -0.366 N 
ATOM     17  H   UNL     1       2.695  -0.234  -1.129  1.00  0.00     0.159 HD
ATOM     18  H   UNL     1       3.272  -0.157   0.474  1.00  0.00     0.159 HD
ATOM     19  O   UNL     1       0.605  -1.228  -0.619  1.00  0.00    -0.269 OA
ENDBRANCH  10  15
ENDBRANCH   7   9
ENDBRANCH   6   7
BRANCH   6  20
ATOM     20  C   UNL     1       5.596   0.981   2.772  1.00  0.00     0.026 C 
BRANCH  20  21
ATOM     21  C   UNL     1       6.700   1.545   3.646  1.00  0.00     0.002 C 
BRANCH  21  22
ATOM     22  C   UNL     1       6.586   1.078   5.087  1.00  0.00     0.000 CG0
ATOM     23  G   UNL     1       5.696   1.979   5.916  1.00  0.00     0.000 G0
ENDBRANCH  21  22
ENDBRANCH  20  21
ENDBRANCH   6  20
ENDBRANCH   5   6
BRANCH   5  24
ATOM     24  C   UNL     1       4.221   2.003   5.556  1.00  0.00     0.017 C 
BRANCH  24  25
ATOM     25  C   UNL     1       5.696   1.979   5.916  1.00  0.00     0.001 CG0
ATOM     26  G   UNL     1       6.586   1.078   5.087  1.00  0.00     0.000 G0
ENDBRANCH  24  25
ENDBRANCH   5  24
ENDBRANCH   3   5
ENDBRANCH   2   3
ENDBRANCH   1   2
BRANCH   1  27
ATOM     27  C   UNL     1      -0.655   3.640   2.770  1.00  0.00     0.275 C 
BRANCH  27  28
ATOM     28  O   UNL     1      -0.895   2.249   3.038  1.00  0.00    -0.458 OA
BRANCH  28  29
ATOM     29  C   UNL     1      -0.344   1.433   2.118  1.00  0.00     0.338 C 
ATOM     30  O   UNL     1       0.293   1.774   1.132  1.00  0.00    -0.246 OA
BRANCH  29  31
ATOM     31  C   UNL     1      -0.402   0.026   2.538  1.00  0.00     0.060 A 
ATOM     32  C   UNL     1       0.941  -0.441   3.626  1.00  0.00     0.016 A 
ATOM     33  C   UNL     1      -0.962  -1.181   1.377  1.00  0.00     0.016 A 
ATOM     34  C   UNL     1       1.783  -2.271   3.395  1.00  0.00     0.010 A 
ATOM     35  C   UNL     1      -0.237  -2.823   1.213  1.00  0.00     0.010 A 
ATOM     36  C   UNL     1       1.125  -3.398   2.172  1.00  0.00    -0.014 A 
BRANCH  36  37
ATOM     37  C   UNL     1       1.615  -4.814   2.137  1.00  0.00     0.031 A 
ATOM     38  C   UNL     1       2.140  -5.439   0.877  1.00  0.00     0.074 A 
ATOM     39  C   UNL     1       1.601  -5.561   3.265  1.00  0.00     0.049 A 
ATOM     40  N   UNL     1       2.535  -6.674   0.683  1.00  0.00    -0.248 NA
ATOM     41  C   UNL     1       2.293  -4.573  -0.298  1.00  0.00     0.031 C 
ATOM     42  C   UNL     1       1.231  -5.076   4.583  1.00  0.00     0.029 A 
ATOM     43  N   UNL     1       1.883  -6.887   3.509  1.00  0.00    -0.354 N 
ATOM     44  C   UNL     1       2.969  -6.738  -0.635  1.00  0.00     0.074 A 
ATOM     45  C   UNL     1       2.797  -5.413  -1.194  1.00  0.00     0.031 C 
ATOM     46  C   UNL     1       1.272  -6.050   5.489  1.00  0.00     0.029 A 
ATOM     47  C   UNL     1       1.593  -7.277   4.803  1.00  0.00     0.049 A 
ATOM     48  H   UNL     1       2.253  -7.496   2.830  1.00  0.00     0.167 HD
ATOM     49  C   UNL     1       3.465  -7.805  -1.309  1.00  0.00     0.034 A 
ATOM     50  C   UNL     1       1.532  -8.480   5.401  1.00  0.00     0.034 A 
ATOM     51  C   UNL     1       3.613  -9.123  -0.742  1.00  0.00     0.049 A 
ATOM     52  C   UNL     1       1.960  -9.662   4.605  1.00  0.00     0.074 A 
ATOM     53  C   UNL     1       4.083 -10.274  -1.351  1.00  0.00     0.029 A 
ATOM     54  N   UNL     1       3.272  -9.474   0.558  1.00  0.00    -0.354 N 
ATOM     55  N   UNL     1       2.396  -9.688   3.371  1.00  0.00    -0.248 NA
ATOM     56  C   UNL     1       1.943 -10.962   5.280  1.00  0.00     0.031 C 
ATOM     57  C   UNL     1       3.985 -11.328  -0.434  1.00  0.00     0.029 A 
ATOM     58  C   UNL     1       3.490 -10.829   0.760  1.00  0.00     0.049 A 
ATOM     59  H   UNL     1       2.925  -8.852   1.237  1.00  0.00     0.167 HD
ATOM     60  C   UNL     1       2.744 -11.002   3.124  1.00  0.00     0.074 A 
ATOM     61  C   UNL     1       2.480 -11.739   4.348  1.00  0.00     0.031 C 
ATOM     62  C   UNL     1       3.234 -11.544   1.985  1.00  0.00     0.034 A 
BRANCH  49  63
ATOM     63  C   UNL     1       3.859  -7.600  -2.750  1.00  0.00     0.023 A 
ATOM     64  C   UNL     1       5.056  -6.926  -3.067  1.00  0.00     0.012 A 
ATOM     65  C   UNL     1       3.065  -8.121  -3.791  1.00  0.00     0.148 A 
ATOM     66  C   UNL     1       5.443  -6.753  -4.397  1.00  0.00     0.002 A 
ATOM     67  C   UNL     1       3.474  -7.975  -5.112  1.00  0.00     0.091 A 
ATOM     68  F   UNL     1       1.924  -8.746  -3.470  1.00  0.00    -0.205 F 
ATOM     69  C   UNL     1       4.657  -7.283  -5.418  1.00  0.00     0.022 A 
BRANCH  67  70
ATOM     70  S   UNL     1       2.562  -8.676  -6.493  1.00  0.00     0.127 S 
ATOM     71  O   UNL     1       2.056  -7.474  -7.154  1.00  0.00    -0.237 OA
ATOM     72  O   UNL     1       3.613  -9.379  -7.229  1.00  0.00    -0.237 OA
ATOM     73  O   UNL     1       1.547  -9.541  -5.909  1.00  0.00    -0.744 OA
ENDBRANCH  67  70
ENDBRANCH  49  63
BRANCH  50  74
ATOM     74  C   UNL     1       1.084  -8.574   6.824  1.00  0.00     0.023 A 
ATOM     75  C   UNL     1       2.015  -8.890   7.830  1.00  0.00     0.012 A 
ATOM     76  C   UNL     1      -0.234  -8.228   7.197  1.00  0.00     0.148 A 
ATOM     77  C   UNL     1       1.642  -8.869   9.176  1.00  0.00     0.002 A 
ATOM     78  C   UNL     1      -0.583  -8.152   8.541  1.00  0.00     0.091 A 
ATOM     79  F   UNL     1      -1.115  -7.936   6.228  1.00  0.00    -0.205 F 
ATOM     80  C   UNL     1       0.351  -8.485   9.532  1.00  0.00     0.022 A 
BRANCH  78  81
ATOM     81  S   UNL     1      -2.173  -7.510   9.084  1.00  0.00     0.127 S 
ATOM     82  O   UNL     1      -2.885  -8.733   9.439  1.00  0.00    -0.237 OA
ATOM     83  O   UNL     1      -1.795  -6.665  10.219  1.00  0.00    -0.237 OA
ATOM     84  O   UNL     1      -2.701  -6.769   7.945  1.00  0.00    -0.744 OA
ENDBRANCH  78  81
ENDBRANCH  50  74
BRANCH  62  85
ATOM     85  C   UNL     1       3.523 -13.016   2.023  1.00  0.00     0.023 A 
ATOM     86  C   UNL     1       2.457 -13.936   2.025  1.00  0.00     0.012 A 
ATOM     87  C   UNL     1       4.850 -13.484   2.040  1.00  0.00     0.148 A 
ATOM     88  C   UNL     1       2.707 -15.305   2.083  1.00  0.00     0.002 A 
ATOM     89  C   UNL     1       5.092 -14.850   2.046  1.00  0.00     0.091 A 
ATOM     90  F   UNL     1       5.846 -12.586   2.069  1.00  0.00    -0.205 F 
ATOM     91  C   UNL     1       4.023 -15.761   2.082  1.00  0.00     0.022 A 
BRANCH  89  92
ATOM     92  S   UNL     1       6.751 -15.529   1.960  1.00  0.00     0.127 S 
ATOM     93  O   UNL     1       6.937 -16.034   3.319  1.00  0.00    -0.237 OA
ATOM     94  O   UNL     1       6.607 -16.566   0.937  1.00  0.00    -0.237 OA
ATOM     95  O   UNL     1       7.618 -14.422   1.579  1.00  0.00    -0.744 OA
ENDBRANCH  89  92
ENDBRANCH  62  85
ENDBRANCH  36  37
ENDBRANCH  29  31
ENDBRANCH  28  29
ENDBRANCH  27  28
ENDBRANCH   1  27
TORSDOF 17
