REMARK SMILES O=C(OCCOC(=O)c1ccc(-c2c3nc(c(-c4cccc(S(=O)(=O)[O-])c4F)c4ccc([nH]4)c(-c4cccc(S(=O)(=O)[O-])c4F)c4nc(c(-c5cccc(S(=O)(=O)[O-])c5F)c5ccc2[nH]5)C=C4)C=C3)cc1)C1=Cc2cc(Cl)cc(-c3ccc(O)cc3)c2O[C@@H]1C(F)(F)F
REMARK SMILES IDX 5 1 4 2 3 3 2 4 1 5 72 6 73 7 89 8 74 9 88 10 75 11 87 12
REMARK SMILES IDX 76 13 79 14 77 15 78 16 90 17 91 18 92 19 93 20 80 21 81 22
REMARK SMILES IDX 86 23 82 24 85 25 83 26 84 27 6 29 7 30 8 31 9 32 10 33
REMARK SMILES IDX 71 34 11 35 70 36 12 37 13 38 14 39 64 40 15 41 69 42 63 43
REMARK SMILES IDX 65 44 16 45 68 46 62 47 61 48 17 50 49 51 29 52 48 53 30 54
REMARK SMILES IDX 33 55 47 56 66 57 31 58 32 59 46 61 67 62 34 63 18 64 19 65
REMARK SMILES IDX 27 66 20 67 22 68 28 69 21 70 23 71 24 72 25 73 26 74 50 75
REMARK SMILES IDX 51 76 59 77 52 78 54 79 60 80 53 81 55 82 56 83 57 84 58 85
REMARK SMILES IDX 35 86 36 87 44 88 37 89 39 90 45 91 38 92 40 93 41 94 42 95
REMARK SMILES IDX 43 96
REMARK H PARENT 84 28 65 49 33 60
REMARK Flexibility Score: inf
ROOT
ATOM      1  C   UNL     1       4.765  -0.399  -0.683  1.00  0.00     0.275 C 
ENDROOT
BRANCH   1   2
ATOM      2  C   UNL     1       3.962   1.200   0.566  1.00  0.00     0.275 C 
BRANCH   2   3
ATOM      3  O   UNL     1       3.066   2.372   0.092  1.00  0.00    -0.459 OA
BRANCH   3   4
ATOM      4  C   UNL     1       3.238   2.686  -1.198  1.00  0.00     0.338 C 
ATOM      5  O   UNL     1       2.606   3.437  -1.894  1.00  0.00    -0.246 OA
BRANCH   4   6
ATOM      6  C   UNL     1       4.095   1.560  -1.489  1.00  0.00     0.087 C 
ATOM      7  C   UNL     1       5.464   1.759  -1.044  1.00  0.00     0.027 C 
ATOM      8  C   UNL     1       2.880   0.217  -0.834  1.00  0.00     0.316 C 
ATOM      9  C   UNL     1       6.173   0.897   0.356  1.00  0.00     0.019 A 
ATOM     10  O   UNL     1       3.593  -0.668   0.744  1.00  0.00    -0.475 OA
ATOM     11  C   UNL     1       7.415   1.321   0.741  1.00  0.00     0.032 A 
ATOM     12  C   UNL     1       5.262  -0.214   1.351  1.00  0.00     0.135 A 
ATOM     13  C   UNL     1       7.851   0.807   1.956  1.00  0.00     0.042 A 
ATOM     14  C   UNL     1       5.750  -0.602   2.579  1.00  0.00     0.026 A 
ATOM     15  Cl  UNL     1       9.404   1.326   2.524  1.00  0.00    -0.084 Cl
ATOM     16  C   UNL     1       7.077  -0.075   2.802  1.00  0.00     0.033 A 
BRANCH   8  17
ATOM     17  C   UNL     1       2.459  -0.230  -2.317  1.00  0.00     0.430 C 
ATOM     18  F   UNL     1       1.180  -0.628  -2.358  1.00  0.00    -0.167 F 
ATOM     19  F   UNL     1       2.466   0.867  -3.139  1.00  0.00    -0.167 F 
ATOM     20  F   UNL     1       3.264  -1.077  -2.976  1.00  0.00    -0.167 F 
ENDBRANCH   8  17
BRANCH  14  21
ATOM     21  C   UNL     1       5.155  -1.314   3.706  1.00  0.00    -0.014 A 
ATOM     22  C   UNL     1       5.050  -0.640   4.949  1.00  0.00     0.012 A 
ATOM     23  C   UNL     1       4.957  -2.696   3.692  1.00  0.00     0.012 A 
ATOM     24  C   UNL     1       4.811  -1.330   6.138  1.00  0.00     0.047 A 
ATOM     25  C   UNL     1       4.711  -3.392   4.886  1.00  0.00     0.047 A 
ATOM     26  C   UNL     1       4.658  -2.705   6.098  1.00  0.00     0.115 A 
BRANCH  26  27
ATOM     27  O   UNL     1       4.482  -3.354   7.284  1.00  0.00    -0.508 OA
ATOM     28  H   UNL     1       4.450  -2.868   8.084  1.00  0.00     0.293 HD
ENDBRANCH  26  27
ENDBRANCH  14  21
ENDBRANCH   4   6
ENDBRANCH   3   4
ENDBRANCH   2   3
ENDBRANCH   1   2
BRANCH   1  29
ATOM     29  O   UNL     1       3.946  -1.893  -1.034  1.00  0.00    -0.458 OA
BRANCH  29  30
ATOM     30  C   UNL     1       2.990  -2.779  -0.589  1.00  0.00     0.338 C 
ATOM     31  O   UNL     1       2.474  -2.869   0.511  1.00  0.00    -0.246 OA
BRANCH  30  32
ATOM     32  C   UNL     1       2.348  -3.358  -1.819  1.00  0.00     0.060 A 
ATOM     33  C   UNL     1       0.997  -3.051  -2.078  1.00  0.00     0.016 A 
ATOM     34  C   UNL     1       3.155  -3.820  -2.857  1.00  0.00     0.016 A 
ATOM     35  C   UNL     1       0.543  -2.951  -3.409  1.00  0.00     0.010 A 
ATOM     36  C   UNL     1       2.691  -3.743  -4.175  1.00  0.00     0.010 A 
ATOM     37  C   UNL     1       1.415  -3.226  -4.471  1.00  0.00    -0.014 A 
BRANCH  37  38
ATOM     38  C   UNL     1       0.960  -3.244  -5.889  1.00  0.00     0.031 A 
ATOM     39  C   UNL     1       0.424  -4.559  -6.366  1.00  0.00     0.074 A 
ATOM     40  C   UNL     1       1.146  -2.231  -6.765  1.00  0.00     0.049 A 
ATOM     41  N   UNL     1       0.120  -4.952  -7.571  1.00  0.00    -0.248 NA
ATOM     42  C   UNL     1       0.265  -5.592  -5.328  1.00  0.00     0.031 C 
ATOM     43  C   UNL     1       1.691  -0.910  -6.453  1.00  0.00     0.029 A 
ATOM     44  N   UNL     1       0.934  -2.180  -8.129  1.00  0.00    -0.354 N 
ATOM     45  C   UNL     1      -0.216  -6.291  -7.441  1.00  0.00     0.074 A 
ATOM     46  C   UNL     1      -0.044  -6.649  -6.053  1.00  0.00     0.031 C 
ATOM     47  C   UNL     1       1.806  -0.197  -7.592  1.00  0.00     0.029 A 
ATOM     48  C   UNL     1       1.363  -1.010  -8.725  1.00  0.00     0.049 A 
ATOM     49  H   UNL     1       0.515  -2.915  -8.633  1.00  0.00     0.167 HD
ATOM     50  C   UNL     1      -0.644  -7.155  -8.385  1.00  0.00     0.034 A 
ATOM     51  C   UNL     1       1.406  -0.653 -10.030  1.00  0.00     0.034 A 
ATOM     52  C   UNL     1      -0.803  -6.812  -9.764  1.00  0.00     0.049 A 
ATOM     53  C   UNL     1       0.908  -1.633 -11.077  1.00  0.00     0.074 A 
ATOM     54  C   UNL     1      -1.281  -7.596 -10.794  1.00  0.00     0.029 A 
ATOM     55  N   UNL     1      -0.461  -5.584 -10.308  1.00  0.00    -0.354 N 
ATOM     56  N   UNL     1       0.434  -2.846 -10.916  1.00  0.00    -0.248 NA
ATOM     57  C   UNL     1       0.920  -1.187 -12.482  1.00  0.00     0.031 C 
ATOM     58  C   UNL     1      -1.196  -6.852 -11.974  1.00  0.00     0.029 A 
ATOM     59  C   UNL     1      -0.709  -5.590 -11.666  1.00  0.00     0.049 A 
ATOM     60  H   UNL     1      -0.097  -4.822  -9.802  1.00  0.00     0.167 HD
ATOM     61  C   UNL     1       0.053  -3.286 -12.182  1.00  0.00     0.074 A 
ATOM     62  C   UNL     1       0.342  -2.207 -13.103  1.00  0.00     0.031 C 
ATOM     63  C   UNL     1      -0.479  -4.477 -12.552  1.00  0.00     0.034 A 
BRANCH  50  64
ATOM     64  C   UNL     1      -0.954  -8.548  -7.918  1.00  0.00     0.023 A 
ATOM     65  C   UNL     1      -2.052  -8.767  -7.058  1.00  0.00     0.012 A 
ATOM     66  C   UNL     1      -0.117  -9.622  -8.265  1.00  0.00     0.148 A 
ATOM     67  C   UNL     1      -2.269 -10.021  -6.493  1.00  0.00     0.002 A 
ATOM     68  C   UNL     1      -0.376 -10.882  -7.745  1.00  0.00     0.091 A 
ATOM     69  F   UNL     1       0.938  -9.384  -9.057  1.00  0.00    -0.205 F 
ATOM     70  C   UNL     1      -1.434 -11.079  -6.841  1.00  0.00     0.022 A 
BRANCH  68  71
ATOM     71  S   UNL     1       0.592 -12.326  -8.188  1.00  0.00     0.127 S 
ATOM     72  O   UNL     1       1.282 -12.616  -6.932  1.00  0.00    -0.237 OA
ATOM     73  O   UNL     1      -0.449 -13.288  -8.550  1.00  0.00    -0.237 OA
ATOM     74  O   UNL     1       1.450 -11.914  -9.290  1.00  0.00    -0.744 OA
ENDBRANCH  68  71
ENDBRANCH  50  64
BRANCH  51  75
ATOM     75  C   UNL     1       1.899   0.699 -10.455  1.00  0.00     0.023 A 
ATOM     76  C   UNL     1       0.992   1.623 -11.016  1.00  0.00     0.012 A 
ATOM     77  C   UNL     1       3.258   1.062 -10.357  1.00  0.00     0.148 A 
ATOM     78  C   UNL     1       1.430   2.857 -11.506  1.00  0.00     0.002 A 
ATOM     79  C   UNL     1       3.681   2.314 -10.802  1.00  0.00     0.091 A 
ATOM     80  F   UNL     1       4.116   0.171  -9.841  1.00  0.00    -0.205 F 
ATOM     81  C   UNL     1       2.772   3.205 -11.393  1.00  0.00     0.022 A 
BRANCH  79  82
ATOM     82  S   UNL     1       5.372   2.897 -10.620  1.00  0.00     0.127 S 
ATOM     83  O   UNL     1       5.797   3.031 -12.012  1.00  0.00    -0.237 OA
ATOM     84  O   UNL     1       5.178   4.163  -9.913  1.00  0.00    -0.237 OA
ATOM     85  O   UNL     1       6.065   1.873  -9.850  1.00  0.00    -0.744 OA
ENDBRANCH  79  82
ENDBRANCH  51  75
BRANCH  63  86
ATOM     86  C   UNL     1      -0.859  -4.685 -13.996  1.00  0.00     0.023 A 
ATOM     87  C   UNL     1       0.137  -4.907 -14.965  1.00  0.00     0.012 A 
ATOM     88  C   UNL     1      -2.217  -4.827 -14.350  1.00  0.00     0.148 A 
ATOM     89  C   UNL     1      -0.214  -5.258 -16.269  1.00  0.00     0.002 A 
ATOM     90  C   UNL     1      -2.556  -5.230 -15.634  1.00  0.00     0.091 A 
ATOM     91  F   UNL     1      -3.147  -4.597 -13.412  1.00  0.00    -0.205 F 
ATOM     92  C   UNL     1      -1.557  -5.438 -16.598  1.00  0.00     0.022 A 
BRANCH  90  93
ATOM     93  S   UNL     1      -4.248  -5.605 -16.110  1.00  0.00     0.127 S 
ATOM     94  O   UNL     1      -4.540  -4.521 -17.046  1.00  0.00    -0.237 OA
ATOM     95  O   UNL     1      -4.109  -6.924 -16.729  1.00  0.00    -0.237 OA
ATOM     96  O   UNL     1      -5.028  -5.592 -14.880  1.00  0.00    -0.744 OA
ENDBRANCH  90  93
ENDBRANCH  63  86
ENDBRANCH  37  38
ENDBRANCH  30  32
ENDBRANCH  29  30
ENDBRANCH   1  29
TORSDOF 17
