REMARK SMILES O=C(OCCOC(=O)[C@@H]1CC(=O)N(c2ccc(Cl)cc2C(=O)c2ccccc2)C1)c1ccc(-c2c3nc(c(-c4cccc(S(=O)(=O)[O-])c4F)c4ccc([nH]4)c(-c4cccc(S(=O)(=O)[O-])c4F)c4nc(c(-c5cccc(S(=O)(=O)[O-])c5F)c5ccc2[nH]5)C=C4)C=C3)cc1
REMARK SMILES IDX 4 1 3 2 2 3 1 4 30 5 31 6 92 7 32 8 91 9 33 10 34 11 35 12
REMARK SMILES IDX 85 13 36 14 90 15 84 16 86 17 37 18 89 19 83 20 82 21 38 23
REMARK SMILES IDX 70 24 50 25 69 26 51 27 54 28 68 29 87 30 52 31 53 32 67 34
REMARK SMILES IDX 88 35 55 36 39 37 40 38 48 39 41 40 43 41 49 42 42 43 44 44
REMARK SMILES IDX 45 45 46 46 47 47 71 48 72 49 80 50 73 51 75 52 81 53 74 54
REMARK SMILES IDX 76 55 77 56 78 57 79 58 56 59 57 60 65 61 58 62 60 63 66 64
REMARK SMILES IDX 59 65 61 66 62 67 63 68 64 69 5 70 6 71 7 72 8 73 9 74 10 75
REMARK SMILES IDX 29 76 11 77 13 78 12 79 14 80 15 81 20 82 16 83 19 84 17 85
REMARK SMILES IDX 18 86 21 87 22 88 23 89 24 90 28 91 25 92 27 93 26 94
REMARK H PARENT 86 22 54 33
REMARK Flexibility Score: inf
ROOT
ATOM      1  C   UNL     1       4.340  -1.205  -0.501  1.00  0.00     0.275 C 
ENDROOT
BRANCH   1   2
ATOM      2  O   UNL     1       3.067  -1.435   0.123  1.00  0.00    -0.458 OA
BRANCH   2   3
ATOM      3  C   UNL     1       2.744  -1.258   1.430  1.00  0.00     0.338 C 
ATOM      4  O   UNL     1       1.777  -1.838   1.913  1.00  0.00    -0.246 OA
BRANCH   3   5
ATOM      5  C   UNL     1       3.410  -0.191   2.224  1.00  0.00     0.060 A 
ATOM      6  C   UNL     1       4.775   0.086   2.157  1.00  0.00     0.016 A 
ATOM      7  C   UNL     1       2.592   0.610   3.043  1.00  0.00     0.016 A 
ATOM      8  C   UNL     1       5.288   1.241   2.723  1.00  0.00     0.010 A 
ATOM      9  C   UNL     1       3.119   1.730   3.695  1.00  0.00     0.010 A 
ATOM     10  C   UNL     1       4.470   2.052   3.513  1.00  0.00    -0.014 A 
BRANCH  10  11
ATOM     11  C   UNL     1       5.194   2.958   4.416  1.00  0.00     0.031 A 
ATOM     12  C   UNL     1       5.736   2.299   5.648  1.00  0.00     0.074 A 
ATOM     13  C   UNL     1       5.543   4.202   4.050  1.00  0.00     0.049 A 
ATOM     14  N   UNL     1       6.655   2.715   6.469  1.00  0.00    -0.248 NA
ATOM     15  C   UNL     1       5.229   0.942   5.940  1.00  0.00     0.031 C 
ATOM     16  C   UNL     1       5.148   4.873   2.812  1.00  0.00     0.029 A 
ATOM     17  N   UNL     1       6.345   5.115   4.681  1.00  0.00    -0.354 N 
ATOM     18  C   UNL     1       6.842   1.670   7.362  1.00  0.00     0.074 A 
ATOM     19  C   UNL     1       5.959   0.596   6.982  1.00  0.00     0.031 C 
ATOM     20  C   UNL     1       5.696   6.103   2.782  1.00  0.00     0.029 A 
ATOM     21  C   UNL     1       6.478   6.302   3.999  1.00  0.00     0.049 A 
ATOM     22  H   UNL     1       6.787   4.938   5.543  1.00  0.00     0.167 HD
ATOM     23  C   UNL     1       7.675   1.614   8.420  1.00  0.00     0.034 A 
ATOM     24  C   UNL     1       7.159   7.414   4.341  1.00  0.00     0.034 A 
ATOM     25  C   UNL     1       8.470   2.726   8.837  1.00  0.00     0.049 A 
ATOM     26  C   UNL     1       7.973   7.374   5.612  1.00  0.00     0.074 A 
ATOM     27  C   UNL     1       9.277   2.840   9.949  1.00  0.00     0.029 A 
ATOM     28  N   UNL     1       8.510   3.944   8.172  1.00  0.00    -0.354 N 
ATOM     29  N   UNL     1       8.188   6.363   6.423  1.00  0.00    -0.248 NA
ATOM     30  C   UNL     1       8.664   8.610   6.000  1.00  0.00     0.031 C 
ATOM     31  C   UNL     1       9.763   4.150   9.987  1.00  0.00     0.029 A 
ATOM     32  C   UNL     1       9.311   4.829   8.863  1.00  0.00     0.049 A 
ATOM     33  H   UNL     1       8.036   4.147   7.333  1.00  0.00     0.167 HD
ATOM     34  C   UNL     1       9.075   6.825   7.387  1.00  0.00     0.074 A 
ATOM     35  C   UNL     1       9.365   8.206   7.051  1.00  0.00     0.031 C 
ATOM     36  C   UNL     1       9.603   6.180   8.457  1.00  0.00     0.034 A 
BRANCH  23  37
ATOM     37  C   UNL     1       7.651   0.348   9.222  1.00  0.00     0.023 A 
ATOM     38  C   UNL     1       8.222  -0.835   8.707  1.00  0.00     0.012 A 
ATOM     39  C   UNL     1       6.975   0.315  10.454  1.00  0.00     0.148 A 
ATOM     40  C   UNL     1       8.084  -2.041   9.393  1.00  0.00     0.002 A 
ATOM     41  C   UNL     1       6.881  -0.879  11.152  1.00  0.00     0.091 A 
ATOM     42  F   UNL     1       6.397   1.442  10.893  1.00  0.00    -0.205 F 
ATOM     43  C   UNL     1       7.420  -2.061  10.617  1.00  0.00     0.022 A 
BRANCH  41  44
ATOM     44  S   UNL     1       6.089  -0.995  12.757  1.00  0.00     0.127 S 
ATOM     45  O   UNL     1       4.943  -1.854  12.459  1.00  0.00    -0.237 OA
ATOM     46  O   UNL     1       7.134  -1.625  13.563  1.00  0.00    -0.237 OA
ATOM     47  O   UNL     1       5.756   0.369  13.143  1.00  0.00    -0.744 OA
ENDBRANCH  41  44
ENDBRANCH  23  37
BRANCH  24  48
ATOM     48  C   UNL     1       7.116   8.641   3.492  1.00  0.00     0.023 A 
ATOM     49  C   UNL     1       8.291   9.128   2.884  1.00  0.00     0.012 A 
ATOM     50  C   UNL     1       5.915   9.358   3.320  1.00  0.00     0.148 A 
ATOM     51  C   UNL     1       8.278  10.323   2.159  1.00  0.00     0.002 A 
ATOM     52  C   UNL     1       5.898  10.521   2.558  1.00  0.00     0.091 A 
ATOM     53  F   UNL     1       4.809   8.893   3.918  1.00  0.00    -0.205 F 
ATOM     54  C   UNL     1       7.082  11.016   1.991  1.00  0.00     0.022 A 
BRANCH  52  55
ATOM     55  S   UNL     1       4.385  11.427   2.215  1.00  0.00     0.127 S 
ATOM     56  O   UNL     1       4.592  12.653   2.982  1.00  0.00    -0.237 OA
ATOM     57  O   UNL     1       4.453  11.588   0.763  1.00  0.00    -0.237 OA
ATOM     58  O   UNL     1       3.301  10.569   2.677  1.00  0.00    -0.744 OA
ENDBRANCH  52  55
ENDBRANCH  24  48
BRANCH  36  59
ATOM     59  C   UNL     1      10.594   6.930   9.302  1.00  0.00     0.023 A 
ATOM     60  C   UNL     1      10.166   7.970  10.148  1.00  0.00     0.012 A 
ATOM     61  C   UNL     1      11.941   6.518   9.327  1.00  0.00     0.148 A 
ATOM     62  C   UNL     1      11.075   8.613  10.986  1.00  0.00     0.002 A 
ATOM     63  C   UNL     1      12.825   7.120  10.210  1.00  0.00     0.091 A 
ATOM     64  F   UNL     1      12.326   5.537   8.498  1.00  0.00    -0.205 F 
ATOM     65  C   UNL     1      12.399   8.178  11.028  1.00  0.00     0.022 A 
BRANCH  63  66
ATOM     66  S   UNL     1      14.509   6.534  10.416  1.00  0.00     0.127 S 
ATOM     67  O   UNL     1      15.273   7.585   9.748  1.00  0.00    -0.237 OA
ATOM     68  O   UNL     1      14.651   6.505  11.872  1.00  0.00    -0.237 OA
ATOM     69  O   UNL     1      14.558   5.224   9.780  1.00  0.00    -0.744 OA
ENDBRANCH  63  66
ENDBRANCH  36  59
ENDBRANCH  10  11
ENDBRANCH   3   5
ENDBRANCH   2   3
ENDBRANCH   1   2
BRANCH   1  70
ATOM     70  C   UNL     1       4.600   0.209  -1.040  1.00  0.00     0.274 C 
BRANCH  70  71
ATOM     71  O   UNL     1       4.076   1.319  -0.294  1.00  0.00    -0.462 OA
BRANCH  71  72
ATOM     72  C   UNL     1       2.758   1.622  -0.471  1.00  0.00     0.311 C 
ATOM     73  O   UNL     1       2.003   1.016  -1.215  1.00  0.00    -0.252 OA
BRANCH  72  74
ATOM     74  C   UNL     1       2.336   2.742   0.464  1.00  0.00     0.128 C 
ATOM     75  C   UNL     1       0.903   2.531   0.928  1.00  0.00     0.117 C 
ATOM     76  C   UNL     1       2.315   4.121  -0.147  1.00  0.00     0.141 C 
ATOM     77  C   UNL     1       0.106   3.347  -0.058  1.00  0.00     0.227 C 
ATOM     78  N   UNL     1       0.983   4.255  -0.680  1.00  0.00    -0.311 N 
ATOM     79  O   UNL     1      -1.093   3.216  -0.222  1.00  0.00    -0.274 OA
BRANCH  78  80
ATOM     80  C   UNL     1       0.560   5.347  -1.487  1.00  0.00     0.055 A 
ATOM     81  C   UNL     1      -0.702   5.916  -1.214  1.00  0.00     0.028 A 
ATOM     82  C   UNL     1       1.323   5.934  -2.517  1.00  0.00     0.048 A 
ATOM     83  C   UNL     1      -1.195   7.011  -1.929  1.00  0.00     0.023 A 
ATOM     84  C   UNL     1       0.819   7.038  -3.236  1.00  0.00     0.035 A 
ATOM     85  C   UNL     1      -0.434   7.562  -2.946  1.00  0.00     0.041 A 
ATOM     86  Cl  UNL     1      -1.051   8.880  -3.862  1.00  0.00    -0.084 Cl
BRANCH  82  87
ATOM     87  C   UNL     1       2.659   5.494  -2.974  1.00  0.00     0.195 C 
ATOM     88  O   UNL     1       3.535   6.350  -3.091  1.00  0.00    -0.289 OA
BRANCH  87  89
ATOM     89  C   UNL     1       2.987   4.099  -3.362  1.00  0.00     0.023 A 
ATOM     90  C   UNL     1       4.346   3.740  -3.370  1.00  0.00     0.012 A 
ATOM     91  C   UNL     1       2.020   3.155  -3.712  1.00  0.00     0.012 A 
ATOM     92  C   UNL     1       4.738   2.462  -3.755  1.00  0.00     0.001 A 
ATOM     93  C   UNL     1       2.419   1.873  -4.099  1.00  0.00     0.001 A 
ATOM     94  C   UNL     1       3.773   1.537  -4.143  1.00  0.00     0.000 A 
ENDBRANCH  87  89
ENDBRANCH  82  87
ENDBRANCH  78  80
ENDBRANCH  72  74
ENDBRANCH  71  72
ENDBRANCH  70  71
ENDBRANCH   1  70
TORSDOF 17
