REMARK SMILES Cc1nn(-c2cc(Cl)ccc2Cl)nc1C(=O)OCCOC(=O)c1ccc(-c2c3nc(c(-c4cccc(S(=O)(=O)[O-])c4F)c4ccc([nH]4)c(-c4cccc(S(=O)(=O)[O-])c4F)c4nc(c(-c5cccc(S(=O)(=O)[O-])c5F)c5ccc2[nH]5)C=C4)C=C3)cc1
REMARK SMILES IDX 19 1 18 2 17 3 15 4 16 5 14 6 1 7 2 8 3 9 4 10 13 11 5 12
REMARK SMILES IDX 6 13 11 14 7 15 10 16 12 17 8 18 9 19 20 20 21 21 22 22
REMARK SMILES IDX 23 23 24 24 85 25 25 26 84 27 26 28 27 29 28 30 78 31 29 32
REMARK SMILES IDX 83 33 77 34 79 35 30 36 82 37 76 38 75 39 31 41 63 42 43 43
REMARK SMILES IDX 62 44 44 45 47 46 61 47 80 48 45 49 46 50 60 52 81 53 48 54
REMARK SMILES IDX 32 55 33 56 41 57 34 58 36 59 42 60 35 61 37 62 38 63 39 64
REMARK SMILES IDX 40 65 64 66 65 67 73 68 66 69 68 70 74 71 67 72 69 73 70 74
REMARK SMILES IDX 71 75 72 76 49 77 50 78 58 79 51 80 53 81 59 82 52 83 54 84
REMARK SMILES IDX 55 85 56 86 57 87
REMARK H PARENT 79 40 47 51
REMARK Flexibility Score: inf
ROOT
ATOM      1  C   UNL     1       3.078   3.663   1.605  1.00  0.00     0.275 C 
ENDROOT
BRANCH   1   2
ATOM      2  C   UNL     1       1.666   3.241   1.991  1.00  0.00     0.275 C 
BRANCH   2   3
ATOM      3  O   UNL     1       1.056   2.465   0.946  1.00  0.00    -0.457 OA
BRANCH   3   4
ATOM      4  C   UNL     1       0.384   3.187  -0.004  1.00  0.00     0.360 C 
ATOM      5  O   UNL     1       0.068   4.366   0.140  1.00  0.00    -0.244 OA
BRANCH   4   6
ATOM      6  C   UNL     1       0.118   2.421  -1.222  1.00  0.00     0.193 A 
ATOM      7  C   UNL     1       0.586  -0.063  -0.523  1.00  0.00     0.071 C 
ATOM      8  C   UNL     1       0.173   1.020  -1.444  1.00  0.00     0.095 A 
ATOM      9  N   UNL     1      -0.232   0.742  -2.692  1.00  0.00    -0.153 NA
ATOM     10  N   UNL     1      -0.405   1.977  -3.211  1.00  0.00    -0.149 N 
ATOM     11  N   UNL     1      -0.195   3.021  -2.388  1.00  0.00    -0.141 NA
BRANCH  10  12
ATOM     12  C   UNL     1      -0.767   2.186  -4.549  1.00  0.00     0.106 A 
ATOM     13  C   UNL     1       0.118   2.897  -5.376  1.00  0.00     0.052 A 
ATOM     14  C   UNL     1      -2.006   1.752  -5.027  1.00  0.00     0.068 A 
ATOM     15  C   UNL     1      -0.239   3.144  -6.699  1.00  0.00     0.043 A 
ATOM     16  C   UNL     1      -2.365   2.046  -6.346  1.00  0.00     0.024 A 
ATOM     17  Cl  UNL     1      -3.188   0.975  -4.035  1.00  0.00    -0.082 Cl
ATOM     18  Cl  UNL     1       0.853   3.957  -7.747  1.00  0.00    -0.084 Cl
ATOM     19  C   UNL     1      -1.481   2.733  -7.184  1.00  0.00     0.022 A 
ENDBRANCH  10  12
ENDBRANCH   4   6
ENDBRANCH   3   4
ENDBRANCH   2   3
ENDBRANCH   1   2
BRANCH   1  20
ATOM     20  O   UNL     1       3.077   4.595   0.525  1.00  0.00    -0.458 OA
BRANCH  20  21
ATOM     21  C   UNL     1       3.259   4.051  -0.700  1.00  0.00     0.338 C 
ATOM     22  O   UNL     1       3.075   2.887  -1.018  1.00  0.00    -0.246 OA
BRANCH  21  23
ATOM     23  C   UNL     1       3.908   5.034  -1.569  1.00  0.00     0.060 A 
ATOM     24  C   UNL     1       3.913   4.803  -2.948  1.00  0.00     0.016 A 
ATOM     25  C   UNL     1       4.690   6.040  -0.984  1.00  0.00     0.016 A 
ATOM     26  C   UNL     1       4.794   5.520  -3.734  1.00  0.00     0.010 A 
ATOM     27  C   UNL     1       5.575   6.742  -1.766  1.00  0.00     0.010 A 
ATOM     28  C   UNL     1       5.656   6.439  -3.123  1.00  0.00    -0.014 A 
BRANCH  28  29
ATOM     29  C   UNL     1       6.547   7.225  -3.955  1.00  0.00     0.031 A 
ATOM     30  C   UNL     1       5.817   8.211  -4.786  1.00  0.00     0.074 A 
ATOM     31  C   UNL     1       7.888   7.161  -3.841  1.00  0.00     0.049 A 
ATOM     32  N   UNL     1       5.708   8.224  -6.072  1.00  0.00    -0.248 NA
ATOM     33  C   UNL     1       4.952   9.188  -4.102  1.00  0.00     0.031 C 
ATOM     34  C   UNL     1       8.650   6.406  -2.839  1.00  0.00     0.029 A 
ATOM     35  N   UNL     1       8.855   7.864  -4.499  1.00  0.00    -0.354 N 
ATOM     36  C   UNL     1       4.989   9.381  -6.359  1.00  0.00     0.074 A 
ATOM     37  C   UNL     1       4.360   9.788  -5.135  1.00  0.00     0.031 C 
ATOM     38  C   UNL     1       9.917   6.875  -2.796  1.00  0.00     0.029 A 
ATOM     39  C   UNL     1      10.089   7.855  -3.854  1.00  0.00     0.049 A 
ATOM     40  H   UNL     1       8.695   8.333  -5.350  1.00  0.00     0.167 HD
ATOM     41  C   UNL     1       5.257  10.091  -7.488  1.00  0.00     0.034 A 
ATOM     42  C   UNL     1      11.160   8.636  -4.134  1.00  0.00     0.034 A 
ATOM     43  C   UNL     1       6.036   9.310  -8.414  1.00  0.00     0.049 A 
ATOM     44  C   UNL     1      11.014   9.107  -5.525  1.00  0.00     0.074 A 
ATOM     45  C   UNL     1       5.826   8.224  -9.233  1.00  0.00     0.029 A 
ATOM     46  N   UNL     1       7.388   9.444  -8.237  1.00  0.00    -0.354 N 
ATOM     47  N   UNL     1      11.078   8.309  -6.553  1.00  0.00    -0.248 NA
ATOM     48  C   UNL     1      10.450  10.425  -5.790  1.00  0.00     0.031 C 
ATOM     49  C   UNL     1       7.096   7.591  -9.375  1.00  0.00     0.029 A 
ATOM     50  C   UNL     1       8.049   8.328  -8.671  1.00  0.00     0.049 A 
ATOM     51  H   UNL     1       7.825  10.237  -7.850  1.00  0.00     0.167 HD
ATOM     52  C   UNL     1      10.150   8.832  -7.435  1.00  0.00     0.074 A 
ATOM     53  C   UNL     1       9.960  10.214  -7.016  1.00  0.00     0.031 C 
ATOM     54  C   UNL     1       9.379   8.007  -8.199  1.00  0.00     0.034 A 
BRANCH  41  55
ATOM     55  C   UNL     1       5.277  11.606  -7.568  1.00  0.00     0.023 A 
ATOM     56  C   UNL     1       5.480  12.176  -8.845  1.00  0.00     0.012 A 
ATOM     57  C   UNL     1       5.420  12.470  -6.456  1.00  0.00     0.148 A 
ATOM     58  C   UNL     1       5.849  13.517  -9.003  1.00  0.00     0.002 A 
ATOM     59  C   UNL     1       5.712  13.819  -6.622  1.00  0.00     0.091 A 
ATOM     60  F   UNL     1       5.421  11.977  -5.216  1.00  0.00    -0.205 F 
ATOM     61  C   UNL     1       5.957  14.342  -7.891  1.00  0.00     0.022 A 
BRANCH  59  62
ATOM     62  S   UNL     1       5.834  14.935  -5.217  1.00  0.00     0.127 S 
ATOM     63  O   UNL     1       7.274  15.172  -5.156  1.00  0.00    -0.237 OA
ATOM     64  O   UNL     1       5.035  16.073  -5.671  1.00  0.00    -0.237 OA
ATOM     65  O   UNL     1       5.256  14.213  -4.090  1.00  0.00    -0.744 OA
ENDBRANCH  59  62
ENDBRANCH  41  55
BRANCH  42  66
ATOM     66  C   UNL     1      12.231   9.143  -3.249  1.00  0.00     0.023 A 
ATOM     67  C   UNL     1      13.482   9.505  -3.789  1.00  0.00     0.012 A 
ATOM     68  C   UNL     1      11.934   9.534  -1.926  1.00  0.00     0.148 A 
ATOM     69  C   UNL     1      14.393  10.265  -3.046  1.00  0.00     0.002 A 
ATOM     70  C   UNL     1      12.843  10.288  -1.191  1.00  0.00     0.091 A 
ATOM     71  F   UNL     1      10.728   9.236  -1.425  1.00  0.00    -0.205 F 
ATOM     72  C   UNL     1      14.069  10.667  -1.753  1.00  0.00     0.022 A 
BRANCH  70  73
ATOM     73  S   UNL     1      12.486  10.877   0.470  1.00  0.00     0.127 S 
ATOM     74  O   UNL     1      13.636  10.372   1.220  1.00  0.00    -0.237 OA
ATOM     75  O   UNL     1      12.467  12.325   0.280  1.00  0.00    -0.237 OA
ATOM     76  O   UNL     1      11.212  10.276   0.844  1.00  0.00    -0.744 OA
ENDBRANCH  70  73
ENDBRANCH  42  66
BRANCH  54  77
ATOM     77  C   UNL     1       9.861   6.598  -8.393  1.00  0.00     0.023 A 
ATOM     78  C   UNL     1       9.910   5.657  -7.344  1.00  0.00     0.012 A 
ATOM     79  C   UNL     1      10.178   6.185  -9.696  1.00  0.00     0.148 A 
ATOM     80  C   UNL     1      10.292   4.336  -7.589  1.00  0.00     0.002 A 
ATOM     81  C   UNL     1      10.512   4.861  -9.944  1.00  0.00     0.091 A 
ATOM     82  F   UNL     1      10.126   7.098 -10.678  1.00  0.00    -0.205 F 
ATOM     83  C   UNL     1      10.582   3.935  -8.892  1.00  0.00     0.022 A 
BRANCH  81  84
ATOM     84  S   UNL     1      10.783   4.259 -11.611  1.00  0.00     0.127 S 
ATOM     85  O   UNL     1      12.228   4.045 -11.628  1.00  0.00    -0.237 OA
ATOM     86  O   UNL     1       9.982   3.034 -11.633  1.00  0.00    -0.237 OA
ATOM     87  O   UNL     1      10.295   5.305 -12.502  1.00  0.00    -0.744 OA
ENDBRANCH  81  84
ENDBRANCH  54  77
ENDBRANCH  28  29
ENDBRANCH  21  23
ENDBRANCH  20  21
ENDBRANCH   1  20
TORSDOF 15
