REMARK SMILES NC(=O)[C@@H]1CCC[N@@H+]1[C@@H](C(=O)OCCOC(=O)c1ccc(-c2c3nc(c(-c4cccc(S(=O)(=O)[O-])c4F)c4ccc([nH]4)c(-c4cccc(S(=O)(=O)[O-])c4F)c4nc(c(-c5cccc(S(=O)(=O)[O-])c5F)c5ccc2[nH]5)C=C4)C=C3)cc1)c1c[nH]c2cc(OCc3ccccc3)ccc12
REMARK SMILES IDX 13 1 12 2 10 3 11 4 9 5 8 6 4 7 5 8 6 9 7 10 2 12 1 13 3 16
REMARK SMILES IDX 81 17 82 18 97 19 83 20 84 21 96 22 85 24 95 25 86 26 87 27
REMARK SMILES IDX 88 28 89 29 90 30 94 31 91 32 93 33 92 34 14 35 15 36 16 37
REMARK SMILES IDX 17 38 18 39 19 40 80 41 20 42 79 43 21 44 22 45 23 46 73 47
REMARK SMILES IDX 24 48 78 49 72 50 74 51 25 52 77 53 71 54 70 55 26 57 58 58
REMARK SMILES IDX 38 59 57 60 39 61 42 62 56 63 75 64 40 65 41 66 55 68 76 69
REMARK SMILES IDX 43 70 27 71 28 72 36 73 29 74 31 75 37 76 30 77 32 78 33 79
REMARK SMILES IDX 34 80 35 81 59 82 60 83 68 84 61 85 63 86 69 87 62 88 64 89
REMARK SMILES IDX 65 90 66 91 67 92 44 93 45 94 53 95 46 96 48 97 54 98 47 99
REMARK SMILES IDX 49 100 50 101 51 102 52 103
REMARK H PARENT 8 11 1 14 1 15 83 23 74 56 42 67
REMARK Flexibility Score: inf
ROOT
ATOM      1  C   UNL     1      -2.458  -3.346   1.617  1.00  0.00     0.274 C 
ENDROOT
BRANCH   1   2
ATOM      2  O   UNL     1      -1.357  -3.160   2.547  1.00  0.00    -0.457 OA
BRANCH   2   3
ATOM      3  C   UNL     1      -1.325  -1.949   3.167  1.00  0.00     0.370 C 
ATOM      4  O   UNL     1      -2.257  -1.144   3.117  1.00  0.00    -0.245 OA
BRANCH   3   5
ATOM      5  C   UNL     1      -0.010  -1.584   3.848  1.00  0.00     0.329 C 
BRANCH   5   6
ATOM      6  N   UNL     1       1.247  -1.421   2.979  1.00  0.00    -0.309 N 
ATOM      7  C   UNL     1       1.200  -1.561   1.496  1.00  0.00     0.275 C 
ATOM      8  C   UNL     1       1.324  -3.052   1.188  1.00  0.00     0.081 C 
ATOM      9  C   UNL     1       1.891  -3.643   2.473  1.00  0.00     0.068 C 
ATOM     10  C   UNL     1       2.305  -2.416   3.260  1.00  0.00     0.264 C 
ATOM     11  H   UNL     1       1.397  -0.448   3.247  1.00  0.00     0.349 HD
BRANCH   7  12
ATOM     12  C   UNL     1       0.208  -0.769   0.655  1.00  0.00     0.275 C 
ATOM     13  N   UNL     1       0.762   0.218  -0.118  1.00  0.00    -0.365 N 
ATOM     14  H   UNL     1       0.188   0.775  -0.692  1.00  0.00     0.159 HD
ATOM     15  H   UNL     1       1.735   0.369  -0.101  1.00  0.00     0.159 HD
ATOM     16  O   UNL     1      -0.988  -1.013   0.530  1.00  0.00    -0.268 OA
ENDBRANCH   7  12
ENDBRANCH   5   6
BRANCH   5  17
ATOM     17  C   UNL     1       0.349  -2.123   5.261  1.00  0.00     0.046 A 
ATOM     18  C   UNL     1       1.136  -1.373   6.136  1.00  0.00     0.094 A 
ATOM     19  C   UNL     1       0.317  -3.415   5.908  1.00  0.00     0.009 A 
ATOM     20  N   UNL     1       1.989  -2.257   6.751  1.00  0.00    -0.361 N 
ATOM     21  C   UNL     1       1.565  -3.539   6.518  1.00  0.00     0.050 A 
ATOM     22  C   UNL     1      -0.513  -4.537   6.055  1.00  0.00     0.015 A 
ATOM     23  H   UNL     1       2.782  -2.007   7.277  1.00  0.00     0.166 HD
ATOM     24  C   UNL     1       2.144  -4.778   6.820  1.00  0.00     0.073 A 
ATOM     25  C   UNL     1      -0.048  -5.737   6.625  1.00  0.00     0.047 A 
ATOM     26  C   UNL     1       1.302  -5.894   6.877  1.00  0.00     0.121 A 
BRANCH  26  27
ATOM     27  O   UNL     1       1.926  -7.067   7.205  1.00  0.00    -0.489 OA
BRANCH  27  28
ATOM     28  C   UNL     1       1.209  -8.023   7.995  1.00  0.00     0.265 C 
BRANCH  28  29
ATOM     29  C   UNL     1       1.282  -7.753   9.481  1.00  0.00    -0.011 A 
ATOM     30  C   UNL     1       0.690  -8.662  10.372  1.00  0.00     0.007 A 
ATOM     31  C   UNL     1       1.949  -6.636  10.005  1.00  0.00     0.007 A 
ATOM     32  C   UNL     1       0.765  -8.452  11.747  1.00  0.00     0.000 A 
ATOM     33  C   UNL     1       2.022  -6.427  11.377  1.00  0.00     0.000 A 
ATOM     34  C   UNL     1       1.433  -7.338  12.242  1.00  0.00     0.000 A 
ENDBRANCH  28  29
ENDBRANCH  27  28
ENDBRANCH  26  27
ENDBRANCH   5  17
ENDBRANCH   3   5
ENDBRANCH   2   3
ENDBRANCH   1   2
BRANCH   1  35
ATOM     35  C   UNL     1      -3.455  -4.361   2.152  1.00  0.00     0.275 C 
BRANCH  35  36
ATOM     36  O   UNL     1      -4.022  -3.829   3.363  1.00  0.00    -0.458 OA
BRANCH  36  37
ATOM     37  C   UNL     1      -3.691  -4.519   4.473  1.00  0.00     0.338 C 
ATOM     38  O   UNL     1      -3.169  -5.625   4.501  1.00  0.00    -0.246 OA
BRANCH  37  39
ATOM     39  C   UNL     1      -3.889  -3.736   5.719  1.00  0.00     0.060 A 
ATOM     40  C   UNL     1      -3.441  -2.417   5.821  1.00  0.00     0.016 A 
ATOM     41  C   UNL     1      -4.181  -4.452   6.883  1.00  0.00     0.016 A 
ATOM     42  C   UNL     1      -3.154  -1.866   7.072  1.00  0.00     0.010 A 
ATOM     43  C   UNL     1      -3.987  -3.865   8.137  1.00  0.00     0.010 A 
ATOM     44  C   UNL     1      -3.438  -2.579   8.245  1.00  0.00    -0.014 A 
BRANCH  44  45
ATOM     45  C   UNL     1      -3.317  -1.929   9.575  1.00  0.00     0.031 A 
ATOM     46  C   UNL     1      -2.358  -2.412  10.630  1.00  0.00     0.074 A 
ATOM     47  C   UNL     1      -4.153  -0.909   9.846  1.00  0.00     0.049 A 
ATOM     48  N   UNL     1      -2.328  -2.122  11.907  1.00  0.00    -0.248 NA
ATOM     49  C   UNL     1      -1.286  -3.321  10.199  1.00  0.00     0.031 C 
ATOM     50  C   UNL     1      -5.094  -0.319   8.891  1.00  0.00     0.029 A 
ATOM     51  N   UNL     1      -4.372  -0.212  11.007  1.00  0.00    -0.354 N 
ATOM     52  C   UNL     1      -1.272  -2.848  12.448  1.00  0.00     0.074 A 
ATOM     53  C   UNL     1      -0.665  -3.570  11.349  1.00  0.00     0.031 C 
ATOM     54  C   UNL     1      -5.803   0.634   9.505  1.00  0.00     0.029 A 
ATOM     55  C   UNL     1      -5.437   0.651  10.915  1.00  0.00     0.049 A 
ATOM     56  H   UNL     1      -3.825  -0.319  11.819  1.00  0.00     0.167 HD
ATOM     57  C   UNL     1      -0.857  -2.897  13.740  1.00  0.00     0.034 A 
ATOM     58  C   UNL     1      -6.108   1.328  11.864  1.00  0.00     0.034 A 
ATOM     59  C   UNL     1      -1.442  -2.118  14.807  1.00  0.00     0.049 A 
ATOM     60  C   UNL     1      -5.660   1.224  13.286  1.00  0.00     0.074 A 
ATOM     61  C   UNL     1      -1.070  -2.074  16.142  1.00  0.00     0.029 A 
ATOM     62  N   UNL     1      -2.506  -1.240  14.666  1.00  0.00    -0.354 N 
ATOM     63  N   UNL     1      -4.675   0.521  13.787  1.00  0.00    -0.248 NA
ATOM     64  C   UNL     1      -6.396   2.027  14.270  1.00  0.00     0.031 C 
ATOM     65  C   UNL     1      -1.919  -1.186  16.809  1.00  0.00     0.029 A 
ATOM     66  C   UNL     1      -2.797  -0.646  15.885  1.00  0.00     0.049 A 
ATOM     67  H   UNL     1      -2.984  -1.064  13.824  1.00  0.00     0.167 HD
ATOM     68  C   UNL     1      -4.649   0.820  15.142  1.00  0.00     0.074 A 
ATOM     69  C   UNL     1      -5.708   1.782  15.377  1.00  0.00     0.031 C 
ATOM     70  C   UNL     1      -3.828   0.334  16.104  1.00  0.00     0.034 A 
BRANCH  57  71
ATOM     71  C   UNL     1       0.308  -3.784  14.120  1.00  0.00     0.023 A 
ATOM     72  C   UNL     1       1.623  -3.382  13.815  1.00  0.00     0.012 A 
ATOM     73  C   UNL     1       0.110  -4.917  14.940  1.00  0.00     0.148 A 
ATOM     74  C   UNL     1       2.718  -4.091  14.316  1.00  0.00     0.002 A 
ATOM     75  C   UNL     1       1.207  -5.598  15.465  1.00  0.00     0.091 A 
ATOM     76  F   UNL     1      -1.146  -5.304  15.207  1.00  0.00    -0.205 F 
ATOM     77  C   UNL     1       2.512  -5.187  15.151  1.00  0.00     0.022 A 
BRANCH  75  78
ATOM     78  S   UNL     1       1.022  -7.011  16.565  1.00  0.00     0.127 S 
ATOM     79  O   UNL     1       1.204  -8.132  15.645  1.00  0.00    -0.237 OA
ATOM     80  O   UNL     1       2.122  -6.822  17.512  1.00  0.00    -0.237 OA
ATOM     81  O   UNL     1      -0.306  -6.884  17.149  1.00  0.00    -0.744 OA
ENDBRANCH  75  78
ENDBRANCH  57  71
BRANCH  58  82
ATOM     82  C   UNL     1      -7.280   2.149  11.463  1.00  0.00     0.023 A 
ATOM     83  C   UNL     1      -7.179   3.551  11.469  1.00  0.00     0.012 A 
ATOM     84  C   UNL     1      -8.447   1.539  10.961  1.00  0.00     0.148 A 
ATOM     85  C   UNL     1      -8.226   4.335  10.984  1.00  0.00     0.002 A 
ATOM     86  C   UNL     1      -9.454   2.322  10.415  1.00  0.00     0.091 A 
ATOM     87  F   UNL     1      -8.526   0.201  10.983  1.00  0.00    -0.205 F 
ATOM     88  C   UNL     1      -9.352   3.721  10.439  1.00  0.00     0.022 A 
BRANCH  86  89
ATOM     89  S   UNL     1     -10.846   1.605   9.534  1.00  0.00     0.127 S 
ATOM     90  O   UNL     1     -11.934   1.794  10.490  1.00  0.00    -0.237 OA
ATOM     91  O   UNL     1     -10.920   2.450   8.341  1.00  0.00    -0.237 OA
ATOM     92  O   UNL     1     -10.469   0.225   9.264  1.00  0.00    -0.744 OA
ENDBRANCH  86  89
ENDBRANCH  58  82
BRANCH  70  93
ATOM     93  C   UNL     1      -4.012   0.875  17.496  1.00  0.00     0.023 A 
ATOM     94  C   UNL     1      -5.143   0.505  18.251  1.00  0.00     0.012 A 
ATOM     95  C   UNL     1      -3.053   1.737  18.062  1.00  0.00     0.148 A 
ATOM     96  C   UNL     1      -5.340   1.024  19.530  1.00  0.00     0.002 A 
ATOM     97  C   UNL     1      -3.232   2.211  19.356  1.00  0.00     0.091 A 
ATOM     98  F   UNL     1      -1.994   2.094  17.321  1.00  0.00    -0.205 F 
ATOM     99  C   UNL     1      -4.382   1.870  20.085  1.00  0.00     0.022 A 
BRANCH  97 100
ATOM    100  S   UNL     1      -2.005   3.232  20.179  1.00  0.00     0.127 S 
ATOM    101  O   UNL     1      -2.621   4.556  20.107  1.00  0.00    -0.237 OA
ATOM    102  O   UNL     1      -1.964   2.650  21.521  1.00  0.00    -0.237 OA
ATOM    103  O   UNL     1      -0.774   3.069  19.416  1.00  0.00    -0.744 OA
ENDBRANCH  97 100
ENDBRANCH  70  93
ENDBRANCH  44  45
ENDBRANCH  37  39
ENDBRANCH  36  37
ENDBRANCH  35  36
ENDBRANCH   1  35
TORSDOF 20
