REMARK SMILES O=C(Nc1ccc2c(c1)OCO2)N[C@H]1C=C[C@@H](C(=O)OCCOC(=O)c2ccc(-c3c4nc(c(-c5cccc(S(=O)(=O)[O-])c5F)c5ccc([nH]5)c(-c5cccc(S(=O)(=O)[O-])c5F)c5nc(c(-c6cccc(S(=O)(=O)[O-])c6F)c6ccc3[nH]6)C=C5)C=C4)cc2)C1
REMARK SMILES IDX 22 1 21 2 20 3 18 4 19 5 17 6 14 7 15 8 89 9 16 10 13 11
REMARK SMILES IDX 1 12 2 13 3 14 4 17 5 18 9 19 6 20 8 21 7 22 10 23 12 24
REMARK SMILES IDX 11 25 23 26 24 27 25 28 26 29 27 30 88 31 28 32 87 33 29 34
REMARK SMILES IDX 30 35 31 36 81 37 32 38 86 39 80 40 82 41 33 42 85 43 79 44
REMARK SMILES IDX 78 45 34 47 66 48 46 49 65 50 47 51 50 52 64 53 83 54 48 55
REMARK SMILES IDX 49 56 63 58 84 59 51 60 35 61 36 62 44 63 37 64 39 65 45 66
REMARK SMILES IDX 38 67 40 68 41 69 42 70 43 71 67 72 68 73 76 74 69 75 71 76
REMARK SMILES IDX 77 77 70 78 72 79 73 80 74 81 75 82 52 83 53 84 61 85 54 86
REMARK SMILES IDX 56 87 62 88 55 89 57 90 58 91 59 92 60 93
REMARK H PARENT 3 15 13 16 82 46 50 57
REMARK Flexibility Score: inf
ROOT
ATOM      1  C   UNL     1       6.453   1.294   6.279  1.00  0.00     0.275 C 
ENDROOT
BRANCH   1   2
ATOM      2  C   UNL     1       6.417  -0.129   5.714  1.00  0.00     0.274 C 
BRANCH   2   3
ATOM      3  O   UNL     1       5.245  -0.323   4.898  1.00  0.00    -0.462 OA
BRANCH   3   4
ATOM      4  C   UNL     1       4.298  -1.169   5.382  1.00  0.00     0.312 C 
ATOM      5  O   UNL     1       4.444  -1.872   6.376  1.00  0.00    -0.252 OA
BRANCH   4   6
ATOM      6  C   UNL     1       3.018  -1.193   4.552  1.00  0.00     0.124 C 
ATOM      7  C   UNL     1       2.198  -0.710   2.287  1.00  0.00     0.107 C 
ATOM      8  C   UNL     1       2.482  -2.163   2.485  1.00  0.00    -0.006 C 
ATOM      9  C   UNL     1       2.802  -0.059   3.541  1.00  0.00     0.048 C 
ATOM     10  C   UNL     1       2.939  -2.430   3.712  1.00  0.00    -0.014 C 
BRANCH   7  11
ATOM     11  N   UNL     1       2.881  -0.290   1.094  1.00  0.00    -0.332 N 
ATOM     12  O   UNL     1       1.070  -0.223  -0.298  1.00  0.00    -0.248 OA
ATOM     13  C   UNL     1       2.280  -0.124  -0.116  1.00  0.00     0.319 C 
ATOM     14  N   UNL     1       3.098   0.275  -1.138  1.00  0.00    -0.308 N 
ATOM     15  H   UNL     1       2.639   0.687  -1.905  1.00  0.00     0.171 HD
ATOM     16  H   UNL     1       3.847  -0.109   1.156  1.00  0.00     0.165 HD
BRANCH  14  17
ATOM     17  C   UNL     1       4.495   0.184  -1.255  1.00  0.00     0.046 A 
ATOM     18  C   UNL     1       5.241  -0.834  -0.620  1.00  0.00     0.030 A 
ATOM     19  C   UNL     1       5.147   1.135  -2.046  1.00  0.00     0.076 A 
ATOM     20  C   UNL     1       6.636  -0.863  -0.701  1.00  0.00     0.053 A 
ATOM     21  C   UNL     1       6.525   1.096  -2.088  1.00  0.00     0.167 A 
ATOM     22  C   UNL     1       7.249   0.131  -1.428  1.00  0.00     0.165 A 
ATOM     23  O   UNL     1       7.324   1.985  -2.739  1.00  0.00    -0.454 OA
ATOM     24  O   UNL     1       8.590   0.289  -1.583  1.00  0.00    -0.454 OA
ATOM     25  C   UNL     1       8.629   1.513  -2.344  1.00  0.00     0.468 C 
ENDBRANCH  14  17
ENDBRANCH   7  11
ENDBRANCH   4   6
ENDBRANCH   3   4
ENDBRANCH   2   3
ENDBRANCH   1   2
BRANCH   1  26
ATOM     26  O   UNL     1       5.368   1.529   7.196  1.00  0.00    -0.458 OA
BRANCH  26  27
ATOM     27  C   UNL     1       4.239   2.016   6.630  1.00  0.00     0.338 C 
ATOM     28  O   UNL     1       4.063   2.291   5.455  1.00  0.00    -0.246 OA
BRANCH  27  29
ATOM     29  C   UNL     1       3.153   2.043   7.622  1.00  0.00     0.060 A 
ATOM     30  C   UNL     1       2.016   1.275   7.361  1.00  0.00     0.016 A 
ATOM     31  C   UNL     1       3.206   2.874   8.742  1.00  0.00     0.016 A 
ATOM     32  C   UNL     1       0.918   1.338   8.213  1.00  0.00     0.010 A 
ATOM     33  C   UNL     1       2.102   2.937   9.599  1.00  0.00     0.010 A 
ATOM     34  C   UNL     1       0.947   2.181   9.331  1.00  0.00    -0.014 A 
BRANCH  34  35
ATOM     35  C   UNL     1      -0.258   2.297  10.187  1.00  0.00     0.031 A 
ATOM     36  C   UNL     1      -1.116   3.528  10.110  1.00  0.00     0.074 A 
ATOM     37  C   UNL     1      -0.588   1.289  11.016  1.00  0.00     0.049 A 
ATOM     38  N   UNL     1      -2.178   3.838  10.806  1.00  0.00    -0.248 NA
ATOM     39  C   UNL     1      -0.730   4.544   9.117  1.00  0.00     0.031 C 
ATOM     40  C   UNL     1       0.163   0.042  11.166  1.00  0.00     0.029 A 
ATOM     41  N   UNL     1      -1.630   1.162  11.899  1.00  0.00    -0.354 N 
ATOM     42  C   UNL     1      -2.574   5.092  10.358  1.00  0.00     0.074 A 
ATOM     43  C   UNL     1      -1.631   5.492   9.335  1.00  0.00     0.031 C 
ATOM     44  C   UNL     1      -0.433  -0.717  12.101  1.00  0.00     0.029 A 
ATOM     45  C   UNL     1      -1.586   0.002  12.636  1.00  0.00     0.049 A 
ATOM     46  H   UNL     1      -2.340   1.837  11.996  1.00  0.00     0.167 HD
ATOM     47  C   UNL     1      -3.638   5.833  10.749  1.00  0.00     0.034 A 
ATOM     48  C   UNL     1      -2.374  -0.422  13.643  1.00  0.00     0.034 A 
ATOM     49  C   UNL     1      -4.588   5.421  11.747  1.00  0.00     0.049 A 
ATOM     50  C   UNL     1      -3.541   0.429  14.066  1.00  0.00     0.074 A 
ATOM     51  C   UNL     1      -5.701   6.101  12.210  1.00  0.00     0.029 A 
ATOM     52  N   UNL     1      -4.542   4.216  12.432  1.00  0.00    -0.354 N 
ATOM     53  N   UNL     1      -3.946   1.576  13.576  1.00  0.00    -0.248 NA
ATOM     54  C   UNL     1      -4.377  -0.085  15.161  1.00  0.00     0.031 C 
ATOM     55  C   UNL     1      -6.327   5.307  13.178  1.00  0.00     0.029 A 
ATOM     56  C   UNL     1      -5.609   4.130  13.310  1.00  0.00     0.049 A 
ATOM     57  H   UNL     1      -3.852   3.524  12.312  1.00  0.00     0.167 HD
ATOM     58  C   UNL     1      -5.096   1.907  14.283  1.00  0.00     0.074 A 
ATOM     59  C   UNL     1      -5.339   0.826  15.216  1.00  0.00     0.031 C 
ATOM     60  C   UNL     1      -5.869   3.017  14.187  1.00  0.00     0.034 A 
BRANCH  47  61
ATOM     61  C   UNL     1      -3.859   7.153  10.060  1.00  0.00     0.023 A 
ATOM     62  C   UNL     1      -4.389   7.167   8.755  1.00  0.00     0.012 A 
ATOM     63  C   UNL     1      -3.605   8.373  10.718  1.00  0.00     0.148 A 
ATOM     64  C   UNL     1      -4.642   8.374   8.104  1.00  0.00     0.002 A 
ATOM     65  C   UNL     1      -3.893   9.572  10.076  1.00  0.00     0.091 A 
ATOM     66  F   UNL     1      -3.079   8.337  11.951  1.00  0.00    -0.205 F 
ATOM     67  C   UNL     1      -4.404   9.575   8.768  1.00  0.00     0.022 A 
BRANCH  65  68
ATOM     68  S   UNL     1      -3.680  11.170  10.870  1.00  0.00     0.127 S 
ATOM     69  O   UNL     1      -2.510  11.695  10.168  1.00  0.00    -0.237 OA
ATOM     70  O   UNL     1      -4.938  11.846  10.547  1.00  0.00    -0.237 OA
ATOM     71  O   UNL     1      -3.489  10.892  12.286  1.00  0.00    -0.744 OA
ENDBRANCH  65  68
ENDBRANCH  47  61
BRANCH  48  72
ATOM     72  C   UNL     1      -2.103  -1.732  14.299  1.00  0.00     0.023 A 
ATOM     73  C   UNL     1      -3.001  -2.801  14.116  1.00  0.00     0.012 A 
ATOM     74  C   UNL     1      -0.951  -1.932  15.085  1.00  0.00     0.148 A 
ATOM     75  C   UNL     1      -2.771  -4.035  14.727  1.00  0.00     0.002 A 
ATOM     76  C   UNL     1      -0.700  -3.180  15.644  1.00  0.00     0.091 A 
ATOM     77  F   UNL     1      -0.118  -0.897  15.273  1.00  0.00    -0.205 F 
ATOM     78  C   UNL     1      -1.616  -4.229  15.480  1.00  0.00     0.022 A 
BRANCH  76  79
ATOM     79  S   UNL     1       0.835  -3.533  16.509  1.00  0.00     0.127 S 
ATOM     80  O   UNL     1       0.437  -3.376  17.905  1.00  0.00    -0.237 OA
ATOM     81  O   UNL     1       1.115  -4.910  16.100  1.00  0.00    -0.237 OA
ATOM     82  O   UNL     1       1.790  -2.558  15.999  1.00  0.00    -0.744 OA
ENDBRANCH  76  79
ENDBRANCH  48  72
BRANCH  60  83
ATOM     83  C   UNL     1      -7.066   3.111  15.095  1.00  0.00     0.023 A 
ATOM     84  C   UNL     1      -6.879   3.404  16.460  1.00  0.00     0.012 A 
ATOM     85  C   UNL     1      -8.373   2.982  14.586  1.00  0.00     0.148 A 
ATOM     86  C   UNL     1      -7.974   3.538  17.312  1.00  0.00     0.002 A 
ATOM     87  C   UNL     1      -9.461   3.158  15.434  1.00  0.00     0.091 A 
ATOM     88  F   UNL     1      -8.529   2.682  13.289  1.00  0.00    -0.205 F 
ATOM     89  C   UNL     1      -9.264   3.426  16.798  1.00  0.00     0.022 A 
BRANCH  87  90
ATOM     90  S   UNL     1     -11.155   3.116  14.837  1.00  0.00     0.127 S 
ATOM     91  O   UNL     1     -11.594   1.793  15.275  1.00  0.00    -0.237 OA
ATOM     92  O   UNL     1     -11.770   4.233  15.557  1.00  0.00    -0.237 OA
ATOM     93  O   UNL     1     -11.072   3.307  13.395  1.00  0.00    -0.744 OA
ENDBRANCH  87  90
ENDBRANCH  60  83
ENDBRANCH  34  35
ENDBRANCH  27  29
ENDBRANCH  26  27
ENDBRANCH   1  26
TORSDOF 16
