REMARK SMILES O=C(OCCOC(=O)c1cc(Br)cc2c1OCC2)c1ccc(-c2c3nc(c(-c4cccc(S(=O)(=O)[O-])c4F)c4ccc([nH]4)c(-c4cccc(S(=O)(=O)[O-])c4F)c4nc(c(-c5cccc(S(=O)(=O)[O-])c5F)c5ccc2[nH]5)C=C4)C=C3)cc1
REMARK SMILES IDX 3 1 2 2 1 3 19 4 20 5 81 6 21 7 80 8 22 9 23 10 24 11 74 12
REMARK SMILES IDX 25 13 79 14 73 15 75 16 26 17 78 18 72 19 71 20 27 22 59 23
REMARK SMILES IDX 39 24 58 25 40 26 43 27 57 28 76 29 41 30 42 31 56 33 77 34
REMARK SMILES IDX 44 35 28 36 29 37 37 38 30 39 32 40 38 41 31 42 33 43 34 44
REMARK SMILES IDX 35 45 36 46 60 47 61 48 69 49 62 50 64 51 70 52 63 53 65 54
REMARK SMILES IDX 66 55 67 56 68 57 45 58 46 59 54 60 47 61 49 62 55 63 48 64
REMARK SMILES IDX 50 65 51 66 52 67 53 68 4 69 5 70 6 71 7 72 8 73 9 74 10 75
REMARK SMILES IDX 15 76 11 77 14 78 16 79 12 80 13 81 18 82 17 83
REMARK H PARENT 75 21 43 32
REMARK Flexibility Score: inf
ROOT
ATOM      1  O   UNL     1       3.127  -0.207  -1.265  1.00  0.00    -0.458 OA
ENDROOT
BRANCH   1   2
ATOM      2  C   UNL     1       3.082  -1.259  -0.411  1.00  0.00     0.338 C 
ATOM      3  O   UNL     1       2.351  -2.212  -0.678  1.00  0.00    -0.246 OA
BRANCH   2   4
ATOM      4  C   UNL     1       3.777  -1.260   0.914  1.00  0.00     0.060 A 
ATOM      5  C   UNL     1       5.013  -0.675   1.194  1.00  0.00     0.016 A 
ATOM      6  C   UNL     1       3.120  -1.930   1.960  1.00  0.00     0.016 A 
ATOM      7  C   UNL     1       5.537  -0.683   2.486  1.00  0.00     0.010 A 
ATOM      8  C   UNL     1       3.621  -1.917   3.264  1.00  0.00     0.010 A 
ATOM      9  C   UNL     1       4.848  -1.302   3.528  1.00  0.00    -0.014 A 
BRANCH   9  10
ATOM     10  C   UNL     1       5.525  -1.465   4.831  1.00  0.00     0.031 A 
ATOM     11  C   UNL     1       6.064  -2.821   5.180  1.00  0.00     0.074 A 
ATOM     12  C   UNL     1       5.742  -0.408   5.636  1.00  0.00     0.049 A 
ATOM     13  N   UNL     1       6.758  -3.185   6.223  1.00  0.00    -0.248 NA
ATOM     14  C   UNL     1       5.820  -3.903   4.210  1.00  0.00     0.031 C 
ATOM     15  C   UNL     1       5.338   0.969   5.351  1.00  0.00     0.029 A 
ATOM     16  N   UNL     1       6.349  -0.326   6.862  1.00  0.00    -0.354 N 
ATOM     17  C   UNL     1       7.054  -4.526   6.022  1.00  0.00     0.074 A 
ATOM     18  C   UNL     1       6.407  -4.932   4.796  1.00  0.00     0.031 C 
ATOM     19  C   UNL     1       5.657   1.748   6.399  1.00  0.00     0.029 A 
ATOM     20  C   UNL     1       6.270   0.924   7.431  1.00  0.00     0.049 A 
ATOM     21  H   UNL     1       6.798  -1.088   7.295  1.00  0.00     0.167 HD
ATOM     22  C   UNL     1       7.843  -5.333   6.765  1.00  0.00     0.034 A 
ATOM     23  C   UNL     1       6.637   1.349   8.655  1.00  0.00     0.034 A 
ATOM     24  C   UNL     1       8.472  -4.920   7.986  1.00  0.00     0.049 A 
ATOM     25  C   UNL     1       7.388   0.391   9.537  1.00  0.00     0.074 A 
ATOM     26  C   UNL     1       9.283  -5.653   8.829  1.00  0.00     0.029 A 
ATOM     27  N   UNL     1       8.341  -3.657   8.546  1.00  0.00    -0.354 N 
ATOM     28  N   UNL     1       7.736  -0.850   9.291  1.00  0.00    -0.248 NA
ATOM     29  C   UNL     1       7.863   0.906  10.827  1.00  0.00     0.031 C 
ATOM     30  C   UNL     1       9.614  -4.843   9.921  1.00  0.00     0.029 A 
ATOM     31  C   UNL     1       9.045  -3.592   9.734  1.00  0.00     0.049 A 
ATOM     32  H   UNL     1       7.824  -2.916   8.155  1.00  0.00     0.167 HD
ATOM     33  C   UNL     1       8.524  -1.243  10.363  1.00  0.00     0.074 A 
ATOM     34  C   UNL     1       8.600  -0.107  11.261  1.00  0.00     0.031 C 
ATOM     35  C   UNL     1       9.137  -2.432  10.583  1.00  0.00     0.034 A 
BRANCH  22  36
ATOM     36  C   UNL     1       8.067  -6.727   6.249  1.00  0.00     0.023 A 
ATOM     37  C   UNL     1       8.864  -6.927   5.101  1.00  0.00     0.012 A 
ATOM     38  C   UNL     1       7.482  -7.835   6.887  1.00  0.00     0.148 A 
ATOM     39  C   UNL     1       9.038  -8.204   4.571  1.00  0.00     0.002 A 
ATOM     40  C   UNL     1       7.697  -9.110   6.379  1.00  0.00     0.091 A 
ATOM     41  F   UNL     1       6.707  -7.618   7.959  1.00  0.00    -0.205 F 
ATOM     42  C   UNL     1       8.461  -9.295   5.214  1.00  0.00     0.022 A 
BRANCH  40  43
ATOM     43  S   UNL     1       7.048 -10.587   7.165  1.00  0.00     0.127 S 
ATOM     44  O   UNL     1       6.105 -11.069   6.156  1.00  0.00    -0.237 OA
ATOM     45  O   UNL     1       8.252 -11.404   7.316  1.00  0.00    -0.237 OA
ATOM     46  O   UNL     1       6.446 -10.148   8.416  1.00  0.00    -0.744 OA
ENDBRANCH  40  43
ENDBRANCH  22  36
BRANCH  23  47
ATOM     47  C   UNL     1       6.337   2.739   9.102  1.00  0.00     0.023 A 
ATOM     48  C   UNL     1       7.380   3.671   9.260  1.00  0.00     0.012 A 
ATOM     49  C   UNL     1       5.015   3.131   9.398  1.00  0.00     0.148 A 
ATOM     50  C   UNL     1       7.119   4.955   9.744  1.00  0.00     0.002 A 
ATOM     51  C   UNL     1       4.756   4.423   9.841  1.00  0.00     0.091 A 
ATOM     52  F   UNL     1       4.038   2.224   9.255  1.00  0.00    -0.205 F 
ATOM     53  C   UNL     1       5.809   5.332  10.030  1.00  0.00     0.022 A 
BRANCH  51  54
ATOM     54  S   UNL     1       3.096   5.028  10.171  1.00  0.00     0.127 S 
ATOM     55  O   UNL     1       3.139   5.241  11.616  1.00  0.00    -0.237 OA
ATOM     56  O   UNL     1       3.059   6.252   9.370  1.00  0.00    -0.237 OA
ATOM     57  O   UNL     1       2.193   3.979   9.721  1.00  0.00    -0.744 OA
ENDBRANCH  51  54
ENDBRANCH  23  47
BRANCH  35  58
ATOM     58  C   UNL     1       9.994  -2.548  11.814  1.00  0.00     0.023 A 
ATOM     59  C   UNL     1       9.398  -2.610  13.088  1.00  0.00     0.012 A 
ATOM     60  C   UNL     1      11.392  -2.668  11.691  1.00  0.00     0.148 A 
ATOM     61  C   UNL     1      10.187  -2.754  14.227  1.00  0.00     0.002 A 
ATOM     62  C   UNL     1      12.165  -2.872  12.825  1.00  0.00     0.091 A 
ATOM     63  F   UNL     1      11.937  -2.586  10.468  1.00  0.00    -0.205 F 
ATOM     64  C   UNL     1      11.566  -2.899  14.095  1.00  0.00     0.022 A 
BRANCH  62  65
ATOM     65  S   UNL     1      13.931  -3.179  12.739  1.00  0.00     0.127 S 
ATOM     66  O   UNL     1      14.476  -1.939  13.289  1.00  0.00    -0.237 OA
ATOM     67  O   UNL     1      14.082  -4.350  13.604  1.00  0.00    -0.237 OA
ATOM     68  O   UNL     1      14.230  -3.424  11.334  1.00  0.00    -0.744 OA
ENDBRANCH  62  65
ENDBRANCH  35  58
ENDBRANCH   9  10
ENDBRANCH   2   4
ENDBRANCH   1   2
BRANCH   1  69
ATOM     69  C   UNL     1       4.137   0.808  -1.383  1.00  0.00     0.275 C 
BRANCH  69  70
ATOM     70  C   UNL     1       3.900   2.064  -0.538  1.00  0.00     0.275 C 
BRANCH  70  71
ATOM     71  O   UNL     1       3.419   1.795   0.786  1.00  0.00    -0.458 OA
BRANCH  71  72
ATOM     72  C   UNL     1       2.069   1.831   0.932  1.00  0.00     0.342 C 
ATOM     73  O   UNL     1       1.252   2.103   0.063  1.00  0.00    -0.246 OA
BRANCH  72  74
ATOM     74  C   UNL     1       1.722   1.475   2.317  1.00  0.00     0.103 A 
ATOM     75  C   UNL     1       2.217   2.228   3.388  1.00  0.00     0.035 A 
ATOM     76  C   UNL     1       0.862   0.421   2.588  1.00  0.00     0.137 A 
ATOM     77  C   UNL     1       1.836   1.902   4.698  1.00  0.00     0.019 A 
ATOM     78  C   UNL     1       0.542   0.071   3.891  1.00  0.00    -0.000 A 
ATOM     79  O   UNL     1       0.262  -0.380   1.653  1.00  0.00    -0.492 OA
ATOM     80  Br  UNL     1       2.337   3.041   6.118  1.00  0.00    -0.051 Br
ATOM     81  C   UNL     1       1.027   0.797   4.966  1.00  0.00     0.023 A 
ATOM     82  C   UNL     1      -0.384  -1.080   3.900  1.00  0.00     0.081 C 
ATOM     83  C   UNL     1      -0.433  -1.399   2.406  1.00  0.00     0.234 C 
ENDBRANCH  72  74
ENDBRANCH  71  72
ENDBRANCH  70  71
ENDBRANCH  69  70
ENDBRANCH   1  69
TORSDOF 14
