REMARK SMILES O=C(CCSc1nc2ccc(Cl)cc2c(=O)n1Cc1ccncc1)OCCOC(=O)c1ccc(-c2c3nc(c(-c4cccc(S(=O)(=O)[O-])c4F)c4ccc([nH]4)c(-c4cccc(S(=O)(=O)[O-])c4F)c4nc(c(-c5cccc(S(=O)(=O)[O-])c5F)c5ccc2[nH]5)C=C4)C=C3)cc1
REMARK SMILES IDX 26 1 25 2 2 3 1 4 3 5 4 6 5 7 6 8 7 9 17 10 8 11 15 12 9 13
REMARK SMILES IDX 14 14 16 15 10 16 13 17 11 18 12 19 18 20 19 21 20 22 24 23
REMARK SMILES IDX 21 24 23 25 22 26 27 27 28 28 29 29 30 30 31 31 32 32 93 33
REMARK SMILES IDX 33 34 92 35 34 36 35 37 36 38 86 39 37 40 91 41 85 42 87 43
REMARK SMILES IDX 38 44 90 45 84 46 83 47 39 49 71 50 51 51 70 52 52 53 55 54
REMARK SMILES IDX 69 55 88 56 53 57 54 58 68 60 89 61 56 62 40 63 41 64 49 65
REMARK SMILES IDX 42 66 44 67 50 68 43 69 45 70 46 71 47 72 48 73 72 74 73 75
REMARK SMILES IDX 81 76 74 77 76 78 82 79 75 80 77 81 78 82 79 83 80 84 57 85
REMARK SMILES IDX 58 86 66 87 59 88 61 89 67 90 60 91 62 92 63 93 64 94 65 95
REMARK H PARENT 87 48 55 59
REMARK Flexibility Score: inf
ROOT
ATOM      1  C   UNL     1       4.463  -0.898  -1.157  1.00  0.00     0.274 C 
ENDROOT
BRANCH   1   2
ATOM      2  O   UNL     1       3.381  -0.683  -0.220  1.00  0.00    -0.462 OA
BRANCH   2   3
ATOM      3  C   UNL     1       2.694   0.470  -0.061  1.00  0.00     0.306 C 
ATOM      4  O   UNL     1       1.654   0.493   0.590  1.00  0.00    -0.252 OA
BRANCH   3   5
ATOM      5  C   UNL     1       3.323   1.729  -0.579  1.00  0.00     0.134 C 
BRANCH   5   6
ATOM      6  C   UNL     1       4.228   2.425   0.435  1.00  0.00     0.090 C 
BRANCH   6   7
ATOM      7  S   UNL     1       5.442   1.379   1.344  1.00  0.00    -0.087 SA
BRANCH   7   8
ATOM      8  C   UNL     1       4.411   0.724   2.617  1.00  0.00     0.171 A 
ATOM      9  N   UNL     1       3.667   1.592   3.221  1.00  0.00    -0.224 NA
ATOM     10  N   UNL     1       4.432  -0.638   2.907  1.00  0.00    -0.283 N 
ATOM     11  C   UNL     1       2.806   1.158   4.226  1.00  0.00     0.079 A 
ATOM     12  C   UNL     1       3.506  -1.144   3.818  1.00  0.00     0.262 A 
ATOM     13  C   UNL     1       2.013   2.091   4.896  1.00  0.00     0.031 A 
ATOM     14  C   UNL     1       2.717  -0.178   4.589  1.00  0.00     0.067 A 
ATOM     15  O   UNL     1       3.279  -2.339   3.998  1.00  0.00    -0.269 OA
ATOM     16  C   UNL     1       1.180   1.689   5.945  1.00  0.00     0.023 A 
ATOM     17  C   UNL     1       1.894  -0.597   5.639  1.00  0.00     0.036 A 
ATOM     18  C   UNL     1       1.137   0.348   6.322  1.00  0.00     0.042 A 
ATOM     19  Cl  UNL     1       0.151  -0.142   7.643  1.00  0.00    -0.084 Cl
BRANCH  10  20
ATOM     20  C   UNL     1       5.160  -1.647   2.132  1.00  0.00     0.163 C 
BRANCH  20  21
ATOM     21  C   UNL     1       6.341  -2.352   2.771  1.00  0.00    -0.025 A 
ATOM     22  C   UNL     1       6.190  -3.259   3.824  1.00  0.00     0.025 A 
ATOM     23  C   UNL     1       7.611  -2.254   2.184  1.00  0.00     0.025 A 
ATOM     24  C   UNL     1       7.281  -4.010   4.236  1.00  0.00     0.111 A 
ATOM     25  C   UNL     1       8.641  -3.055   2.660  1.00  0.00     0.111 A 
ATOM     26  N   UNL     1       8.505  -3.930   3.676  1.00  0.00    -0.265 NA
ENDBRANCH  20  21
ENDBRANCH  10  20
ENDBRANCH   7   8
ENDBRANCH   6   7
ENDBRANCH   5   6
ENDBRANCH   3   5
ENDBRANCH   2   3
ENDBRANCH   1   2
BRANCH   1  27
ATOM     27  C   UNL     1       4.511  -2.405  -1.444  1.00  0.00     0.275 C 
BRANCH  27  28
ATOM     28  O   UNL     1       3.744  -2.723  -2.613  1.00  0.00    -0.458 OA
BRANCH  28  29
ATOM     29  C   UNL     1       2.451  -2.301  -2.550  1.00  0.00     0.338 C 
ATOM     30  O   UNL     1       1.663  -2.579  -1.672  1.00  0.00    -0.246 OA
BRANCH  29  31
ATOM     31  C   UNL     1       2.273  -1.233  -3.573  1.00  0.00     0.060 A 
ATOM     32  C   UNL     1       3.210  -1.064  -4.603  1.00  0.00     0.016 A 
ATOM     33  C   UNL     1       1.225  -0.317  -3.422  1.00  0.00     0.016 A 
ATOM     34  C   UNL     1       3.082  -0.007  -5.496  1.00  0.00     0.010 A 
ATOM     35  C   UNL     1       1.070   0.718  -4.348  1.00  0.00     0.010 A 
ATOM     36  C   UNL     1       1.979   0.855  -5.408  1.00  0.00    -0.014 A 
BRANCH  36  37
ATOM     37  C   UNL     1       1.666   1.712  -6.571  1.00  0.00     0.031 A 
ATOM     38  C   UNL     1       1.899   3.190  -6.565  1.00  0.00     0.074 A 
ATOM     39  C   UNL     1       1.180   1.090  -7.664  1.00  0.00     0.049 A 
ATOM     40  N   UNL     1       1.717   4.041  -7.540  1.00  0.00    -0.248 NA
ATOM     41  C   UNL     1       2.408   3.794  -5.324  1.00  0.00     0.031 C 
ATOM     42  C   UNL     1       0.921  -0.352  -7.762  1.00  0.00     0.029 A 
ATOM     43  N   UNL     1       0.830   1.571  -8.896  1.00  0.00    -0.354 N 
ATOM     44  C   UNL     1       2.075   5.283  -7.036  1.00  0.00     0.074 A 
ATOM     45  C   UNL     1       2.488   5.077  -5.663  1.00  0.00     0.031 C 
ATOM     46  C   UNL     1       0.484  -0.640  -8.995  1.00  0.00     0.029 A 
ATOM     47  C   UNL     1       0.389   0.596  -9.759  1.00  0.00     0.049 A 
ATOM     48  H   UNL     1       0.888   2.523  -9.141  1.00  0.00     0.167 HD
ATOM     49  C   UNL     1       2.067   6.476  -7.674  1.00  0.00     0.034 A 
ATOM     50  C   UNL     1      -0.049   0.685 -11.028  1.00  0.00     0.034 A 
ATOM     51  C   UNL     1       1.654   6.660  -9.041  1.00  0.00     0.049 A 
ATOM     52  C   UNL     1      -0.075   2.030 -11.687  1.00  0.00     0.074 A 
ATOM     53  C   UNL     1       1.620   7.836  -9.773  1.00  0.00     0.029 A 
ATOM     54  N   UNL     1       1.200   5.655  -9.879  1.00  0.00    -0.354 N 
ATOM     55  N   UNL     1       0.323   3.183 -11.210  1.00  0.00    -0.248 NA
ATOM     56  C   UNL     1      -0.588   2.085 -13.062  1.00  0.00     0.031 C 
ATOM     57  C   UNL     1       1.134   7.542 -11.049  1.00  0.00     0.029 A 
ATOM     58  C   UNL     1       0.890   6.181 -11.121  1.00  0.00     0.049 A 
ATOM     59  H   UNL     1       1.112   4.707  -9.629  1.00  0.00     0.167 HD
ATOM     60  C   UNL     1       0.146   4.097 -12.239  1.00  0.00     0.074 A 
ATOM     61  C   UNL     1      -0.392   3.361 -13.366  1.00  0.00     0.031 C 
ATOM     62  C   UNL     1       0.404   5.426 -12.246  1.00  0.00     0.034 A 
BRANCH  49  63
ATOM     63  C   UNL     1       2.557   7.694  -6.941  1.00  0.00     0.023 A 
ATOM     64  C   UNL     1       3.942   7.938  -6.875  1.00  0.00     0.012 A 
ATOM     65  C   UNL     1       1.654   8.674  -6.484  1.00  0.00     0.148 A 
ATOM     66  C   UNL     1       4.424   9.146  -6.372  1.00  0.00     0.002 A 
ATOM     67  C   UNL     1       2.141   9.886  -6.009  1.00  0.00     0.091 A 
ATOM     68  F   UNL     1       0.342   8.414  -6.559  1.00  0.00    -0.205 F 
ATOM     69  C   UNL     1       3.525  10.123  -5.953  1.00  0.00     0.022 A 
BRANCH  67  70
ATOM     70  S   UNL     1       1.070  11.234  -5.495  1.00  0.00     0.127 S 
ATOM     71  O   UNL     1       1.460  11.401  -4.095  1.00  0.00    -0.237 OA
ATOM     72  O   UNL     1       1.496  12.316  -6.381  1.00  0.00    -0.237 OA
ATOM     73  O   UNL     1      -0.294  10.767  -5.700  1.00  0.00    -0.744 OA
ENDBRANCH  67  70
ENDBRANCH  49  63
BRANCH  50  74
ATOM     74  C   UNL     1      -0.430  -0.547 -11.765  1.00  0.00     0.023 A 
ATOM     75  C   UNL     1       0.425  -1.036 -12.771  1.00  0.00     0.012 A 
ATOM     76  C   UNL     1      -1.599  -1.261 -11.443  1.00  0.00     0.148 A 
ATOM     77  C   UNL     1       0.113  -2.209 -13.456  1.00  0.00     0.002 A 
ATOM     78  C   UNL     1      -1.885  -2.449 -12.103  1.00  0.00     0.091 A 
ATOM     79  F   UNL     1      -2.394  -0.772 -10.480  1.00  0.00    -0.205 F 
ATOM     80  C   UNL     1      -1.036  -2.919 -13.117  1.00  0.00     0.022 A 
BRANCH  78  81
ATOM     81  S   UNL     1      -3.291  -3.480 -11.675  1.00  0.00     0.127 S 
ATOM     82  O   UNL     1      -4.114  -3.374 -12.877  1.00  0.00    -0.237 OA
ATOM     83  O   UNL     1      -2.657  -4.782 -11.473  1.00  0.00    -0.237 OA
ATOM     84  O   UNL     1      -3.861  -2.892 -10.470  1.00  0.00    -0.744 OA
ENDBRANCH  78  81
ENDBRANCH  50  74
BRANCH  62  85
ATOM     85  C   UNL     1       0.160   6.176 -13.523  1.00  0.00     0.023 A 
ATOM     86  C   UNL     1      -1.154   6.515 -13.897  1.00  0.00     0.012 A 
ATOM     87  C   UNL     1       1.246   6.626 -14.298  1.00  0.00     0.148 A 
ATOM     88  C   UNL     1      -1.384   7.282 -15.038  1.00  0.00     0.002 A 
ATOM     89  C   UNL     1       1.011   7.421 -15.411  1.00  0.00     0.091 A 
ATOM     90  F   UNL     1       2.485   6.276 -13.924  1.00  0.00    -0.205 F 
ATOM     91  C   UNL     1      -0.303   7.744 -15.787  1.00  0.00     0.022 A 
BRANCH  89  92
ATOM     92  S   UNL     1       2.341   8.122 -16.393  1.00  0.00     0.127 S 
ATOM     93  O   UNL     1       2.199   7.389 -17.651  1.00  0.00    -0.237 OA
ATOM     94  O   UNL     1       1.962   9.533 -16.462  1.00  0.00    -0.237 OA
ATOM     95  O   UNL     1       3.570   7.859 -15.657  1.00  0.00    -0.744 OA
ENDBRANCH  89  92
ENDBRANCH  62  85
ENDBRANCH  36  37
ENDBRANCH  29  31
ENDBRANCH  28  29
ENDBRANCH  27  28
ENDBRANCH   1  27
TORSDOF 19
