REMARK SMILES Cc1cccc(S(=O)(=O)Nc2cnc(N(C)Cc3ccccc3)c(C(=O)OCCOC(=O)c3ccc(-c4c5nc(c(-c6cccc(S(=O)(=O)[O-])c6F)c6ccc([nH]6)c(-c6cccc(S(=O)(=O)[O-])c6F)c6nc(c(-c7cccc(S(=O)(=O)[O-])c7F)c7ccc4[nH]7)C=C6)C=C5)cc3)c2)c1
REMARK SMILES IDX 28 1 27 2 25 3 26 4 24 5 11 6 12 7 96 8 13 9 14 10 10 11
REMARK SMILES IDX 7 13 8 14 9 15 6 16 1 17 2 18 3 19 97 20 4 21 5 22 15 23
REMARK SMILES IDX 16 24 17 25 18 26 19 27 23 28 20 29 22 30 21 31 29 32 30 33
REMARK SMILES IDX 31 34 32 35 33 36 34 37 95 38 35 39 94 40 36 41 37 42 38 43
REMARK SMILES IDX 88 44 39 45 93 46 87 47 89 48 40 49 92 50 86 51 85 52 41 54
REMARK SMILES IDX 73 55 53 56 72 57 54 58 57 59 71 60 90 61 55 62 56 63 70 65
REMARK SMILES IDX 91 66 58 67 42 68 43 69 51 70 44 71 46 72 52 73 45 74 47 75
REMARK SMILES IDX 48 76 49 77 50 78 74 79 75 80 83 81 76 82 78 83 84 84 77 85
REMARK SMILES IDX 79 86 80 87 81 88 82 89 59 90 60 91 68 92 61 93 63 94 69 95
REMARK SMILES IDX 62 96 64 97 65 98 66 99 67 100
REMARK H PARENT 10 12 89 53 57 64
REMARK Flexibility Score: inf
ROOT
ATOM      1  C   UNL     1       1.778   1.696  -5.062  1.00  0.00     0.275 C 
ENDROOT
BRANCH   1   2
ATOM      2  O   UNL     1       1.644   2.484  -3.820  1.00  0.00    -0.458 OA
BRANCH   2   3
ATOM      3  C   UNL     1       2.291   3.624  -3.397  1.00  0.00     0.342 C 
ATOM      4  O   UNL     1       3.005   4.291  -4.123  1.00  0.00    -0.246 OA
BRANCH   3   5
ATOM      5  C   UNL     1       2.018   3.883  -1.862  1.00  0.00     0.104 A 
ATOM      6  C   UNL     1       0.155   3.957  -0.309  1.00  0.00     0.068 A 
ATOM      7  C   UNL     1       1.009   4.641   0.535  1.00  0.00     0.140 A 
ATOM      8  C   UNL     1       0.632   3.705  -1.574  1.00  0.00     0.048 A 
ATOM      9  N   UNL     1       2.326   4.804   0.311  1.00  0.00    -0.236 NA
ATOM     10  C   UNL     1       2.926   4.177  -0.731  1.00  0.00     0.143 A 
BRANCH   6  11
ATOM     11  N   UNL     1      -1.052   3.465   0.246  1.00  0.00    -0.278 N 
ATOM     12  H   UNL     1      -1.184   3.667   1.200  1.00  0.00     0.180 HD
BRANCH  11  13
ATOM     13  S   UNL     1      -2.276   2.599  -0.465  1.00  0.00     0.261 S 
ATOM     14  O   UNL     1      -2.609   3.261  -1.709  1.00  0.00    -0.201 OA
ATOM     15  O   UNL     1      -3.251   2.578   0.614  1.00  0.00    -0.201 OA
BRANCH  13  16
ATOM     16  C   UNL     1      -1.962   0.876  -0.854  1.00  0.00     0.088 A 
ATOM     17  C   UNL     1       0.364  -2.195  -1.623  1.00  0.00     0.044 C 
ATOM     18  C   UNL     1      -0.756  -1.196  -1.438  1.00  0.00    -0.050 A 
ATOM     19  C   UNL     1      -1.971  -1.835  -1.638  1.00  0.00     0.003 A 
ATOM     20  C   UNL     1      -0.748   0.203  -1.087  1.00  0.00     0.025 A 
ATOM     21  C   UNL     1      -3.151  -1.168  -1.428  1.00  0.00     0.002 A 
ATOM     22  C   UNL     1      -3.150   0.152  -1.010  1.00  0.00     0.022 A 
ENDBRANCH  13  16
ENDBRANCH  11  13
ENDBRANCH   6  11
BRANCH  10  23
ATOM     23  N   UNL     1       4.242   3.741  -0.353  1.00  0.00    -0.355 N 
ATOM     24  C   UNL     1       4.945   4.907   0.271  1.00  0.00     0.145 C 
BRANCH  23  25
ATOM     25  C   UNL     1       5.258   2.339  -0.162  1.00  0.00     0.153 C 
BRANCH  25  26
ATOM     26  C   UNL     1       5.027   0.638   0.152  1.00  0.00    -0.029 A 
ATOM     27  C   UNL     1       5.026  -0.518  -1.308  1.00  0.00     0.005 A 
ATOM     28  C   UNL     1       4.516  -0.051   1.778  1.00  0.00     0.005 A 
ATOM     29  C   UNL     1       4.222  -2.204  -1.247  1.00  0.00     0.000 A 
ATOM     30  C   UNL     1       3.890  -1.790   1.953  1.00  0.00     0.000 A 
ATOM     31  C   UNL     1       3.611  -2.845   0.403  1.00  0.00     0.000 A 
ENDBRANCH  25  26
ENDBRANCH  23  25
ENDBRANCH  10  23
ENDBRANCH   3   5
ENDBRANCH   2   3
ENDBRANCH   1   2
BRANCH   1  32
ATOM     32  C   UNL     1       3.072   1.397  -5.899  1.00  0.00     0.275 C 
BRANCH  32  33
ATOM     33  O   UNL     1       4.428   1.621  -5.489  1.00  0.00    -0.458 OA
BRANCH  33  34
ATOM     34  C   UNL     1       4.845   1.664  -4.224  1.00  0.00     0.338 C 
ATOM     35  O   UNL     1       5.863   2.240  -3.867  1.00  0.00    -0.246 OA
BRANCH  34  36
ATOM     36  C   UNL     1       3.937   1.020  -3.286  1.00  0.00     0.060 A 
ATOM     37  C   UNL     1       3.634   1.760  -2.166  1.00  0.00     0.016 A 
ATOM     38  C   UNL     1       3.332  -0.197  -3.403  1.00  0.00     0.016 A 
ATOM     39  C   UNL     1       2.844   1.325  -1.070  1.00  0.00     0.010 A 
ATOM     40  C   UNL     1       2.458  -0.510  -2.368  1.00  0.00     0.010 A 
ATOM     41  C   UNL     1       2.670   0.003  -1.065  1.00  0.00    -0.014 A 
BRANCH  41  42
ATOM     42  C   UNL     1       3.473  -0.857   0.150  1.00  0.00     0.031 A 
ATOM     43  C   UNL     1       1.865  -1.277   0.987  1.00  0.00     0.074 A 
ATOM     44  C   UNL     1       5.192  -1.577   0.428  1.00  0.00     0.049 A 
ATOM     45  N   UNL     1       1.500  -2.507   1.213  1.00  0.00    -0.248 NA
ATOM     46  C   UNL     1       0.757  -0.415   1.453  1.00  0.00     0.031 C 
ATOM     47  C   UNL     1       5.758  -3.273   0.297  1.00  0.00     0.029 A 
ATOM     48  N   UNL     1       6.633  -1.199   0.396  1.00  0.00    -0.354 N 
ATOM     49  C   UNL     1       0.243  -2.675   1.696  1.00  0.00     0.074 A 
ATOM     50  C   UNL     1      -0.234  -1.314   1.744  1.00  0.00     0.031 C 
ATOM     51  C   UNL     1       7.039  -3.450   0.570  1.00  0.00     0.029 A 
ATOM     52  C   UNL     1       7.445  -2.191   1.028  1.00  0.00     0.049 A 
ATOM     53  H   UNL     1       6.981  -0.372  -0.010  1.00  0.00     0.167 HD
ATOM     54  C   UNL     1      -0.094  -3.999   1.826  1.00  0.00     0.034 A 
ATOM     55  C   UNL     1       7.848  -2.003   2.304  1.00  0.00     0.034 A 
ATOM     56  C   UNL     1       1.164  -4.770   2.144  1.00  0.00     0.049 A 
ATOM     57  C   UNL     1       6.961  -2.804   3.301  1.00  0.00     0.074 A 
ATOM     58  C   UNL     1       1.960  -5.723   1.526  1.00  0.00     0.029 A 
ATOM     59  N   UNL     1       1.909  -4.339   3.246  1.00  0.00    -0.354 N 
ATOM     60  N   UNL     1       5.912  -3.572   3.052  1.00  0.00    -0.248 NA
ATOM     61  C   UNL     1       7.322  -2.832   4.709  1.00  0.00     0.031 C 
ATOM     62  C   UNL     1       3.235  -5.752   2.210  1.00  0.00     0.029 A 
ATOM     63  C   UNL     1       3.199  -4.871   3.284  1.00  0.00     0.049 A 
ATOM     64  H   UNL     1       1.558  -3.721   3.928  1.00  0.00     0.167 HD
ATOM     65  C   UNL     1       5.348  -4.010   4.239  1.00  0.00     0.074 A 
ATOM     66  C   UNL     1       6.392  -3.661   5.202  1.00  0.00     0.031 C 
ATOM     67  C   UNL     1       4.071  -4.528   4.430  1.00  0.00     0.034 A 
BRANCH  54  68
ATOM     68  C   UNL     1      -1.435  -4.732   1.614  1.00  0.00     0.023 A 
ATOM     69  C   UNL     1      -1.407  -6.144   1.788  1.00  0.00     0.012 A 
ATOM     70  C   UNL     1      -2.652  -4.213   1.095  1.00  0.00     0.148 A 
ATOM     71  C   UNL     1      -2.462  -6.995   1.431  1.00  0.00     0.002 A 
ATOM     72  C   UNL     1      -3.720  -5.074   0.732  1.00  0.00     0.091 A 
ATOM     73  F   UNL     1      -2.777  -2.889   0.953  1.00  0.00    -0.205 F 
ATOM     74  C   UNL     1      -3.615  -6.463   0.891  1.00  0.00     0.022 A 
BRANCH  72  75
ATOM     75  S   UNL     1      -5.292  -4.555  -0.008  1.00  0.00     0.127 S 
ATOM     76  O   UNL     1      -5.305  -5.301  -1.269  1.00  0.00    -0.237 OA
ATOM     77  O   UNL     1      -6.277  -5.013   0.971  1.00  0.00    -0.237 OA
ATOM     78  O   UNL     1      -5.220  -3.112  -0.165  1.00  0.00    -0.744 OA
ENDBRANCH  72  75
ENDBRANCH  54  68
BRANCH  55  79
ATOM     79  C   UNL     1       8.352  -0.586   2.357  1.00  0.00     0.023 A 
ATOM     80  C   UNL     1       9.161  -0.173   1.239  1.00  0.00     0.012 A 
ATOM     81  C   UNL     1       7.626   0.375   3.056  1.00  0.00     0.148 A 
ATOM     82  C   UNL     1       8.977   1.082   0.664  1.00  0.00     0.002 A 
ATOM     83  C   UNL     1       7.513   1.657   2.530  1.00  0.00     0.091 A 
ATOM     84  F   UNL     1       6.945  -0.011   4.141  1.00  0.00    -0.205 F 
ATOM     85  C   UNL     1       8.167   2.004   1.321  1.00  0.00     0.022 A 
BRANCH  83  86
ATOM     86  S   UNL     1       6.457   2.867   3.373  1.00  0.00     0.127 S 
ATOM     87  O   UNL     1       7.205   4.105   3.164  1.00  0.00    -0.237 OA
ATOM     88  O   UNL     1       5.187   2.808   2.663  1.00  0.00    -0.237 OA
ATOM     89  O   UNL     1       6.401   2.408   4.753  1.00  0.00    -0.744 OA
ENDBRANCH  83  86
ENDBRANCH  55  79
BRANCH  67  90
ATOM     90  C   UNL     1       3.466  -4.738   5.842  1.00  0.00     0.023 A 
ATOM     91  C   UNL     1       4.002  -4.108   6.981  1.00  0.00     0.012 A 
ATOM     92  C   UNL     1       2.284  -5.500   6.074  1.00  0.00     0.148 A 
ATOM     93  C   UNL     1       3.578  -4.400   8.278  1.00  0.00     0.002 A 
ATOM     94  C   UNL     1       1.753  -5.641   7.356  1.00  0.00     0.091 A 
ATOM     95  F   UNL     1       1.665  -6.118   5.061  1.00  0.00    -0.205 F 
ATOM     96  C   UNL     1       2.445  -5.164   8.468  1.00  0.00     0.022 A 
BRANCH  94  97
ATOM     97  S   UNL     1       0.112  -6.313   7.657  1.00  0.00     0.127 S 
ATOM     98  O   UNL     1       0.427  -7.636   8.191  1.00  0.00    -0.237 OA
ATOM     99  O   UNL     1      -0.426  -5.370   8.641  1.00  0.00    -0.237 OA
ATOM    100  O   UNL     1      -0.567  -6.287   6.370  1.00  0.00    -0.744 OA
ENDBRANCH  94  97
ENDBRANCH  67  90
ENDBRANCH  41  42
ENDBRANCH  34  36
ENDBRANCH  33  34
ENDBRANCH  32  33
ENDBRANCH   1  32
TORSDOF 20
