REMARK SMILES O=C(C[C@]12CSc3[nH]c(=O)sc3[C@H]1c1cc(Cl)ccc1OC2=O)OCCOC(=O)c1ccc(-c2c3nc(c(-c4cccc(S(=O)(=O)[O-])c4F)c4ccc([nH]4)c(-c4cccc(S(=O)(=O)[O-])c4F)c4nc(c(-c5cccc(S(=O)(=O)[O-])c5F)c5ccc2[nH]5)C=C4)C=C3)cc1
REMARK SMILES IDX 26 1 25 2 24 3 2 4 1 5 3 6 4 7 5 8 13 9 22 10 6 11 12 12
REMARK SMILES IDX 14 13 21 14 23 15 7 16 11 17 15 18 20 19 8 20 9 21 16 22
REMARK SMILES IDX 19 23 10 25 17 26 18 27 27 28 28 29 29 30 30 31 31 32 92 33
REMARK SMILES IDX 32 34 91 35 33 36 34 37 35 38 85 39 36 40 90 41 84 42 86 43
REMARK SMILES IDX 37 44 89 45 83 46 82 47 38 49 70 50 50 51 69 52 51 53 54 54
REMARK SMILES IDX 68 55 87 56 52 57 53 58 67 60 88 61 55 62 39 63 40 64 48 65
REMARK SMILES IDX 41 66 43 67 49 68 42 69 44 70 45 71 46 72 47 73 71 74 72 75
REMARK SMILES IDX 80 76 73 77 75 78 81 79 74 80 76 81 77 82 78 83 79 84 56 85
REMARK SMILES IDX 57 86 65 87 58 88 60 89 66 90 59 91 61 92 62 93 63 94 64 95
REMARK H PARENT 8 24 86 48 54 59
REMARK Flexibility Score: inf
ROOT
ATOM      1  C   UNL     1       3.089  -2.350   0.319  1.00  0.00     0.275 C 
ENDROOT
BRANCH   1   2
ATOM      2  C   UNL     1       3.761  -1.570   1.468  1.00  0.00     0.274 C 
BRANCH   2   3
ATOM      3  O   UNL     1       2.883  -0.668   2.140  1.00  0.00    -0.462 OA
BRANCH   3   4
ATOM      4  C   UNL     1       2.629   0.568   1.675  1.00  0.00     0.307 C 
ATOM      5  O   UNL     1       1.729   1.227   2.183  1.00  0.00    -0.252 OA
BRANCH   4   6
ATOM      6  C   UNL     1       3.356   1.060   0.451  1.00  0.00     0.143 C 
BRANCH   6   7
ATOM      7  C   UNL     1       4.747   1.717   0.309  1.00  0.00     0.100 C 
ATOM      8  C   UNL     1       4.736   2.882   1.325  1.00  0.00     0.097 C 
ATOM      9  C   UNL     1       4.779   1.980  -1.261  1.00  0.00     0.085 C 
ATOM     10  C   UNL     1       6.138   1.095   0.522  1.00  0.00     0.319 C 
ATOM     11  S   UNL     1       3.902   4.341   0.717  1.00  0.00    -0.106 SA
ATOM     12  C   UNL     1       5.077   3.414  -1.590  1.00  0.00     0.049 A 
ATOM     13  C   UNL     1       5.241   0.661  -1.995  1.00  0.00     0.006 A 
ATOM     14  O   UNL     1       6.362  -0.150   0.031  1.00  0.00    -0.426 OA
ATOM     15  O   UNL     1       7.098   1.688   1.007  1.00  0.00    -0.251 OA
ATOM     16  C   UNL     1       4.659   4.433  -0.806  1.00  0.00     0.090 A 
ATOM     17  S   UNL     1       5.535   4.035  -3.152  1.00  0.00    -0.077 S 
ATOM     18  C   UNL     1       4.655   0.202  -3.194  1.00  0.00     0.028 A 
ATOM     19  C   UNL     1       5.898  -0.344  -1.262  1.00  0.00     0.134 A 
ATOM     20  N   UNL     1       4.719   5.663  -1.362  1.00  0.00    -0.307 N 
ATOM     21  C   UNL     1       5.149   5.718  -2.661  1.00  0.00     0.305 A 
ATOM     22  C   UNL     1       4.620  -1.184  -3.515  1.00  0.00     0.041 A 
ATOM     23  C   UNL     1       6.013  -1.689  -1.660  1.00  0.00     0.049 A 
ATOM     24  H   UNL     1       4.468   6.473  -0.862  1.00  0.00     0.171 HD
ATOM     25  O   UNL     1       5.264   6.685  -3.369  1.00  0.00    -0.257 OA
ATOM     26  Cl  UNL     1       3.559  -1.770  -4.746  1.00  0.00    -0.084 Cl
ATOM     27  C   UNL     1       5.310  -2.128  -2.763  1.00  0.00     0.024 A 
ENDBRANCH   6   7
ENDBRANCH   4   6
ENDBRANCH   3   4
ENDBRANCH   2   3
ENDBRANCH   1   2
BRANCH   1  28
ATOM     28  O   UNL     1       2.579  -1.484  -0.722  1.00  0.00    -0.458 OA
BRANCH  28  29
ATOM     29  C   UNL     1       1.292  -1.637  -1.142  1.00  0.00     0.338 C 
ATOM     30  O   UNL     1       0.629  -2.650  -1.019  1.00  0.00    -0.246 OA
BRANCH  29  31
ATOM     31  C   UNL     1       0.740  -0.288  -1.473  1.00  0.00     0.060 A 
ATOM     32  C   UNL     1       1.395   0.625  -2.299  1.00  0.00     0.016 A 
ATOM     33  C   UNL     1      -0.377   0.140  -0.760  1.00  0.00     0.016 A 
ATOM     34  C   UNL     1       1.121   1.992  -2.195  1.00  0.00     0.010 A 
ATOM     35  C   UNL     1      -0.694   1.499  -0.703  1.00  0.00     0.010 A 
ATOM     36  C   UNL     1       0.133   2.446  -1.311  1.00  0.00    -0.014 A 
BRANCH  36  37
ATOM     37  C   UNL     1      -0.097   3.905  -1.158  1.00  0.00     0.031 A 
ATOM     38  C   UNL     1      -0.242   4.620  -2.467  1.00  0.00     0.074 A 
ATOM     39  C   UNL     1      -0.288   4.506   0.047  1.00  0.00     0.049 A 
ATOM     40  N   UNL     1       0.398   5.661  -2.898  1.00  0.00    -0.248 NA
ATOM     41  C   UNL     1      -1.088   3.981  -3.497  1.00  0.00     0.031 C 
ATOM     42  C   UNL     1      -0.300   3.836   1.352  1.00  0.00     0.029 A 
ATOM     43  N   UNL     1      -0.656   5.789   0.387  1.00  0.00    -0.354 N 
ATOM     44  C   UNL     1      -0.164   5.942  -4.148  1.00  0.00     0.074 A 
ATOM     45  C   UNL     1      -0.898   4.775  -4.549  1.00  0.00     0.031 C 
ATOM     46  C   UNL     1      -0.933   4.604   2.261  1.00  0.00     0.029 A 
ATOM     47  C   UNL     1      -1.285   5.864   1.645  1.00  0.00     0.049 A 
ATOM     48  H   UNL     1      -0.496   6.572  -0.188  1.00  0.00     0.167 HD
ATOM     49  C   UNL     1      -0.287   7.216  -4.608  1.00  0.00     0.034 A 
ATOM     50  C   UNL     1      -2.117   6.835   2.112  1.00  0.00     0.034 A 
ATOM     51  C   UNL     1       0.564   8.126  -3.906  1.00  0.00     0.049 A 
ATOM     52  C   UNL     1      -1.852   8.042   1.309  1.00  0.00     0.074 A 
ATOM     53  C   UNL     1       1.891   8.483  -3.910  1.00  0.00     0.029 A 
ATOM     54  N   UNL     1       0.010   8.579  -2.741  1.00  0.00    -0.354 N 
ATOM     55  N   UNL     1      -0.735   8.708   1.361  1.00  0.00    -0.248 NA
ATOM     56  C   UNL     1      -2.721   8.342   0.179  1.00  0.00     0.031 C 
ATOM     57  C   UNL     1       2.151   9.041  -2.625  1.00  0.00     0.029 A 
ATOM     58  C   UNL     1       0.968   9.039  -1.888  1.00  0.00     0.049 A 
ATOM     59  H   UNL     1      -0.955   8.573  -2.545  1.00  0.00     0.167 HD
ATOM     60  C   UNL     1      -0.559   9.141   0.062  1.00  0.00     0.074 A 
ATOM     61  C   UNL     1      -1.873   9.056  -0.564  1.00  0.00     0.031 C 
ATOM     62  C   UNL     1       0.687   9.200  -0.482  1.00  0.00     0.034 A 
BRANCH  49  63
ATOM     63  C   UNL     1      -1.534   7.721  -5.307  1.00  0.00     0.023 A 
ATOM     64  C   UNL     1      -1.478   8.960  -5.980  1.00  0.00     0.012 A 
ATOM     65  C   UNL     1      -2.821   7.179  -5.072  1.00  0.00     0.148 A 
ATOM     66  C   UNL     1      -2.643   9.608  -6.415  1.00  0.00     0.002 A 
ATOM     67  C   UNL     1      -3.968   7.785  -5.570  1.00  0.00     0.091 A 
ATOM     68  F   UNL     1      -2.959   6.145  -4.235  1.00  0.00    -0.205 F 
ATOM     69  C   UNL     1      -3.887   9.012  -6.229  1.00  0.00     0.022 A 
BRANCH  67  70
ATOM     70  S   UNL     1      -5.592   7.044  -5.363  1.00  0.00     0.127 S 
ATOM     71  O   UNL     1      -6.206   7.947  -4.394  1.00  0.00    -0.237 OA
ATOM     72  O   UNL     1      -6.132   7.126  -6.720  1.00  0.00    -0.237 OA
ATOM     73  O   UNL     1      -5.342   5.684  -4.902  1.00  0.00    -0.744 OA
ENDBRANCH  67  70
ENDBRANCH  49  63
BRANCH  50  74
ATOM     74  C   UNL     1      -3.314   6.772   3.009  1.00  0.00     0.023 A 
ATOM     75  C   UNL     1      -3.925   7.978   3.431  1.00  0.00     0.012 A 
ATOM     76  C   UNL     1      -4.048   5.580   3.192  1.00  0.00     0.148 A 
ATOM     77  C   UNL     1      -5.241   8.006   3.919  1.00  0.00     0.002 A 
ATOM     78  C   UNL     1      -5.352   5.610   3.688  1.00  0.00     0.091 A 
ATOM     79  F   UNL     1      -3.516   4.420   2.792  1.00  0.00    -0.205 F 
ATOM     80  C   UNL     1      -5.961   6.823   4.028  1.00  0.00     0.022 A 
BRANCH  78  81
ATOM     81  S   UNL     1      -6.343   4.116   3.846  1.00  0.00     0.127 S 
ATOM     82  O   UNL     1      -6.957   4.293   5.163  1.00  0.00    -0.237 OA
ATOM     83  O   UNL     1      -7.263   4.243   2.720  1.00  0.00    -0.237 OA
ATOM     84  O   UNL     1      -5.400   3.007   3.773  1.00  0.00    -0.744 OA
ENDBRANCH  78  81
ENDBRANCH  50  74
BRANCH  62  85
ATOM     85  C   UNL     1       1.862   9.253   0.445  1.00  0.00     0.023 A 
ATOM     86  C   UNL     1       2.294   8.149   1.205  1.00  0.00     0.012 A 
ATOM     87  C   UNL     1       2.639  10.421   0.416  1.00  0.00     0.148 A 
ATOM     88  C   UNL     1       3.497   8.210   1.915  1.00  0.00     0.002 A 
ATOM     89  C   UNL     1       3.850  10.463   1.088  1.00  0.00     0.091 A 
ATOM     90  F   UNL     1       2.195  11.454  -0.314  1.00  0.00    -0.205 F 
ATOM     91  C   UNL     1       4.284   9.359   1.839  1.00  0.00     0.022 A 
BRANCH  89  92
ATOM     92  S   UNL     1       4.945  11.876   0.961  1.00  0.00     0.127 S 
ATOM     93  O   UNL     1       4.955  12.377   2.334  1.00  0.00    -0.237 OA
ATOM     94  O   UNL     1       6.195  11.253   0.525  1.00  0.00    -0.237 OA
ATOM     95  O   UNL     1       4.345  12.771  -0.020  1.00  0.00    -0.744 OA
ENDBRANCH  89  92
ENDBRANCH  62  85
ENDBRANCH  36  37
ENDBRANCH  29  31
ENDBRANCH  28  29
ENDBRANCH   1  28
TORSDOF 15
