REMARK SMILES C[C@@]([NH2+]CC(=O)Nc1cccc(F)c1)(C(=O)OCCOC(=O)c1ccc(-c2c3nc(c(-c4cccc(S(=O)(=O)[O-])c4F)c4ccc([nH]4)c(-c4cccc(S(=O)(=O)[O-])c4F)c4nc(c(-c5cccc(S(=O)(=O)[O-])c5F)c5ccc2[nH]5)C=C4)C=C3)cc1)C(F)(F)F
REMARK SMILES IDX 18 1 17 2 15 3 16 4 2 5 1 6 3 7 4 10 5 11 6 12 7 13 8 15
REMARK SMILES IDX 9 16 14 17 10 18 12 19 11 20 13 21 86 22 87 23 88 24 89 25
REMARK SMILES IDX 19 26 20 27 21 28 22 29 23 30 24 31 85 32 25 33 84 34 26 35
REMARK SMILES IDX 27 36 28 37 78 38 29 39 83 40 77 41 79 42 30 43 82 44 76 45
REMARK SMILES IDX 75 46 31 48 63 49 43 50 62 51 44 52 47 53 61 54 80 55 45 56
REMARK SMILES IDX 46 57 60 59 81 60 48 61 32 62 33 63 41 64 34 65 36 66 42 67
REMARK SMILES IDX 35 68 37 69 38 70 39 71 40 72 64 73 65 74 73 75 66 76 68 77
REMARK SMILES IDX 74 78 67 79 69 80 70 81 71 82 72 83 49 84 50 85 58 86 51 87
REMARK SMILES IDX 53 88 59 89 52 90 54 91 55 92 56 93 57 94
REMARK H PARENT 3 8 3 9 7 14 79 47 47 58
REMARK Flexibility Score: inf
ROOT
ATOM      1  C   UNL     1      -2.740   1.748   0.788  1.00  0.00     0.274 C 
ENDROOT
BRANCH   1   2
ATOM      2  O   UNL     1      -1.310   1.546   0.543  1.00  0.00    -0.457 OA
BRANCH   2   3
ATOM      3  C   UNL     1      -0.635   1.186   1.673  1.00  0.00     0.377 C 
ATOM      4  O   UNL     1      -1.295   1.060   2.706  1.00  0.00    -0.244 OA
BRANCH   3   5
ATOM      5  C   UNL     1       0.992   1.204   1.645  1.00  0.00     0.287 C 
ATOM      6  C   UNL     1       1.357   1.980   0.362  1.00  0.00     0.103 C 
BRANCH   5   7
ATOM      7  N   UNL     1       1.301   1.927   2.928  1.00  0.00    -0.317 N 
ATOM      8  H   UNL     1       0.906   2.866   2.879  1.00  0.00     0.347 HD
ATOM      9  H   UNL     1       2.315   1.956   3.034  1.00  0.00     0.347 HD
BRANCH   7  10
ATOM     10  C   UNL     1       0.729   1.220   4.134  1.00  0.00     0.363 C 
BRANCH  10  11
ATOM     11  C   UNL     1       0.538  -0.341   4.261  1.00  0.00     0.279 C 
ATOM     12  O   UNL     1       1.074  -0.849   5.268  1.00  0.00    -0.268 OA
ATOM     13  N   UNL     1      -0.287  -1.222   3.595  1.00  0.00    -0.321 N 
ATOM     14  H   UNL     1      -0.509  -1.948   4.221  1.00  0.00     0.170 HD
BRANCH  13  15
ATOM     15  C   UNL     1      -0.959  -1.507   2.344  1.00  0.00     0.044 A 
ATOM     16  C   UNL     1      -0.171  -1.653   0.676  1.00  0.00     0.026 A 
ATOM     17  C   UNL     1      -2.578  -2.284   2.597  1.00  0.00     0.065 A 
ATOM     18  C   UNL     1      -0.982  -2.598  -0.678  1.00  0.00     0.005 A 
ATOM     19  C   UNL     1      -3.488  -2.981   1.188  1.00  0.00     0.125 A 
ATOM     20  C   UNL     1      -2.694  -3.148  -0.446  1.00  0.00     0.039 A 
ATOM     21  F   UNL     1      -4.714  -3.488   1.375  1.00  0.00    -0.207 F 
ENDBRANCH  13  15
ENDBRANCH  10  11
ENDBRANCH   7  10
ENDBRANCH   5   7
BRANCH   5  22
ATOM     22  C   UNL     1       2.129   0.085   1.614  1.00  0.00     0.455 C 
ATOM     23  F   UNL     1       2.461  -0.361   0.380  1.00  0.00    -0.164 F 
ATOM     24  F   UNL     1       3.294   0.664   2.073  1.00  0.00    -0.164 F 
ATOM     25  F   UNL     1       1.971  -0.987   2.402  1.00  0.00    -0.164 F 
ENDBRANCH   5  22
ENDBRANCH   3   5
ENDBRANCH   2   3
ENDBRANCH   1   2
BRANCH   1  26
ATOM     26  C   UNL     1      -3.655   0.514   0.632  1.00  0.00     0.275 C 
BRANCH  26  27
ATOM     27  O   UNL     1      -3.189  -0.671   1.329  1.00  0.00    -0.458 OA
BRANCH  27  28
ATOM     28  C   UNL     1      -2.171  -1.499   0.642  1.00  0.00     0.338 C 
ATOM     29  O   UNL     1      -1.960  -0.781  -0.388  1.00  0.00    -0.246 OA
BRANCH  28  30
ATOM     30  C   UNL     1      -1.337  -3.367   1.266  1.00  0.00     0.060 A 
ATOM     31  C   UNL     1       0.077  -3.659   1.806  1.00  0.00     0.016 A 
ATOM     32  C   UNL     1      -1.907  -4.777   1.252  1.00  0.00     0.016 A 
ATOM     33  C   UNL     1       0.665  -4.820   2.262  1.00  0.00     0.010 A 
ATOM     34  C   UNL     1      -1.362  -5.961   1.787  1.00  0.00     0.010 A 
ATOM     35  C   UNL     1      -0.101  -5.944   2.333  1.00  0.00    -0.014 A 
BRANCH  35  36
ATOM     36  C   UNL     1       0.520  -7.082   2.975  1.00  0.00     0.031 A 
ATOM     37  C   UNL     1       1.110  -8.116   2.101  1.00  0.00     0.074 A 
ATOM     38  C   UNL     1       0.681  -7.000   4.305  1.00  0.00     0.049 A 
ATOM     39  N   UNL     1       1.808  -9.153   2.443  1.00  0.00    -0.248 NA
ATOM     40  C   UNL     1       0.912  -7.956   0.648  1.00  0.00     0.031 C 
ATOM     41  C   UNL     1       0.196  -5.891   5.143  1.00  0.00     0.029 A 
ATOM     42  N   UNL     1       1.329  -7.816   5.178  1.00  0.00    -0.354 N 
ATOM     43  C   UNL     1       2.092  -9.802   1.256  1.00  0.00     0.074 A 
ATOM     44  C   UNL     1       1.504  -9.042   0.179  1.00  0.00     0.031 C 
ATOM     45  C   UNL     1       0.588  -6.092   6.407  1.00  0.00     0.029 A 
ATOM     46  C   UNL     1       1.279  -7.370   6.475  1.00  0.00     0.049 A 
ATOM     47  H   UNL     1       1.788  -8.644   4.906  1.00  0.00     0.167 HD
ATOM     48  C   UNL     1       2.783 -10.949   1.113  1.00  0.00     0.034 A 
ATOM     49  C   UNL     1       1.721  -7.970   7.593  1.00  0.00     0.034 A 
ATOM     50  C   UNL     1       3.321 -11.651   2.241  1.00  0.00     0.049 A 
ATOM     51  C   UNL     1       2.422  -9.281   7.409  1.00  0.00     0.074 A 
ATOM     52  C   UNL     1       4.010 -12.844   2.261  1.00  0.00     0.029 A 
ATOM     53  N   UNL     1       3.203 -11.222   3.560  1.00  0.00    -0.354 N 
ATOM     54  N   UNL     1       2.690  -9.909   6.286  1.00  0.00    -0.248 NA
ATOM     55  C   UNL     1       2.895  -9.965   8.614  1.00  0.00     0.031 C 
ATOM     56  C   UNL     1       4.249 -13.169   3.598  1.00  0.00     0.029 A 
ATOM     57  C   UNL     1       3.783 -12.139   4.409  1.00  0.00     0.049 A 
ATOM     58  H   UNL     1       2.768 -10.386   3.845  1.00  0.00     0.167 HD
ATOM     59  C   UNL     1       3.390 -11.049   6.638  1.00  0.00     0.074 A 
ATOM     60  C   UNL     1       3.505 -11.021   8.088  1.00  0.00     0.031 C 
ATOM     61  C   UNL     1       3.891 -12.028   5.846  1.00  0.00     0.034 A 
BRANCH  48  62
ATOM     62  C   UNL     1       2.894 -11.517  -0.268  1.00  0.00     0.023 A 
ATOM     63  C   UNL     1       3.667 -10.874  -1.256  1.00  0.00     0.012 A 
ATOM     64  C   UNL     1       2.195 -12.694  -0.592  1.00  0.00     0.148 A 
ATOM     65  C   UNL     1       3.714 -11.378  -2.556  1.00  0.00     0.002 A 
ATOM     66  C   UNL     1       2.294 -13.223  -1.870  1.00  0.00     0.091 A 
ATOM     67  F   UNL     1       1.423 -13.258   0.348  1.00  0.00    -0.205 F 
ATOM     68  C   UNL     1       3.039 -12.559  -2.858  1.00  0.00     0.022 A 
BRANCH  66  69
ATOM     69  S   UNL     1       1.526 -14.777  -2.330  1.00  0.00     0.127 S 
ATOM     70  O   UNL     1       0.553 -14.341  -3.332  1.00  0.00    -0.237 OA
ATOM     71  O   UNL     1       2.661 -15.527  -2.867  1.00  0.00    -0.237 OA
ATOM     72  O   UNL     1       0.953 -15.324  -1.109  1.00  0.00    -0.744 OA
ENDBRANCH  66  69
ENDBRANCH  48  62
BRANCH  49  73
ATOM     73  C   UNL     1       1.497  -7.319   8.911  1.00  0.00     0.023 A 
ATOM     74  C   UNL     1       2.580  -6.780   9.627  1.00  0.00     0.012 A 
ATOM     75  C   UNL     1       0.185  -7.119   9.394  1.00  0.00     0.148 A 
ATOM     76  C   UNL     1       2.361  -6.058  10.804  1.00  0.00     0.002 A 
ATOM     77  C   UNL     1      -0.029  -6.355  10.534  1.00  0.00     0.091 A 
ATOM     78  F   UNL     1      -0.832  -7.642   8.695  1.00  0.00    -0.205 F 
ATOM     79  C   UNL     1       1.059  -5.833  11.248  1.00  0.00     0.022 A 
BRANCH  77  80
ATOM     80  S   UNL     1      -1.674  -5.904  11.101  1.00  0.00     0.127 S 
ATOM     81  O   UNL     1      -1.739  -6.579  12.395  1.00  0.00    -0.237 OA
ATOM     82  O   UNL     1      -1.579  -4.446  11.170  1.00  0.00    -0.237 OA
ATOM     83  O   UNL     1      -2.595  -6.402  10.089  1.00  0.00    -0.744 OA
ENDBRANCH  77  80
ENDBRANCH  49  73
BRANCH  61  84
ATOM     84  C   UNL     1       4.657 -13.128   6.517  1.00  0.00     0.023 A 
ATOM     85  C   UNL     1       3.972 -14.142   7.210  1.00  0.00     0.012 A 
ATOM     86  C   UNL     1       6.040 -13.242   6.281  1.00  0.00     0.148 A 
ATOM     87  C   UNL     1       4.661 -15.264   7.660  1.00  0.00     0.002 A 
ATOM     88  C   UNL     1       6.704 -14.391   6.673  1.00  0.00     0.091 A 
ATOM     89  F   UNL     1       6.660 -12.247   5.628  1.00  0.00    -0.205 F 
ATOM     90  C   UNL     1       6.019 -15.399   7.372  1.00  0.00     0.022 A 
BRANCH  88  91
ATOM     91  S   UNL     1       8.410 -14.711   6.219  1.00  0.00     0.127 S 
ATOM     92  O   UNL     1       9.068 -14.711   7.525  1.00  0.00    -0.237 OA
ATOM     93  O   UNL     1       8.316 -16.023   5.581  1.00  0.00    -0.237 OA
ATOM     94  O   UNL     1       8.806 -13.628   5.329  1.00  0.00    -0.744 OA
ENDBRANCH  88  91
ENDBRANCH  61  84
ENDBRANCH  35  36
ENDBRANCH  28  30
ENDBRANCH  27  28
ENDBRANCH  26  27
ENDBRANCH   1  26
TORSDOF 19
