REMARK SMILES C[C@H](NC(=O)CCN1C(=O)/C(=C/c2ccc([N+](=O)[O-])cc2)SC1=S)C(=O)OCCOC(=O)c1ccc(-c2c3nc(c(-c4cccc(S(=O)(=O)[O-])c4F)c4ccc([nH]4)c(-c4cccc(S(=O)(=O)[O-])c4F)c4nc(c(-c5cccc(S(=O)(=O)[O-])c5F)c5ccc2[nH]5)C=C4)C=C3)cc1
REMARK SMILES IDX 27 1 25 2 26 3 2 4 1 5 3 6 4 7 5 9 6 10 7 11 8 12 9 13 23 14
REMARK SMILES IDX 10 15 11 16 22 17 24 18 12 19 13 20 14 21 21 22 15 23 20 24
REMARK SMILES IDX 16 25 17 26 18 27 19 28 28 29 29 30 30 31 31 32 32 33 33 34
REMARK SMILES IDX 34 35 95 36 35 37 94 38 36 39 37 40 38 41 88 42 39 43 93 44
REMARK SMILES IDX 87 45 89 46 40 47 92 48 86 49 85 50 41 52 73 53 53 54 72 55
REMARK SMILES IDX 54 56 57 57 71 58 90 59 55 60 56 61 70 63 91 64 58 65 42 66
REMARK SMILES IDX 43 67 51 68 44 69 46 70 52 71 45 72 47 73 48 74 49 75 50 76
REMARK SMILES IDX 74 77 75 78 83 79 76 80 78 81 84 82 77 83 79 84 80 85 81 86
REMARK SMILES IDX 82 87 59 88 60 89 68 90 61 91 63 92 69 93 62 94 64 95 65 96
REMARK SMILES IDX 66 97 67 98
REMARK H PARENT 3 8 89 51 57 62
REMARK Flexibility Score: inf
ROOT
ATOM      1  O   UNL     1      -1.121   0.503  -0.293  1.00  0.00    -0.461 OA
ENDROOT
BRANCH   1   2
ATOM      2  C   UNL     1      -0.489  -0.137   0.732  1.00  0.00     0.328 C 
ATOM      3  O   UNL     1      -1.071  -0.658   1.674  1.00  0.00    -0.250 OA
BRANCH   2   4
ATOM      4  C   UNL     1       1.021  -0.287   0.477  1.00  0.00     0.189 C 
ATOM      5  C   UNL     1       1.814  -0.800   1.680  1.00  0.00     0.043 C 
BRANCH   4   6
ATOM      6  N   UNL     1       1.569   0.867  -0.231  1.00  0.00    -0.343 N 
ATOM      7  C   UNL     1       1.898   2.118   0.171  1.00  0.00     0.222 C 
ATOM      8  H   UNL     1       1.732   0.703  -1.188  1.00  0.00     0.164 HD
ATOM      9  O   UNL     1       2.066   2.974  -0.701  1.00  0.00    -0.275 OA
BRANCH   7  10
ATOM     10  C   UNL     1       2.107   2.472   1.625  1.00  0.00     0.122 C 
BRANCH  10  11
ATOM     11  C   UNL     1       0.890   3.092   2.316  1.00  0.00     0.137 C 
BRANCH  11  12
ATOM     12  N   UNL     1       0.158   2.200   3.236  1.00  0.00    -0.292 N 
ATOM     13  C   UNL     1      -1.214   2.073   3.089  1.00  0.00     0.266 C 
ATOM     14  C   UNL     1       0.680   1.601   4.367  1.00  0.00     0.148 C 
ATOM     15  O   UNL     1      -1.911   2.702   2.303  1.00  0.00    -0.268 OA
ATOM     16  C   UNL     1      -1.745   1.035   4.018  1.00  0.00     0.081 C 
ATOM     17  S   UNL     1      -0.515   0.524   5.088  1.00  0.00    -0.054 SA
ATOM     18  S   UNL     1       2.190   1.819   5.046  1.00  0.00    -0.052 S 
ATOM     19  C   UNL     1      -2.965   0.525   3.805  1.00  0.00     0.029 C 
BRANCH  19  20
ATOM     20  C   UNL     1      -3.540  -0.730   4.308  1.00  0.00    -0.024 A 
ATOM     21  C   UNL     1      -4.030  -1.622   3.337  1.00  0.00     0.015 A 
ATOM     22  C   UNL     1      -3.669  -1.057   5.660  1.00  0.00     0.015 A 
ATOM     23  C   UNL     1      -4.660  -2.812   3.700  1.00  0.00     0.086 A 
ATOM     24  C   UNL     1      -4.302  -2.251   6.038  1.00  0.00     0.086 A 
ATOM     25  C   UNL     1      -4.810  -3.114   5.055  1.00  0.00     0.269 A 
BRANCH  25  26
ATOM     26  N   UNL     1      -5.580  -4.302   5.442  1.00  0.00     0.062 N 
ATOM     27  O   UNL     1      -5.847  -5.124   4.553  1.00  0.00    -0.258 OA
ATOM     28  O   UNL     1      -5.990  -4.359   6.609  1.00  0.00    -0.258 OA
ENDBRANCH  25  26
ENDBRANCH  19  20
ENDBRANCH  11  12
ENDBRANCH  10  11
ENDBRANCH   7  10
ENDBRANCH   4   6
ENDBRANCH   2   4
ENDBRANCH   1   2
BRANCH   1  29
ATOM     29  C   UNL     1      -2.558   0.561  -0.208  1.00  0.00     0.274 C 
BRANCH  29  30
ATOM     30  C   UNL     1      -3.259  -0.628  -0.880  1.00  0.00     0.275 C 
BRANCH  30  31
ATOM     31  O   UNL     1      -2.982  -1.888  -0.235  1.00  0.00    -0.458 OA
BRANCH  31  32
ATOM     32  C   UNL     1      -1.922  -2.556  -0.748  1.00  0.00     0.338 C 
ATOM     33  O   UNL     1      -1.204  -2.190  -1.665  1.00  0.00    -0.246 OA
BRANCH  32  34
ATOM     34  C   UNL     1      -1.605  -3.754   0.046  1.00  0.00     0.060 A 
ATOM     35  C   UNL     1      -0.494  -3.687   0.888  1.00  0.00     0.016 A 
ATOM     36  C   UNL     1      -2.228  -4.976  -0.193  1.00  0.00     0.016 A 
ATOM     37  C   UNL     1       0.053  -4.836   1.436  1.00  0.00     0.010 A 
ATOM     38  C   UNL     1      -1.699  -6.136   0.390  1.00  0.00     0.010 A 
ATOM     39  C   UNL     1      -0.529  -6.076   1.170  1.00  0.00    -0.014 A 
BRANCH  39  40
ATOM     40  C   UNL     1       0.169  -7.301   1.629  1.00  0.00     0.031 A 
ATOM     41  C   UNL     1       0.807  -8.214   0.618  1.00  0.00     0.074 A 
ATOM     42  C   UNL     1       0.288  -7.557   2.945  1.00  0.00     0.049 A 
ATOM     43  N   UNL     1       1.388  -9.370   0.800  1.00  0.00    -0.248 NA
ATOM     44  C   UNL     1       0.793  -7.766  -0.786  1.00  0.00     0.031 C 
ATOM     45  C   UNL     1      -0.238  -6.713   4.020  1.00  0.00     0.029 A 
ATOM     46  N   UNL     1       0.884  -8.602   3.603  1.00  0.00    -0.354 N 
ATOM     47  C   UNL     1       1.755  -9.815  -0.464  1.00  0.00     0.074 A 
ATOM     48  C   UNL     1       1.342  -8.800  -1.408  1.00  0.00     0.031 C 
ATOM     49  C   UNL     1       0.051  -7.279   5.203  1.00  0.00     0.029 A 
ATOM     50  C   UNL     1       0.730  -8.549   4.968  1.00  0.00     0.049 A 
ATOM     51  H   UNL     1       1.374  -9.321   3.142  1.00  0.00     0.167 HD
ATOM     52  C   UNL     1       2.389 -10.962  -0.805  1.00  0.00     0.034 A 
ATOM     53  C   UNL     1       1.065  -9.443   5.919  1.00  0.00     0.034 A 
ATOM     54  C   UNL     1       2.845 -11.941   0.143  1.00  0.00     0.049 A 
ATOM     55  C   UNL     1       1.746 -10.719   5.508  1.00  0.00     0.074 A 
ATOM     56  C   UNL     1       3.510 -13.130  -0.099  1.00  0.00     0.029 A 
ATOM     57  N   UNL     1       2.693 -11.840   1.518  1.00  0.00    -0.354 N 
ATOM     58  N   UNL     1       2.126 -11.104   4.313  1.00  0.00    -0.248 NA
ATOM     59  C   UNL     1       2.062 -11.676   6.577  1.00  0.00     0.031 C 
ATOM     60  C   UNL     1       3.753 -13.752   1.130  1.00  0.00     0.029 A 
ATOM     61  C   UNL     1       3.250 -12.945   2.138  1.00  0.00     0.049 A 
ATOM     62  H   UNL     1       2.253 -11.093   1.984  1.00  0.00     0.167 HD
ATOM     63  C   UNL     1       2.742 -12.338   4.489  1.00  0.00     0.074 A 
ATOM     64  C   UNL     1       2.715 -12.618   5.910  1.00  0.00     0.031 C 
ATOM     65  C   UNL     1       3.261 -13.176   3.559  1.00  0.00     0.034 A 
BRANCH  52  66
ATOM     66  C   UNL     1       2.645 -11.213  -2.267  1.00  0.00     0.023 A 
ATOM     67  C   UNL     1       3.684 -10.523  -2.922  1.00  0.00     0.012 A 
ATOM     68  C   UNL     1       1.898 -12.175  -2.975  1.00  0.00     0.148 A 
ATOM     69  C   UNL     1       3.961 -10.770  -4.266  1.00  0.00     0.002 A 
ATOM     70  C   UNL     1       2.204 -12.443  -4.304  1.00  0.00     0.091 A 
ATOM     71  F   UNL     1       0.898 -12.802  -2.339  1.00  0.00    -0.205 F 
ATOM     72  C   UNL     1       3.230 -11.736  -4.953  1.00  0.00     0.022 A 
BRANCH  70  73
ATOM     73  S   UNL     1       1.364 -13.714  -5.255  1.00  0.00     0.127 S 
ATOM     74  O   UNL     1       0.578 -12.910  -6.190  1.00  0.00    -0.237 OA
ATOM     75  O   UNL     1       2.483 -14.434  -5.863  1.00  0.00    -0.237 OA
ATOM     76  O   UNL     1       0.592 -14.489  -4.295  1.00  0.00    -0.744 OA
ENDBRANCH  70  73
ENDBRANCH  52  66
BRANCH  53  77
ATOM     77  C   UNL     1       0.764  -9.159   7.351  1.00  0.00     0.023 A 
ATOM     78  C   UNL     1       1.821  -8.941   8.255  1.00  0.00     0.012 A 
ATOM     79  C   UNL     1      -0.563  -9.084   7.817  1.00  0.00     0.148 A 
ATOM     80  C   UNL     1       1.562  -8.679   9.601  1.00  0.00     0.002 A 
ATOM     81  C   UNL     1      -0.815  -8.762   9.145  1.00  0.00     0.091 A 
ATOM     82  F   UNL     1      -1.558  -9.323   6.950  1.00  0.00    -0.205 F 
ATOM     83  C   UNL     1       0.246  -8.577  10.044  1.00  0.00     0.022 A 
BRANCH  81  84
ATOM     84  S   UNL     1      -2.480  -8.467   9.749  1.00  0.00     0.127 S 
ATOM     85  O   UNL     1      -2.779  -9.723  10.431  1.00  0.00    -0.237 OA
ATOM     86  O   UNL     1      -2.287  -7.316  10.632  1.00  0.00    -0.237 OA
ATOM     87  O   UNL     1      -3.268  -8.177   8.559  1.00  0.00    -0.744 OA
ENDBRANCH  81  84
ENDBRANCH  53  77
BRANCH  65  88
ATOM     88  C   UNL     1       3.862 -14.465   4.051  1.00  0.00     0.023 A 
ATOM     89  C   UNL     1       3.015 -15.505   4.482  1.00  0.00     0.012 A 
ATOM     90  C   UNL     1       5.255 -14.669   4.030  1.00  0.00     0.148 A 
ATOM     91  C   UNL     1       3.547 -16.718   4.916  1.00  0.00     0.002 A 
ATOM     92  C   UNL     1       5.776 -15.896   4.422  1.00  0.00     0.091 A 
ATOM     93  F   UNL     1       6.045 -13.659   3.637  1.00  0.00    -0.205 F 
ATOM     94  C   UNL     1       4.925 -16.918   4.875  1.00  0.00     0.022 A 
BRANCH  92  95
ATOM     95  S   UNL     1       7.531 -16.264   4.314  1.00  0.00     0.127 S 
ATOM     96  O   UNL     1       7.955 -16.108   5.704  1.00  0.00    -0.237 OA
ATOM     97  O   UNL     1       7.534 -17.644   3.826  1.00  0.00    -0.237 OA
ATOM     98  O   UNL     1       8.080 -15.296   3.373  1.00  0.00    -0.744 OA
ENDBRANCH  92  95
ENDBRANCH  65  88
ENDBRANCH  39  40
ENDBRANCH  32  34
ENDBRANCH  31  32
ENDBRANCH  30  31
ENDBRANCH  29  30
ENDBRANCH   1  29
TORSDOF 20
