REMARK SMILES C=CCC(=O)N[C@@](C)(CC)C(=O)OCCOC(=O)c1ccc(-c2c3nc(c(-c4cccc(S(=O)(=O)[O-])c4F)c4ccc([nH]4)c(-c4cccc(S(=O)(=O)[O-])c4F)c4nc(c(-c5cccc(S(=O)(=O)[O-])c5F)c5ccc2[nH]5)C=C4)C=C3)cc1
REMARK SMILES IDX 14 1 13 2 11 3 12 4 7 5 8 6 6 7 4 8 5 9 3 11 2 12 1 13 9 14
REMARK SMILES IDX 10 15 15 16 16 17 17 18 18 19 19 20 20 21 81 22 21 23 80 24
REMARK SMILES IDX 22 25 23 26 24 27 74 28 25 29 79 30 73 31 75 32 26 33 78 34
REMARK SMILES IDX 72 35 71 36 27 38 59 39 39 40 58 41 40 42 43 43 57 44 76 45
REMARK SMILES IDX 41 46 42 47 56 49 77 50 44 51 28 52 29 53 37 54 30 55 32 56
REMARK SMILES IDX 38 57 31 58 33 59 34 60 35 61 36 62 60 63 61 64 69 65 62 66
REMARK SMILES IDX 64 67 70 68 63 69 65 70 66 71 67 72 68 73 45 74 46 75 54 76
REMARK SMILES IDX 47 77 49 78 55 79 48 80 50 81 51 82 52 83 53 84
REMARK H PARENT 6 10 75 37 43 48
REMARK Flexibility Score: inf
ROOT
ATOM      1  C   UNL     1       0.451  -2.521   0.054  1.00  0.00     0.274 C 
ENDROOT
BRANCH   1   2
ATOM      2  O   UNL     1       0.152  -2.083   1.403  1.00  0.00    -0.460 OA
BRANCH   2   3
ATOM      3  C   UNL     1      -0.004  -0.735   1.465  1.00  0.00     0.331 C 
ATOM      4  O   UNL     1      -0.022  -0.065   0.451  1.00  0.00    -0.249 OA
BRANCH   3   5
ATOM      5  C   UNL     1      -0.066  -0.110   2.870  1.00  0.00     0.135 C 
ATOM      6  C   UNL     1       1.345  -0.033   3.475  1.00  0.00     0.047 C 
BRANCH   5   7
ATOM      7  N   UNL     1      -0.625   1.282   2.851  1.00  0.00    -0.340 N 
ATOM      8  C   UNL     1      -0.231   2.435   2.225  1.00  0.00     0.224 C 
ATOM      9  O   UNL     1      -0.382   3.465   2.897  1.00  0.00    -0.275 OA
ATOM     10  H   UNL     1      -1.436   1.388   3.398  1.00  0.00     0.164 HD
BRANCH   8  11
ATOM     11  C   UNL     1       0.251   2.555   0.766  1.00  0.00     0.126 C 
BRANCH  11  12
ATOM     12  C   UNL     1       1.715   2.306   0.513  1.00  0.00    -0.025 C 
ATOM     13  C   UNL     1       2.197   1.517  -0.461  1.00  0.00     0.004 C 
ENDBRANCH  11  12
ENDBRANCH   8  11
ENDBRANCH   5   7
BRANCH   5  14
ATOM     14  C   UNL     1      -0.921  -0.987   3.843  1.00  0.00     0.037 C 
ATOM     15  C   UNL     1      -2.344  -1.319   3.415  1.00  0.00     0.007 C 
ENDBRANCH   5  14
ENDBRANCH   3   5
ENDBRANCH   2   3
ENDBRANCH   1   2
BRANCH   1  16
ATOM     16  C   UNL     1      -0.756  -2.621  -0.913  1.00  0.00     0.275 C 
BRANCH  16  17
ATOM     17  O   UNL     1      -1.457  -1.379  -1.169  1.00  0.00    -0.458 OA
BRANCH  17  18
ATOM     18  C   UNL     1      -2.641  -1.218  -0.524  1.00  0.00     0.338 C 
ATOM     19  O   UNL     1      -3.199  -2.062   0.162  1.00  0.00    -0.246 OA
BRANCH  18  20
ATOM     20  C   UNL     1      -3.145   0.176  -0.602  1.00  0.00     0.060 A 
ATOM     21  C   UNL     1      -3.066   0.959   0.554  1.00  0.00     0.016 A 
ATOM     22  C   UNL     1      -3.831   0.675  -1.706  1.00  0.00     0.016 A 
ATOM     23  C   UNL     1      -3.637   2.231   0.625  1.00  0.00     0.010 A 
ATOM     24  C   UNL     1      -4.428   1.951  -1.635  1.00  0.00     0.010 A 
ATOM     25  C   UNL     1      -4.343   2.735  -0.466  1.00  0.00    -0.014 A 
BRANCH  25  26
ATOM     26  C   UNL     1      -5.075   4.024  -0.332  1.00  0.00     0.031 A 
ATOM     27  C   UNL     1      -6.553   4.010  -0.052  1.00  0.00     0.074 A 
ATOM     28  C   UNL     1      -4.431   5.204  -0.415  1.00  0.00     0.049 A 
ATOM     29  N   UNL     1      -7.397   5.007   0.014  1.00  0.00    -0.248 NA
ATOM     30  C   UNL     1      -7.157   2.692   0.202  1.00  0.00     0.031 C 
ATOM     31  C   UNL     1      -2.989   5.368  -0.584  1.00  0.00     0.029 A 
ATOM     32  N   UNL     1      -4.914   6.492  -0.388  1.00  0.00    -0.354 N 
ATOM     33  C   UNL     1      -8.639   4.440   0.274  1.00  0.00     0.074 A 
ATOM     34  C   UNL     1      -8.434   3.009   0.370  1.00  0.00     0.031 C 
ATOM     35  C   UNL     1      -2.707   6.679  -0.684  1.00  0.00     0.029 A 
ATOM     36  C   UNL     1      -3.951   7.444  -0.634  1.00  0.00     0.049 A 
ATOM     37  H   UNL     1      -5.857   6.711  -0.210  1.00  0.00     0.167 HD
ATOM     38  C   UNL     1      -9.841   5.050   0.413  1.00  0.00     0.034 A 
ATOM     39  C   UNL     1      -4.064   8.774  -0.839  1.00  0.00     0.034 A 
ATOM     40  C   UNL     1     -10.046   6.470   0.315  1.00  0.00     0.049 A 
ATOM     41  C   UNL     1      -5.427   9.419  -0.768  1.00  0.00     0.074 A 
ATOM     42  C   UNL     1     -11.230   7.178   0.430  1.00  0.00     0.029 A 
ATOM     43  N   UNL     1      -9.050   7.399   0.057  1.00  0.00    -0.354 N 
ATOM     44  N   UNL     1      -6.586   8.878  -0.479  1.00  0.00    -0.248 NA
ATOM     45  C   UNL     1      -5.495  10.866  -1.032  1.00  0.00     0.031 C 
ATOM     46  C   UNL     1     -10.957   8.530   0.195  1.00  0.00     0.029 A 
ATOM     47  C   UNL     1      -9.594   8.671  -0.011  1.00  0.00     0.049 A 
ATOM     48  H   UNL     1      -8.096   7.186  -0.059  1.00  0.00     0.167 HD
ATOM     49  C   UNL     1      -7.509   9.920  -0.484  1.00  0.00     0.074 A 
ATOM     50  C   UNL     1      -6.773  11.128  -0.790  1.00  0.00     0.031 C 
ATOM     51  C   UNL     1      -8.846   9.878  -0.263  1.00  0.00     0.034 A 
BRANCH  38  52
ATOM     52  C   UNL     1     -11.041   4.170   0.646  1.00  0.00     0.023 A 
ATOM     53  C   UNL     1     -11.224   3.531   1.889  1.00  0.00     0.012 A 
ATOM     54  C   UNL     1     -12.003   3.996  -0.369  1.00  0.00     0.148 A 
ATOM     55  C   UNL     1     -12.322   2.698   2.103  1.00  0.00     0.002 A 
ATOM     56  C   UNL     1     -13.118   3.201  -0.133  1.00  0.00     0.091 A 
ATOM     57  F   UNL     1     -11.803   4.600  -1.549  1.00  0.00    -0.205 F 
ATOM     58  C   UNL     1     -13.271   2.539   1.096  1.00  0.00     0.022 A 
BRANCH  56  59
ATOM     59  S   UNL     1     -14.431   2.991  -1.340  1.00  0.00     0.127 S 
ATOM     60  O   UNL     1     -14.275   1.583  -1.703  1.00  0.00    -0.237 OA
ATOM     61  O   UNL     1     -15.625   3.288  -0.548  1.00  0.00    -0.237 OA
ATOM     62  O   UNL     1     -14.156   3.942  -2.408  1.00  0.00    -0.744 OA
ENDBRANCH  56  59
ENDBRANCH  38  52
BRANCH  39  63
ATOM     63  C   UNL     1      -2.857   9.597  -1.152  1.00  0.00     0.023 A 
ATOM     64  C   UNL     1      -2.432  10.589  -0.246  1.00  0.00     0.012 A 
ATOM     65  C   UNL     1      -2.148   9.422  -2.357  1.00  0.00     0.148 A 
ATOM     66  C   UNL     1      -1.349  11.415  -0.551  1.00  0.00     0.002 A 
ATOM     67  C   UNL     1      -1.036  10.211  -2.630  1.00  0.00     0.091 A 
ATOM     68  F   UNL     1      -2.578   8.489  -3.217  1.00  0.00    -0.205 F 
ATOM     69  C   UNL     1      -0.646  11.222  -1.738  1.00  0.00     0.022 A 
BRANCH  67  70
ATOM     70  S   UNL     1      -0.006   9.965  -4.081  1.00  0.00     0.127 S 
ATOM     71  O   UNL     1      -0.243  11.197  -4.829  1.00  0.00    -0.237 OA
ATOM     72  O   UNL     1       1.326   9.852  -3.487  1.00  0.00    -0.237 OA
ATOM     73  O   UNL     1      -0.492   8.745  -4.711  1.00  0.00    -0.744 OA
ENDBRANCH  67  70
ENDBRANCH  39  63
BRANCH  51  74
ATOM     74  C   UNL     1      -9.611  11.179  -0.281  1.00  0.00     0.023 A 
ATOM     75  C   UNL     1      -9.831  11.858  -1.496  1.00  0.00     0.012 A 
ATOM     76  C   UNL     1     -10.188  11.681   0.903  1.00  0.00     0.148 A 
ATOM     77  C   UNL     1     -10.586  13.031  -1.526  1.00  0.00     0.002 A 
ATOM     78  C   UNL     1     -10.985  12.818   0.857  1.00  0.00     0.091 A 
ATOM     79  F   UNL     1      -9.954  11.031   2.053  1.00  0.00    -0.205 F 
ATOM     80  C   UNL     1     -11.174  13.503  -0.354  1.00  0.00     0.022 A 
BRANCH  78  81
ATOM     81  S   UNL     1     -11.868  13.438   2.294  1.00  0.00     0.127 S 
ATOM     82  O   UNL     1     -11.151  14.682   2.571  1.00  0.00    -0.237 OA
ATOM     83  O   UNL     1     -13.222  13.619   1.770  1.00  0.00    -0.237 OA
ATOM     84  O   UNL     1     -11.747  12.409   3.318  1.00  0.00    -0.744 OA
ENDBRANCH  78  81
ENDBRANCH  51  74
ENDBRANCH  25  26
ENDBRANCH  18  20
ENDBRANCH  17  18
ENDBRANCH  16  17
ENDBRANCH   1  16
TORSDOF 18
