REMARK SMILES [NH3+][C@H](CS[C@@H]1CC(=O)N(c2ccc3ccccc3c2)C1=O)C(=O)OCCOC(=O)c1ccc(-c2c3nc(c(-c4cccc(S(=O)(=O)[O-])c4F)c4ccc([nH]4)c(-c4cccc(S(=O)(=O)[O-])c4F)c4nc(c(-c5cccc(S(=O)(=O)[O-])c5F)c5ccc2[nH]5)C=C4)C=C3)cc1
REMARK SMILES IDX 25 1 24 2 22 3 23 4 2 5 1 6 3 10 4 11 5 12 6 13 20 14 7 15
REMARK SMILES IDX 9 16 21 17 8 18 10 19 11 20 19 21 12 22 18 23 13 24 17 25
REMARK SMILES IDX 14 26 16 27 15 28 26 29 27 30 28 31 29 32 30 33 31 34 92 35
REMARK SMILES IDX 32 36 91 37 33 38 34 39 35 40 85 41 36 42 90 43 84 44 86 45
REMARK SMILES IDX 37 46 89 47 83 48 82 49 38 51 70 52 50 53 69 54 51 55 54 56
REMARK SMILES IDX 68 57 87 58 52 59 53 60 67 62 88 63 55 64 39 65 40 66 48 67
REMARK SMILES IDX 41 68 43 69 49 70 42 71 44 72 45 73 46 74 47 75 71 76 72 77
REMARK SMILES IDX 80 78 73 79 75 80 81 81 74 82 76 83 77 84 78 85 79 86 56 87
REMARK SMILES IDX 57 88 65 89 58 90 60 91 66 92 59 93 61 94 62 95 63 96 64 97
REMARK H PARENT 1 7 1 8 1 9 86 50 54 61
REMARK Flexibility Score: inf
ROOT
ATOM      1  C   UNL     1      -3.144  -0.528   2.890  1.00  0.00     0.274 C 
ENDROOT
BRANCH   1   2
ATOM      2  O   UNL     1      -2.026   0.268   2.424  1.00  0.00    -0.458 OA
BRANCH   2   3
ATOM      3  C   UNL     1      -0.777  -0.247   2.476  1.00  0.00     0.365 C 
ATOM      4  O   UNL     1      -0.501  -1.315   3.012  1.00  0.00    -0.245 OA
BRANCH   3   5
ATOM      5  C   UNL     1       0.306   0.641   1.803  1.00  0.00     0.301 C 
BRANCH   5   6
ATOM      6  N   UNL     1       0.334   2.022   2.350  1.00  0.00    -0.345 N 
ATOM      7  H   UNL     1       0.280   1.986   3.368  1.00  0.00     0.345 HD
ATOM      8  H   UNL     1      -0.461   2.548   1.986  1.00  0.00     0.345 HD
ATOM      9  H   UNL     1       1.201   2.481   2.072  1.00  0.00     0.345 HD
ENDBRANCH   5   6
BRANCH   5  10
ATOM     10  C   UNL     1       0.383   0.556   0.251  1.00  0.00     0.147 C 
BRANCH  10  11
ATOM     11  S   UNL     1       0.153   2.151  -0.738  1.00  0.00    -0.141 SA
BRANCH  11  12
ATOM     12  C   UNL     1      -1.481   1.809  -1.525  1.00  0.00     0.146 C 
ATOM     13  C   UNL     1      -2.169   2.930  -2.297  1.00  0.00     0.125 C 
ATOM     14  C   UNL     1      -2.450   1.630  -0.419  1.00  0.00     0.247 C 
ATOM     15  C   UNL     1      -3.218   3.475  -1.343  1.00  0.00     0.235 C 
ATOM     16  N   UNL     1      -3.110   2.791  -0.175  1.00  0.00    -0.250 N 
ATOM     17  O   UNL     1      -2.636   0.551   0.095  1.00  0.00    -0.273 OA
ATOM     18  O   UNL     1      -4.034   4.332  -1.648  1.00  0.00    -0.274 OA
BRANCH  16  19
ATOM     19  C   UNL     1      -3.806   2.988   1.029  1.00  0.00     0.052 A 
ATOM     20  C   UNL     1      -5.192   2.951   1.126  1.00  0.00     0.027 A 
ATOM     21  C   UNL     1      -3.041   3.107   2.200  1.00  0.00     0.035 A 
ATOM     22  C   UNL     1      -5.795   2.959   2.395  1.00  0.00     0.011 A 
ATOM     23  C   UNL     1      -3.626   3.135   3.472  1.00  0.00    -0.016 A 
ATOM     24  C   UNL     1      -5.027   3.038   3.578  1.00  0.00    -0.018 A 
ATOM     25  C   UNL     1      -2.836   3.208   4.633  1.00  0.00     0.009 A 
ATOM     26  C   UNL     1      -5.601   2.996   4.863  1.00  0.00     0.009 A 
ATOM     27  C   UNL     1      -3.422   3.174   5.896  1.00  0.00     0.001 A 
ATOM     28  C   UNL     1      -4.804   3.061   6.011  1.00  0.00     0.001 A 
ENDBRANCH  16  19
ENDBRANCH  11  12
ENDBRANCH  10  11
ENDBRANCH   5  10
ENDBRANCH   3   5
ENDBRANCH   2   3
ENDBRANCH   1   2
BRANCH   1  29
ATOM     29  C   UNL     1      -3.872  -1.321   1.787  1.00  0.00     0.275 C 
BRANCH  29  30
ATOM     30  O   UNL     1      -3.200  -2.562   1.552  1.00  0.00    -0.458 OA
BRANCH  30  31
ATOM     31  C   UNL     1      -2.312  -2.693   0.541  1.00  0.00     0.338 C 
ATOM     32  O   UNL     1      -2.102  -1.996  -0.428  1.00  0.00    -0.246 OA
BRANCH  31  33
ATOM     33  C   UNL     1      -1.462  -3.804   0.985  1.00  0.00     0.060 A 
ATOM     34  C   UNL     1      -0.101  -3.561   1.187  1.00  0.00     0.016 A 
ATOM     35  C   UNL     1      -2.072  -4.981   1.425  1.00  0.00     0.016 A 
ATOM     36  C   UNL     1       0.639  -4.456   1.947  1.00  0.00     0.010 A 
ATOM     37  C   UNL     1      -1.331  -5.879   2.171  1.00  0.00     0.010 A 
ATOM     38  C   UNL     1       0.016  -5.603   2.454  1.00  0.00    -0.014 A 
BRANCH  38  39
ATOM     39  C   UNL     1       0.788  -6.596   3.210  1.00  0.00     0.031 A 
ATOM     40  C   UNL     1       1.289  -7.791   2.466  1.00  0.00     0.074 A 
ATOM     41  C   UNL     1       0.953  -6.453   4.537  1.00  0.00     0.049 A 
ATOM     42  N   UNL     1       1.920  -8.837   2.916  1.00  0.00    -0.248 NA
ATOM     43  C   UNL     1       1.026  -7.815   1.014  1.00  0.00     0.031 C 
ATOM     44  C   UNL     1       0.455  -5.333   5.338  1.00  0.00     0.029 A 
ATOM     45  N   UNL     1       1.553  -7.279   5.449  1.00  0.00    -0.354 N 
ATOM     46  C   UNL     1       2.119  -9.651   1.811  1.00  0.00     0.074 A 
ATOM     47  C   UNL     1       1.520  -8.993   0.672  1.00  0.00     0.031 C 
ATOM     48  C   UNL     1       0.739  -5.563   6.633  1.00  0.00     0.029 A 
ATOM     49  C   UNL     1       1.427  -6.846   6.748  1.00  0.00     0.049 A 
ATOM     50  H   UNL     1       2.028  -8.104   5.199  1.00  0.00     0.167 HD
ATOM     51  C   UNL     1       2.768 -10.835   1.754  1.00  0.00     0.034 A 
ATOM     52  C   UNL     1       1.818  -7.438   7.892  1.00  0.00     0.034 A 
ATOM     53  C   UNL     1       3.349 -11.470   2.901  1.00  0.00     0.049 A 
ATOM     54  C   UNL     1       2.553  -8.752   7.795  1.00  0.00     0.074 A 
ATOM     55  C   UNL     1       4.046 -12.661   2.968  1.00  0.00     0.029 A 
ATOM     56  N   UNL     1       3.291 -10.961   4.191  1.00  0.00    -0.354 N 
ATOM     57  N   UNL     1       2.851  -9.455   6.728  1.00  0.00    -0.248 NA
ATOM     58  C   UNL     1       3.042  -9.334   9.052  1.00  0.00     0.031 C 
ATOM     59  C   UNL     1       4.403 -12.877   4.304  1.00  0.00     0.029 A 
ATOM     60  C   UNL     1       3.944 -11.811   5.064  1.00  0.00     0.049 A 
ATOM     61  H   UNL     1       2.850 -10.119   4.447  1.00  0.00     0.167 HD
ATOM     62  C   UNL     1       3.583 -10.546   7.179  1.00  0.00     0.074 A 
ATOM     63  C   UNL     1       3.712 -10.391   8.615  1.00  0.00     0.031 C 
ATOM     64  C   UNL     1       4.088 -11.595   6.482  1.00  0.00     0.034 A 
BRANCH  51  65
ATOM     65  C   UNL     1       2.908 -11.475   0.402  1.00  0.00     0.023 A 
ATOM     66  C   UNL     1       3.799 -10.914  -0.536  1.00  0.00     0.012 A 
ATOM     67  C   UNL     1       2.178 -12.629   0.062  1.00  0.00     0.148 A 
ATOM     68  C   UNL     1       3.943 -11.475  -1.803  1.00  0.00     0.002 A 
ATOM     69  C   UNL     1       2.357 -13.207  -1.190  1.00  0.00     0.091 A 
ATOM     70  F   UNL     1       1.314 -13.127   0.957  1.00  0.00    -0.205 F 
ATOM     71  C   UNL     1       3.230 -12.626  -2.126  1.00  0.00     0.022 A 
BRANCH  69  72
ATOM     72  S   UNL     1       1.534 -14.723  -1.687  1.00  0.00     0.127 S 
ATOM     73  O   UNL     1       0.655 -14.245  -2.755  1.00  0.00    -0.237 OA
ATOM     74  O   UNL     1       2.656 -15.543  -2.143  1.00  0.00    -0.237 OA
ATOM     75  O   UNL     1       0.853 -15.222  -0.501  1.00  0.00    -0.744 OA
ENDBRANCH  69  72
ENDBRANCH  51  65
BRANCH  52  76
ATOM     76  C   UNL     1       1.578  -6.778   9.208  1.00  0.00     0.023 A 
ATOM     77  C   UNL     1       2.671  -6.275   9.941  1.00  0.00     0.012 A 
ATOM     78  C   UNL     1       0.279  -6.633   9.733  1.00  0.00     0.148 A 
ATOM     79  C   UNL     1       2.480  -5.675  11.187  1.00  0.00     0.002 A 
ATOM     80  C   UNL     1       0.090  -5.988  10.952  1.00  0.00     0.091 A 
ATOM     81  F   UNL     1      -0.750  -7.135   9.036  1.00  0.00    -0.205 F 
ATOM     82  C   UNL     1       1.190  -5.523  11.688  1.00  0.00     0.022 A 
BRANCH  80  83
ATOM     83  S   UNL     1      -1.547  -5.642  11.607  1.00  0.00     0.127 S 
ATOM     84  O   UNL     1      -1.684  -6.672  12.633  1.00  0.00    -0.237 OA
ATOM     85  O   UNL     1      -1.393  -4.280  12.121  1.00  0.00    -0.237 OA
ATOM     86  O   UNL     1      -2.449  -5.749  10.468  1.00  0.00    -0.744 OA
ENDBRANCH  80  83
ENDBRANCH  52  76
BRANCH  64  87
ATOM     87  C   UNL     1       4.835 -12.642   7.263  1.00  0.00     0.023 A 
ATOM     88  C   UNL     1       4.122 -13.533   8.089  1.00  0.00     0.012 A 
ATOM     89  C   UNL     1       6.229 -12.782   7.130  1.00  0.00     0.148 A 
ATOM     90  C   UNL     1       4.792 -14.526   8.801  1.00  0.00     0.002 A 
ATOM     91  C   UNL     1       6.884 -13.804   7.805  1.00  0.00     0.091 A 
ATOM     92  F   UNL     1       6.892 -11.911   6.354  1.00  0.00    -0.205 F 
ATOM     93  C   UNL     1       6.170 -14.669   8.650  1.00  0.00     0.022 A 
BRANCH  91  94
ATOM     94  S   UNL     1       8.639 -14.115   7.587  1.00  0.00     0.127 S 
ATOM     95  O   UNL     1       9.201 -13.509   8.793  1.00  0.00    -0.237 OA
ATOM     96  O   UNL     1       8.698 -15.578   7.555  1.00  0.00    -0.237 OA
ATOM     97  O   UNL     1       9.001 -13.474   6.330  1.00  0.00    -0.744 OA
ENDBRANCH  91  94
ENDBRANCH  64  87
ENDBRANCH  38  39
ENDBRANCH  31  33
ENDBRANCH  30  31
ENDBRANCH  29  30
ENDBRANCH   1  29
TORSDOF 19
