REMARK SMILES Cc1c[nH]c(C[N@@H+](C)[C@@H](C(=O)OCCOC(=O)c2ccc(-c3c4nc(c(-c5cccc(S(=O)(=O)[O-])c5F)c5ccc([nH]5)c(-c5cccc(S(=O)(=O)[O-])c5F)c5nc(c(-c6cccc(S(=O)(=O)[O-])c6F)c6ccc3[nH]6)C=C5)C=C4)cc2)c2ccc(NC(=O)N3CCCC3)cc2)n1
REMARK SMILES IDX 13 1 12 2 10 3 11 4 9 5 7 6 8 7 6 9 5 10 1 11 2 12 3 13
REMARK SMILES IDX 95 14 4 15 81 17 82 18 94 19 83 20 93 21 84 22 85 23 86 24
REMARK SMILES IDX 87 26 88 27 89 28 92 29 90 30 91 31 14 32 15 33 16 34 17 35
REMARK SMILES IDX 18 36 19 37 80 38 20 39 79 40 21 41 22 42 23 43 73 44 24 45
REMARK SMILES IDX 78 46 72 47 74 48 25 49 77 50 71 51 70 52 26 54 58 55 38 56
REMARK SMILES IDX 57 57 39 58 42 59 56 60 75 61 40 62 41 63 55 65 76 66 43 67
REMARK SMILES IDX 27 68 28 69 36 70 29 71 31 72 37 73 30 74 32 75 33 76 34 77
REMARK SMILES IDX 35 78 59 79 60 80 68 81 61 82 63 83 69 84 62 85 64 86 65 87
REMARK SMILES IDX 66 88 67 89 44 90 45 91 53 92 46 93 48 94 54 95 47 96 49 97
REMARK SMILES IDX 50 98 51 99 52 100
REMARK H PARENT 7 8 4 16 85 25 74 53 42 64
REMARK Flexibility Score: inf
ROOT
ATOM      1  C   UNL     1      -5.666   0.424   1.937  1.00  0.00     0.274 C 
ENDROOT
BRANCH   1   2
ATOM      2  O   UNL     1      -4.404   1.081   1.751  1.00  0.00    -0.457 OA
BRANCH   2   3
ATOM      3  C   UNL     1      -4.169   2.118   2.601  1.00  0.00     0.370 C 
ATOM      4  O   UNL     1      -5.016   2.567   3.371  1.00  0.00    -0.245 OA
BRANCH   3   5
ATOM      5  C   UNL     1      -2.695   2.608   2.576  1.00  0.00     0.326 C 
BRANCH   5   6
ATOM      6  N   UNL     1      -2.281   3.244   1.272  1.00  0.00    -0.316 N 
ATOM      7  C   UNL     1      -3.211   4.363   1.014  1.00  0.00     0.334 C 
ATOM      8  H   UNL     1      -1.305   3.501   1.414  1.00  0.00     0.349 HD
BRANCH   6   9
ATOM      9  C   UNL     1      -2.267   2.397   0.056  1.00  0.00     0.339 C 
BRANCH   9  10
ATOM     10  C   UNL     1      -0.983   1.744  -0.370  1.00  0.00     0.161 A 
ATOM     11  C   UNL     1       2.405   0.632  -0.229  1.00  0.00     0.068 C 
ATOM     12  C   UNL     1       1.007   0.938  -0.606  1.00  0.00     0.056 A 
ATOM     13  C   UNL     1       0.262   0.380  -1.619  1.00  0.00     0.107 A 
ATOM     14  N   UNL     1       0.241   1.832   0.115  1.00  0.00    -0.233 NA
ATOM     15  N   UNL     1      -0.991   0.900  -1.466  1.00  0.00    -0.344 N 
ATOM     16  H   UNL     1      -1.769   0.707  -2.039  1.00  0.00     0.167 HD
ENDBRANCH   9  10
ENDBRANCH   6   9
ENDBRANCH   5   6
BRANCH   5  17
ATOM     17  C   UNL     1      -1.760   1.682   3.356  1.00  0.00     0.021 A 
ATOM     18  C   UNL     1      -2.309   0.873   4.377  1.00  0.00     0.012 A 
ATOM     19  C   UNL     1      -0.364   1.698   3.233  1.00  0.00     0.012 A 
ATOM     20  C   UNL     1      -1.528   0.022   5.146  1.00  0.00     0.027 A 
ATOM     21  C   UNL     1       0.437   0.815   3.982  1.00  0.00     0.027 A 
ATOM     22  C   UNL     1      -0.170  -0.079   4.880  1.00  0.00     0.042 A 
BRANCH  22  23
ATOM     23  N   UNL     1       0.391  -1.385   5.073  1.00  0.00    -0.308 N 
ATOM     24  C   UNL     1      -0.144  -2.207   4.109  1.00  0.00     0.321 C 
ATOM     25  H   UNL     1       1.039  -1.645   5.767  1.00  0.00     0.171 HD
ATOM     26  O   UNL     1       0.093  -1.893   2.943  1.00  0.00    -0.248 OA
ATOM     27  N   UNL     1      -1.173  -3.035   4.445  1.00  0.00    -0.325 N 
ATOM     28  C   UNL     1      -2.253  -3.180   3.502  1.00  0.00     0.121 C 
ATOM     29  C   UNL     1      -1.090  -4.224   5.282  1.00  0.00     0.121 C 
ATOM     30  C   UNL     1      -3.256  -4.038   4.229  1.00  0.00     0.023 C 
ATOM     31  C   UNL     1      -2.345  -5.037   4.932  1.00  0.00     0.023 C 
ENDBRANCH  22  23
ENDBRANCH   5  17
ENDBRANCH   3   5
ENDBRANCH   2   3
ENDBRANCH   1   2
BRANCH   1  32
ATOM     32  C   UNL     1      -5.879  -0.636   0.854  1.00  0.00     0.275 C 
BRANCH  32  33
ATOM     33  O   UNL     1      -4.794  -1.587   0.829  1.00  0.00    -0.458 OA
BRANCH  33  34
ATOM     34  C   UNL     1      -3.850  -1.371  -0.124  1.00  0.00     0.338 C 
ATOM     35  O   UNL     1      -3.859  -0.504  -0.985  1.00  0.00    -0.246 OA
BRANCH  34  36
ATOM     36  C   UNL     1      -2.702  -2.281   0.067  1.00  0.00     0.060 A 
ATOM     37  C   UNL     1      -1.469  -1.713   0.374  1.00  0.00     0.016 A 
ATOM     38  C   UNL     1      -2.783  -3.658  -0.124  1.00  0.00     0.016 A 
ATOM     39  C   UNL     1      -0.304  -2.491   0.440  1.00  0.00     0.010 A 
ATOM     40  C   UNL     1      -1.625  -4.449   0.044  1.00  0.00     0.010 A 
ATOM     41  C   UNL     1      -0.370  -3.877   0.358  1.00  0.00    -0.014 A 
BRANCH  41  42
ATOM     42  C   UNL     1       0.834  -4.751   0.467  1.00  0.00     0.031 A 
ATOM     43  C   UNL     1       1.559  -5.096  -0.777  1.00  0.00     0.074 A 
ATOM     44  C   UNL     1       1.459  -5.142   1.599  1.00  0.00     0.049 A 
ATOM     45  N   UNL     1       2.656  -5.788  -0.881  1.00  0.00    -0.248 NA
ATOM     46  C   UNL     1       1.096  -4.467  -2.021  1.00  0.00     0.031 C 
ATOM     47  C   UNL     1       1.506  -4.405   2.834  1.00  0.00     0.029 A 
ATOM     48  N   UNL     1       2.218  -6.250   1.903  1.00  0.00    -0.354 N 
ATOM     49  C   UNL     1       3.060  -5.632  -2.184  1.00  0.00     0.074 A 
ATOM     50  C   UNL     1       2.063  -4.821  -2.854  1.00  0.00     0.031 C 
ATOM     51  C   UNL     1       1.962  -5.167   3.837  1.00  0.00     0.029 A 
ATOM     52  C   UNL     1       2.369  -6.431   3.267  1.00  0.00     0.049 A 
ATOM     53  H   UNL     1       2.609  -6.848   1.226  1.00  0.00     0.167 HD
ATOM     54  C   UNL     1       4.193  -6.102  -2.740  1.00  0.00     0.034 A 
ATOM     55  C   UNL     1       2.903  -7.423   4.003  1.00  0.00     0.034 A 
ATOM     56  C   UNL     1       5.142  -6.941  -2.062  1.00  0.00     0.049 A 
ATOM     57  C   UNL     1       3.969  -8.190   3.294  1.00  0.00     0.074 A 
ATOM     58  C   UNL     1       6.251  -7.567  -2.595  1.00  0.00     0.029 A 
ATOM     59  N   UNL     1       5.082  -7.304  -0.719  1.00  0.00    -0.354 N 
ATOM     60  N   UNL     1       4.353  -8.041   2.051  1.00  0.00    -0.248 NA
ATOM     61  C   UNL     1       4.813  -9.083   4.092  1.00  0.00     0.031 C 
ATOM     62  C   UNL     1       6.827  -8.359  -1.597  1.00  0.00     0.029 A 
ATOM     63  C   UNL     1       6.106  -8.194  -0.425  1.00  0.00     0.049 A 
ATOM     64  H   UNL     1       4.412  -6.979  -0.074  1.00  0.00     0.167 HD
ATOM     65  C   UNL     1       5.546  -8.720   1.940  1.00  0.00     0.074 A 
ATOM     66  C   UNL     1       5.805  -9.316   3.240  1.00  0.00     0.031 C 
ATOM     67  C   UNL     1       6.359  -8.801   0.861  1.00  0.00     0.034 A 
BRANCH  54  68
ATOM     68  C   UNL     1       4.368  -5.780  -4.186  1.00  0.00     0.023 A 
ATOM     69  C   UNL     1       4.787  -4.497  -4.590  1.00  0.00     0.012 A 
ATOM     70  C   UNL     1       4.017  -6.744  -5.145  1.00  0.00     0.148 A 
ATOM     71  C   UNL     1       4.827  -4.172  -5.944  1.00  0.00     0.002 A 
ATOM     72  C   UNL     1       4.091  -6.423  -6.489  1.00  0.00     0.091 A 
ATOM     73  F   UNL     1       3.575  -7.935  -4.717  1.00  0.00    -0.205 F 
ATOM     74  C   UNL     1       4.485  -5.135  -6.892  1.00  0.00     0.022 A 
BRANCH  72  75
ATOM     75  S   UNL     1       3.687  -7.601  -7.776  1.00  0.00     0.127 S 
ATOM     76  O   UNL     1       2.538  -6.962  -8.413  1.00  0.00    -0.237 OA
ATOM     77  O   UNL     1       4.910  -7.606  -8.575  1.00  0.00    -0.237 OA
ATOM     78  O   UNL     1       3.393  -8.859  -7.098  1.00  0.00    -0.744 OA
ENDBRANCH  72  75
ENDBRANCH  54  68
BRANCH  55  79
ATOM     79  C   UNL     1       2.685  -7.502   5.479  1.00  0.00     0.023 A 
ATOM     80  C   UNL     1       3.689  -7.109   6.381  1.00  0.00     0.012 A 
ATOM     81  C   UNL     1       1.452  -7.962   5.995  1.00  0.00     0.148 A 
ATOM     82  C   UNL     1       3.490  -7.205   7.762  1.00  0.00     0.002 A 
ATOM     83  C   UNL     1       1.250  -8.033   7.374  1.00  0.00     0.091 A 
ATOM     84  F   UNL     1       0.502  -8.350   5.131  1.00  0.00    -0.205 F 
ATOM     85  C   UNL     1       2.272  -7.663   8.259  1.00  0.00     0.022 A 
BRANCH  83  86
ATOM     86  S   UNL     1      -0.320  -8.543   8.092  1.00  0.00     0.127 S 
ATOM     87  O   UNL     1      -0.055  -9.936   8.442  1.00  0.00    -0.237 OA
ATOM     88  O   UNL     1      -0.451  -7.637   9.235  1.00  0.00    -0.237 OA
ATOM     89  O   UNL     1      -1.310  -8.321   7.045  1.00  0.00    -0.744 OA
ENDBRANCH  83  86
ENDBRANCH  55  79
BRANCH  67  90
ATOM     90  C   UNL     1       7.594  -9.638   1.017  1.00  0.00     0.023 A 
ATOM     91  C   UNL     1       7.462 -11.034   1.151  1.00  0.00     0.012 A 
ATOM     92  C   UNL     1       8.877  -9.060   0.965  1.00  0.00     0.148 A 
ATOM     93  C   UNL     1       8.588 -11.843   1.270  1.00  0.00     0.002 A 
ATOM     94  C   UNL     1       9.995  -9.879   1.028  1.00  0.00     0.091 A 
ATOM     95  F   UNL     1       8.978  -7.727   0.861  1.00  0.00    -0.205 F 
ATOM     96  C   UNL     1       9.853 -11.268   1.195  1.00  0.00     0.022 A 
BRANCH  94  97
ATOM     97  S   UNL     1      11.665  -9.248   0.838  1.00  0.00     0.127 S 
ATOM     98  O   UNL     1      12.195  -9.396   2.193  1.00  0.00    -0.237 OA
ATOM     99  O   UNL     1      12.232 -10.173  -0.144  1.00  0.00    -0.237 OA
ATOM    100  O   UNL     1      11.526  -7.877   0.368  1.00  0.00    -0.744 OA
ENDBRANCH  94  97
ENDBRANCH  67  90
ENDBRANCH  41  42
ENDBRANCH  34  36
ENDBRANCH  33  34
ENDBRANCH  32  33
ENDBRANCH   1  32
TORSDOF 19
