REMARK SMILES O=C(Cc1ccc(NC(=O)C2CCCC2)cc1)OCCOC(=O)c1ccc(-c2c3nc(c(-c4cccc(S(=O)(=O)[O-])c4F)c4ccc([nH]4)c(-c4cccc(S(=O)(=O)[O-])c4F)c4nc(c(-c5cccc(S(=O)(=O)[O-])c5F)c5ccc2[nH]5)C=C4)C=C3)cc1
REMARK SMILES IDX 19 1 18 2 2 3 1 4 3 5 4 6 5 7 17 8 6 9 16 10 7 11 8 12 9 13
REMARK SMILES IDX 10 15 11 16 12 17 15 18 13 19 14 20 20 21 21 22 22 23 23 24
REMARK SMILES IDX 24 25 25 26 86 27 26 28 85 29 27 30 28 31 29 32 79 33 30 34
REMARK SMILES IDX 84 35 78 36 80 37 31 38 83 39 77 40 76 41 32 43 64 44 44 45
REMARK SMILES IDX 63 46 45 47 48 48 62 49 81 50 46 51 47 52 61 54 82 55 49 56
REMARK SMILES IDX 33 57 34 58 42 59 35 60 37 61 43 62 36 63 38 64 39 65 40 66
REMARK SMILES IDX 41 67 65 68 66 69 74 70 67 71 69 72 75 73 68 74 70 75 71 76
REMARK SMILES IDX 72 77 73 78 50 79 51 80 59 81 52 82 54 83 60 84 53 85 55 86
REMARK SMILES IDX 56 87 57 88 58 89
REMARK H PARENT 8 14 80 42 48 53
REMARK Flexibility Score: inf
ROOT
ATOM      1  C   UNL     1       4.095   1.591  -0.327  1.00  0.00     0.274 C 
ENDROOT
BRANCH   1   2
ATOM      2  O   UNL     1       2.757   1.151  -0.623  1.00  0.00    -0.462 OA
BRANCH   2   3
ATOM      3  C   UNL     1       2.554  -0.167  -0.898  1.00  0.00     0.310 C 
ATOM      4  O   UNL     1       1.921  -0.515  -1.890  1.00  0.00    -0.252 OA
BRANCH   3   5
ATOM      5  C   UNL     1       3.035  -1.134   0.159  1.00  0.00     0.158 C 
BRANCH   5   6
ATOM      6  C   UNL     1       4.003  -2.196  -0.281  1.00  0.00    -0.037 A 
ATOM      7  C   UNL     1       3.994  -3.416   0.401  1.00  0.00     0.006 A 
ATOM      8  C   UNL     1       4.973  -1.984  -1.264  1.00  0.00     0.006 A 
ATOM      9  C   UNL     1       4.828  -4.454  -0.005  1.00  0.00     0.026 A 
ATOM     10  C   UNL     1       5.802  -3.029  -1.673  1.00  0.00     0.026 A 
ATOM     11  C   UNL     1       5.640  -4.302  -1.125  1.00  0.00     0.041 A 
BRANCH  11  12
ATOM     12  N   UNL     1       6.242  -5.364  -1.815  1.00  0.00    -0.326 N 
ATOM     13  C   UNL     1       5.789  -6.639  -2.051  1.00  0.00     0.227 C 
ATOM     14  H   UNL     1       7.129  -5.164  -2.191  1.00  0.00     0.169 HD
ATOM     15  O   UNL     1       6.472  -7.352  -2.792  1.00  0.00    -0.274 OA
BRANCH  13  16
ATOM     16  C   UNL     1       4.471  -7.123  -1.464  1.00  0.00     0.079 C 
ATOM     17  C   UNL     1       3.226  -6.409  -1.994  1.00  0.00     0.013 C 
ATOM     18  C   UNL     1       4.110  -8.571  -1.789  1.00  0.00     0.013 C 
ATOM     19  C   UNL     1       2.093  -7.244  -1.415  1.00  0.00     0.001 C 
ATOM     20  C   UNL     1       2.640  -8.672  -1.371  1.00  0.00     0.001 C 
ENDBRANCH  13  16
ENDBRANCH  11  12
ENDBRANCH   5   6
ENDBRANCH   3   5
ENDBRANCH   2   3
ENDBRANCH   1   2
BRANCH   1  21
ATOM     21  C   UNL     1       4.220   2.250   1.049  1.00  0.00     0.275 C 
BRANCH  21  22
ATOM     22  O   UNL     1       3.857   1.341   2.103  1.00  0.00    -0.458 OA
BRANCH  22  23
ATOM     23  C   UNL     1       2.549   1.389   2.468  1.00  0.00     0.338 C 
ATOM     24  O   UNL     1       1.731   2.212   2.091  1.00  0.00    -0.246 OA
BRANCH  23  25
ATOM     25  C   UNL     1       2.182   0.190   3.262  1.00  0.00     0.060 A 
ATOM     26  C   UNL     1       0.880  -0.306   3.108  1.00  0.00     0.016 A 
ATOM     27  C   UNL     1       3.066  -0.438   4.146  1.00  0.00     0.016 A 
ATOM     28  C   UNL     1       0.431  -1.364   3.898  1.00  0.00     0.010 A 
ATOM     29  C   UNL     1       2.614  -1.503   4.939  1.00  0.00     0.010 A 
ATOM     30  C   UNL     1       1.277  -1.931   4.860  1.00  0.00    -0.014 A 
BRANCH  30  31
ATOM     31  C   UNL     1       0.683  -2.793   5.915  1.00  0.00     0.031 A 
ATOM     32  C   UNL     1       0.310  -2.157   7.231  1.00  0.00     0.074 A 
ATOM     33  C   UNL     1       0.426  -4.098   5.711  1.00  0.00     0.049 A 
ATOM     34  N   UNL     1      -0.335  -2.670   8.246  1.00  0.00    -0.248 NA
ATOM     35  C   UNL     1       0.719  -0.756   7.426  1.00  0.00     0.031 C 
ATOM     36  C   UNL     1       0.749  -4.849   4.500  1.00  0.00     0.029 A 
ATOM     37  N   UNL     1      -0.167  -5.024   6.535  1.00  0.00    -0.354 N 
ATOM     38  C   UNL     1      -0.402  -1.662   9.200  1.00  0.00     0.074 A 
ATOM     39  C   UNL     1       0.295  -0.517   8.658  1.00  0.00     0.031 C 
ATOM     40  C   UNL     1       0.360  -6.127   4.665  1.00  0.00     0.029 A 
ATOM     41  C   UNL     1      -0.242  -6.283   5.989  1.00  0.00     0.049 A 
ATOM     42  H   UNL     1      -0.506  -4.805   7.433  1.00  0.00     0.167 HD
ATOM     43  C   UNL     1      -1.013  -1.669  10.408  1.00  0.00     0.034 A 
ATOM     44  C   UNL     1      -0.750  -7.426   6.496  1.00  0.00     0.034 A 
ATOM     45  C   UNL     1      -1.725  -2.792  10.950  1.00  0.00     0.049 A 
ATOM     46  C   UNL     1      -1.422  -7.410   7.848  1.00  0.00     0.074 A 
ATOM     47  C   UNL     1      -2.424  -2.873  12.142  1.00  0.00     0.029 A 
ATOM     48  N   UNL     1      -1.818  -4.035  10.346  1.00  0.00    -0.354 N 
ATOM     49  N   UNL     1      -1.629  -6.401   8.660  1.00  0.00    -0.248 NA
ATOM     50  C   UNL     1      -1.976  -8.686   8.331  1.00  0.00     0.031 C 
ATOM     51  C   UNL     1      -2.923  -4.174  12.268  1.00  0.00     0.029 A 
ATOM     52  C   UNL     1      -2.554  -4.894  11.144  1.00  0.00     0.049 A 
ATOM     53  H   UNL     1      -1.420  -4.272   9.478  1.00  0.00     0.167 HD
ATOM     54  C   UNL     1      -2.379  -6.908   9.718  1.00  0.00     0.074 A 
ATOM     55  C   UNL     1      -2.601  -8.310   9.439  1.00  0.00     0.031 C 
ATOM     56  C   UNL     1      -2.834  -6.270  10.826  1.00  0.00     0.034 A 
BRANCH  43  57
ATOM     57  C   UNL     1      -0.971  -0.398  11.211  1.00  0.00     0.023 A 
ATOM     58  C   UNL     1      -1.771   0.695  10.819  1.00  0.00     0.012 A 
ATOM     59  C   UNL     1      -0.177  -0.297  12.368  1.00  0.00     0.148 A 
ATOM     60  C   UNL     1      -1.758   1.881  11.551  1.00  0.00     0.002 A 
ATOM     61  C   UNL     1      -0.201   0.874  13.116  1.00  0.00     0.091 A 
ATOM     62  F   UNL     1       0.597  -1.338  12.706  1.00  0.00    -0.205 F 
ATOM     63  C   UNL     1      -0.981   1.967  12.704  1.00  0.00     0.022 A 
BRANCH  61  64
ATOM     64  S   UNL     1       0.711   1.054  14.652  1.00  0.00     0.127 S 
ATOM     65  O   UNL     1       1.806   1.932  14.244  1.00  0.00    -0.237 OA
ATOM     66  O   UNL     1      -0.279   1.681  15.529  1.00  0.00    -0.237 OA
ATOM     67  O   UNL     1       1.100  -0.294  15.045  1.00  0.00    -0.744 OA
ENDBRANCH  61  64
ENDBRANCH  43  57
BRANCH  44  68
ATOM     68  C   UNL     1      -0.718  -8.681   5.692  1.00  0.00     0.023 A 
ATOM     69  C   UNL     1      -1.922  -9.213   5.190  1.00  0.00     0.012 A 
ATOM     70  C   UNL     1       0.491  -9.354   5.436  1.00  0.00     0.148 A 
ATOM     71  C   UNL     1      -1.927 -10.414   4.479  1.00  0.00     0.002 A 
ATOM     72  C   UNL     1       0.485 -10.523   4.683  1.00  0.00     0.091 A 
ATOM     73  F   UNL     1       1.623  -8.841   5.938  1.00  0.00    -0.205 F 
ATOM     74  C   UNL     1      -0.724 -11.064   4.219  1.00  0.00     0.022 A 
BRANCH  72  75
ATOM     75  S   UNL     1       1.997 -11.363   4.199  1.00  0.00     0.127 S 
ATOM     76  O   UNL     1       1.947 -12.568   5.023  1.00  0.00    -0.237 OA
ATOM     77  O   UNL     1       1.775 -11.582   2.769  1.00  0.00    -0.237 OA
ATOM     78  O   UNL     1       3.075 -10.431   4.501  1.00  0.00    -0.744 OA
ENDBRANCH  72  75
ENDBRANCH  44  68
BRANCH  56  79
ATOM     79  C   UNL     1      -3.667  -7.057  11.806  1.00  0.00     0.023 A 
ATOM     80  C   UNL     1      -3.060  -8.030  12.624  1.00  0.00     0.012 A 
ATOM     81  C   UNL     1      -5.038  -6.772  11.975  1.00  0.00     0.148 A 
ATOM     82  C   UNL     1      -3.810  -8.731  13.569  1.00  0.00     0.002 A 
ATOM     83  C   UNL     1      -5.768  -7.441  12.952  1.00  0.00     0.091 A 
ATOM     84  F   UNL     1      -5.606  -5.857  11.176  1.00  0.00    -0.205 F 
ATOM     85  C   UNL     1      -5.159  -8.429  13.742  1.00  0.00     0.022 A 
BRANCH  83  86
ATOM     86  S   UNL     1      -7.483  -7.036  13.305  1.00  0.00     0.127 S 
ATOM     87  O   UNL     1      -8.192  -8.112  12.616  1.00  0.00    -0.237 OA
ATOM     88  O   UNL     1      -7.532  -7.112  14.766  1.00  0.00    -0.237 OA
ATOM     89  O   UNL     1      -7.691  -5.698  12.768  1.00  0.00    -0.744 OA
ENDBRANCH  83  86
ENDBRANCH  56  79
ENDBRANCH  30  31
ENDBRANCH  23  25
ENDBRANCH  22  23
ENDBRANCH  21  22
ENDBRANCH   1  21
TORSDOF 17
