REMARK SMILES CC(C)C[C@H](CNC(=O)NC[C@H]1CCC(=O)N1)C(=O)OCCOC(=O)c1ccc(-c2c3nc(c(-c4cccc(S(=O)(=O)[O-])c4F)c4ccc([nH]4)c(-c4cccc(S(=O)(=O)[O-])c4F)c4nc(c(-c5cccc(S(=O)(=O)[O-])c5F)c5ccc2[nH]5)C=C4)C=C3)cc1
REMARK SMILES IDX 21 1 20 2 18 3 19 4 5 5 4 6 2 7 1 8 3 9 6 10 7 11 8 12 9 14
REMARK SMILES IDX 10 15 11 17 12 18 13 19 17 20 14 21 15 22 16 24 22 25 23 26
REMARK SMILES IDX 24 27 25 28 26 29 27 30 88 31 28 32 87 33 29 34 30 35 31 36
REMARK SMILES IDX 81 37 32 38 86 39 80 40 82 41 33 42 85 43 79 44 78 45 34 47
REMARK SMILES IDX 66 48 46 49 65 50 47 51 50 52 64 53 83 54 48 55 49 56 63 58
REMARK SMILES IDX 84 59 51 60 35 61 36 62 44 63 37 64 39 65 45 66 38 67 40 68
REMARK SMILES IDX 41 69 42 70 43 71 67 72 68 73 76 74 69 75 71 76 77 77 70 78
REMARK SMILES IDX 72 79 73 80 74 81 75 82 52 83 53 84 61 85 54 86 56 87 62 88
REMARK SMILES IDX 55 89 57 90 58 91 59 92 60 93
REMARK H PARENT 7 13 10 16 17 23 82 46 50 57
REMARK Flexibility Score: inf
ROOT
ATOM      1  C   UNL     1       4.475   0.975  -3.891  1.00  0.00     0.274 C 
ENDROOT
BRANCH   1   2
ATOM      2  O   UNL     1       3.889   2.285  -3.766  1.00  0.00    -0.462 OA
BRANCH   2   3
ATOM      3  C   UNL     1       2.731   2.363  -3.072  1.00  0.00     0.310 C 
ATOM      4  O   UNL     1       2.101   1.388  -2.677  1.00  0.00    -0.252 OA
BRANCH   3   5
ATOM      5  C   UNL     1       2.234   3.787  -2.870  1.00  0.00     0.119 C 
BRANCH   5   6
ATOM      6  C   UNL     1       1.517   4.316  -4.122  1.00  0.00     0.020 C 
BRANCH   6   7
ATOM      7  C   UNL     1       0.395   3.391  -4.660  1.00  0.00    -0.017 C 
ATOM      8  C   UNL     1      -0.656   3.009  -3.610  1.00  0.00     0.007 C 
ATOM      9  C   UNL     1      -0.310   4.058  -5.843  1.00  0.00     0.007 C 
ENDBRANCH   6   7
ENDBRANCH   5   6
BRANCH   5  10
ATOM     10  C   UNL     1       3.238   4.784  -2.248  1.00  0.00     0.133 C 
BRANCH  10  11
ATOM     11  N   UNL     1       4.646   4.550  -2.485  1.00  0.00    -0.337 N 
ATOM     12  C   UNL     1       5.503   4.801  -3.475  1.00  0.00     0.314 C 
ATOM     13  H   UNL     1       5.079   4.093  -1.727  1.00  0.00     0.165 HD
ATOM     14  O   UNL     1       6.550   4.154  -3.536  1.00  0.00    -0.249 OA
ATOM     15  N   UNL     1       5.307   5.735  -4.407  1.00  0.00    -0.336 N 
ATOM     16  H   UNL     1       5.882   5.617  -5.198  1.00  0.00     0.165 HD
BRANCH  15  17
ATOM     17  C   UNL     1       4.432   6.884  -4.508  1.00  0.00     0.142 C 
BRANCH  17  18
ATOM     18  C   UNL     1       5.002   8.162  -3.859  1.00  0.00     0.101 C 
ATOM     19  C   UNL     1       5.097   8.149  -2.336  1.00  0.00     0.036 C 
ATOM     20  N   UNL     1       6.357   8.436  -4.267  1.00  0.00    -0.352 N 
ATOM     21  C   UNL     1       6.549   7.795  -2.022  1.00  0.00     0.102 C 
ATOM     22  C   UNL     1       7.279   8.226  -3.265  1.00  0.00     0.220 C 
ATOM     23  H   UNL     1       6.599   8.743  -5.171  1.00  0.00     0.163 HD
ATOM     24  O   UNL     1       8.484   8.362  -3.397  1.00  0.00    -0.275 OA
ENDBRANCH  17  18
ENDBRANCH  15  17
ENDBRANCH  10  11
ENDBRANCH   5  10
ENDBRANCH   3   5
ENDBRANCH   2   3
ENDBRANCH   1   2
BRANCH   1  25
ATOM     25  C   UNL     1       5.362   0.604  -2.693  1.00  0.00     0.275 C 
BRANCH  25  26
ATOM     26  O   UNL     1       4.593   0.351  -1.498  1.00  0.00    -0.458 OA
BRANCH  26  27
ATOM     27  C   UNL     1       4.513   1.394  -0.640  1.00  0.00     0.338 C 
ATOM     28  O   UNL     1       5.065   2.479  -0.754  1.00  0.00    -0.246 OA
BRANCH  27  29
ATOM     29  C   UNL     1       3.503   1.164   0.406  1.00  0.00     0.060 A 
ATOM     30  C   UNL     1       2.456   2.088   0.483  1.00  0.00     0.016 A 
ATOM     31  C   UNL     1       3.646   0.185   1.386  1.00  0.00     0.016 A 
ATOM     32  C   UNL     1       1.575   2.079   1.552  1.00  0.00     0.010 A 
ATOM     33  C   UNL     1       2.755   0.172   2.469  1.00  0.00     0.010 A 
ATOM     34  C   UNL     1       1.741   1.143   2.573  1.00  0.00    -0.014 A 
BRANCH  34  35
ATOM     35  C   UNL     1       0.928   1.297   3.801  1.00  0.00     0.031 A 
ATOM     36  C   UNL     1       1.569   1.864   5.037  1.00  0.00     0.074 A 
ATOM     37  C   UNL     1      -0.386   1.009   3.785  1.00  0.00     0.049 A 
ATOM     38  N   UNL     1       1.048   2.071   6.218  1.00  0.00    -0.248 NA
ATOM     39  C   UNL     1       2.986   2.253   4.928  1.00  0.00     0.031 C 
ATOM     40  C   UNL     1      -1.125   0.504   2.627  1.00  0.00     0.029 A 
ATOM     41  N   UNL     1      -1.332   1.098   4.774  1.00  0.00    -0.354 N 
ATOM     42  C   UNL     1       2.082   2.560   7.007  1.00  0.00     0.074 A 
ATOM     43  C   UNL     1       3.260   2.629   6.169  1.00  0.00     0.031 C 
ATOM     44  C   UNL     1      -2.409   0.318   2.976  1.00  0.00     0.029 A 
ATOM     45  C   UNL     1      -2.575   0.656   4.387  1.00  0.00     0.049 A 
ATOM     46  H   UNL     1      -1.139   1.445   5.675  1.00  0.00     0.167 HD
ATOM     47  C   UNL     1       2.051   2.925   8.310  1.00  0.00     0.034 A 
ATOM     48  C   UNL     1      -3.711   0.524   5.098  1.00  0.00     0.034 A 
ATOM     49  C   UNL     1       0.865   2.901   9.123  1.00  0.00     0.049 A 
ATOM     50  C   UNL     1      -3.717   0.942   6.545  1.00  0.00     0.074 A 
ATOM     51  C   UNL     1       0.721   3.272  10.447  1.00  0.00     0.029 A 
ATOM     52  N   UNL     1      -0.383   2.485   8.685  1.00  0.00    -0.354 N 
ATOM     53  N   UNL     1      -2.749   1.466   7.257  1.00  0.00    -0.248 NA
ATOM     54  C   UNL     1      -4.981   0.779   7.277  1.00  0.00     0.031 C 
ATOM     55  C   UNL     1      -0.614   3.071  10.814  1.00  0.00     0.029 A 
ATOM     56  C   UNL     1      -1.305   2.592   9.712  1.00  0.00     0.049 A 
ATOM     57  H   UNL     1      -0.584   2.161   7.778  1.00  0.00     0.167 HD
ATOM     58  C   UNL     1      -3.296   1.732   8.508  1.00  0.00     0.074 A 
ATOM     59  C   UNL     1      -4.686   1.327   8.448  1.00  0.00     0.031 C 
ATOM     60  C   UNL     1      -2.700   2.248   9.611  1.00  0.00     0.034 A 
BRANCH  47  61
ATOM     61  C   UNL     1       3.338   3.393   8.934  1.00  0.00     0.023 A 
ATOM     62  C   UNL     1       3.844   4.671   8.626  1.00  0.00     0.012 A 
ATOM     63  C   UNL     1       4.027   2.579   9.855  1.00  0.00     0.148 A 
ATOM     64  C   UNL     1       5.032   5.121   9.202  1.00  0.00     0.002 A 
ATOM     65  C   UNL     1       5.188   3.051  10.456  1.00  0.00     0.091 A 
ATOM     66  F   UNL     1       3.545   1.355  10.112  1.00  0.00    -0.205 F 
ATOM     67  C   UNL     1       5.697   4.316  10.124  1.00  0.00     0.022 A 
BRANCH  65  68
ATOM     68  S   UNL     1       6.071   2.114  11.709  1.00  0.00     0.127 S 
ATOM     69  O   UNL     1       7.237   1.646  10.961  1.00  0.00    -0.237 OA
ATOM     70  O   UNL     1       6.362   3.137  12.714  1.00  0.00    -0.237 OA
ATOM     71  O   UNL     1       5.151   1.076  12.153  1.00  0.00    -0.744 OA
ENDBRANCH  65  68
ENDBRANCH  47  61
BRANCH  48  72
ATOM     72  C   UNL     1      -4.947   0.013   4.440  1.00  0.00     0.023 A 
ATOM     73  C   UNL     1      -6.035   0.884   4.239  1.00  0.00     0.012 A 
ATOM     74  C   UNL     1      -5.042  -1.318   3.991  1.00  0.00     0.148 A 
ATOM     75  C   UNL     1      -7.205   0.431   3.627  1.00  0.00     0.002 A 
ATOM     76  C   UNL     1      -6.188  -1.748   3.333  1.00  0.00     0.091 A 
ATOM     77  F   UNL     1      -4.005  -2.139   4.212  1.00  0.00    -0.205 F 
ATOM     78  C   UNL     1      -7.277  -0.880   3.164  1.00  0.00     0.022 A 
BRANCH  76  79
ATOM     79  S   UNL     1      -6.312  -3.379   2.590  1.00  0.00     0.127 S 
ATOM     80  O   UNL     1      -7.206  -4.064   3.520  1.00  0.00    -0.237 OA
ATOM     81  O   UNL     1      -6.898  -3.075   1.284  1.00  0.00    -0.237 OA
ATOM     82  O   UNL     1      -4.947  -3.884   2.530  1.00  0.00    -0.744 OA
ENDBRANCH  76  79
ENDBRANCH  48  72
BRANCH  60  83
ATOM     83  C   UNL     1      -3.556   2.454  10.832  1.00  0.00     0.023 A 
ATOM     84  C   UNL     1      -3.959   1.344  11.600  1.00  0.00     0.012 A 
ATOM     85  C   UNL     1      -3.902   3.752  11.254  1.00  0.00     0.148 A 
ATOM     86  C   UNL     1      -4.724   1.523  12.753  1.00  0.00     0.002 A 
ATOM     87  C   UNL     1      -4.625   3.924  12.429  1.00  0.00     0.091 A 
ATOM     88  F   UNL     1      -3.529   4.795  10.498  1.00  0.00    -0.205 F 
ATOM     89  C   UNL     1      -5.046   2.811  13.174  1.00  0.00     0.022 A 
BRANCH  87  90
ATOM     90  S   UNL     1      -4.994   5.556  13.083  1.00  0.00     0.127 S 
ATOM     91  O   UNL     1      -6.371   5.754  12.636  1.00  0.00    -0.237 OA
ATOM     92  O   UNL     1      -4.844   5.362  14.526  1.00  0.00    -0.237 OA
ATOM     93  O   UNL     1      -4.003   6.448  12.494  1.00  0.00    -0.744 OA
ENDBRANCH  87  90
ENDBRANCH  60  83
ENDBRANCH  34  35
ENDBRANCH  27  29
ENDBRANCH  26  27
ENDBRANCH  25  26
ENDBRANCH   1  25
TORSDOF 20
