REMARK SMILES CCC(CC)[C@H](C(=O)OCCOC(=O)c1ccc(-c2c3nc(c(-c4cccc(S(=O)(=O)[O-])c4F)c4ccc([nH]4)c(-c4cccc(S(=O)(=O)[O-])c4F)c4nc(c(-c5cccc(S(=O)(=O)[O-])c5F)c5ccc2[nH]5)C=C4)C=C3)cc1)c1ccc(OC(F)F)cc1
REMARK SMILES IDX 10 1 9 2 7 3 8 4 6 5 3 6 2 7 1 8 4 9 5 10 78 11 79 12 87 13
REMARK SMILES IDX 80 14 86 15 81 16 82 17 83 18 84 19 85 20 11 21 12 22 13 23
REMARK SMILES IDX 14 24 15 25 16 26 77 27 17 28 76 29 18 30 19 31 20 32 70 33
REMARK SMILES IDX 21 34 75 35 69 36 71 37 22 38 74 39 68 40 67 41 23 43 55 44
REMARK SMILES IDX 35 45 54 46 36 47 39 48 53 49 72 50 37 51 38 52 52 54 73 55
REMARK SMILES IDX 40 56 24 57 25 58 33 59 26 60 28 61 34 62 27 63 29 64 30 65
REMARK SMILES IDX 31 66 32 67 56 68 57 69 65 70 58 71 60 72 66 73 59 74 61 75
REMARK SMILES IDX 62 76 63 77 64 78 41 79 42 80 50 81 43 82 45 83 51 84 44 85
REMARK SMILES IDX 46 86 47 87 48 88 49 89
REMARK H PARENT 71 42 39 53
REMARK Flexibility Score: inf
ROOT
ATOM      1  C   UNL     1       0.712   0.112   0.486  1.00  0.00     0.274 C 
ENDROOT
BRANCH   1   2
ATOM      2  O   UNL     1       0.188  -0.666   1.584  1.00  0.00    -0.462 OA
BRANCH   2   3
ATOM      3  C   UNL     1       1.058  -0.865   2.621  1.00  0.00     0.313 C 
ATOM      4  O   UNL     1       2.122  -0.272   2.737  1.00  0.00    -0.252 OA
BRANCH   3   5
ATOM      5  C   UNL     1       0.616  -2.046   3.498  1.00  0.00     0.132 C 
BRANCH   5   6
ATOM      6  C   UNL     1       1.625  -3.248   3.233  1.00  0.00     0.007 C 
BRANCH   6   7
ATOM      7  C   UNL     1       2.057  -3.295   1.735  1.00  0.00     0.001 C 
ATOM      8  C   UNL     1       2.847  -4.525   1.314  1.00  0.00     0.004 C 
ENDBRANCH   6   7
BRANCH   6   9
ATOM      9  C   UNL     1       2.851  -3.378   4.181  1.00  0.00     0.001 C 
ATOM     10  C   UNL     1       3.734  -2.157   4.354  1.00  0.00     0.004 C 
ENDBRANCH   6   9
ENDBRANCH   5   6
BRANCH   5  11
ATOM     11  C   UNL     1       0.340  -1.662   4.956  1.00  0.00    -0.033 A 
ATOM     12  C   UNL     1       0.377  -2.598   5.999  1.00  0.00     0.008 A 
ATOM     13  C   UNL     1       0.012  -0.345   5.310  1.00  0.00     0.008 A 
ATOM     14  C   UNL     1       0.357  -2.192   7.340  1.00  0.00     0.047 A 
ATOM     15  C   UNL     1      -0.025   0.065   6.649  1.00  0.00     0.047 A 
ATOM     16  C   UNL     1       0.237  -0.845   7.665  1.00  0.00     0.126 A 
BRANCH  16  17
ATOM     17  O   UNL     1       0.357  -0.525   8.989  1.00  0.00    -0.435 OA
BRANCH  17  18
ATOM     18  C   UNL     1       1.065   0.693   9.254  1.00  0.00     0.542 C 
ATOM     19  F   UNL     1       2.161   0.772   8.459  1.00  0.00    -0.167 F 
ATOM     20  F   UNL     1       0.256   1.739   8.970  1.00  0.00    -0.167 F 
ENDBRANCH  17  18
ENDBRANCH  16  17
ENDBRANCH   5  11
ENDBRANCH   3   5
ENDBRANCH   2   3
ENDBRANCH   1   2
BRANCH   1  21
ATOM     21  C   UNL     1       0.298   1.578   0.561  1.00  0.00     0.275 C 
BRANCH  21  22
ATOM     22  O   UNL     1       0.909   2.199   1.700  1.00  0.00    -0.458 OA
BRANCH  22  23
ATOM     23  C   UNL     1       0.085   2.938   2.478  1.00  0.00     0.338 C 
ATOM     24  O   UNL     1      -1.090   3.184   2.263  1.00  0.00    -0.246 OA
BRANCH  23  25
ATOM     25  C   UNL     1       0.790   3.399   3.693  1.00  0.00     0.060 A 
ATOM     26  C   UNL     1       1.621   2.535   4.402  1.00  0.00     0.016 A 
ATOM     27  C   UNL     1       0.478   4.647   4.230  1.00  0.00     0.016 A 
ATOM     28  C   UNL     1       1.997   2.841   5.706  1.00  0.00     0.010 A 
ATOM     29  C   UNL     1       0.956   5.003   5.497  1.00  0.00     0.010 A 
ATOM     30  C   UNL     1       1.653   4.072   6.285  1.00  0.00    -0.014 A 
BRANCH  30  31
ATOM     31  C   UNL     1       1.918   4.317   7.734  1.00  0.00     0.031 A 
ATOM     32  C   UNL     1       0.778   4.676   8.661  1.00  0.00     0.074 A 
ATOM     33  C   UNL     1       3.151   4.148   8.254  1.00  0.00     0.049 A 
ATOM     34  N   UNL     1       0.821   5.047   9.916  1.00  0.00    -0.248 NA
ATOM     35  C   UNL     1      -0.586   4.621   8.106  1.00  0.00     0.031 C 
ATOM     36  C   UNL     1       4.342   3.759   7.496  1.00  0.00     0.029 A 
ATOM     37  N   UNL     1       3.605   4.255   9.547  1.00  0.00    -0.354 N 
ATOM     38  C   UNL     1      -0.488   5.362  10.265  1.00  0.00     0.074 A 
ATOM     39  C   UNL     1      -1.310   5.111   9.102  1.00  0.00     0.031 C 
ATOM     40  C   UNL     1       5.367   3.590   8.343  1.00  0.00     0.029 A 
ATOM     41  C   UNL     1       4.939   3.948   9.690  1.00  0.00     0.049 A 
ATOM     42  H   UNL     1       3.030   4.526  10.299  1.00  0.00     0.167 HD
ATOM     43  C   UNL     1      -0.968   5.809  11.449  1.00  0.00     0.034 A 
ATOM     44  C   UNL     1       5.739   3.974  10.776  1.00  0.00     0.034 A 
ATOM     45  C   UNL     1      -0.180   5.947  12.642  1.00  0.00     0.049 A 
ATOM     46  C   UNL     1       5.168   4.418  12.094  1.00  0.00     0.074 A 
ATOM     47  C   UNL     1      -0.577   6.397  13.889  1.00  0.00     0.029 A 
ATOM     48  N   UNL     1       1.157   5.601  12.749  1.00  0.00    -0.354 N 
ATOM     49  N   UNL     1       3.931   4.731  12.394  1.00  0.00    -0.248 NA
ATOM     50  C   UNL     1       6.104   4.515  13.223  1.00  0.00     0.031 C 
ATOM     51  C   UNL     1       0.518   6.309  14.755  1.00  0.00     0.029 A 
ATOM     52  C   UNL     1       1.596   5.806  14.045  1.00  0.00     0.049 A 
ATOM     53  H   UNL     1       1.713   5.261  12.011  1.00  0.00     0.167 HD
ATOM     54  C   UNL     1       3.942   5.069  13.742  1.00  0.00     0.074 A 
ATOM     55  C   UNL     1       5.296   4.867  14.214  1.00  0.00     0.031 C 
ATOM     56  C   UNL     1       2.933   5.546  14.511  1.00  0.00     0.034 A 
BRANCH  43  57
ATOM     57  C   UNL     1      -2.427   6.167  11.524  1.00  0.00     0.023 A 
ATOM     58  C   UNL     1      -3.394   5.153  11.662  1.00  0.00     0.012 A 
ATOM     59  C   UNL     1      -2.832   7.517  11.522  1.00  0.00     0.148 A 
ATOM     60  C   UNL     1      -4.746   5.477  11.781  1.00  0.00     0.002 A 
ATOM     61  C   UNL     1      -4.176   7.833  11.677  1.00  0.00     0.091 A 
ATOM     62  F   UNL     1      -1.897   8.465  11.360  1.00  0.00    -0.205 F 
ATOM     63  C   UNL     1      -5.135   6.815  11.800  1.00  0.00     0.022 A 
BRANCH  61  64
ATOM     64  S   UNL     1      -4.756   9.531  11.784  1.00  0.00     0.127 S 
ATOM     65  O   UNL     1      -5.332   9.732  10.456  1.00  0.00    -0.237 OA
ATOM     66  O   UNL     1      -5.736   9.458  12.869  1.00  0.00    -0.237 OA
ATOM     67  O   UNL     1      -3.580  10.333  12.089  1.00  0.00    -0.744 OA
ENDBRANCH  61  64
ENDBRANCH  43  57
BRANCH  44  68
ATOM     68  C   UNL     1       7.161   3.538  10.662  1.00  0.00     0.023 A 
ATOM     69  C   UNL     1       7.579   2.365  11.320  1.00  0.00     0.012 A 
ATOM     70  C   UNL     1       8.087   4.240   9.867  1.00  0.00     0.148 A 
ATOM     71  C   UNL     1       8.893   1.908  11.196  1.00  0.00     0.002 A 
ATOM     72  C   UNL     1       9.372   3.739   9.690  1.00  0.00     0.091 A 
ATOM     73  F   UNL     1       7.695   5.379   9.277  1.00  0.00    -0.205 F 
ATOM     74  C   UNL     1       9.784   2.583  10.366  1.00  0.00     0.022 A 
BRANCH  72  75
ATOM     75  S   UNL     1      10.486   4.475   8.487  1.00  0.00     0.127 S 
ATOM     76  O   UNL     1      11.188   5.471   9.290  1.00  0.00    -0.237 OA
ATOM     77  O   UNL     1      11.303   3.336   8.068  1.00  0.00    -0.237 OA
ATOM     78  O   UNL     1       9.607   4.986   7.442  1.00  0.00    -0.744 OA
ENDBRANCH  72  75
ENDBRANCH  44  68
BRANCH  56  79
ATOM     79  C   UNL     1       3.253   5.886  15.940  1.00  0.00     0.023 A 
ATOM     80  C   UNL     1       3.969   7.067  16.220  1.00  0.00     0.012 A 
ATOM     81  C   UNL     1       2.800   5.083  17.002  1.00  0.00     0.148 A 
ATOM     82  C   UNL     1       4.253   7.428  17.536  1.00  0.00     0.002 A 
ATOM     83  C   UNL     1       3.055   5.469  18.314  1.00  0.00     0.091 A 
ATOM     84  F   UNL     1       2.142   3.949  16.718  1.00  0.00    -0.205 F 
ATOM     85  C   UNL     1       3.788   6.636  18.583  1.00  0.00     0.022 A 
BRANCH  83  86
ATOM     86  S   UNL     1       2.414   4.535  19.708  1.00  0.00     0.127 S 
ATOM     87  O   UNL     1       3.535   3.649  20.018  1.00  0.00    -0.237 OA
ATOM     88  O   UNL     1       2.166   5.575  20.707  1.00  0.00    -0.237 OA
ATOM     89  O   UNL     1       1.207   3.885  19.212  1.00  0.00    -0.744 OA
ENDBRANCH  83  86
ENDBRANCH  56  79
ENDBRANCH  30  31
ENDBRANCH  23  25
ENDBRANCH  22  23
ENDBRANCH  21  22
ENDBRANCH   1  21
TORSDOF 20
