REMARK SMILES CN(C)C(=O)c1ccc2c(c1)N(CC(=O)OCCOC(=O)c1ccc(-c3c4nc(c(-c5cccc(S(=O)(=O)[O-])c5F)c5ccc([nH]5)c(-c5cccc(S(=O)(=O)[O-])c5F)c5nc(c(-c6cccc(S(=O)(=O)[O-])c6F)c6ccc3[nH]6)C=C5)C=C4)cc1)C(=O)[C@@H]1CCCCN21
REMARK SMILES IDX 18 1 17 2 16 3 14 4 15 5 13 6 12 7 6 8 7 9 11 10 8 11 10 12
REMARK SMILES IDX 9 13 92 14 85 15 87 16 91 17 86 18 88 19 90 20 89 21 4 22
REMARK SMILES IDX 1 23 2 24 3 25 5 26 19 27 20 28 21 29 22 30 23 31 84 32
REMARK SMILES IDX 24 33 83 34 25 35 26 36 27 37 77 38 28 39 82 40 76 41 78 42
REMARK SMILES IDX 29 43 81 44 75 45 74 46 30 48 62 49 42 50 61 51 43 52 46 53
REMARK SMILES IDX 60 54 79 55 44 56 45 57 59 59 80 60 47 61 31 62 32 63 40 64
REMARK SMILES IDX 33 65 35 66 41 67 34 68 36 69 37 70 38 71 39 72 63 73 64 74
REMARK SMILES IDX 72 75 65 76 67 77 73 78 66 79 68 80 69 81 70 82 71 83 48 84
REMARK SMILES IDX 49 85 57 86 50 87 52 88 58 89 51 90 53 91 54 92 55 93 56 94
REMARK H PARENT 78 47 46 58
REMARK Flexibility Score: inf
ROOT
ATOM      1  C   UNL     1      -3.184  -2.067  -2.588  1.00  0.00     0.275 C 
ENDROOT
BRANCH   1   2
ATOM      2  C   UNL     1      -3.749  -1.700  -3.963  1.00  0.00     0.274 C 
BRANCH   2   3
ATOM      3  O   UNL     1      -3.304  -0.410  -4.432  1.00  0.00    -0.461 OA
BRANCH   3   4
ATOM      4  C   UNL     1      -4.160   0.610  -4.153  1.00  0.00     0.326 C 
ATOM      5  O   UNL     1      -5.194   0.476  -3.501  1.00  0.00    -0.250 OA
BRANCH   4   6
ATOM      6  C   UNL     1      -3.688   1.988  -4.601  1.00  0.00     0.248 C 
BRANCH   6   7
ATOM      7  N   UNL     1      -2.611   2.131  -5.568  1.00  0.00    -0.297 N 
ATOM      8  C   UNL     1       0.518   2.242  -3.520  1.00  0.00     0.042 A 
ATOM      9  C   UNL     1       1.485   2.450  -4.490  1.00  0.00     0.016 A 
ATOM     10  C   UNL     1      -0.834   2.200  -3.864  1.00  0.00     0.042 A 
ATOM     11  C   UNL     1       1.091   2.588  -5.821  1.00  0.00     0.029 A 
ATOM     12  C   UNL     1      -1.240   2.314  -5.203  1.00  0.00     0.069 A 
ATOM     13  C   UNL     1      -0.264   2.538  -6.219  1.00  0.00     0.062 A 
ATOM     14  N   UNL     1      -0.634   2.712  -7.558  1.00  0.00    -0.358 N 
ATOM     15  C   UNL     1      -2.992   2.134  -6.902  1.00  0.00     0.250 C 
ATOM     16  C   UNL     1      -2.061   2.908  -7.837  1.00  0.00     0.172 C 
ATOM     17  C   UNL     1       0.353   2.841  -8.629  1.00  0.00     0.117 C 
ATOM     18  O   UNL     1      -4.085   1.694  -7.271  1.00  0.00    -0.272 OA
ATOM     19  C   UNL     1      -2.381   2.567  -9.289  1.00  0.00     0.035 C 
ATOM     20  C   UNL     1      -0.131   3.501  -9.925  1.00  0.00     0.022 C 
ATOM     21  C   UNL     1      -1.626   3.516 -10.194  1.00  0.00     0.004 C 
BRANCH   8  22
ATOM     22  C   UNL     1       0.921   2.034  -2.115  1.00  0.00     0.253 C 
ATOM     23  C   UNL     1       2.005   0.644  -0.415  1.00  0.00     0.146 C 
ATOM     24  N   UNL     1       1.565   0.843  -1.783  1.00  0.00    -0.345 N 
ATOM     25  C   UNL     1       1.700  -0.305  -2.671  1.00  0.00     0.146 C 
ATOM     26  O   UNL     1       0.665   2.931  -1.318  1.00  0.00    -0.269 OA
ENDBRANCH   8  22
ENDBRANCH   6   7
ENDBRANCH   4   6
ENDBRANCH   3   4
ENDBRANCH   2   3
ENDBRANCH   1   2
BRANCH   1  27
ATOM     27  O   UNL     1      -3.354  -1.003  -1.634  1.00  0.00    -0.458 OA
BRANCH  27  28
ATOM     28  C   UNL     1      -2.230  -0.286  -1.418  1.00  0.00     0.338 C 
ATOM     29  O   UNL     1      -1.138  -0.500  -1.928  1.00  0.00    -0.246 OA
BRANCH  28  30
ATOM     30  C   UNL     1      -2.448   0.829  -0.487  1.00  0.00     0.060 A 
ATOM     31  C   UNL     1      -1.660   0.910   0.661  1.00  0.00     0.016 A 
ATOM     32  C   UNL     1      -3.300   1.880  -0.829  1.00  0.00     0.016 A 
ATOM     33  C   UNL     1      -1.757   2.030   1.487  1.00  0.00     0.010 A 
ATOM     34  C   UNL     1      -3.321   3.040  -0.056  1.00  0.00     0.010 A 
ATOM     35  C   UNL     1      -2.589   3.106   1.136  1.00  0.00    -0.014 A 
BRANCH  35  36
ATOM     36  C   UNL     1      -2.770   4.238   2.078  1.00  0.00     0.031 A 
ATOM     37  C   UNL     1      -4.084   4.397   2.796  1.00  0.00     0.074 A 
ATOM     38  C   UNL     1      -1.763   5.098   2.326  1.00  0.00     0.049 A 
ATOM     39  N   UNL     1      -4.372   5.157   3.821  1.00  0.00    -0.248 NA
ATOM     40  C   UNL     1      -5.226   3.609   2.301  1.00  0.00     0.031 C 
ATOM     41  C   UNL     1      -0.475   5.123   1.631  1.00  0.00     0.029 A 
ATOM     42  N   UNL     1      -1.666   6.114   3.246  1.00  0.00    -0.354 N 
ATOM     43  C   UNL     1      -5.714   4.929   4.093  1.00  0.00     0.074 A 
ATOM     44  C   UNL     1      -6.207   4.014   3.092  1.00  0.00     0.031 C 
ATOM     45  C   UNL     1       0.295   6.085   2.172  1.00  0.00     0.029 A 
ATOM     46  C   UNL     1      -0.434   6.726   3.264  1.00  0.00     0.049 A 
ATOM     47  H   UNL     1      -2.408   6.379   3.836  1.00  0.00     0.167 HD
ATOM     48  C   UNL     1      -6.458   5.383   5.126  1.00  0.00     0.034 A 
ATOM     49  C   UNL     1       0.064   7.658   4.101  1.00  0.00     0.034 A 
ATOM     50  C   UNL     1      -5.957   6.240   6.158  1.00  0.00     0.049 A 
ATOM     51  C   UNL     1      -0.768   8.127   5.267  1.00  0.00     0.074 A 
ATOM     52  C   UNL     1      -6.592   6.660   7.312  1.00  0.00     0.029 A 
ATOM     53  N   UNL     1      -4.696   6.811   6.155  1.00  0.00    -0.354 N 
ATOM     54  N   UNL     1      -1.961   7.732   5.639  1.00  0.00    -0.248 NA
ATOM     55  C   UNL     1      -0.167   9.135   6.155  1.00  0.00     0.031 C 
ATOM     56  C   UNL     1      -5.709   7.489   8.011  1.00  0.00     0.029 A 
ATOM     57  C   UNL     1      -4.533   7.591   7.283  1.00  0.00     0.049 A 
ATOM     58  H   UNL     1      -4.017   6.680   5.455  1.00  0.00     0.167 HD
ATOM     59  C   UNL     1      -2.243   8.418   6.815  1.00  0.00     0.074 A 
ATOM     60  C   UNL     1      -1.093   9.250   7.101  1.00  0.00     0.031 C 
ATOM     61  C   UNL     1      -3.360   8.370   7.581  1.00  0.00     0.034 A 
BRANCH  48  62
ATOM     62  C   UNL     1      -7.856   4.852   5.247  1.00  0.00     0.023 A 
ATOM     63  C   UNL     1      -8.040   3.568   5.800  1.00  0.00     0.012 A 
ATOM     64  C   UNL     1      -8.973   5.606   4.846  1.00  0.00     0.148 A 
ATOM     65  C   UNL     1      -9.317   3.030   5.935  1.00  0.00     0.002 A 
ATOM     66  C   UNL     1     -10.247   5.071   5.003  1.00  0.00     0.091 A 
ATOM     67  F   UNL     1      -8.768   6.814   4.303  1.00  0.00    -0.205 F 
ATOM     68  C   UNL     1     -10.419   3.784   5.543  1.00  0.00     0.022 A 
BRANCH  66  69
ATOM     69  S   UNL     1     -11.740   5.961   4.554  1.00  0.00     0.127 S 
ATOM     70  O   UNL     1     -12.235   5.160   3.435  1.00  0.00    -0.237 OA
ATOM     71  O   UNL     1     -12.537   5.859   5.777  1.00  0.00    -0.237 OA
ATOM     72  O   UNL     1     -11.317   7.312   4.211  1.00  0.00    -0.744 OA
ENDBRANCH  66  69
ENDBRANCH  48  62
BRANCH  49  73
ATOM     73  C   UNL     1       1.480   8.098   3.955  1.00  0.00     0.023 A 
ATOM     74  C   UNL     1       2.450   7.551   4.819  1.00  0.00     0.012 A 
ATOM     75  C   UNL     1       1.876   9.014   2.963  1.00  0.00     0.148 A 
ATOM     76  C   UNL     1       3.790   7.918   4.705  1.00  0.00     0.002 A 
ATOM     77  C   UNL     1       3.219   9.358   2.839  1.00  0.00     0.091 A 
ATOM     78  F   UNL     1       0.932   9.530   2.164  1.00  0.00    -0.205 F 
ATOM     79  C   UNL     1       4.176   8.815   3.713  1.00  0.00     0.022 A 
BRANCH  77  80
ATOM     80  S   UNL     1       3.830  10.458   1.557  1.00  0.00     0.127 S 
ATOM     81  O   UNL     1       4.264  11.615   2.338  1.00  0.00    -0.237 OA
ATOM     82  O   UNL     1       4.916   9.670   0.974  1.00  0.00    -0.237 OA
ATOM     83  O   UNL     1       2.704  10.692   0.664  1.00  0.00    -0.744 OA
ENDBRANCH  77  80
ENDBRANCH  49  73
BRANCH  61  84
ATOM     84  C   UNL     1      -3.429   9.239   8.805  1.00  0.00     0.023 A 
ATOM     85  C   UNL     1      -3.802  10.588   8.656  1.00  0.00     0.012 A 
ATOM     86  C   UNL     1      -3.306   8.685  10.094  1.00  0.00     0.148 A 
ATOM     87  C   UNL     1      -4.058  11.376   9.776  1.00  0.00     0.002 A 
ATOM     88  C   UNL     1      -3.593   9.469  11.205  1.00  0.00     0.091 A 
ATOM     89  F   UNL     1      -2.949   7.397  10.204  1.00  0.00    -0.205 F 
ATOM     90  C   UNL     1      -3.967  10.814  11.048  1.00  0.00     0.022 A 
BRANCH  88  91
ATOM     91  S   UNL     1      -3.590   8.818  12.880  1.00  0.00     0.127 S 
ATOM     92  O   UNL     1      -2.492   9.568  13.489  1.00  0.00    -0.237 OA
ATOM     93  O   UNL     1      -4.921   9.190  13.358  1.00  0.00    -0.237 OA
ATOM     94  O   UNL     1      -3.365   7.384  12.758  1.00  0.00    -0.744 OA
ENDBRANCH  88  91
ENDBRANCH  61  84
ENDBRANCH  35  36
ENDBRANCH  28  30
ENDBRANCH  27  28
ENDBRANCH   1  27
TORSDOF 16
