REMARK SMILES NS(=O)(=O)c1ccc(-n2nc(C(=O)OCCOC(=O)c3ccc(-c4c5nc(c(-c6cccc(S(=O)(=O)[O-])c6F)c6ccc([nH]6)c(-c6cccc(S(=O)(=O)[O-])c6F)c6nc(c(-c7cccc(S(=O)(=O)[O-])c7F)c7ccc4[nH]7)C=C6)C=C5)cc3)cc2-c2cc3ccccc3s2)cc1
REMARK SMILES IDX 15 1 14 2 12 3 13 4 11 5 9 6 10 7 84 8 83 9 8 10 5 11 6 12
REMARK SMILES IDX 95 13 7 14 94 15 2 16 3 17 4 18 1 19 85 22 86 23 93 24 87 25
REMARK SMILES IDX 92 26 88 27 91 28 89 29 90 30 16 31 17 32 18 33 19 34 20 35
REMARK SMILES IDX 21 36 82 37 22 38 81 39 23 40 24 41 25 42 75 43 26 44 80 45
REMARK SMILES IDX 74 46 76 47 27 48 79 49 73 50 72 51 28 53 60 54 40 55 59 56
REMARK SMILES IDX 41 57 44 58 58 59 77 60 42 61 43 62 57 64 78 65 45 66 29 67
REMARK SMILES IDX 30 68 38 69 31 70 33 71 39 72 32 73 34 74 35 75 36 76 37 77
REMARK SMILES IDX 61 78 62 79 70 80 63 81 65 82 71 83 64 84 66 85 67 86 68 87
REMARK SMILES IDX 69 88 46 89 47 90 55 91 48 92 50 93 56 94 49 95 51 96 52 97
REMARK SMILES IDX 53 98 54 99
REMARK H PARENT 1 20 1 21 76 52 44 63
REMARK Flexibility Score: inf
ROOT
ATOM      1  C   UNL     1       2.632 -11.005   5.739  1.00  0.00     0.275 C 
ENDROOT
BRANCH   1   2
ATOM      2  O   UNL     1       2.622  -9.956   4.757  1.00  0.00    -0.457 OA
BRANCH   2   3
ATOM      3  C   UNL     1       1.881  -8.832   5.050  1.00  0.00     0.358 C 
ATOM      4  O   UNL     1       1.020  -8.790   5.921  1.00  0.00    -0.244 OA
BRANCH   3   5
ATOM      5  C   UNL     1       2.250  -7.707   4.174  1.00  0.00     0.171 A 
ATOM      6  N   UNL     1       2.036  -5.938   3.000  1.00  0.00    -0.231 N 
ATOM      7  N   UNL     1       1.700  -6.477   4.205  1.00  0.00    -0.160 NA
ATOM      8  C   UNL     1       2.742  -6.835   2.231  1.00  0.00     0.085 A 
ATOM      9  C   UNL     1       3.192  -7.784   3.128  1.00  0.00     0.068 A 
BRANCH   6  10
ATOM     10  C   UNL     1       1.645  -4.626   2.675  1.00  0.00     0.065 A 
ATOM     11  C   UNL     1       0.957  -2.015   2.048  1.00  0.00     0.082 A 
ATOM     12  C   UNL     1       0.517  -3.063   1.231  1.00  0.00     0.024 A 
ATOM     13  C   UNL     1       1.727  -2.264   3.188  1.00  0.00     0.024 A 
ATOM     14  C   UNL     1       0.884  -4.375   1.530  1.00  0.00     0.030 A 
ATOM     15  C   UNL     1       2.049  -3.581   3.519  1.00  0.00     0.030 A 
BRANCH  11  16
ATOM     16  S   UNL     1       0.514  -0.356   1.631  1.00  0.00     0.238 S 
ATOM     17  O   UNL     1       1.154   0.570   2.526  1.00  0.00    -0.207 OA
ATOM     18  O   UNL     1      -0.904  -0.312   1.337  1.00  0.00    -0.207 OA
BRANCH  16  19
ATOM     19  N   UNL     1       1.290  -0.146   0.153  1.00  0.00    -0.225 NA
ATOM     20  H   UNL     1       1.106   0.794  -0.198  1.00  0.00     0.137 HD
ATOM     21  H   UNL     1       0.940  -0.833  -0.516  1.00  0.00     0.137 HD
ENDBRANCH  16  19
ENDBRANCH  11  16
ENDBRANCH   6  10
BRANCH   8  22
ATOM     22  C   UNL     1       2.805  -7.001   0.802  1.00  0.00     0.054 A 
ATOM     23  C   UNL     1       3.954  -7.234   0.051  1.00  0.00     0.031 A 
ATOM     24  S   UNL     1       1.637  -8.138   0.151  1.00  0.00    -0.134 S 
ATOM     25  C   UNL     1       4.120  -8.683  -0.009  1.00  0.00    -0.007 A 
ATOM     26  C   UNL     1       2.902  -9.329   0.252  1.00  0.00     0.035 A 
ATOM     27  C   UNL     1       5.285  -9.476  -0.099  1.00  0.00     0.009 A 
ATOM     28  C   UNL     1       2.822 -10.690   0.576  1.00  0.00     0.019 A 
ATOM     29  C   UNL     1       5.220 -10.832   0.248  1.00  0.00     0.001 A 
ATOM     30  C   UNL     1       4.013 -11.417   0.623  1.00  0.00     0.001 A 
ENDBRANCH   8  22
ENDBRANCH   3   5
ENDBRANCH   2   3
ENDBRANCH   1   2
BRANCH   1  31
ATOM     31  C   UNL     1       3.709 -10.758   6.784  1.00  0.00     0.275 C 
BRANCH  31  32
ATOM     32  O   UNL     1       3.411  -9.581   7.524  1.00  0.00    -0.458 OA
BRANCH  32  33
ATOM     33  C   UNL     1       3.979  -8.453   7.045  1.00  0.00     0.338 C 
ATOM     34  O   UNL     1       4.549  -8.310   5.975  1.00  0.00    -0.246 OA
BRANCH  33  35
ATOM     35  C   UNL     1       3.977  -7.440   8.092  1.00  0.00     0.060 A 
ATOM     36  C   UNL     1       4.368  -6.148   7.731  1.00  0.00     0.016 A 
ATOM     37  C   UNL     1       3.953  -7.886   9.418  1.00  0.00     0.016 A 
ATOM     38  C   UNL     1       4.951  -5.363   8.696  1.00  0.00     0.010 A 
ATOM     39  C   UNL     1       4.565  -7.119  10.367  1.00  0.00     0.010 A 
ATOM     40  C   UNL     1       5.122  -5.905   9.974  1.00  0.00    -0.014 A 
BRANCH  40  41
ATOM     41  C   UNL     1       5.746  -5.092  10.992  1.00  0.00     0.031 A 
ATOM     42  C   UNL     1       4.810  -4.038  11.446  1.00  0.00     0.074 A 
ATOM     43  C   UNL     1       6.944  -5.431  11.510  1.00  0.00     0.049 A 
ATOM     44  N   UNL     1       4.899  -2.764  11.249  1.00  0.00    -0.248 NA
ATOM     45  C   UNL     1       3.486  -4.465  11.944  1.00  0.00     0.031 C 
ATOM     46  C   UNL     1       7.695  -6.667  11.241  1.00  0.00     0.029 A 
ATOM     47  N   UNL     1       7.670  -4.848  12.502  1.00  0.00    -0.354 N 
ATOM     48  C   UNL     1       3.789  -2.236  11.909  1.00  0.00     0.074 A 
ATOM     49  C   UNL     1       2.839  -3.302  12.015  1.00  0.00     0.031 C 
ATOM     50  C   UNL     1       8.595  -6.864  12.229  1.00  0.00     0.029 A 
ATOM     51  C   UNL     1       8.571  -5.717  13.119  1.00  0.00     0.049 A 
ATOM     52  H   UNL     1       7.570  -3.903  12.760  1.00  0.00     0.167 HD
ATOM     53  C   UNL     1       3.938  -1.133  12.691  1.00  0.00     0.034 A 
ATOM     54  C   UNL     1       9.175  -5.540  14.320  1.00  0.00     0.034 A 
ATOM     55  C   UNL     1       5.173  -0.464  12.368  1.00  0.00     0.049 A 
ATOM     56  C   UNL     1       9.080  -4.103  14.653  1.00  0.00     0.074 A 
ATOM     57  C   UNL     1       5.669   0.282  11.323  1.00  0.00     0.029 A 
ATOM     58  N   UNL     1       6.240  -0.941  13.085  1.00  0.00    -0.354 N 
ATOM     59  N   UNL     1       9.689  -3.172  13.973  1.00  0.00    -0.248 NA
ATOM     60  C   UNL     1       7.993  -3.644  15.511  1.00  0.00     0.031 C 
ATOM     61  C   UNL     1       7.085   0.117  11.361  1.00  0.00     0.029 A 
ATOM     62  C   UNL     1       7.421  -0.675  12.459  1.00  0.00     0.049 A 
ATOM     63  H   UNL     1       6.162  -1.415  13.945  1.00  0.00     0.167 HD
ATOM     64  C   UNL     1       8.778  -2.131  13.954  1.00  0.00     0.074 A 
ATOM     65  C   UNL     1       7.861  -2.396  15.056  1.00  0.00     0.031 C 
ATOM     66  C   UNL     1       8.640  -1.351  12.845  1.00  0.00     0.034 A 
BRANCH  53  67
ATOM     67  C   UNL     1       3.332  -0.960  14.081  1.00  0.00     0.023 A 
ATOM     68  C   UNL     1       3.625   0.257  14.740  1.00  0.00     0.012 A 
ATOM     69  C   UNL     1       2.785  -1.992  14.883  1.00  0.00     0.148 A 
ATOM     70  C   UNL     1       3.457   0.411  16.121  1.00  0.00     0.002 A 
ATOM     71  C   UNL     1       2.568  -1.817  16.246  1.00  0.00     0.091 A 
ATOM     72  F   UNL     1       2.567  -3.204  14.378  1.00  0.00    -0.205 F 
ATOM     73  C   UNL     1       2.931  -0.628  16.876  1.00  0.00     0.022 A 
BRANCH  71  74
ATOM     74  S   UNL     1       1.881  -3.129  17.272  1.00  0.00     0.127 S 
ATOM     75  O   UNL     1       3.026  -3.472  18.110  1.00  0.00    -0.237 OA
ATOM     76  O   UNL     1       0.796  -2.427  17.957  1.00  0.00    -0.237 OA
ATOM     77  O   UNL     1       1.435  -4.167  16.351  1.00  0.00    -0.744 OA
ENDBRANCH  71  74
ENDBRANCH  53  67
BRANCH  54  78
ATOM     78  C   UNL     1       9.611  -6.538  15.326  1.00  0.00     0.023 A 
ATOM     79  C   UNL     1      10.606  -6.205  16.268  1.00  0.00     0.012 A 
ATOM     80  C   UNL     1       8.862  -7.716  15.540  1.00  0.00     0.148 A 
ATOM     81  C   UNL     1      10.826  -7.002  17.400  1.00  0.00     0.002 A 
ATOM     82  C   UNL     1       9.088  -8.509  16.662  1.00  0.00     0.091 A 
ATOM     83  F   UNL     1       7.872  -8.009  14.687  1.00  0.00    -0.205 F 
ATOM     84  C   UNL     1      10.062  -8.147  17.602  1.00  0.00     0.022 A 
BRANCH  82  85
ATOM     85  S   UNL     1       8.127  -9.989  17.005  1.00  0.00     0.127 S 
ATOM     86  O   UNL     1       9.177 -10.997  17.157  1.00  0.00    -0.237 OA
ATOM     87  O   UNL     1       7.443  -9.627  18.243  1.00  0.00    -0.237 OA
ATOM     88  O   UNL     1       7.267 -10.187  15.845  1.00  0.00    -0.744 OA
ENDBRANCH  82  85
ENDBRANCH  54  78
BRANCH  66  89
ATOM     89  C   UNL     1       9.789  -1.293  11.887  1.00  0.00     0.023 A 
ATOM     90  C   UNL     1      10.168  -2.365  11.056  1.00  0.00     0.012 A 
ATOM     91  C   UNL     1      10.424  -0.051  11.744  1.00  0.00     0.148 A 
ATOM     92  C   UNL     1      11.175  -2.193  10.101  1.00  0.00     0.002 A 
ATOM     93  C   UNL     1      11.384   0.130  10.763  1.00  0.00     0.091 A 
ATOM     94  F   UNL     1      10.048   0.947  12.559  1.00  0.00    -0.205 F 
ATOM     95  C   UNL     1      11.771  -0.941   9.944  1.00  0.00     0.022 A 
BRANCH  93  96
ATOM     96  S   UNL     1      12.083   1.748  10.441  1.00  0.00     0.127 S 
ATOM     97  O   UNL     1      13.431   1.612  10.988  1.00  0.00    -0.237 OA
ATOM     98  O   UNL     1      12.018   1.830   8.981  1.00  0.00    -0.237 OA
ATOM     99  O   UNL     1      11.221   2.703  11.128  1.00  0.00    -0.744 OA
ENDBRANCH  93  96
ENDBRANCH  66  89
ENDBRANCH  40  41
ENDBRANCH  33  35
ENDBRANCH  32  33
ENDBRANCH  31  32
ENDBRANCH   1  31
TORSDOF 18
