REMARK SMILES [NH3+][C@H](Cc1cc(F)c(F)c(F)c1)C(=O)OCCOC(=O)c1ccc(-c2c3nc(c(-c4cccc(S(=O)(=O)[O-])c4F)c4ccc([nH]4)c(-c4cccc(S(=O)(=O)[O-])c4F)c4nc(c(-c5cccc(S(=O)(=O)[O-])c5F)c5ccc2[nH]5)C=C4)C=C3)cc1
REMARK SMILES IDX 17 1 16 2 15 3 13 4 14 5 2 6 1 7 3 11 4 12 5 13 12 14 6 15
REMARK SMILES IDX 10 16 7 17 8 18 11 19 9 20 18 21 19 22 20 23 21 24 22 25
REMARK SMILES IDX 83 26 23 27 82 28 24 29 25 30 26 31 76 32 27 33 81 34 75 35
REMARK SMILES IDX 77 36 28 37 80 38 74 39 73 40 29 42 61 43 41 44 60 45 42 46
REMARK SMILES IDX 45 47 59 48 78 49 43 50 44 51 58 53 79 54 46 55 30 56 31 57
REMARK SMILES IDX 39 58 32 59 34 60 40 61 33 62 35 63 36 64 37 65 38 66 62 67
REMARK SMILES IDX 63 68 71 69 64 70 66 71 72 72 65 73 67 74 68 75 69 76 70 77
REMARK SMILES IDX 47 78 48 79 56 80 49 81 51 82 57 83 50 84 52 85 53 86 54 87
REMARK SMILES IDX 55 88
REMARK H PARENT 1 8 1 9 1 10 77 41 45 52
REMARK Flexibility Score: inf
ROOT
ATOM      1  C   UNL     1      -3.618   0.151   0.385  1.00  0.00     0.275 C 
ENDROOT
BRANCH   1   2
ATOM      2  C   UNL     1      -3.124   0.226  -1.066  1.00  0.00     0.274 C 
BRANCH   2   3
ATOM      3  O   UNL     1      -1.688   0.144  -1.186  1.00  0.00    -0.458 OA
BRANCH   3   4
ATOM      4  C   UNL     1      -1.044   1.345  -1.232  1.00  0.00     0.365 C 
ATOM      5  O   UNL     1      -1.606   2.433  -1.157  1.00  0.00    -0.245 OA
BRANCH   4   6
ATOM      6  C   UNL     1       0.469   1.206  -1.464  1.00  0.00     0.296 C 
BRANCH   6   7
ATOM      7  N   UNL     1       0.728   1.175  -2.923  1.00  0.00    -0.346 N 
ATOM      8  H   UNL     1       0.286   1.982  -3.364  1.00  0.00     0.345 HD
ATOM      9  H   UNL     1       0.341   0.318  -3.318  1.00  0.00     0.345 HD
ATOM     10  H   UNL     1       1.733   1.203  -3.091  1.00  0.00     0.345 HD
ENDBRANCH   6   7
BRANCH   6  11
ATOM     11  C   UNL     1       1.103   0.016  -0.711  1.00  0.00     0.113 C 
BRANCH  11  12
ATOM     12  C   UNL     1       2.607   0.144  -0.557  1.00  0.00    -0.035 A 
ATOM     13  C   UNL     1       3.466  -0.099  -1.640  1.00  0.00     0.046 A 
ATOM     14  C   UNL     1       3.169   0.537   0.669  1.00  0.00     0.046 A 
ATOM     15  C   UNL     1       4.841   0.093  -1.507  1.00  0.00     0.162 A 
ATOM     16  C   UNL     1       4.551   0.707   0.788  1.00  0.00     0.162 A 
ATOM     17  F   UNL     1       5.631  -0.116  -2.569  1.00  0.00    -0.204 F 
ATOM     18  C   UNL     1       5.387   0.498  -0.299  1.00  0.00     0.194 A 
ATOM     19  F   UNL     1       5.065   1.077   1.968  1.00  0.00    -0.204 F 
ATOM     20  F   UNL     1       6.710   0.678  -0.184  1.00  0.00    -0.200 F 
ENDBRANCH  11  12
ENDBRANCH   6  11
ENDBRANCH   4   6
ENDBRANCH   3   4
ENDBRANCH   2   3
ENDBRANCH   1   2
BRANCH   1  21
ATOM     21  O   UNL     1      -3.204   1.282   1.173  1.00  0.00    -0.458 OA
BRANCH  21  22
ATOM     22  C   UNL     1      -2.012   1.123   1.793  1.00  0.00     0.338 C 
ATOM     23  O   UNL     1      -1.312   0.123   1.776  1.00  0.00    -0.246 OA
BRANCH  22  24
ATOM     24  C   UNL     1      -1.556   2.383   2.405  1.00  0.00     0.060 A 
ATOM     25  C   UNL     1      -0.256   2.804   2.105  1.00  0.00     0.016 A 
ATOM     26  C   UNL     1      -2.324   3.070   3.346  1.00  0.00     0.016 A 
ATOM     27  C   UNL     1       0.303   3.883   2.781  1.00  0.00     0.010 A 
ATOM     28  C   UNL     1      -1.760   4.157   4.026  1.00  0.00     0.010 A 
ATOM     29  C   UNL     1      -0.431   4.543   3.773  1.00  0.00    -0.014 A 
BRANCH  29  30
ATOM     30  C   UNL     1       0.255   5.551   4.617  1.00  0.00     0.031 A 
ATOM     31  C   UNL     1       0.691   5.177   6.007  1.00  0.00     0.074 A 
ATOM     32  C   UNL     1       0.534   6.772   4.125  1.00  0.00     0.049 A 
ATOM     33  N   UNL     1       1.340   5.890   6.890  1.00  0.00    -0.248 NA
ATOM     34  C   UNL     1       0.351   3.820   6.465  1.00  0.00     0.031 C 
ATOM     35  C   UNL     1       0.171   7.247   2.791  1.00  0.00     0.029 A 
ATOM     36  N   UNL     1       1.187   7.836   4.696  1.00  0.00    -0.354 N 
ATOM     37  C   UNL     1       1.455   5.087   8.018  1.00  0.00     0.074 A 
ATOM     38  C   UNL     1       0.803   3.832   7.711  1.00  0.00     0.031 C 
ATOM     39  C   UNL     1       0.605   8.511   2.645  1.00  0.00     0.029 A 
ATOM     40  C   UNL     1       1.258   8.940   3.880  1.00  0.00     0.049 A 
ATOM     41  H   UNL     1       1.568   7.810   5.603  1.00  0.00     0.167 HD
ATOM     42  C   UNL     1       2.063   5.360   9.196  1.00  0.00     0.034 A 
ATOM     43  C   UNL     1       1.791  10.157   4.105  1.00  0.00     0.034 A 
ATOM     44  C   UNL     1       2.750   6.590   9.484  1.00  0.00     0.049 A 
ATOM     45  C   UNL     1       2.479  10.425   5.417  1.00  0.00     0.074 A 
ATOM     46  C   UNL     1       3.432   6.946  10.635  1.00  0.00     0.029 A 
ATOM     47  N   UNL     1       2.847   7.663   8.613  1.00  0.00    -0.354 N 
ATOM     48  N   UNL     1       2.675   9.615   6.430  1.00  0.00    -0.248 NA
ATOM     49  C   UNL     1       3.055  11.766   5.603  1.00  0.00     0.031 C 
ATOM     50  C   UNL     1       3.935   8.240  10.462  1.00  0.00     0.029 A 
ATOM     51  C   UNL     1       3.577   8.684   9.198  1.00  0.00     0.049 A 
ATOM     52  H   UNL     1       2.455   7.696   7.711  1.00  0.00     0.167 HD
ATOM     53  C   UNL     1       3.428  10.332   7.353  1.00  0.00     0.074 A 
ATOM     54  C   UNL     1       3.669  11.637   6.772  1.00  0.00     0.031 C 
ATOM     55  C   UNL     1       3.868   9.951   8.578  1.00  0.00     0.034 A 
BRANCH  42  56
ATOM     56  C   UNL     1       2.039   4.292  10.256  1.00  0.00     0.023 A 
ATOM     57  C   UNL     1       2.880   3.168  10.130  1.00  0.00     0.012 A 
ATOM     58  C   UNL     1       1.220   4.420  11.394  1.00  0.00     0.148 A 
ATOM     59  C   UNL     1       2.885   2.173  11.108  1.00  0.00     0.002 A 
ATOM     60  C   UNL     1       1.259   3.443  12.383  1.00  0.00     0.091 A 
ATOM     61  F   UNL     1       0.406   5.482  11.482  1.00  0.00    -0.205 F 
ATOM     62  C   UNL     1       2.084   2.316  12.238  1.00  0.00     0.022 A 
BRANCH  60  63
ATOM     63  S   UNL     1       0.312   3.578  13.903  1.00  0.00     0.127 S 
ATOM     64  O   UNL     1      -0.785   2.645  13.652  1.00  0.00    -0.237 OA
ATOM     65  O   UNL     1       1.273   3.131  14.912  1.00  0.00    -0.237 OA
ATOM     66  O   UNL     1      -0.066   4.981  14.012  1.00  0.00    -0.744 OA
ENDBRANCH  60  63
ENDBRANCH  42  56
BRANCH  43  67
ATOM     67  C   UNL     1       1.756  11.193   3.035  1.00  0.00     0.023 A 
ATOM     68  C   UNL     1       2.954  11.564   2.393  1.00  0.00     0.012 A 
ATOM     69  C   UNL     1       0.548  11.796   2.635  1.00  0.00     0.148 A 
ATOM     70  C   UNL     1       2.953  12.535   1.391  1.00  0.00     0.002 A 
ATOM     71  C   UNL     1       0.546  12.725   1.601  1.00  0.00     0.091 A 
ATOM     72  F   UNL     1      -0.578  11.447   3.273  1.00  0.00    -0.205 F 
ATOM     73  C   UNL     1       1.749  13.107   0.988  1.00  0.00     0.022 A 
BRANCH  71  74
ATOM     74  S   UNL     1      -0.973  13.417   0.939  1.00  0.00     0.127 S 
ATOM     75  O   UNL     1      -0.956  14.767   1.496  1.00  0.00    -0.237 OA
ATOM     76  O   UNL     1      -0.740  13.344  -0.504  1.00  0.00    -0.237 OA
ATOM     77  O   UNL     1      -2.038  12.544   1.416  1.00  0.00    -0.744 OA
ENDBRANCH  71  74
ENDBRANCH  43  67
BRANCH  55  78
ATOM     78  C   UNL     1       4.691  10.937   9.364  1.00  0.00     0.023 A 
ATOM     79  C   UNL     1       4.066  12.047   9.965  1.00  0.00     0.012 A 
ATOM     80  C   UNL     1       6.069  10.725   9.567  1.00  0.00     0.148 A 
ATOM     81  C   UNL     1       4.806  12.948  10.731  1.00  0.00     0.002 A 
ATOM     82  C   UNL     1       6.791  11.603  10.368  1.00  0.00     0.091 A 
ATOM     83  F   UNL     1       6.654   9.677   8.969  1.00  0.00    -0.205 F 
ATOM     84  C   UNL     1       6.164  12.720  10.942  1.00  0.00     0.022 A 
BRANCH  82  85
ATOM     85  S   UNL     1       8.521  11.321  10.761  1.00  0.00     0.127 S 
ATOM     86  O   UNL     1       9.194  12.182   9.791  1.00  0.00    -0.237 OA
ATOM     87  O   UNL     1       8.612  11.779  12.148  1.00  0.00    -0.237 OA
ATOM     88  O   UNL     1       8.731   9.889  10.592  1.00  0.00    -0.744 OA
ENDBRANCH  82  85
ENDBRANCH  55  78
ENDBRANCH  29  30
ENDBRANCH  22  24
ENDBRANCH  21  22
ENDBRANCH   1  21
TORSDOF 17
