REMARK SMILES CCOc1cnc(C(=O)c2[nH]c3cc(Cl)ccc3c2CC(=O)OCCOC(=O)c2ccc(-c3c4nc(c(-c5cccc(S(=O)(=O)[O-])c5F)c5ccc([nH]5)c(-c5cccc(S(=O)(=O)[O-])c5F)c5nc(c(-c6cccc(S(=O)(=O)[O-])c6F)c6ccc3[nH]6)C=C5)C=C4)cc2)cc1CC
REMARK SMILES IDX 24 1 23 2 21 3 22 4 20 5 19 6 10 7 11 8 12 9 18 11 13 12
REMARK SMILES IDX 17 13 14 14 16 15 15 16 8 17 9 18 7 19 4 20 5 21 93 22 6 23
REMARK SMILES IDX 92 24 3 25 2 26 1 27 94 28 95 29 25 30 26 31 27 32 28 33
REMARK SMILES IDX 29 34 30 35 91 36 31 37 90 38 32 39 33 40 34 41 84 42 35 43
REMARK SMILES IDX 89 44 83 45 85 46 36 47 88 48 82 49 81 50 37 52 69 53 49 54
REMARK SMILES IDX 68 55 50 56 53 57 67 58 86 59 51 60 52 61 66 63 87 64 54 65
REMARK SMILES IDX 38 66 39 67 47 68 40 69 42 70 48 71 41 72 43 73 44 74 45 75
REMARK SMILES IDX 46 76 70 77 71 78 79 79 72 80 74 81 80 82 73 83 75 84 76 85
REMARK SMILES IDX 77 86 78 87 55 88 56 89 64 90 57 91 59 92 65 93 58 94 60 95
REMARK SMILES IDX 61 96 62 97 63 98
REMARK H PARENT 11 10 85 51 53 62
REMARK Flexibility Score: inf
ROOT
ATOM      1  C   UNL     1      10.592  -0.946  -5.437  1.00  0.00     0.274 C 
ENDROOT
BRANCH   1   2
ATOM      2  O   UNL     1       9.984  -1.070  -4.132  1.00  0.00    -0.462 OA
BRANCH   2   3
ATOM      3  C   UNL     1       9.821   0.078  -3.428  1.00  0.00     0.310 C 
ATOM      4  O   UNL     1      10.339   1.151  -3.733  1.00  0.00    -0.252 OA
BRANCH   3   5
ATOM      5  C   UNL     1       8.820  -0.012  -2.294  1.00  0.00     0.161 C 
BRANCH   5   6
ATOM      6  C   UNL     1       8.639  -1.333  -1.613  1.00  0.00     0.000 A 
ATOM      7  C   UNL     1       7.680  -2.311  -1.869  1.00  0.00     0.093 A 
ATOM      8  N   UNL     1       7.919  -3.349  -0.999  1.00  0.00    -0.351 N 
ATOM      9  C   UNL     1       8.817  -2.974  -0.035  1.00  0.00     0.048 A 
ATOM     10  H   UNL     1       7.503  -4.239  -1.061  1.00  0.00     0.167 HD
ATOM     11  C   UNL     1       9.349  -1.750  -0.433  1.00  0.00     0.004 A 
ATOM     12  C   UNL     1       9.190  -3.624   1.146  1.00  0.00     0.047 A 
ATOM     13  C   UNL     1      10.354  -1.166   0.367  1.00  0.00     0.012 A 
ATOM     14  C   UNL     1      10.157  -3.003   1.938  1.00  0.00     0.043 A 
ATOM     15  C   UNL     1      10.746  -1.801   1.554  1.00  0.00     0.021 A 
ATOM     16  Cl  UNL     1      10.622  -3.740   3.424  1.00  0.00    -0.084 Cl
BRANCH   7  17
ATOM     17  C   UNL     1       6.562  -2.410  -2.801  1.00  0.00     0.227 C 
ATOM     18  O   UNL     1       6.536  -3.300  -3.651  1.00  0.00    -0.285 OA
BRANCH  17  19
ATOM     19  C   UNL     1       5.285  -1.664  -2.471  1.00  0.00     0.113 A 
ATOM     20  C   UNL     1       2.681  -1.127  -1.758  1.00  0.00     0.140 A 
ATOM     21  C   UNL     1       3.088  -1.261  -3.081  1.00  0.00     0.158 A 
ATOM     22  C   UNL     1       3.638  -1.253  -0.751  1.00  0.00    -0.002 A 
ATOM     23  N   UNL     1       4.360  -1.544  -3.459  1.00  0.00    -0.249 NA
ATOM     24  C   UNL     1       4.974  -1.448  -1.127  1.00  0.00     0.040 A 
BRANCH  20  25
ATOM     25  O   UNL     1       1.356  -1.074  -1.440  1.00  0.00    -0.492 OA
BRANCH  25  26
ATOM     26  C   UNL     1       0.808   0.246  -1.542  1.00  0.00     0.226 C 
ATOM     27  C   UNL     1       0.302   0.672  -0.174  1.00  0.00     0.049 C 
ENDBRANCH  25  26
ENDBRANCH  20  25
BRANCH  22  28
ATOM     28  C   UNL     1       3.268  -1.332   0.710  1.00  0.00     0.036 C 
ATOM     29  C   UNL     1       3.582  -2.708   1.289  1.00  0.00     0.009 C 
ENDBRANCH  22  28
ENDBRANCH  17  19
ENDBRANCH   7  17
ENDBRANCH   5   6
ENDBRANCH   3   5
ENDBRANCH   2   3
ENDBRANCH   1   2
BRANCH   1  30
ATOM     30  C   UNL     1       9.555  -1.129  -6.558  1.00  0.00     0.275 C 
BRANCH  30  31
ATOM     31  O   UNL     1       8.640  -0.017  -6.661  1.00  0.00    -0.458 OA
BRANCH  31  32
ATOM     32  C   UNL     1       7.598  -0.103  -5.812  1.00  0.00     0.338 C 
ATOM     33  O   UNL     1       7.420  -0.971  -4.968  1.00  0.00    -0.246 OA
BRANCH  32  34
ATOM     34  C   UNL     1       6.685   1.031  -5.872  1.00  0.00     0.060 A 
ATOM     35  C   UNL     1       6.702   1.926  -4.800  1.00  0.00     0.016 A 
ATOM     36  C   UNL     1       5.654   1.051  -6.811  1.00  0.00     0.016 A 
ATOM     37  C   UNL     1       5.647   2.811  -4.627  1.00  0.00     0.010 A 
ATOM     38  C   UNL     1       4.628   1.988  -6.671  1.00  0.00     0.010 A 
ATOM     39  C   UNL     1       4.606   2.856  -5.566  1.00  0.00    -0.014 A 
BRANCH  39  40
ATOM     40  C   UNL     1       3.546   3.880  -5.423  1.00  0.00     0.031 A 
ATOM     41  C   UNL     1       2.129   3.506  -5.104  1.00  0.00     0.074 A 
ATOM     42  C   UNL     1       3.889   5.168  -5.606  1.00  0.00     0.049 A 
ATOM     43  N   UNL     1       1.093   4.288  -4.948  1.00  0.00    -0.248 NA
ATOM     44  C   UNL     1       1.829   2.075  -4.936  1.00  0.00     0.031 C 
ATOM     45  C   UNL     1       5.235   5.636  -5.949  1.00  0.00     0.029 A 
ATOM     46  N   UNL     1       3.139   6.313  -5.556  1.00  0.00    -0.354 N 
ATOM     47  C   UNL     1       0.018   3.453  -4.678  1.00  0.00     0.074 A 
ATOM     48  C   UNL     1       0.521   2.096  -4.706  1.00  0.00     0.031 C 
ATOM     49  C   UNL     1       5.212   6.967  -6.095  1.00  0.00     0.029 A 
ATOM     50  C   UNL     1       3.847   7.440  -5.899  1.00  0.00     0.049 A 
ATOM     51  H   UNL     1       2.189   6.327  -5.300  1.00  0.00     0.167 HD
ATOM     52  C   UNL     1      -1.264   3.793  -4.406  1.00  0.00     0.034 A 
ATOM     53  C   UNL     1       3.438   8.711  -6.070  1.00  0.00     0.034 A 
ATOM     54  C   UNL     1      -1.753   5.145  -4.374  1.00  0.00     0.049 A 
ATOM     55  C   UNL     1       2.002   9.051  -5.811  1.00  0.00     0.074 A 
ATOM     56  C   UNL     1      -3.022   5.592  -4.050  1.00  0.00     0.029 A 
ATOM     57  N   UNL     1      -1.004   6.265  -4.699  1.00  0.00    -0.354 N 
ATOM     58  N   UNL     1       1.035   8.266  -5.401  1.00  0.00    -0.248 NA
ATOM     59  C   UNL     1       1.602  10.449  -6.011  1.00  0.00     0.031 C 
ATOM     60  C   UNL     1      -3.042   6.984  -4.190  1.00  0.00     0.029 A 
ATOM     61  C   UNL     1      -1.787   7.402  -4.603  1.00  0.00     0.049 A 
ATOM     62  H   UNL     1      -0.055   6.253  -4.959  1.00  0.00     0.167 HD
ATOM     63  C   UNL     1      -0.085   9.077  -5.278  1.00  0.00     0.074 A 
ATOM     64  C   UNL     1       0.330  10.419  -5.634  1.00  0.00     0.031 C 
ATOM     65  C   UNL     1      -1.347   8.736  -4.920  1.00  0.00     0.034 A 
BRANCH  52  66
ATOM     66  C   UNL     1      -2.223   2.694  -4.046  1.00  0.00     0.023 A 
ATOM     67  C   UNL     1      -2.282   2.263  -2.707  1.00  0.00     0.012 A 
ATOM     68  C   UNL     1      -3.118   2.155  -4.987  1.00  0.00     0.148 A 
ATOM     69  C   UNL     1      -3.205   1.296  -2.311  1.00  0.00     0.002 A 
ATOM     70  C   UNL     1      -4.056   1.211  -4.580  1.00  0.00     0.091 A 
ATOM     71  F   UNL     1      -3.031   2.560  -6.263  1.00  0.00    -0.205 F 
ATOM     72  C   UNL     1      -4.098   0.777  -3.244  1.00  0.00     0.022 A 
BRANCH  70  73
ATOM     73  S   UNL     1      -5.282   0.548  -5.713  1.00  0.00     0.127 S 
ATOM     74  O   UNL     1      -4.638  -0.687  -6.156  1.00  0.00    -0.237 OA
ATOM     75  O   UNL     1      -6.446   0.352  -4.847  1.00  0.00    -0.237 OA
ATOM     76  O   UNL     1      -5.460   1.576  -6.730  1.00  0.00    -0.744 OA
ENDBRANCH  70  73
ENDBRANCH  52  66
BRANCH  53  77
ATOM     77  C   UNL     1       4.432   9.739  -6.478  1.00  0.00     0.023 A 
ATOM     78  C   UNL     1       4.865  10.695  -5.543  1.00  0.00     0.012 A 
ATOM     79  C   UNL     1       5.025   9.706  -7.756  1.00  0.00     0.148 A 
ATOM     80  C   UNL     1       5.869  11.606  -5.875  1.00  0.00     0.002 A 
ATOM     81  C   UNL     1       6.064  10.577  -8.060  1.00  0.00     0.091 A 
ATOM     82  F   UNL     1       4.583   8.802  -8.643  1.00  0.00    -0.205 F 
ATOM     83  C   UNL     1       6.480  11.536  -7.126  1.00  0.00     0.022 A 
BRANCH  81  84
ATOM     84  S   UNL     1       6.993  10.425  -9.591  1.00  0.00     0.127 S 
ATOM     85  O   UNL     1       6.327  11.403 -10.446  1.00  0.00    -0.237 OA
ATOM     86  O   UNL     1       8.348  10.791  -9.175  1.00  0.00    -0.237 OA
ATOM     87  O   UNL     1       6.852   9.027  -9.978  1.00  0.00    -0.744 OA
ENDBRANCH  81  84
ENDBRANCH  53  77
BRANCH  65  88
ATOM     88  C   UNL     1      -2.376   9.830  -4.899  1.00  0.00     0.023 A 
ATOM     89  C   UNL     1      -2.922  10.283  -6.115  1.00  0.00     0.012 A 
ATOM     90  C   UNL     1      -2.856  10.353  -3.684  1.00  0.00     0.148 A 
ATOM     91  C   UNL     1      -3.920  11.256  -6.123  1.00  0.00     0.002 A 
ATOM     92  C   UNL     1      -3.878  11.296  -3.698  1.00  0.00     0.091 A 
ATOM     93  F   UNL     1      -2.305   9.928  -2.537  1.00  0.00    -0.205 F 
ATOM     94  C   UNL     1      -4.407  11.753  -4.915  1.00  0.00     0.022 A 
BRANCH  92  95
ATOM     95  S   UNL     1      -4.610  11.910  -2.176  1.00  0.00     0.127 S 
ATOM     96  O   UNL     1      -3.867  13.150  -1.965  1.00  0.00    -0.237 OA
ATOM     97  O   UNL     1      -6.013  12.096  -2.548  1.00  0.00    -0.237 OA
ATOM     98  O   UNL     1      -4.389  10.860  -1.190  1.00  0.00    -0.744 OA
ENDBRANCH  92  95
ENDBRANCH  65  88
ENDBRANCH  39  40
ENDBRANCH  32  34
ENDBRANCH  31  32
ENDBRANCH  30  31
ENDBRANCH   1  30
TORSDOF 20
