REMARK SMILES Cc1ccc(C(C)C)c(OCC(=O)Nc2nc(CC(=O)OCCOC(=O)c3ccc(-c4c5nc(c(-c6cccc(S(=O)(=O)[O-])c6F)c6ccc([nH]6)c(-c6cccc(S(=O)(=O)[O-])c6F)c6nc(c(-c7cccc(S(=O)(=O)[O-])c7F)c7ccc4[nH]7)C=C6)C=C5)cc3)cs2)c1
REMARK SMILES IDX 21 1 19 2 20 3 18 4 17 5 15 6 16 7 91 8 90 9 14 10 12 11
REMARK SMILES IDX 13 12 11 14 10 15 9 16 1 17 2 18 3 19 92 20 4 21 5 22 6 23
REMARK SMILES IDX 7 24 8 25 22 26 23 27 24 28 25 29 26 30 27 31 28 32 89 33
REMARK SMILES IDX 29 34 88 35 30 36 31 37 32 38 82 39 33 40 87 41 81 42 83 43
REMARK SMILES IDX 34 44 86 45 80 46 79 47 35 49 67 50 47 51 66 52 48 53 51 54
REMARK SMILES IDX 65 55 84 56 49 57 50 58 64 60 85 61 52 62 36 63 37 64 45 65
REMARK SMILES IDX 38 66 40 67 46 68 39 69 41 70 42 71 43 72 44 73 68 74 69 75
REMARK SMILES IDX 77 76 70 77 72 78 78 79 71 80 73 81 74 82 75 83 76 84 53 85
REMARK SMILES IDX 54 86 62 87 55 88 57 89 63 90 56 91 58 92 59 93 60 94 61 95
REMARK H PARENT 14 13 83 48 51 59
REMARK Flexibility Score: inf
ROOT
ATOM      1  O   UNL     1      -6.373  -0.595   4.671  1.00  0.00    -0.462 OA
ENDROOT
BRANCH   1   2
ATOM      2  C   UNL     1      -6.661   0.318   3.593  1.00  0.00     0.312 C 
ATOM      3  O   UNL     1      -7.925   0.368   3.542  1.00  0.00    -0.252 OA
BRANCH   2   4
ATOM      4  C   UNL     1      -5.146   1.391   2.452  1.00  0.00     0.179 C 
BRANCH   4   5
ATOM      5  C   UNL     1      -4.028   2.700   2.835  1.00  0.00     0.065 A 
ATOM      6  C   UNL     1      -1.988   3.617   2.738  1.00  0.00     0.189 A 
ATOM      7  N   UNL     1      -2.704   2.599   2.328  1.00  0.00    -0.224 NA
ATOM      8  S   UNL     1      -2.795   4.753   3.719  1.00  0.00    -0.105 S 
ATOM      9  C   UNL     1      -4.275   3.971   3.347  1.00  0.00     0.093 A 
BRANCH   6  10
ATOM     10  N   UNL     1      -0.668   3.919   2.577  1.00  0.00    -0.299 N 
ATOM     11  C   UNL     1       0.058   3.954   1.428  1.00  0.00     0.264 C 
ATOM     12  O   UNL     1       1.256   4.259   1.525  1.00  0.00    -0.271 OA
ATOM     13  H   UNL     1      -0.177   4.140   3.401  1.00  0.00     0.172 HD
BRANCH  11  14
ATOM     14  C   UNL     1      -0.603   3.888   0.046  1.00  0.00     0.329 C 
BRANCH  14  15
ATOM     15  O   UNL     1      -1.000   2.697  -0.560  1.00  0.00    -0.483 OA
BRANCH  15  16
ATOM     16  C   UNL     1      -0.186   1.609  -0.486  1.00  0.00     0.123 A 
ATOM     17  C   UNL     1       3.389   0.360  -0.080  1.00  0.00     0.044 C 
ATOM     18  C   UNL     1       1.909   0.414  -0.280  1.00  0.00    -0.047 A 
ATOM     19  C   UNL     1       1.223  -0.796  -0.342  1.00  0.00     0.004 A 
ATOM     20  C   UNL     1       1.204   1.621  -0.407  1.00  0.00     0.050 A 
ATOM     21  C   UNL     1      -0.146  -0.811  -0.511  1.00  0.00     0.008 A 
ATOM     22  C   UNL     1      -0.866   0.390  -0.507  1.00  0.00    -0.003 A 
BRANCH  22  23
ATOM     23  C   UNL     1      -2.359   0.375  -0.325  1.00  0.00     0.017 C 
ATOM     24  C   UNL     1      -3.133   0.111  -1.610  1.00  0.00     0.012 C 
ATOM     25  C   UNL     1      -2.643  -0.559   0.834  1.00  0.00     0.012 C 
ENDBRANCH  22  23
ENDBRANCH  15  16
ENDBRANCH  14  15
ENDBRANCH  11  14
ENDBRANCH   6  10
ENDBRANCH   4   5
ENDBRANCH   2   4
ENDBRANCH   1   2
BRANCH   1  26
ATOM     26  C   UNL     1      -7.322  -0.634   5.741  1.00  0.00     0.274 C 
BRANCH  26  27
ATOM     27  C   UNL     1      -7.068   0.590   6.625  1.00  0.00     0.275 C 
BRANCH  27  28
ATOM     28  O   UNL     1      -7.550   1.866   6.106  1.00  0.00    -0.458 OA
BRANCH  28  29
ATOM     29  C   UNL     1      -6.836   2.753   5.353  1.00  0.00     0.338 C 
ATOM     30  O   UNL     1      -6.949   3.965   5.466  1.00  0.00    -0.246 OA
BRANCH  29  31
ATOM     31  C   UNL     1      -6.135   2.184   4.180  1.00  0.00     0.060 A 
ATOM     32  C   UNL     1      -7.085   2.139   2.638  1.00  0.00     0.016 A 
ATOM     33  C   UNL     1      -4.839   0.962   4.481  1.00  0.00     0.016 A 
ATOM     34  C   UNL     1      -6.919   0.686   1.539  1.00  0.00     0.010 A 
ATOM     35  C   UNL     1      -4.665  -0.448   3.366  1.00  0.00     0.010 A 
ATOM     36  C   UNL     1      -5.784  -0.634   1.961  1.00  0.00    -0.014 A 
BRANCH  36  37
ATOM     37  C   UNL     1      -6.041  -2.066   1.658  1.00  0.00     0.031 A 
ATOM     38  C   UNL     1      -4.998  -2.849   0.962  1.00  0.00     0.074 A 
ATOM     39  C   UNL     1      -7.101  -2.704   2.197  1.00  0.00     0.049 A 
ATOM     40  N   UNL     1      -4.191  -3.726   1.473  1.00  0.00    -0.248 NA
ATOM     41  C   UNL     1      -4.774  -2.542  -0.452  1.00  0.00     0.031 C 
ATOM     42  C   UNL     1      -7.284  -4.144   2.321  1.00  0.00     0.029 A 
ATOM     43  N   UNL     1      -8.345  -2.189   2.559  1.00  0.00    -0.354 N 
ATOM     44  C   UNL     1      -3.348  -4.146   0.437  1.00  0.00     0.074 A 
ATOM     45  C   UNL     1      -3.661  -3.241  -0.678  1.00  0.00     0.031 C 
ATOM     46  C   UNL     1      -8.600  -4.406   2.409  1.00  0.00     0.029 A 
ATOM     47  C   UNL     1      -9.301  -3.148   2.197  1.00  0.00     0.049 A 
ATOM     48  H   UNL     1      -8.518  -1.320   2.987  1.00  0.00     0.167 HD
ATOM     49  C   UNL     1      -3.321  -5.451   0.050  1.00  0.00     0.034 A 
ATOM     50  C   UNL     1     -10.238  -2.928   1.226  1.00  0.00     0.034 A 
ATOM     51  C   UNL     1      -4.643  -6.036  -0.082  1.00  0.00     0.049 A 
ATOM     52  C   UNL     1      -9.966  -3.816   0.017  1.00  0.00     0.074 A 
ATOM     53  C   UNL     1      -5.430  -6.813   0.742  1.00  0.00     0.029 A 
ATOM     54  N   UNL     1      -5.453  -5.636  -1.141  1.00  0.00    -0.354 N 
ATOM     55  N   UNL     1      -8.829  -4.413  -0.223  1.00  0.00    -0.248 NA
ATOM     56  C   UNL     1     -10.959  -4.077  -1.017  1.00  0.00     0.031 C 
ATOM     57  C   UNL     1      -6.750  -6.798   0.213  1.00  0.00     0.029 A 
ATOM     58  C   UNL     1      -6.758  -6.054  -0.958  1.00  0.00     0.049 A 
ATOM     59  H   UNL     1      -5.138  -5.121  -1.919  1.00  0.00     0.167 HD
ATOM     60  C   UNL     1      -8.893  -5.085  -1.418  1.00  0.00     0.074 A 
ATOM     61  C   UNL     1     -10.262  -4.857  -1.859  1.00  0.00     0.031 C 
ATOM     62  C   UNL     1      -7.810  -5.753  -1.935  1.00  0.00     0.034 A 
BRANCH  49  63
ATOM     63  C   UNL     1      -1.984  -6.143  -0.076  1.00  0.00     0.023 A 
ATOM     64  C   UNL     1      -1.979  -7.545  -0.206  1.00  0.00     0.012 A 
ATOM     65  C   UNL     1      -0.717  -5.492  -0.046  1.00  0.00     0.148 A 
ATOM     66  C   UNL     1      -0.788  -8.279  -0.267  1.00  0.00     0.002 A 
ATOM     67  C   UNL     1       0.474  -6.231  -0.111  1.00  0.00     0.091 A 
ATOM     68  F   UNL     1      -0.672  -4.156   0.058  1.00  0.00    -0.205 F 
ATOM     69  C   UNL     1       0.435  -7.625  -0.215  1.00  0.00     0.022 A 
BRANCH  67  70
ATOM     70  S   UNL     1       2.121  -5.497  -0.063  1.00  0.00     0.127 S 
ATOM     71  O   UNL     1       2.611  -5.922   1.248  1.00  0.00    -0.237 OA
ATOM     72  O   UNL     1       2.794  -6.136  -1.194  1.00  0.00    -0.237 OA
ATOM     73  O   UNL     1       1.927  -4.063  -0.212  1.00  0.00    -0.744 OA
ENDBRANCH  67  70
ENDBRANCH  49  63
BRANCH  50  74
ATOM     74  C   UNL     1     -10.717  -1.511   1.124  1.00  0.00     0.023 A 
ATOM     75  C   UNL     1     -11.124  -0.864   2.317  1.00  0.00     0.012 A 
ATOM     76  C   UNL     1     -10.425  -0.723   0.004  1.00  0.00     0.148 A 
ATOM     77  C   UNL     1     -11.011   0.521   2.452  1.00  0.00     0.002 A 
ATOM     78  C   UNL     1     -10.299   0.655   0.148  1.00  0.00     0.091 A 
ATOM     79  F   UNL     1     -10.200  -1.313  -1.176  1.00  0.00    -0.205 F 
ATOM     80  C   UNL     1     -10.547   1.276   1.380  1.00  0.00     0.022 A 
BRANCH  78  81
ATOM     81  S   UNL     1      -9.524   1.597  -1.176  1.00  0.00     0.127 S 
ATOM     82  O   UNL     1      -9.009   2.774  -0.475  1.00  0.00    -0.237 OA
ATOM     83  O   UNL     1      -8.483   0.701  -1.664  1.00  0.00    -0.237 OA
ATOM     84  O   UNL     1     -10.648   1.847  -2.070  1.00  0.00    -0.744 OA
ENDBRANCH  78  81
ENDBRANCH  50  74
BRANCH  62  85
ATOM     85  C   UNL     1      -7.697  -6.288  -3.366  1.00  0.00     0.023 A 
ATOM     86  C   UNL     1      -8.656  -6.006  -4.359  1.00  0.00     0.012 A 
ATOM     87  C   UNL     1      -6.576  -7.048  -3.801  1.00  0.00     0.148 A 
ATOM     88  C   UNL     1      -8.596  -6.550  -5.647  1.00  0.00     0.002 A 
ATOM     89  C   UNL     1      -6.461  -7.495  -5.117  1.00  0.00     0.091 A 
ATOM     90  F   UNL     1      -5.604  -7.367  -2.940  1.00  0.00    -0.205 F 
ATOM     91  C   UNL     1      -7.494  -7.293  -6.030  1.00  0.00     0.022 A 
BRANCH  89  92
ATOM     92  S   UNL     1      -4.958  -8.259  -5.743  1.00  0.00     0.127 S 
ATOM     93  O   UNL     1      -5.369  -9.655  -5.877  1.00  0.00    -0.237 OA
ATOM     94  O   UNL     1      -4.768  -7.553  -7.011  1.00  0.00    -0.237 OA
ATOM     95  O   UNL     1      -3.931  -7.991  -4.746  1.00  0.00    -0.744 OA
ENDBRANCH  89  92
ENDBRANCH  62  85
ENDBRANCH  36  37
ENDBRANCH  29  31
ENDBRANCH  28  29
ENDBRANCH  27  28
ENDBRANCH  26  27
ENDBRANCH   1  26
TORSDOF 20
