REMARK SMILES CC[C@@H](C)[C@@H](NC(=O)Cn1nc(-c2ccc3ccccc3c2)ccc1=O)C(=O)OCCOC(=O)c1ccc(-c2c3nc(c(-c4cccc(S(=O)(=O)[O-])c4F)c4ccc([nH]4)c(-c4cccc(S(=O)(=O)[O-])c4F)c4nc(c(-c5cccc(S(=O)(=O)[O-])c5F)c5ccc2[nH]5)C=C4)C=C3)cc1
REMARK SMILES IDX 30 1 29 2 27 3 28 4 5 5 3 6 4 7 2 8 1 9 6 10 7 11 8 13 9 14
REMARK SMILES IDX 10 15 11 16 25 17 12 18 24 19 26 20 23 21 13 22 14 23 22 24
REMARK SMILES IDX 15 25 21 26 16 27 20 28 17 29 19 30 18 31 31 32 32 33 33 34
REMARK SMILES IDX 34 35 35 36 36 37 97 38 37 39 96 40 38 41 39 42 40 43 90 44
REMARK SMILES IDX 41 45 95 46 89 47 91 48 42 49 94 50 88 51 87 52 43 54 75 55
REMARK SMILES IDX 55 56 74 57 56 58 59 59 73 60 92 61 57 62 58 63 72 65 93 66
REMARK SMILES IDX 60 67 44 68 45 69 53 70 46 71 48 72 54 73 47 74 49 75 50 76
REMARK SMILES IDX 51 77 52 78 76 79 77 80 85 81 78 82 80 83 86 84 79 85 81 86
REMARK SMILES IDX 82 87 83 88 84 89 61 90 62 91 70 92 63 93 65 94 71 95 64 96
REMARK SMILES IDX 66 97 67 98 68 99 69 100
REMARK H PARENT 6 12 91 53 59 64
REMARK Flexibility Score: inf
ROOT
ATOM      1  C   UNL     1       1.490   5.949  -3.623  1.00  0.00     0.274 C 
ENDROOT
BRANCH   1   2
ATOM      2  O   UNL     1       1.367   4.824  -2.719  1.00  0.00    -0.461 OA
BRANCH   2   3
ATOM      3  C   UNL     1       0.639   5.067  -1.605  1.00  0.00     0.329 C 
ATOM      4  O   UNL     1       0.029   6.117  -1.410  1.00  0.00    -0.250 OA
BRANCH   3   5
ATOM      5  C   UNL     1       0.717   3.983  -0.515  1.00  0.00     0.195 C 
BRANCH   5   6
ATOM      6  C   UNL     1       1.097   2.491  -0.710  1.00  0.00     0.019 C 
ATOM      7  C   UNL     1       0.657   1.880  -2.034  1.00  0.00     0.010 C 
BRANCH   6   8
ATOM      8  C   UNL     1       0.525   1.656   0.477  1.00  0.00     0.002 C 
ATOM      9  C   UNL     1       0.977   0.201   0.510  1.00  0.00     0.004 C 
ENDBRANCH   6   8
ENDBRANCH   5   6
BRANCH   5  10
ATOM     10  N   UNL     1       1.373   4.566   0.669  1.00  0.00    -0.341 N 
ATOM     11  C   UNL     1       2.604   5.087   0.906  1.00  0.00     0.242 C 
ATOM     12  H   UNL     1       0.790   4.581   1.462  1.00  0.00     0.164 HD
ATOM     13  O   UNL     1       2.809   5.434   2.080  1.00  0.00    -0.273 OA
BRANCH  11  14
ATOM     14  C   UNL     1       3.613   5.518  -0.174  1.00  0.00     0.248 C 
BRANCH  14  15
ATOM     15  N   UNL     1       3.991   4.647  -1.280  1.00  0.00    -0.220 N 
ATOM     16  N   UNL     1       4.426   5.302  -2.428  1.00  0.00    -0.169 NA
ATOM     17  C   UNL     1       4.386   3.342  -1.026  1.00  0.00     0.267 A 
ATOM     18  C   UNL     1       4.852   4.574  -3.414  1.00  0.00     0.091 A 
ATOM     19  C   UNL     1       4.633   2.523  -2.238  1.00  0.00     0.075 A 
ATOM     20  O   UNL     1       4.444   2.819   0.082  1.00  0.00    -0.268 OA
ATOM     21  C   UNL     1       4.835   3.101  -3.425  1.00  0.00     0.036 A 
BRANCH  18  22
ATOM     22  C   UNL     1       5.434   5.250  -4.598  1.00  0.00     0.003 A 
ATOM     23  C   UNL     1       6.484   6.144  -4.377  1.00  0.00     0.011 A 
ATOM     24  C   UNL     1       4.917   5.077  -5.885  1.00  0.00     0.019 A 
ATOM     25  C   UNL     1       7.008   6.881  -5.439  1.00  0.00     0.009 A 
ATOM     26  C   UNL     1       5.399   5.858  -6.952  1.00  0.00    -0.018 A 
ATOM     27  C   UNL     1       6.460   6.768  -6.724  1.00  0.00    -0.018 A 
ATOM     28  C   UNL     1       4.832   5.783  -8.236  1.00  0.00     0.009 A 
ATOM     29  C   UNL     1       6.928   7.564  -7.782  1.00  0.00     0.009 A 
ATOM     30  C   UNL     1       5.295   6.598  -9.272  1.00  0.00     0.001 A 
ATOM     31  C   UNL     1       6.343   7.486  -9.046  1.00  0.00     0.001 A 
ENDBRANCH  18  22
ENDBRANCH  14  15
ENDBRANCH  11  14
ENDBRANCH   5  10
ENDBRANCH   3   5
ENDBRANCH   2   3
ENDBRANCH   1   2
BRANCH   1  32
ATOM     32  C   UNL     1       1.464   5.468  -5.069  1.00  0.00     0.275 C 
BRANCH  32  33
ATOM     33  O   UNL     1       0.102   5.235  -5.441  1.00  0.00    -0.458 OA
BRANCH  33  34
ATOM     34  C   UNL     1      -0.357   3.992  -5.156  1.00  0.00     0.338 C 
ATOM     35  O   UNL     1       0.285   2.980  -4.991  1.00  0.00    -0.246 OA
BRANCH  34  36
ATOM     36  C   UNL     1      -1.779   4.168  -4.844  1.00  0.00     0.060 A 
ATOM     37  C   UNL     1      -2.650   4.613  -5.834  1.00  0.00     0.016 A 
ATOM     38  C   UNL     1      -2.208   3.977  -3.526  1.00  0.00     0.016 A 
ATOM     39  C   UNL     1      -3.968   4.880  -5.489  1.00  0.00     0.010 A 
ATOM     40  C   UNL     1      -3.530   4.229  -3.185  1.00  0.00     0.010 A 
ATOM     41  C   UNL     1      -4.410   4.688  -4.167  1.00  0.00    -0.014 A 
BRANCH  41  42
ATOM     42  C   UNL     1      -5.839   4.877  -3.872  1.00  0.00     0.031 A 
ATOM     43  C   UNL     1      -6.331   6.130  -3.225  1.00  0.00     0.074 A 
ATOM     44  C   UNL     1      -6.679   3.908  -4.279  1.00  0.00     0.049 A 
ATOM     45  N   UNL     1      -7.556   6.575  -3.154  1.00  0.00    -0.248 NA
ATOM     46  C   UNL     1      -5.334   6.997  -2.576  1.00  0.00     0.031 C 
ATOM     47  C   UNL     1      -6.258   2.625  -4.851  1.00  0.00     0.029 A 
ATOM     48  N   UNL     1      -8.044   3.863  -4.317  1.00  0.00    -0.354 N 
ATOM     49  C   UNL     1      -7.482   7.774  -2.459  1.00  0.00     0.074 A 
ATOM     50  C   UNL     1      -6.095   7.979  -2.106  1.00  0.00     0.031 C 
ATOM     51  C   UNL     1      -7.345   1.946  -5.246  1.00  0.00     0.029 A 
ATOM     52  C   UNL     1      -8.529   2.746  -4.955  1.00  0.00     0.049 A 
ATOM     53  H   UNL     1      -8.622   4.559  -3.927  1.00  0.00     0.167 HD
ATOM     54  C   UNL     1      -8.491   8.628  -2.175  1.00  0.00     0.034 A 
ATOM     55  C   UNL     1      -9.787   2.433  -5.314  1.00  0.00     0.034 A 
ATOM     56  C   UNL     1      -9.855   8.402  -2.568  1.00  0.00     0.049 A 
ATOM     57  C   UNL     1     -10.875   3.427  -5.035  1.00  0.00     0.074 A 
ATOM     58  C   UNL     1     -10.948   9.232  -2.395  1.00  0.00     0.029 A 
ATOM     59  N   UNL     1     -10.312   7.259  -3.207  1.00  0.00    -0.354 N 
ATOM     60  N   UNL     1     -10.772   4.627  -4.516  1.00  0.00    -0.248 NA
ATOM     61  C   UNL     1     -12.240   3.044  -5.414  1.00  0.00     0.031 C 
ATOM     62  C   UNL     1     -12.069   8.585  -2.922  1.00  0.00     0.029 A 
ATOM     63  C   UNL     1     -11.672   7.356  -3.428  1.00  0.00     0.049 A 
ATOM     64  H   UNL     1      -9.751   6.493  -3.465  1.00  0.00     0.167 HD
ATOM     65  C   UNL     1     -12.057   5.150  -4.516  1.00  0.00     0.074 A 
ATOM     66  C   UNL     1     -12.918   4.144  -5.106  1.00  0.00     0.031 C 
ATOM     67  C   UNL     1     -12.489   6.348  -4.052  1.00  0.00     0.034 A 
BRANCH  54  68
ATOM     68  C   UNL     1      -8.169   9.916  -1.472  1.00  0.00     0.023 A 
ATOM     69  C   UNL     1      -7.655  10.992  -2.224  1.00  0.00     0.012 A 
ATOM     70  C   UNL     1      -8.499  10.110  -0.117  1.00  0.00     0.148 A 
ATOM     71  C   UNL     1      -7.476  12.244  -1.638  1.00  0.00     0.002 A 
ATOM     72  C   UNL     1      -8.342  11.368   0.454  1.00  0.00     0.091 A 
ATOM     73  F   UNL     1      -8.983   9.069   0.576  1.00  0.00    -0.205 F 
ATOM     74  C   UNL     1      -7.829  12.434  -0.304  1.00  0.00     0.022 A 
BRANCH  72  75
ATOM     75  S   UNL     1      -8.813  11.740   2.147  1.00  0.00     0.127 S 
ATOM     76  O   UNL     1      -7.544  12.193   2.716  1.00  0.00    -0.237 OA
ATOM     77  O   UNL     1      -9.809  12.794   1.961  1.00  0.00    -0.237 OA
ATOM     78  O   UNL     1      -9.325  10.497   2.707  1.00  0.00    -0.744 OA
ENDBRANCH  72  75
ENDBRANCH  54  68
BRANCH  55  79
ATOM     79  C   UNL     1     -10.035   1.186  -6.085  1.00  0.00     0.023 A 
ATOM     80  C   UNL     1     -10.294   1.274  -7.466  1.00  0.00     0.012 A 
ATOM     81  C   UNL     1      -9.918  -0.081  -5.483  1.00  0.00     0.148 A 
ATOM     82  C   UNL     1     -10.440   0.118  -8.235  1.00  0.00     0.002 A 
ATOM     83  C   UNL     1     -10.024  -1.228  -6.261  1.00  0.00     0.091 A 
ATOM     84  F   UNL     1      -9.676  -0.136  -4.166  1.00  0.00    -0.205 F 
ATOM     85  C   UNL     1     -10.294  -1.131  -7.636  1.00  0.00     0.022 A 
BRANCH  83  86
ATOM     86  S   UNL     1      -9.734  -2.871  -5.597  1.00  0.00     0.127 S 
ATOM     87  O   UNL     1     -11.083  -3.432  -5.591  1.00  0.00    -0.237 OA
ATOM     88  O   UNL     1      -8.831  -3.447  -6.594  1.00  0.00    -0.237 OA
ATOM     89  O   UNL     1      -9.129  -2.664  -4.288  1.00  0.00    -0.744 OA
ENDBRANCH  83  86
ENDBRANCH  55  79
BRANCH  67  90
ATOM     90  C   UNL     1     -13.958   6.637  -4.148  1.00  0.00     0.023 A 
ATOM     91  C   UNL     1     -14.826   6.090  -3.184  1.00  0.00     0.012 A 
ATOM     92  C   UNL     1     -14.452   7.545  -5.103  1.00  0.00     0.148 A 
ATOM     93  C   UNL     1     -16.174   6.441  -3.173  1.00  0.00     0.002 A 
ATOM     94  C   UNL     1     -15.789   7.915  -5.065  1.00  0.00     0.091 A 
ATOM     95  F   UNL     1     -13.601   8.040  -6.014  1.00  0.00    -0.205 F 
ATOM     96  C   UNL     1     -16.652   7.361  -4.103  1.00  0.00     0.022 A 
BRANCH  94  97
ATOM     97  S   UNL     1     -16.481   9.150  -6.169  1.00  0.00     0.127 S 
ATOM     98  O   UNL     1     -17.382   8.343  -6.990  1.00  0.00    -0.237 OA
ATOM     99  O   UNL     1     -17.152  10.057  -5.237  1.00  0.00    -0.237 OA
ATOM    100  O   UNL     1     -15.352   9.736  -6.879  1.00  0.00    -0.744 OA
ENDBRANCH  94  97
ENDBRANCH  67  90
ENDBRANCH  41  42
ENDBRANCH  34  36
ENDBRANCH  33  34
ENDBRANCH  32  33
ENDBRANCH   1  32
TORSDOF 20
