REMARK SMILES CCC(CC)(NC(=O)c1cc(C)ccc1OC)C(=O)OCCOC(=O)c1ccc(-c2c3nc(c(-c4cccc(S(=O)(=O)[O-])c4F)c4ccc([nH]4)c(-c4cccc(S(=O)(=O)[O-])c4F)c4nc(c(-c5cccc(S(=O)(=O)[O-])c5F)c5ccc2[nH]5)C=C4)C=C3)cc1
REMARK SMILES IDX 21 1 20 2 18 3 19 4 3 5 2 6 1 7 4 8 5 9 6 10 7 11 8 13 9 14
REMARK SMILES IDX 10 15 15 16 11 17 14 18 12 19 13 20 16 21 17 22 22 23 23 24
REMARK SMILES IDX 24 25 25 26 26 27 27 28 88 29 28 30 87 31 29 32 30 33 31 34
REMARK SMILES IDX 81 35 32 36 86 37 80 38 82 39 33 40 85 41 79 42 78 43 34 45
REMARK SMILES IDX 66 46 46 47 65 48 47 49 50 50 64 51 83 52 48 53 49 54 63 56
REMARK SMILES IDX 84 57 51 58 35 59 36 60 44 61 37 62 39 63 45 64 38 65 40 66
REMARK SMILES IDX 41 67 42 68 43 69 67 70 68 71 76 72 69 73 71 74 77 75 70 76
REMARK SMILES IDX 72 77 73 78 74 79 75 80 52 81 53 82 61 83 54 84 56 85 62 86
REMARK SMILES IDX 55 87 57 88 58 89 59 90 60 91
REMARK H PARENT 6 12 82 44 50 55
REMARK Flexibility Score: inf
ROOT
ATOM      1  C   UNL     1       4.237  -4.203   0.512  1.00  0.00     0.274 C 
ENDROOT
BRANCH   1   2
ATOM      2  O   UNL     1       2.946  -3.610   0.730  1.00  0.00    -0.460 OA
BRANCH   2   3
ATOM      3  C   UNL     1       1.978  -3.744  -0.206  1.00  0.00     0.331 C 
ATOM      4  O   UNL     1       2.202  -4.164  -1.338  1.00  0.00    -0.249 OA
BRANCH   3   5
ATOM      5  C   UNL     1       0.548  -3.587   0.382  1.00  0.00     0.137 C 
BRANCH   5   6
ATOM      6  C   UNL     1      -0.358  -2.966  -0.746  1.00  0.00     0.037 C 
ATOM      7  C   UNL     1      -0.285  -1.460  -0.993  1.00  0.00     0.007 C 
ENDBRANCH   5   6
BRANCH   5   8
ATOM      8  C   UNL     1       0.383  -2.770   1.682  1.00  0.00     0.037 C 
ATOM      9  C   UNL     1      -1.069  -2.533   2.124  1.00  0.00     0.007 C 
ENDBRANCH   5   8
BRANCH   5  10
ATOM     10  N   UNL     1       0.108  -5.025   0.526  1.00  0.00    -0.336 N 
ATOM     11  C   UNL     1       0.574  -6.156   1.156  1.00  0.00     0.255 C 
ATOM     12  H   UNL     1      -0.731  -5.199   0.041  1.00  0.00     0.165 HD
ATOM     13  O   UNL     1      -0.004  -7.219   0.913  1.00  0.00    -0.269 OA
BRANCH  11  14
ATOM     14  C   UNL     1       1.761  -6.234   2.037  1.00  0.00     0.082 A 
ATOM     15  C   UNL     1       2.834  -7.036   1.579  1.00  0.00     0.021 A 
ATOM     16  C   UNL     1       1.844  -5.676   3.315  1.00  0.00     0.131 A 
ATOM     17  C   UNL     1       4.035  -7.150   2.314  1.00  0.00    -0.050 A 
ATOM     18  C   UNL     1       3.038  -5.788   4.045  1.00  0.00     0.047 A 
ATOM     19  C   UNL     1       5.238  -7.833   1.726  1.00  0.00     0.044 C 
ATOM     20  C   UNL     1       4.126  -6.510   3.551  1.00  0.00     0.007 A 
BRANCH  16  21
ATOM     21  O   UNL     1       0.868  -4.986   3.975  1.00  0.00    -0.496 OA
ATOM     22  C   UNL     1      -0.427  -5.569   3.923  1.00  0.00     0.278 C 
ENDBRANCH  16  21
ENDBRANCH  11  14
ENDBRANCH   5  10
ENDBRANCH   3   5
ENDBRANCH   2   3
ENDBRANCH   1   2
BRANCH   1  23
ATOM     23  C   UNL     1       4.909  -4.334  -0.867  1.00  0.00     0.275 C 
BRANCH  23  24
ATOM     24  O   UNL     1       5.111  -3.272  -1.842  1.00  0.00    -0.458 OA
BRANCH  24  25
ATOM     25  C   UNL     1       4.590  -2.026  -1.900  1.00  0.00     0.338 C 
ATOM     26  O   UNL     1       4.400  -1.425  -2.949  1.00  0.00    -0.246 OA
BRANCH  25  27
ATOM     27  C   UNL     1       4.408  -1.385  -0.604  1.00  0.00     0.060 A 
ATOM     28  C   UNL     1       3.223  -0.707  -0.293  1.00  0.00     0.016 A 
ATOM     29  C   UNL     1       5.399  -1.606   0.341  1.00  0.00     0.016 A 
ATOM     30  C   UNL     1       2.969  -0.343   1.026  1.00  0.00     0.010 A 
ATOM     31  C   UNL     1       5.069  -1.426   1.658  1.00  0.00     0.010 A 
ATOM     32  C   UNL     1       3.885  -0.741   2.000  1.00  0.00    -0.014 A 
BRANCH  32  33
ATOM     33  C   UNL     1       4.031  -0.071   3.280  1.00  0.00     0.031 A 
ATOM     34  C   UNL     1       3.324  -0.418   4.509  1.00  0.00     0.074 A 
ATOM     35  C   UNL     1       5.106   0.750   3.231  1.00  0.00     0.049 A 
ATOM     36  N   UNL     1       3.192   0.428   5.467  1.00  0.00    -0.248 NA
ATOM     37  C   UNL     1       2.704  -1.707   4.786  1.00  0.00     0.031 C 
ATOM     38  C   UNL     1       5.973   1.273   4.260  1.00  0.00     0.029 A 
ATOM     39  N   UNL     1       5.626   1.298   2.047  1.00  0.00    -0.354 N 
ATOM     40  C   UNL     1       2.775  -0.271   6.579  1.00  0.00     0.074 A 
ATOM     41  C   UNL     1       2.340  -1.552   6.070  1.00  0.00     0.031 C 
ATOM     42  C   UNL     1       6.735   2.241   3.707  1.00  0.00     0.029 A 
ATOM     43  C   UNL     1       6.216   2.502   2.364  1.00  0.00     0.049 A 
ATOM     44  H   UNL     1       5.577   0.894   1.151  1.00  0.00     0.167 HD
ATOM     45  C   UNL     1       3.052   0.255   7.807  1.00  0.00     0.034 A 
ATOM     46  C   UNL     1       5.681   3.659   1.871  1.00  0.00     0.034 A 
ATOM     47  C   UNL     1       3.864   1.481   7.648  1.00  0.00     0.049 A 
ATOM     48  C   UNL     1       5.202   4.547   2.998  1.00  0.00     0.074 A 
ATOM     49  C   UNL     1       5.230   1.699   7.733  1.00  0.00     0.029 A 
ATOM     50  N   UNL     1       3.327   2.617   7.060  1.00  0.00    -0.354 N 
ATOM     51  N   UNL     1       5.131   4.190   4.248  1.00  0.00    -0.248 NA
ATOM     52  C   UNL     1       4.602   5.847   2.745  1.00  0.00     0.031 C 
ATOM     53  C   UNL     1       5.510   2.982   7.188  1.00  0.00     0.029 A 
ATOM     54  C   UNL     1       4.315   3.560   6.797  1.00  0.00     0.049 A 
ATOM     55  H   UNL     1       2.372   2.739   6.855  1.00  0.00     0.167 HD
ATOM     56  C   UNL     1       4.333   5.070   4.927  1.00  0.00     0.074 A 
ATOM     57  C   UNL     1       4.026   6.088   3.931  1.00  0.00     0.031 C 
ATOM     58  C   UNL     1       3.934   4.848   6.220  1.00  0.00     0.034 A 
BRANCH  45  59
ATOM     59  C   UNL     1       2.933  -0.426   9.168  1.00  0.00     0.023 A 
ATOM     60  C   UNL     1       3.628   0.194  10.238  1.00  0.00     0.012 A 
ATOM     61  C   UNL     1       2.236  -1.612   9.500  1.00  0.00     0.148 A 
ATOM     62  C   UNL     1       3.729  -0.364  11.514  1.00  0.00     0.002 A 
ATOM     63  C   UNL     1       2.349  -2.186  10.778  1.00  0.00     0.091 A 
ATOM     64  F   UNL     1       1.425  -2.179   8.603  1.00  0.00    -0.205 F 
ATOM     65  C   UNL     1       3.108  -1.570  11.779  1.00  0.00     0.022 A 
BRANCH  63  66
ATOM     66  S   UNL     1       1.581  -3.752  11.239  1.00  0.00     0.127 S 
ATOM     67  O   UNL     1       2.746  -4.581  11.552  1.00  0.00    -0.237 OA
ATOM     68  O   UNL     1       0.774  -3.381  12.401  1.00  0.00    -0.237 OA
ATOM     69  O   UNL     1       0.820  -4.194  10.077  1.00  0.00    -0.744 OA
ENDBRANCH  63  66
ENDBRANCH  45  59
BRANCH  46  70
ATOM     70  C   UNL     1       4.888   3.505   0.580  1.00  0.00     0.023 A 
ATOM     71  C   UNL     1       5.514   2.928  -0.555  1.00  0.00     0.012 A 
ATOM     72  C   UNL     1       3.480   3.593   0.572  1.00  0.00     0.148 A 
ATOM     73  C   UNL     1       4.759   2.394  -1.611  1.00  0.00     0.002 A 
ATOM     74  C   UNL     1       2.737   3.060  -0.482  1.00  0.00     0.091 A 
ATOM     75  F   UNL     1       2.849   4.135   1.619  1.00  0.00    -0.205 F 
ATOM     76  C   UNL     1       3.370   2.452  -1.570  1.00  0.00     0.022 A 
BRANCH  74  77
ATOM     77  S   UNL     1       0.944   2.978  -0.356  1.00  0.00     0.127 S 
ATOM     78  O   UNL     1       0.551   4.306  -0.816  1.00  0.00    -0.237 OA
ATOM     79  O   UNL     1       0.605   1.880  -1.264  1.00  0.00    -0.237 OA
ATOM     80  O   UNL     1       0.704   2.668   1.046  1.00  0.00    -0.744 OA
ENDBRANCH  74  77
ENDBRANCH  46  70
BRANCH  58  81
ATOM     81  C   UNL     1       3.101   5.813   7.051  1.00  0.00     0.023 A 
ATOM     82  C   UNL     1       2.908   7.154   6.673  1.00  0.00     0.012 A 
ATOM     83  C   UNL     1       2.539   5.440   8.301  1.00  0.00     0.148 A 
ATOM     84  C   UNL     1       2.075   8.023   7.383  1.00  0.00     0.002 A 
ATOM     85  C   UNL     1       1.730   6.310   9.024  1.00  0.00     0.091 A 
ATOM     86  F   UNL     1       2.846   4.262   8.855  1.00  0.00    -0.205 F 
ATOM     87  C   UNL     1       1.465   7.593   8.548  1.00  0.00     0.022 A 
BRANCH  85  88
ATOM     88  S   UNL     1       1.025   5.850  10.611  1.00  0.00     0.127 S 
ATOM     89  O   UNL     1       1.898   6.572  11.536  1.00  0.00    -0.237 OA
ATOM     90  O   UNL     1      -0.333   6.387  10.509  1.00  0.00    -0.237 OA
ATOM     91  O   UNL     1       1.095   4.398  10.677  1.00  0.00    -0.744 OA
ENDBRANCH  85  88
ENDBRANCH  58  81
ENDBRANCH  32  33
ENDBRANCH  25  27
ENDBRANCH  24  25
ENDBRANCH  23  24
ENDBRANCH   1  23
TORSDOF 19
