REMARK SMILES CN1C(=O)/C(=C/c2ccc(OCC(=O)OCCOC(=O)c3ccc(-c4c5nc(c(-c6cccc(S(=O)(=O)[O-])c6F)c6ccc([nH]6)c(-c6cccc(S(=O)(=O)[O-])c6F)c6nc(c(-c7cccc(S(=O)(=O)[O-])c7F)c7ccc4[nH]7)C=C6)C=C5)cc3)c(Br)c2)C(=O)NC1=S
REMARK SMILES IDX 16 1 15 2 13 3 14 4 12 5 11 6 10 7 7 8 8 9 86 10 9 11 84 12
REMARK SMILES IDX 85 13 6 14 1 15 2 16 3 17 90 18 4 19 5 20 89 21 91 22 87 23
REMARK SMILES IDX 88 25 17 26 18 27 19 28 20 29 21 30 22 31 83 32 23 33 82 34
REMARK SMILES IDX 24 35 25 36 26 37 76 38 27 39 81 40 75 41 77 42 28 43 80 44
REMARK SMILES IDX 74 45 73 46 29 48 61 49 41 50 60 51 42 52 45 53 59 54 78 55
REMARK SMILES IDX 43 56 44 57 58 59 79 60 46 61 30 62 31 63 39 64 32 65 34 66
REMARK SMILES IDX 40 67 33 68 35 69 36 70 37 71 38 72 62 73 63 74 71 75 64 76
REMARK SMILES IDX 66 77 72 78 65 79 67 80 68 81 69 82 70 83 47 84 48 85 56 86
REMARK SMILES IDX 49 87 51 88 57 89 50 90 52 91 53 92 54 93 55 94
REMARK H PARENT 89 24 77 47 45 58
REMARK Flexibility Score: inf
ROOT
ATOM      1  C   UNL     1       4.193  -8.655  -6.873  1.00  0.00     0.274 C 
ENDROOT
BRANCH   1   2
ATOM      2  O   UNL     1       3.285  -8.921  -5.785  1.00  0.00    -0.460 OA
BRANCH   2   3
ATOM      3  C   UNL     1       3.854  -9.501  -4.695  1.00  0.00     0.344 C 
ATOM      4  O   UNL     1       5.039  -9.812  -4.607  1.00  0.00    -0.248 OA
BRANCH   3   5
ATOM      5  C   UNL     1       2.854  -9.824  -3.590  1.00  0.00     0.352 C 
BRANCH   5   6
ATOM      6  O   UNL     1       1.563  -9.246  -3.542  1.00  0.00    -0.481 OA
BRANCH   6   7
ATOM      7  C   UNL     1       1.474  -7.905  -3.290  1.00  0.00     0.134 A 
ATOM      8  C   UNL     1       0.943  -5.153  -2.966  1.00  0.00    -0.023 A 
ATOM      9  C   UNL     1       0.346  -5.858  -4.008  1.00  0.00     0.012 A 
ATOM     10  C   UNL     1       1.806  -5.828  -2.092  1.00  0.00     0.027 A 
ATOM     11  C   UNL     1       0.620  -7.221  -4.169  1.00  0.00     0.048 A 
ATOM     12  C   UNL     1       2.014  -7.207  -2.206  1.00  0.00     0.060 A 
ATOM     13  Br  UNL     1       2.842  -8.023  -0.702  1.00  0.00    -0.047 Br
BRANCH   8  14
ATOM     14  C   UNL     1       0.663  -3.728  -2.743  1.00  0.00     0.027 C 
ATOM     15  C   UNL     1       0.546   0.114   0.110  1.00  0.00     0.156 C 
ATOM     16  N   UNL     1       0.223  -1.302  -0.096  1.00  0.00    -0.288 N 
ATOM     17  C   UNL     1       0.217  -1.738  -1.426  1.00  0.00     0.265 C 
ATOM     18  C   UNL     1      -0.036  -2.131   0.991  1.00  0.00     0.182 C 
ATOM     19  O   UNL     1       0.294  -0.993  -2.400  1.00  0.00    -0.268 OA
ATOM     20  C   UNL     1       0.147  -3.211  -1.608  1.00  0.00     0.106 C 
ATOM     21  N   UNL     1      -0.331  -3.437   0.714  1.00  0.00    -0.298 N 
ATOM     22  S   UNL     1      -0.067  -1.710   2.610  1.00  0.00    -0.040 S 
ATOM     23  C   UNL     1      -0.368  -4.043  -0.505  1.00  0.00     0.263 C 
ATOM     24  H   UNL     1      -0.543  -4.006   1.488  1.00  0.00     0.172 HD
ATOM     25  O   UNL     1      -0.825  -5.173  -0.633  1.00  0.00    -0.269 OA
ENDBRANCH   8  14
ENDBRANCH   6   7
ENDBRANCH   5   6
ENDBRANCH   3   5
ENDBRANCH   2   3
ENDBRANCH   1   2
BRANCH   1  26
ATOM     26  C   UNL     1       4.681  -7.210  -6.849  1.00  0.00     0.275 C 
BRANCH  26  27
ATOM     27  O   UNL     1       5.295  -6.914  -5.585  1.00  0.00    -0.458 OA
BRANCH  27  28
ATOM     28  C   UNL     1       4.773  -5.858  -4.918  1.00  0.00     0.338 C 
ATOM     29  O   UNL     1       3.874  -5.124  -5.291  1.00  0.00    -0.246 OA
BRANCH  28  30
ATOM     30  C   UNL     1       5.485  -5.660  -3.642  1.00  0.00     0.060 A 
ATOM     31  C   UNL     1       5.663  -6.708  -2.737  1.00  0.00     0.016 A 
ATOM     32  C   UNL     1       5.896  -4.368  -3.309  1.00  0.00     0.016 A 
ATOM     33  C   UNL     1       6.187  -6.445  -1.468  1.00  0.00     0.010 A 
ATOM     34  C   UNL     1       6.492  -4.126  -2.070  1.00  0.00     0.010 A 
ATOM     35  C   UNL     1       6.612  -5.153  -1.119  1.00  0.00    -0.014 A 
BRANCH  35  36
ATOM     36  C   UNL     1       7.183  -4.856   0.225  1.00  0.00     0.031 A 
ATOM     37  C   UNL     1       6.542  -3.823   1.119  1.00  0.00     0.074 A 
ATOM     38  C   UNL     1       8.317  -5.465   0.627  1.00  0.00     0.049 A 
ATOM     39  N   UNL     1       6.989  -3.307   2.236  1.00  0.00    -0.248 NA
ATOM     40  C   UNL     1       5.236  -3.287   0.697  1.00  0.00     0.031 C 
ATOM     41  C   UNL     1       9.051  -6.475  -0.137  1.00  0.00     0.029 A 
ATOM     42  N   UNL     1       9.064  -5.307   1.770  1.00  0.00    -0.354 N 
ATOM     43  C   UNL     1       6.064  -2.338   2.608  1.00  0.00     0.074 A 
ATOM     44  C   UNL     1       5.016  -2.350   1.611  1.00  0.00     0.031 C 
ATOM     45  C   UNL     1      10.132  -6.854   0.560  1.00  0.00     0.029 A 
ATOM     46  C   UNL     1      10.208  -6.071   1.789  1.00  0.00     0.049 A 
ATOM     47  H   UNL     1       8.805  -4.705   2.505  1.00  0.00     0.167 HD
ATOM     48  C   UNL     1       6.081  -1.521   3.688  1.00  0.00     0.034 A 
ATOM     49  C   UNL     1      11.224  -6.118   2.673  1.00  0.00     0.034 A 
ATOM     50  C   UNL     1       7.069  -1.571   4.733  1.00  0.00     0.049 A 
ATOM     51  C   UNL     1      11.194  -5.227   3.882  1.00  0.00     0.074 A 
ATOM     52  C   UNL     1       7.110  -0.839   5.908  1.00  0.00     0.029 A 
ATOM     53  N   UNL     1       8.177  -2.402   4.741  1.00  0.00    -0.354 N 
ATOM     54  N   UNL     1      10.271  -4.375   4.254  1.00  0.00    -0.248 NA
ATOM     55  C   UNL     1      12.339  -5.313   4.800  1.00  0.00     0.031 C 
ATOM     56  C   UNL     1       8.245  -1.227   6.627  1.00  0.00     0.029 A 
ATOM     57  C   UNL     1       8.909  -2.201   5.899  1.00  0.00     0.049 A 
ATOM     58  H   UNL     1       8.409  -3.040   4.029  1.00  0.00     0.167 HD
ATOM     59  C   UNL     1      10.713  -3.837   5.457  1.00  0.00     0.074 A 
ATOM     60  C   UNL     1      11.974  -4.479   5.766  1.00  0.00     0.031 C 
ATOM     61  C   UNL     1      10.135  -2.881   6.225  1.00  0.00     0.034 A 
BRANCH  48  62
ATOM     62  C   UNL     1       4.968  -0.520   3.839  1.00  0.00     0.023 A 
ATOM     63  C   UNL     1       3.733  -0.935   4.369  1.00  0.00     0.012 A 
ATOM     64  C   UNL     1       5.180   0.845   3.563  1.00  0.00     0.148 A 
ATOM     65  C   UNL     1       2.723  -0.006   4.619  1.00  0.00     0.002 A 
ATOM     66  C   UNL     1       4.175   1.767   3.834  1.00  0.00     0.091 A 
ATOM     67  F   UNL     1       6.354   1.219   3.034  1.00  0.00    -0.205 F 
ATOM     68  C   UNL     1       2.945   1.344   4.358  1.00  0.00     0.022 A 
BRANCH  66  69
ATOM     69  S   UNL     1       4.419   3.529   3.582  1.00  0.00     0.127 S 
ATOM     70  O   UNL     1       3.888   3.709   2.232  1.00  0.00    -0.237 OA
ATOM     71  O   UNL     1       3.601   4.123   4.640  1.00  0.00    -0.237 OA
ATOM     72  O   UNL     1       5.851   3.744   3.741  1.00  0.00    -0.744 OA
ENDBRANCH  66  69
ENDBRANCH  48  62
BRANCH  49  73
ATOM     73  C   UNL     1      12.339  -7.082   2.456  1.00  0.00     0.023 A 
ATOM     74  C   UNL     1      12.444  -8.208   3.295  1.00  0.00     0.012 A 
ATOM     75  C   UNL     1      13.245  -6.932   1.389  1.00  0.00     0.148 A 
ATOM     76  C   UNL     1      13.437  -9.164   3.080  1.00  0.00     0.002 A 
ATOM     77  C   UNL     1      14.194  -7.918   1.143  1.00  0.00     0.091 A 
ATOM     78  F   UNL     1      13.144  -5.841   0.617  1.00  0.00    -0.205 F 
ATOM     79  C   UNL     1      14.300  -9.028   1.996  1.00  0.00     0.022 A 
BRANCH  77  80
ATOM     80  S   UNL     1      15.241  -7.896  -0.316  1.00  0.00     0.127 S 
ATOM     81  O   UNL     1      16.535  -7.524   0.249  1.00  0.00    -0.237 OA
ATOM     82  O   UNL     1      15.146  -9.280  -0.781  1.00  0.00    -0.237 OA
ATOM     83  O   UNL     1      14.636  -6.922  -1.215  1.00  0.00    -0.744 OA
ENDBRANCH  77  80
ENDBRANCH  49  73
BRANCH  61  84
ATOM     84  C   UNL     1      10.848  -2.474   7.486  1.00  0.00     0.023 A 
ATOM     85  C   UNL     1      11.983  -1.645   7.401  1.00  0.00     0.012 A 
ATOM     86  C   UNL     1      10.358  -2.851   8.752  1.00  0.00     0.148 A 
ATOM     87  C   UNL     1      12.636  -1.217   8.557  1.00  0.00     0.002 A 
ATOM     88  C   UNL     1      10.991  -2.389   9.900  1.00  0.00     0.091 A 
ATOM     89  F   UNL     1       9.289  -3.659   8.811  1.00  0.00    -0.205 F 
ATOM     90  C   UNL     1      12.134  -1.579   9.805  1.00  0.00     0.022 A 
BRANCH  88  91
ATOM     91  S   UNL     1      10.360  -2.741  11.545  1.00  0.00     0.127 S 
ATOM     92  O   UNL     1      11.252  -3.812  11.985  1.00  0.00    -0.237 OA
ATOM     93  O   UNL     1      10.551  -1.466  12.237  1.00  0.00    -0.237 OA
ATOM     94  O   UNL     1       8.965  -3.119  11.360  1.00  0.00    -0.744 OA
ENDBRANCH  88  91
ENDBRANCH  61  84
ENDBRANCH  35  36
ENDBRANCH  28  30
ENDBRANCH  27  28
ENDBRANCH  26  27
ENDBRANCH   1  26
TORSDOF 17
