REMARK SMILES C[C@H](NC(=O)N1CC[C@@H](C(=O)OCCOC(=O)c2ccc(-c3c4nc(c(-c5cccc(S(=O)(=O)[O-])c5F)c5ccc([nH]5)c(-c5cccc(S(=O)(=O)[O-])c5F)c5nc(c(-c6cccc(S(=O)(=O)[O-])c6F)c6ccc3[nH]6)C=C5)C=C4)cc2)[C@H]1C)c1ccc(Cl)cc1
REMARK SMILES IDX 13 1 12 2 10 3 11 4 9 5 6 6 7 7 81 8 8 9 82 10 4 11 3 12
REMARK SMILES IDX 5 14 2 15 1 16 83 17 84 18 89 19 85 20 88 21 86 22 87 23
REMARK SMILES IDX 14 24 15 25 16 26 17 27 18 28 19 29 80 30 20 31 79 32 21 33
REMARK SMILES IDX 22 34 23 35 73 36 24 37 78 38 72 39 74 40 25 41 77 42 71 43
REMARK SMILES IDX 70 44 26 46 58 47 38 48 57 49 39 50 42 51 56 52 75 53 40 54
REMARK SMILES IDX 41 55 55 57 76 58 43 59 27 60 28 61 36 62 29 63 31 64 37 65
REMARK SMILES IDX 30 66 32 67 33 68 34 69 35 70 59 71 60 72 68 73 61 74 63 75
REMARK SMILES IDX 69 76 62 77 64 78 65 79 66 80 67 81 44 82 45 83 53 84 46 85
REMARK SMILES IDX 48 86 54 87 47 88 49 89 50 90 51 91 52 92
REMARK H PARENT 3 13 74 45 42 56
REMARK Flexibility Score: inf
ROOT
ATOM      1  C   UNL     1       3.529  -1.271  -6.577  1.00  0.00     0.274 C 
ENDROOT
BRANCH   1   2
ATOM      2  O   UNL     1       3.217  -1.580  -5.201  1.00  0.00    -0.462 OA
BRANCH   2   3
ATOM      3  C   UNL     1       4.220  -2.160  -4.495  1.00  0.00     0.311 C 
ATOM      4  O   UNL     1       5.232  -2.638  -4.992  1.00  0.00    -0.252 OA
BRANCH   3   5
ATOM      5  C   UNL     1       3.959  -2.226  -3.009  1.00  0.00     0.123 C 
ATOM      6  N   UNL     1       2.292  -1.637  -1.406  1.00  0.00    -0.321 N 
ATOM      7  C   UNL     1       2.542  -3.062  -1.313  1.00  0.00     0.122 C 
ATOM      8  C   UNL     1       3.343  -1.030  -2.238  1.00  0.00     0.098 C 
ATOM      9  C   UNL     1       3.064  -3.420  -2.682  1.00  0.00     0.039 C 
ATOM     10  C   UNL     1       2.868   0.177  -3.035  1.00  0.00     0.032 C 
BRANCH   6  11
ATOM     11  C   UNL     1       1.825  -1.041  -0.269  1.00  0.00     0.318 C 
ATOM     12  N   UNL     1       0.612  -0.439  -0.329  1.00  0.00    -0.331 N 
ATOM     13  H   UNL     1       0.194  -0.299   0.551  1.00  0.00     0.165 HD
ATOM     14  O   UNL     1       2.383  -1.159   0.820  1.00  0.00    -0.249 OA
BRANCH  12  15
ATOM     15  C   UNL     1      -0.191   0.040  -1.445  1.00  0.00     0.111 C 
ATOM     16  C   UNL     1      -0.351  -0.875  -2.670  1.00  0.00     0.036 C 
BRANCH  15  17
ATOM     17  C   UNL     1      -1.600   0.366  -0.955  1.00  0.00    -0.026 A 
ATOM     18  C   UNL     1      -2.152   1.642  -1.132  1.00  0.00     0.007 A 
ATOM     19  C   UNL     1      -2.408  -0.657  -0.420  1.00  0.00     0.007 A 
ATOM     20  C   UNL     1      -3.504   1.867  -0.852  1.00  0.00     0.021 A 
ATOM     21  C   UNL     1      -3.758  -0.436  -0.157  1.00  0.00     0.021 A 
ATOM     22  C   UNL     1      -4.305   0.822  -0.391  1.00  0.00     0.041 A 
ATOM     23  Cl  UNL     1      -5.988   1.077  -0.141  1.00  0.00    -0.084 Cl
ENDBRANCH  15  17
ENDBRANCH  12  15
ENDBRANCH   6  11
ENDBRANCH   3   5
ENDBRANCH   2   3
ENDBRANCH   1   2
BRANCH   1  24
ATOM     24  C   UNL     1       4.123   0.136  -6.661  1.00  0.00     0.275 C 
BRANCH  24  25
ATOM     25  O   UNL     1       5.351   0.161  -5.917  1.00  0.00    -0.458 OA
BRANCH  25  26
ATOM     26  C   UNL     1       5.700   1.353  -5.385  1.00  0.00     0.338 C 
ATOM     27  O   UNL     1       5.125   2.416  -5.527  1.00  0.00    -0.246 OA
BRANCH  26  28
ATOM     28  C   UNL     1       6.920   1.164  -4.575  1.00  0.00     0.060 A 
ATOM     29  C   UNL     1       6.972   0.184  -3.577  1.00  0.00     0.016 A 
ATOM     30  C   UNL     1       8.010   2.002  -4.794  1.00  0.00     0.016 A 
ATOM     31  C   UNL     1       8.112   0.045  -2.786  1.00  0.00     0.010 A 
ATOM     32  C   UNL     1       9.168   1.831  -4.034  1.00  0.00     0.010 A 
ATOM     33  C   UNL     1       9.224   0.863  -3.015  1.00  0.00    -0.014 A 
BRANCH  33  34
ATOM     34  C   UNL     1      10.447   0.748  -2.183  1.00  0.00     0.031 A 
ATOM     35  C   UNL     1      10.836   1.885  -1.282  1.00  0.00     0.074 A 
ATOM     36  C   UNL     1      11.240  -0.335  -2.293  1.00  0.00     0.049 A 
ATOM     37  N   UNL     1      11.947   2.075  -0.622  1.00  0.00    -0.248 NA
ATOM     38  C   UNL     1       9.844   2.962  -1.115  1.00  0.00     0.031 C 
ATOM     39  C   UNL     1      10.967  -1.502  -3.132  1.00  0.00     0.029 A 
ATOM     40  N   UNL     1      12.459  -0.611  -1.724  1.00  0.00    -0.354 N 
ATOM     41  C   UNL     1      11.816   3.316  -0.010  1.00  0.00     0.074 A 
ATOM     42  C   UNL     1      10.513   3.832  -0.372  1.00  0.00     0.031 C 
ATOM     43  C   UNL     1      11.998  -2.357  -3.043  1.00  0.00     0.029 A 
ATOM     44  C   UNL     1      13.024  -1.779  -2.180  1.00  0.00     0.049 A 
ATOM     45  H   UNL     1      12.886  -0.029  -1.054  1.00  0.00     0.167 HD
ATOM     46  C   UNL     1      12.698   3.962   0.789  1.00  0.00     0.034 A 
ATOM     47  C   UNL     1      14.245  -2.305  -1.958  1.00  0.00     0.034 A 
ATOM     48  C   UNL     1      13.969   3.420   1.185  1.00  0.00     0.049 A 
ATOM     49  C   UNL     1      15.202  -1.572  -1.057  1.00  0.00     0.074 A 
ATOM     50  C   UNL     1      14.915   3.973   2.031  1.00  0.00     0.029 A 
ATOM     51  N   UNL     1      14.472   2.198   0.766  1.00  0.00    -0.354 N 
ATOM     52  N   UNL     1      15.030  -0.441  -0.417  1.00  0.00    -0.248 NA
ATOM     53  C   UNL     1      16.512  -2.198  -0.828  1.00  0.00     0.031 C 
ATOM     54  C   UNL     1      15.995   3.087   2.115  1.00  0.00     0.029 A 
ATOM     55  C   UNL     1      15.715   1.977   1.333  1.00  0.00     0.049 A 
ATOM     56  H   UNL     1      14.013   1.578   0.154  1.00  0.00     0.167 HD
ATOM     57  C   UNL     1      16.196  -0.232   0.311  1.00  0.00     0.074 A 
ATOM     58  C   UNL     1      17.058  -1.367   0.050  1.00  0.00     0.031 C 
ATOM     59  C   UNL     1      16.533   0.813   1.106  1.00  0.00     0.034 A 
BRANCH  46  60
ATOM     60  C   UNL     1      12.302   5.316   1.314  1.00  0.00     0.023 A 
ATOM     61  C   UNL     1      11.345   5.410   2.344  1.00  0.00     0.012 A 
ATOM     62  C   UNL     1      12.909   6.489   0.824  1.00  0.00     0.148 A 
ATOM     63  C   UNL     1      10.976   6.653   2.859  1.00  0.00     0.002 A 
ATOM     64  C   UNL     1      12.564   7.721   1.368  1.00  0.00     0.091 A 
ATOM     65  F   UNL     1      13.797   6.381  -0.174  1.00  0.00    -0.205 F 
ATOM     66  C   UNL     1      11.592   7.806   2.378  1.00  0.00     0.022 A 
BRANCH  64  67
ATOM     67  S   UNL     1      13.352   9.255   0.862  1.00  0.00     0.127 S 
ATOM     68  O   UNL     1      12.300   9.876   0.058  1.00  0.00    -0.237 OA
ATOM     69  O   UNL     1      13.606   9.912   2.145  1.00  0.00    -0.237 OA
ATOM     70  O   UNL     1      14.552   8.865   0.134  1.00  0.00    -0.744 OA
ENDBRANCH  64  67
ENDBRANCH  46  60
BRANCH  47  71
ATOM     71  C   UNL     1      14.613  -3.612  -2.574  1.00  0.00     0.023 A 
ATOM     72  C   UNL     1      14.742  -4.748  -1.753  1.00  0.00     0.012 A 
ATOM     73  C   UNL     1      14.794  -3.746  -3.965  1.00  0.00     0.148 A 
ATOM     74  C   UNL     1      15.064  -5.990  -2.302  1.00  0.00     0.002 A 
ATOM     75  C   UNL     1      15.061  -4.997  -4.511  1.00  0.00     0.091 A 
ATOM     76  F   UNL     1      14.692  -2.650  -4.730  1.00  0.00    -0.205 F 
ATOM     77  C   UNL     1      15.210  -6.118  -3.680  1.00  0.00     0.022 A 
BRANCH  75  78
ATOM     78  S   UNL     1      15.128  -5.272  -6.286  1.00  0.00     0.127 S 
ATOM     79  O   UNL     1      16.564  -5.404  -6.515  1.00  0.00    -0.237 OA
ATOM     80  O   UNL     1      14.364  -6.512  -6.434  1.00  0.00    -0.237 OA
ATOM     81  O   UNL     1      14.491  -4.106  -6.883  1.00  0.00    -0.744 OA
ENDBRANCH  75  78
ENDBRANCH  47  71
BRANCH  59  82
ATOM     82  C   UNL     1      17.879   0.771   1.778  1.00  0.00     0.023 A 
ATOM     83  C   UNL     1      19.040   1.030   1.024  1.00  0.00     0.012 A 
ATOM     84  C   UNL     1      17.987   0.556   3.165  1.00  0.00     0.148 A 
ATOM     85  C   UNL     1      20.292   1.050   1.636  1.00  0.00     0.002 A 
ATOM     86  C   UNL     1      19.234   0.619   3.777  1.00  0.00     0.091 A 
ATOM     87  F   UNL     1      16.872   0.290   3.861  1.00  0.00    -0.205 F 
ATOM     88  C   UNL     1      20.388   0.857   3.013  1.00  0.00     0.022 A 
BRANCH  86  89
ATOM     89  S   UNL     1      19.435   0.472   5.556  1.00  0.00     0.127 S 
ATOM     90  O   UNL     1      19.941  -0.892   5.687  1.00  0.00    -0.237 OA
ATOM     91  O   UNL     1      20.417   1.518   5.849  1.00  0.00    -0.237 OA
ATOM     92  O   UNL     1      18.116   0.712   6.126  1.00  0.00    -0.744 OA
ENDBRANCH  86  89
ENDBRANCH  59  82
ENDBRANCH  33  34
ENDBRANCH  26  28
ENDBRANCH  25  26
ENDBRANCH  24  25
ENDBRANCH   1  24
TORSDOF 17
