REMARK SMILES COC(=O)c1ccc([C@H]2Nc3c(C(=O)OCCOC(=O)c4ccc(-c5c6nc(c(-c7cccc(S(=O)(=O)[O-])c7F)c7ccc([nH]7)c(-c7cccc(S(=O)(=O)[O-])c7F)c7nc(c(-c8cccc(S(=O)(=O)[O-])c8F)c8ccc5[nH]8)C=C7)C=C6)cc4)cccc3[C@H]3[C@H]4CC[C@H](C4)[C@H]32)cc1
REMARK SMILES IDX 16 1 15 2 13 3 14 4 12 5 9 6 10 7 94 8 11 9 88 11 92 12
REMARK SMILES IDX 87 13 89 14 91 15 93 16 84 17 86 18 90 19 85 20 8 21 5 22
REMARK SMILES IDX 6 23 96 24 7 25 95 26 3 27 4 28 2 29 1 30 17 31 18 32 19 33
REMARK SMILES IDX 20 34 21 35 22 36 83 37 23 38 82 39 24 40 25 41 26 42 76 43
REMARK SMILES IDX 27 44 81 45 75 46 77 47 28 48 80 49 74 50 73 51 29 53 61 54
REMARK SMILES IDX 41 55 60 56 42 57 45 58 59 59 78 60 43 61 44 62 58 64 79 65
REMARK SMILES IDX 46 66 30 67 31 68 39 69 32 70 34 71 40 72 33 73 35 74 36 75
REMARK SMILES IDX 37 76 38 77 62 78 63 79 71 80 64 81 66 82 72 83 65 84 67 85
REMARK SMILES IDX 68 86 69 87 70 88 47 89 48 90 56 91 49 92 51 93 57 94 50 95
REMARK SMILES IDX 52 96 53 97 54 98 55 99
REMARK H PARENT 10 10 77 52 45 63
REMARK Flexibility Score: inf
ROOT
ATOM      1  C   UNL     1      -1.349  12.438   5.141  1.00  0.00     0.275 C 
ENDROOT
BRANCH   1   2
ATOM      2  O   UNL     1      -1.374  11.352   6.093  1.00  0.00    -0.458 OA
BRANCH   2   3
ATOM      3  C   UNL     1      -2.387  10.456   5.957  1.00  0.00     0.340 C 
ATOM      4  O   UNL     1      -3.247  10.456   5.095  1.00  0.00    -0.246 OA
BRANCH   3   5
ATOM      5  C   UNL     1      -2.378   9.572   7.139  1.00  0.00     0.083 A 
ATOM      6  C   UNL     1      -1.802   6.237   5.797  1.00  0.00     0.113 C 
ATOM      7  N   UNL     1      -1.351   7.647   5.976  1.00  0.00    -0.377 N 
ATOM      8  C   UNL     1      -1.145   5.468   6.972  1.00  0.00     0.027 C 
ATOM      9  C   UNL     1      -1.864   8.266   7.125  1.00  0.00     0.053 A 
ATOM     10  H   UNL     1      -0.749   8.103   5.345  1.00  0.00     0.161 HD
ATOM     11  C   UNL     1      -0.968   6.273   8.295  1.00  0.00     0.030 C 
ATOM     12  C   UNL     1      -1.466   4.048   7.471  1.00  0.00    -0.005 C 
ATOM     13  C   UNL     1      -1.779   7.543   8.336  1.00  0.00    -0.020 A 
ATOM     14  C   UNL     1      -1.077   5.176   9.380  1.00  0.00    -0.003 C 
ATOM     15  C   UNL     1      -2.784   3.939   8.249  1.00  0.00     0.004 C 
ATOM     16  C   UNL     1      -0.463   3.968   8.648  1.00  0.00     0.008 C 
ATOM     17  C   UNL     1      -2.971  10.078   8.300  1.00  0.00     0.018 A 
ATOM     18  C   UNL     1      -2.324   8.082   9.504  1.00  0.00     0.006 A 
ATOM     19  C   UNL     1      -2.513   4.685   9.557  1.00  0.00     0.004 C 
ATOM     20  C   UNL     1      -2.961   9.324   9.473  1.00  0.00     0.001 A 
BRANCH   6  21
ATOM     21  C   UNL     1      -3.245   6.237   5.248  1.00  0.00    -0.025 A 
ATOM     22  C   UNL     1      -5.632   6.301   3.676  1.00  0.00     0.060 A 
ATOM     23  C   UNL     1      -4.758   7.368   3.635  1.00  0.00     0.016 A 
ATOM     24  C   UNL     1      -5.356   5.214   4.509  1.00  0.00     0.016 A 
ATOM     25  C   UNL     1      -3.618   7.333   4.429  1.00  0.00     0.007 A 
ATOM     26  C   UNL     1      -4.147   5.168   5.253  1.00  0.00     0.007 A 
BRANCH  22  27
ATOM     27  C   UNL     1      -6.730   6.331   2.698  1.00  0.00     0.337 C 
ATOM     28  O   UNL     1      -6.535   6.362   1.495  1.00  0.00    -0.246 OA
BRANCH  27  29
ATOM     29  O   UNL     1      -7.917   6.505   3.329  1.00  0.00    -0.465 OA
ATOM     30  C   UNL     1      -8.955   6.865   2.412  1.00  0.00     0.282 C 
ENDBRANCH  27  29
ENDBRANCH  22  27
ENDBRANCH   6  21
ENDBRANCH   3   5
ENDBRANCH   2   3
ENDBRANCH   1   2
BRANCH   1  31
ATOM     31  C   UNL     1      -0.009  12.463   4.407  1.00  0.00     0.275 C 
BRANCH  31  32
ATOM     32  O   UNL     1       0.027  11.362   3.484  1.00  0.00    -0.458 OA
BRANCH  32  33
ATOM     33  C   UNL     1       1.078  10.512   3.575  1.00  0.00     0.338 C 
ATOM     34  O   UNL     1       2.080  10.636   4.253  1.00  0.00    -0.246 OA
BRANCH  33  35
ATOM     35  C   UNL     1       0.755   9.303   2.793  1.00  0.00     0.060 A 
ATOM     36  C   UNL     1      -0.406   8.628   3.136  1.00  0.00     0.016 A 
ATOM     37  C   UNL     1       1.609   8.761   1.833  1.00  0.00     0.016 A 
ATOM     38  C   UNL     1      -0.678   7.382   2.586  1.00  0.00     0.010 A 
ATOM     39  C   UNL     1       1.284   7.533   1.221  1.00  0.00     0.010 A 
ATOM     40  C   UNL     1       0.144   6.811   1.616  1.00  0.00    -0.014 A 
BRANCH  40  41
ATOM     41  C   UNL     1      -0.197   5.441   1.126  1.00  0.00     0.031 A 
ATOM     42  C   UNL     1       0.743   4.293   1.374  1.00  0.00     0.074 A 
ATOM     43  C   UNL     1      -1.411   5.169   0.599  1.00  0.00     0.049 A 
ATOM     44  N   UNL     1       0.682   3.064   0.930  1.00  0.00    -0.248 NA
ATOM     45  C   UNL     1       1.885   4.552   2.265  1.00  0.00     0.031 C 
ATOM     46  C   UNL     1      -2.503   6.131   0.447  1.00  0.00     0.029 A 
ATOM     47  N   UNL     1      -1.945   3.991   0.126  1.00  0.00    -0.354 N 
ATOM     48  C   UNL     1       1.821   2.429   1.407  1.00  0.00     0.074 A 
ATOM     49  C   UNL     1       2.524   3.391   2.230  1.00  0.00     0.031 C 
ATOM     50  C   UNL     1      -3.585   5.500  -0.033  1.00  0.00     0.029 A 
ATOM     51  C   UNL     1      -3.232   4.122  -0.349  1.00  0.00     0.049 A 
ATOM     52  H   UNL     1      -1.454   3.138   0.126  1.00  0.00     0.167 HD
ATOM     53  C   UNL     1       2.254   1.171   1.157  1.00  0.00     0.034 A 
ATOM     54  C   UNL     1      -4.020   3.260  -1.024  1.00  0.00     0.034 A 
ATOM     55  C   UNL     1       1.535   0.202   0.372  1.00  0.00     0.049 A 
ATOM     56  C   UNL     1      -3.479   1.899  -1.373  1.00  0.00     0.074 A 
ATOM     57  C   UNL     1       1.933  -1.072   0.004  1.00  0.00     0.029 A 
ATOM     58  N   UNL     1       0.272   0.395  -0.164  1.00  0.00    -0.354 N 
ATOM     59  N   UNL     1      -2.361   1.330  -0.991  1.00  0.00    -0.248 NA
ATOM     60  C   UNL     1      -4.299   1.066  -2.266  1.00  0.00     0.031 C 
ATOM     61  C   UNL     1       0.923  -1.636  -0.783  1.00  0.00     0.029 A 
ATOM     62  C   UNL     1      -0.120  -0.729  -0.872  1.00  0.00     0.049 A 
ATOM     63  H   UNL     1      -0.268   1.212  -0.058  1.00  0.00     0.167 HD
ATOM     64  C   UNL     1      -2.345   0.077  -1.594  1.00  0.00     0.074 A 
ATOM     65  C   UNL     1      -3.585  -0.050  -2.330  1.00  0.00     0.031 C 
ATOM     66  C   UNL     1      -1.375  -0.869  -1.566  1.00  0.00     0.034 A 
BRANCH  53  67
ATOM     67  C   UNL     1       3.617   0.797   1.671  1.00  0.00     0.023 A 
ATOM     68  C   UNL     1       3.819   0.494   3.030  1.00  0.00     0.012 A 
ATOM     69  C   UNL     1       4.701   0.722   0.773  1.00  0.00     0.148 A 
ATOM     70  C   UNL     1       5.091   0.152   3.494  1.00  0.00     0.002 A 
ATOM     71  C   UNL     1       5.953   0.340   1.233  1.00  0.00     0.091 A 
ATOM     72  F   UNL     1       4.487   1.039  -0.512  1.00  0.00    -0.205 F 
ATOM     73  C   UNL     1       6.153   0.066   2.595  1.00  0.00     0.022 A 
BRANCH  71  74
ATOM     74  S   UNL     1       7.361   0.136   0.138  1.00  0.00     0.127 S 
ATOM     75  O   UNL     1       8.202   1.267   0.527  1.00  0.00    -0.237 OA
ATOM     76  O   UNL     1       7.875  -1.173   0.541  1.00  0.00    -0.237 OA
ATOM     77  O   UNL     1       6.830   0.189  -1.216  1.00  0.00    -0.744 OA
ENDBRANCH  71  74
ENDBRANCH  53  67
BRANCH  54  78
ATOM     78  C   UNL     1      -5.379   3.678  -1.488  1.00  0.00     0.023 A 
ATOM     79  C   UNL     1      -6.520   2.994  -1.027  1.00  0.00     0.012 A 
ATOM     80  C   UNL     1      -5.545   4.740  -2.402  1.00  0.00     0.148 A 
ATOM     81  C   UNL     1      -7.793   3.344  -1.484  1.00  0.00     0.002 A 
ATOM     82  C   UNL     1      -6.819   5.130  -2.797  1.00  0.00     0.091 A 
ATOM     83  F   UNL     1      -4.449   5.346  -2.881  1.00  0.00    -0.205 F 
ATOM     84  C   UNL     1      -7.944   4.420  -2.355  1.00  0.00     0.022 A 
BRANCH  82  85
ATOM     85  S   UNL     1      -7.100   6.579  -3.820  1.00  0.00     0.127 S 
ATOM     86  O   UNL     1      -7.440   5.974  -5.106  1.00  0.00    -0.237 OA
ATOM     87  O   UNL     1      -8.219   7.230  -3.136  1.00  0.00    -0.237 OA
ATOM     88  O   UNL     1      -5.855   7.335  -3.787  1.00  0.00    -0.744 OA
ENDBRANCH  82  85
ENDBRANCH  54  78
BRANCH  66  89
ATOM     89  C   UNL     1      -1.610  -2.143  -2.337  1.00  0.00     0.023 A 
ATOM     90  C   UNL     1      -1.552  -2.130  -3.745  1.00  0.00     0.012 A 
ATOM     91  C   UNL     1      -1.803  -3.366  -1.665  1.00  0.00     0.148 A 
ATOM     92  C   UNL     1      -1.710  -3.309  -4.473  1.00  0.00     0.002 A 
ATOM     93  C   UNL     1      -1.910  -4.545  -2.395  1.00  0.00     0.091 A 
ATOM     94  F   UNL     1      -1.871  -3.356  -0.326  1.00  0.00    -0.205 F 
ATOM     95  C   UNL     1      -1.875  -4.517  -3.799  1.00  0.00     0.022 A 
BRANCH  93  96
ATOM     96  S   UNL     1      -2.031  -6.158  -1.614  1.00  0.00     0.127 S 
ATOM     97  O   UNL     1      -3.401  -6.547  -1.943  1.00  0.00    -0.237 OA
ATOM     98  O   UNL     1      -0.996  -6.919  -2.314  1.00  0.00    -0.237 OA
ATOM     99  O   UNL     1      -1.770  -5.941  -0.197  1.00  0.00    -0.744 OA
ENDBRANCH  93  96
ENDBRANCH  66  89
ENDBRANCH  40  41
ENDBRANCH  33  35
ENDBRANCH  32  33
ENDBRANCH  31  32
ENDBRANCH   1  31
TORSDOF 17
