REMARK SMILES COc1cc(/C=C2/CCc3c2nc2ccccc2c3C(=O)OCCOC(=O)c2ccc(-c3c4nc(c(-c5cccc(S(=O)(=O)[O-])c5F)c5ccc([nH]5)c(-c5cccc(S(=O)(=O)[O-])c5F)c5nc(c(-c6cccc(S(=O)(=O)[O-])c6F)c6ccc3[nH]6)C=C5)C=C4)cc2)cc(Br)c1O
REMARK SMILES IDX 24 1 23 2 22 3 20 4 21 5 19 6 6 7 7 8 8 9 11 10 9 11 10 12
REMARK SMILES IDX 12 13 13 14 18 15 14 16 17 17 15 18 16 19 5 20 3 21 4 22
REMARK SMILES IDX 94 23 92 24 91 25 93 26 2 27 1 28 95 29 25 31 26 32 27 33
REMARK SMILES IDX 28 34 29 35 90 36 30 37 89 38 31 39 32 40 33 41 83 42 34 43
REMARK SMILES IDX 88 44 82 45 84 46 35 47 87 48 81 49 80 50 36 52 68 53 48 54
REMARK SMILES IDX 67 55 49 56 52 57 66 58 85 59 50 60 51 61 65 63 86 64 53 65
REMARK SMILES IDX 37 66 38 67 46 68 39 69 41 70 47 71 40 72 42 73 43 74 44 75
REMARK SMILES IDX 45 76 69 77 70 78 78 79 71 80 73 81 79 82 72 83 74 84 75 85
REMARK SMILES IDX 76 86 77 87 54 88 55 89 63 90 56 91 58 92 64 93 57 94 59 95
REMARK SMILES IDX 60 96 61 97 62 98
REMARK H PARENT 95 30 84 51 52 62
REMARK Flexibility Score: inf
ROOT
ATOM      1  C   UNL     1       1.407  -8.184  -3.038  1.00  0.00     0.275 C 
ENDROOT
BRANCH   1   2
ATOM      2  C   UNL     1       2.490  -8.277  -1.961  1.00  0.00     0.275 C 
BRANCH   2   3
ATOM      3  O   UNL     1       2.111  -7.432  -0.858  1.00  0.00    -0.458 OA
BRANCH   3   4
ATOM      4  C   UNL     1       2.826  -6.295  -0.660  1.00  0.00     0.339 C 
ATOM      5  O   UNL     1       3.899  -6.025  -1.169  1.00  0.00    -0.246 OA
BRANCH   4   6
ATOM      6  C   UNL     1       1.944  -5.356   0.077  1.00  0.00     0.074 A 
ATOM      7  C   UNL     1      -0.425  -4.255   3.641  1.00  0.00     0.014 C 
ATOM      8  C   UNL     1      -0.451  -5.255   2.725  1.00  0.00    -0.021 C 
ATOM      9  C   UNL     1       0.142  -6.629   3.058  1.00  0.00     0.042 C 
ATOM     10  C   UNL     1       0.033  -4.969   1.368  1.00  0.00     0.071 A 
ATOM     11  C   UNL     1       1.032  -7.048   1.857  1.00  0.00     0.043 C 
ATOM     12  C   UNL     1       1.040  -5.822   1.014  1.00  0.00    -0.006 A 
ATOM     13  N   UNL     1      -0.252  -3.807   0.772  1.00  0.00    -0.248 NA
ATOM     14  C   UNL     1       0.714  -3.289   0.018  1.00  0.00     0.072 A 
ATOM     15  C   UNL     1       1.919  -3.970  -0.249  1.00  0.00     0.015 A 
ATOM     16  C   UNL     1       0.537  -1.993  -0.431  1.00  0.00     0.029 A 
ATOM     17  C   UNL     1       2.995  -3.210  -0.778  1.00  0.00     0.011 A 
ATOM     18  C   UNL     1       1.589  -1.270  -0.986  1.00  0.00     0.002 A 
ATOM     19  C   UNL     1       2.839  -1.860  -1.100  1.00  0.00     0.001 A 
BRANCH   7  20
ATOM     20  C   UNL     1       0.526  -3.124   3.517  1.00  0.00    -0.020 A 
ATOM     21  C   UNL     1       0.999  -0.813   2.937  1.00  0.00     0.162 A 
ATOM     22  C   UNL     1       0.089  -1.813   3.309  1.00  0.00     0.058 A 
ATOM     23  C   UNL     1       2.355  -1.123   2.786  1.00  0.00     0.172 A 
ATOM     24  C   UNL     1       2.808  -2.414   3.058  1.00  0.00     0.064 A 
ATOM     25  C   UNL     1       1.906  -3.401   3.456  1.00  0.00     0.028 A 
ATOM     26  Br  UNL     1       4.631  -2.897   2.850  1.00  0.00    -0.047 Br
BRANCH  21  27
ATOM     27  O   UNL     1       0.493   0.457   2.830  1.00  0.00    -0.493 OA
ATOM     28  C   UNL     1       0.633   1.048   1.540  1.00  0.00     0.278 C 
ENDBRANCH  21  27
BRANCH  23  29
ATOM     29  O   UNL     1       3.235  -0.161   2.376  1.00  0.00    -0.503 OA
ATOM     30  H   UNL     1       2.930   0.706   2.193  1.00  0.00     0.293 HD
ENDBRANCH  23  29
ENDBRANCH   7  20
ENDBRANCH   4   6
ENDBRANCH   3   4
ENDBRANCH   2   3
ENDBRANCH   1   2
BRANCH   1  31
ATOM     31  O   UNL     1       1.519  -6.920  -3.721  1.00  0.00    -0.458 OA
BRANCH  31  32
ATOM     32  C   UNL     1       0.406  -6.148  -3.757  1.00  0.00     0.338 C 
ATOM     33  O   UNL     1      -0.694  -6.412  -3.306  1.00  0.00    -0.246 OA
BRANCH  32  34
ATOM     34  C   UNL     1       0.743  -4.869  -4.410  1.00  0.00     0.060 A 
ATOM     35  C   UNL     1       0.166  -4.465  -5.611  1.00  0.00     0.016 A 
ATOM     36  C   UNL     1       1.603  -4.011  -3.746  1.00  0.00     0.016 A 
ATOM     37  C   UNL     1       0.491  -3.204  -6.149  1.00  0.00     0.010 A 
ATOM     38  C   UNL     1       1.819  -2.721  -4.221  1.00  0.00     0.010 A 
ATOM     39  C   UNL     1       1.308  -2.296  -5.448  1.00  0.00    -0.014 A 
BRANCH  39  40
ATOM     40  C   UNL     1       1.642  -0.916  -5.933  1.00  0.00     0.031 A 
ATOM     41  C   UNL     1       3.078  -0.409  -5.950  1.00  0.00     0.074 A 
ATOM     42  C   UNL     1       0.655  -0.047  -6.242  1.00  0.00     0.049 A 
ATOM     43  N   UNL     1       3.530   0.784  -6.259  1.00  0.00    -0.248 NA
ATOM     44  C   UNL     1       4.139  -1.333  -5.509  1.00  0.00     0.031 C 
ATOM     45  C   UNL     1      -0.780  -0.312  -6.120  1.00  0.00     0.029 A 
ATOM     46  N   UNL     1       0.709   1.248  -6.702  1.00  0.00    -0.354 N 
ATOM     47  C   UNL     1       4.897   0.763  -5.996  1.00  0.00     0.074 A 
ATOM     48  C   UNL     1       5.197  -0.536  -5.442  1.00  0.00     0.031 C 
ATOM     49  C   UNL     1      -1.467   0.762  -6.540  1.00  0.00     0.029 A 
ATOM     50  C   UNL     1      -0.527   1.806  -6.938  1.00  0.00     0.049 A 
ATOM     51  H   UNL     1       1.554   1.732  -6.850  1.00  0.00     0.167 HD
ATOM     52  C   UNL     1       5.838   1.706  -6.245  1.00  0.00     0.034 A 
ATOM     53  C   UNL     1      -0.876   3.010  -7.433  1.00  0.00     0.034 A 
ATOM     54  C   UNL     1       5.577   2.950  -6.916  1.00  0.00     0.049 A 
ATOM     55  C   UNL     1       0.190   3.989  -7.836  1.00  0.00     0.074 A 
ATOM     56  C   UNL     1       6.489   3.890  -7.364  1.00  0.00     0.029 A 
ATOM     57  N   UNL     1       4.320   3.418  -7.253  1.00  0.00    -0.354 N 
ATOM     58  N   UNL     1       1.491   3.870  -7.740  1.00  0.00    -0.248 NA
ATOM     59  C   UNL     1      -0.256   5.251  -8.446  1.00  0.00     0.031 C 
ATOM     60  C   UNL     1       5.781   4.932  -7.970  1.00  0.00     0.029 A 
ATOM     61  C   UNL     1       4.430   4.634  -7.903  1.00  0.00     0.049 A 
ATOM     62  H   UNL     1       3.473   2.955  -7.060  1.00  0.00     0.167 HD
ATOM     63  C   UNL     1       2.020   5.034  -8.285  1.00  0.00     0.074 A 
ATOM     64  C   UNL     1       0.901   5.835  -8.735  1.00  0.00     0.031 C 
ATOM     65  C   UNL     1       3.318   5.410  -8.383  1.00  0.00     0.034 A 
BRANCH  52  66
ATOM     66  C   UNL     1       7.277   1.390  -5.917  1.00  0.00     0.023 A 
ATOM     67  C   UNL     1       7.978   0.476  -6.731  1.00  0.00     0.012 A 
ATOM     68  C   UNL     1       7.967   2.077  -4.898  1.00  0.00     0.148 A 
ATOM     69  C   UNL     1       9.335   0.234  -6.526  1.00  0.00     0.002 A 
ATOM     70  C   UNL     1       9.330   1.859  -4.724  1.00  0.00     0.091 A 
ATOM     71  F   UNL     1       7.282   2.939  -4.133  1.00  0.00    -0.205 F 
ATOM     72  C   UNL     1      10.012   0.934  -5.532  1.00  0.00     0.022 A 
BRANCH  70  73
ATOM     73  S   UNL     1      10.320   2.751  -3.518  1.00  0.00     0.127 S 
ATOM     74  O   UNL     1      10.766   1.665  -2.644  1.00  0.00    -0.237 OA
ATOM     75  O   UNL     1      11.370   3.330  -4.355  1.00  0.00    -0.237 OA
ATOM     76  O   UNL     1       9.426   3.715  -2.894  1.00  0.00    -0.744 OA
ENDBRANCH  70  73
ENDBRANCH  52  66
BRANCH  53  77
ATOM     77  C   UNL     1      -2.315   3.300  -7.684  1.00  0.00     0.023 A 
ATOM     78  C   UNL     1      -2.808   3.195  -8.999  1.00  0.00     0.012 A 
ATOM     79  C   UNL     1      -3.205   3.587  -6.632  1.00  0.00     0.148 A 
ATOM     80  C   UNL     1      -4.165   3.374  -9.265  1.00  0.00     0.002 A 
ATOM     81  C   UNL     1      -4.562   3.727  -6.899  1.00  0.00     0.091 A 
ATOM     82  F   UNL     1      -2.708   3.681  -5.391  1.00  0.00    -0.205 F 
ATOM     83  C   UNL     1      -5.043   3.629  -8.215  1.00  0.00     0.022 A 
BRANCH  81  84
ATOM     84  S   UNL     1      -5.789   3.957  -5.607  1.00  0.00     0.127 S 
ATOM     85  O   UNL     1      -6.330   5.273  -5.941  1.00  0.00    -0.237 OA
ATOM     86  O   UNL     1      -6.696   2.836  -5.856  1.00  0.00    -0.237 OA
ATOM     87  O   UNL     1      -5.059   3.882  -4.349  1.00  0.00    -0.744 OA
ENDBRANCH  81  84
ENDBRANCH  53  77
BRANCH  65  88
ATOM     88  C   UNL     1       3.623   6.750  -8.991  1.00  0.00     0.023 A 
ATOM     89  C   UNL     1       3.429   7.914  -8.222  1.00  0.00     0.012 A 
ATOM     90  C   UNL     1       4.201   6.851 -10.271  1.00  0.00     0.148 A 
ATOM     91  C   UNL     1       3.791   9.162  -8.724  1.00  0.00     0.002 A 
ATOM     92  C   UNL     1       4.590   8.096 -10.753  1.00  0.00     0.091 A 
ATOM     93  F   UNL     1       4.372   5.729 -10.985  1.00  0.00    -0.205 F 
ATOM     94  C   UNL     1       4.380   9.252  -9.983  1.00  0.00     0.022 A 
BRANCH  92  95
ATOM     95  S   UNL     1       5.416   8.309 -12.334  1.00  0.00     0.127 S 
ATOM     96  O   UNL     1       4.399   9.019 -13.107  1.00  0.00    -0.237 OA
ATOM     97  O   UNL     1       6.580   9.116 -11.969  1.00  0.00    -0.237 OA
ATOM     98  O   UNL     1       5.732   6.968 -12.809  1.00  0.00    -0.744 OA
ENDBRANCH  92  95
ENDBRANCH  65  88
ENDBRANCH  39  40
ENDBRANCH  32  34
ENDBRANCH  31  32
ENDBRANCH   1  31
TORSDOF 17
