REMARK SMILES Cc1cccc(NS(=O)(=O)c2ccc(Br)c(C(=O)OCCOC(=O)c3ccc(-c4c5nc(c(-c6cccc(S(=O)(=O)[O-])c6F)c6ccc([nH]6)c(-c6cccc(S(=O)(=O)[O-])c6F)c6nc(c(-c7cccc(S(=O)(=O)[O-])c7F)c7ccc4[nH]7)C=C6)C=C5)cc3)c2)c1
REMARK SMILES IDX 20 1 19 2 17 3 18 4 16 5 11 6 12 7 88 8 13 9 14 10 15 11
REMARK SMILES IDX 8 12 9 13 10 14 7 15 6 17 1 18 2 19 3 20 89 21 4 22 5 23
REMARK SMILES IDX 21 24 22 25 23 26 24 27 25 28 26 29 87 30 27 31 86 32 28 33
REMARK SMILES IDX 29 34 30 35 80 36 31 37 85 38 79 39 81 40 32 41 84 42 78 43
REMARK SMILES IDX 77 44 33 46 65 47 45 48 64 49 46 50 49 51 63 52 82 53 47 54
REMARK SMILES IDX 48 55 62 57 83 58 50 59 34 60 35 61 43 62 36 63 38 64 44 65
REMARK SMILES IDX 37 66 39 67 40 68 41 69 42 70 66 71 67 72 75 73 68 74 70 75
REMARK SMILES IDX 76 76 69 77 71 78 72 79 73 80 74 81 51 82 52 83 60 84 53 85
REMARK SMILES IDX 55 86 61 87 54 88 56 89 57 90 58 91 59 92
REMARK H PARENT 7 16 81 45 49 56
REMARK Flexibility Score: inf
ROOT
ATOM      1  C   UNL     1      -8.869  -3.177   2.193  1.00  0.00     0.275 C 
ENDROOT
BRANCH   1   2
ATOM      2  O   UNL     1      -7.639  -2.606   1.758  1.00  0.00    -0.458 OA
BRANCH   2   3
ATOM      3  C   UNL     1      -6.784  -2.097   2.670  1.00  0.00     0.339 C 
ATOM      4  O   UNL     1      -6.981  -1.924   3.857  1.00  0.00    -0.246 OA
BRANCH   3   5
ATOM      5  C   UNL     1      -5.534  -1.833   1.927  1.00  0.00     0.075 A 
ATOM      6  C   UNL     1      -4.034  -0.254   0.845  1.00  0.00     0.088 A 
ATOM      7  C   UNL     1      -3.503  -1.332   0.131  1.00  0.00     0.023 A 
ATOM      8  C   UNL     1      -5.076  -0.506   1.752  1.00  0.00     0.039 A 
ATOM      9  C   UNL     1      -3.890  -2.647   0.369  1.00  0.00     0.018 A 
ATOM     10  C   UNL     1      -4.901  -2.905   1.277  1.00  0.00     0.032 A 
ATOM     11  Br  UNL     1      -5.362  -4.732   1.538  1.00  0.00    -0.050 Br
BRANCH   6  12
ATOM     12  S   UNL     1      -3.556   1.432   0.409  1.00  0.00     0.261 S 
ATOM     13  O   UNL     1      -4.141   2.292   1.418  1.00  0.00    -0.201 OA
ATOM     14  O   UNL     1      -3.791   1.602  -1.002  1.00  0.00    -0.201 OA
BRANCH  12  15
ATOM     15  N   UNL     1      -1.900   1.599   0.692  1.00  0.00    -0.280 N 
ATOM     16  H   UNL     1      -1.641   2.184   1.441  1.00  0.00     0.180 HD
BRANCH  15  17
ATOM     17  C   UNL     1      -0.834   0.989  -0.033  1.00  0.00     0.049 A 
ATOM     18  C   UNL     1       2.891   0.369   0.526  1.00  0.00     0.044 C 
ATOM     19  C   UNL     1       1.481   0.232   0.042  1.00  0.00    -0.049 A 
ATOM     20  C   UNL     1       1.159  -0.791  -0.852  1.00  0.00     0.003 A 
ATOM     21  C   UNL     1       0.460   1.086   0.494  1.00  0.00     0.030 A 
ATOM     22  C   UNL     1      -0.078  -0.787  -1.480  1.00  0.00     0.002 A 
ATOM     23  C   UNL     1      -1.022   0.183  -1.145  1.00  0.00     0.027 A 
ENDBRANCH  15  17
ENDBRANCH  12  15
ENDBRANCH   6  12
ENDBRANCH   3   5
ENDBRANCH   2   3
ENDBRANCH   1   2
BRANCH   1  24
ATOM     24  C   UNL     1      -9.911  -2.222   2.789  1.00  0.00     0.275 C 
BRANCH  24  25
ATOM     25  O   UNL     1      -9.707  -0.780   2.788  1.00  0.00    -0.458 OA
BRANCH  25  26
ATOM     26  C   UNL     1      -9.205   0.078   1.863  1.00  0.00     0.338 C 
ATOM     27  O   UNL     1      -8.950   1.238   2.156  1.00  0.00    -0.246 OA
BRANCH  26  28
ATOM     28  C   UNL     1      -8.951  -0.432   0.509  1.00  0.00     0.060 A 
ATOM     29  C   UNL     1      -7.813  -0.034  -0.214  1.00  0.00     0.016 A 
ATOM     30  C   UNL     1      -9.820  -1.382  -0.004  1.00  0.00     0.016 A 
ATOM     31  C   UNL     1      -7.518  -0.639  -1.435  1.00  0.00     0.010 A 
ATOM     32  C   UNL     1      -9.421  -2.124  -1.080  1.00  0.00     0.010 A 
ATOM     33  C   UNL     1      -8.338  -1.681  -1.858  1.00  0.00    -0.014 A 
BRANCH  33  34
ATOM     34  C   UNL     1      -8.468  -2.109  -3.242  1.00  0.00     0.031 A 
ATOM     35  C   UNL     1      -7.542  -3.014  -3.914  1.00  0.00     0.074 A 
ATOM     36  C   UNL     1      -9.661  -1.749  -3.772  1.00  0.00     0.049 A 
ATOM     37  N   UNL     1      -7.498  -3.107  -5.194  1.00  0.00    -0.248 NA
ATOM     38  C   UNL     1      -6.592  -3.884  -3.233  1.00  0.00     0.031 C 
ATOM     39  C   UNL     1     -10.415  -2.297  -4.879  1.00  0.00     0.029 A 
ATOM     40  N   UNL     1     -10.448  -0.680  -3.325  1.00  0.00    -0.354 N 
ATOM     41  C   UNL     1      -6.746  -4.215  -5.505  1.00  0.00     0.074 A 
ATOM     42  C   UNL     1      -6.111  -4.597  -4.263  1.00  0.00     0.031 C 
ATOM     43  C   UNL     1     -11.419  -1.445  -5.170  1.00  0.00     0.029 A 
ATOM     44  C   UNL     1     -11.218  -0.230  -4.389  1.00  0.00     0.049 A 
ATOM     45  H   UNL     1     -10.453  -0.310  -2.413  1.00  0.00     0.167 HD
ATOM     46  C   UNL     1      -6.897  -4.765  -6.743  1.00  0.00     0.034 A 
ATOM     47  C   UNL     1     -11.074   1.051  -4.844  1.00  0.00     0.034 A 
ATOM     48  C   UNL     1      -7.922  -4.024  -7.505  1.00  0.00     0.049 A 
ATOM     49  C   UNL     1     -10.436   1.040  -6.231  1.00  0.00     0.074 A 
ATOM     50  C   UNL     1      -9.275  -4.215  -7.735  1.00  0.00     0.029 A 
ATOM     51  N   UNL     1      -7.666  -2.714  -7.863  1.00  0.00    -0.354 N 
ATOM     52  N   UNL     1     -10.172  -0.038  -6.922  1.00  0.00    -0.248 NA
ATOM     53  C   UNL     1      -9.927   2.247  -6.876  1.00  0.00     0.031 C 
ATOM     54  C   UNL     1      -9.823  -2.986  -8.220  1.00  0.00     0.029 A 
ATOM     55  C   UNL     1      -8.799  -2.060  -8.319  1.00  0.00     0.049 A 
ATOM     56  H   UNL     1      -6.778  -2.293  -7.801  1.00  0.00     0.167 HD
ATOM     57  C   UNL     1      -9.305   0.274  -7.934  1.00  0.00     0.074 A 
ATOM     58  C   UNL     1      -9.198   1.723  -7.873  1.00  0.00     0.031 C 
ATOM     59  C   UNL     1      -8.666  -0.659  -8.708  1.00  0.00     0.034 A 
BRANCH  46  60
ATOM     60  C   UNL     1      -6.356  -6.108  -7.201  1.00  0.00     0.023 A 
ATOM     61  C   UNL     1      -7.027  -6.727  -8.283  1.00  0.00     0.012 A 
ATOM     62  C   UNL     1      -5.254  -6.817  -6.666  1.00  0.00     0.148 A 
ATOM     63  C   UNL     1      -6.693  -7.999  -8.755  1.00  0.00     0.002 A 
ATOM     64  C   UNL     1      -4.946  -8.112  -7.108  1.00  0.00     0.091 A 
ATOM     65  F   UNL     1      -4.458  -6.224  -5.769  1.00  0.00    -0.205 F 
ATOM     66  C   UNL     1      -5.668  -8.704  -8.150  1.00  0.00     0.022 A 
BRANCH  64  67
ATOM     67  S   UNL     1      -3.669  -9.137  -6.354  1.00  0.00     0.127 S 
ATOM     68  O   UNL     1      -4.415 -10.350  -6.010  1.00  0.00    -0.237 OA
ATOM     69  O   UNL     1      -2.711  -9.306  -7.444  1.00  0.00    -0.237 OA
ATOM     70  O   UNL     1      -3.179  -8.393  -5.199  1.00  0.00    -0.744 OA
ENDBRANCH  64  67
ENDBRANCH  46  60
BRANCH  47  71
ATOM     71  C   UNL     1     -10.723   2.030  -3.739  1.00  0.00     0.023 A 
ATOM     72  C   UNL     1     -11.589   2.104  -2.615  1.00  0.00     0.012 A 
ATOM     73  C   UNL     1      -9.421   2.535  -3.588  1.00  0.00     0.148 A 
ATOM     74  C   UNL     1     -11.121   2.522  -1.360  1.00  0.00     0.002 A 
ATOM     75  C   UNL     1      -8.963   2.949  -2.337  1.00  0.00     0.091 A 
ATOM     76  F   UNL     1      -8.587   2.533  -4.633  1.00  0.00    -0.205 F 
ATOM     77  C   UNL     1      -9.794   2.913  -1.213  1.00  0.00     0.022 A 
BRANCH  75  78
ATOM     78  S   UNL     1      -7.219   3.342  -2.153  1.00  0.00     0.127 S 
ATOM     79  O   UNL     1      -7.016   3.259  -0.708  1.00  0.00    -0.237 OA
ATOM     80  O   UNL     1      -6.569   2.283  -2.914  1.00  0.00    -0.237 OA
ATOM     81  O   UNL     1      -7.162   4.690  -2.711  1.00  0.00    -0.744 OA
ENDBRANCH  75  78
ENDBRANCH  47  71
BRANCH  59  82
ATOM     82  C   UNL     1      -7.822  -0.280  -9.913  1.00  0.00     0.023 A 
ATOM     83  C   UNL     1      -8.155   0.856 -10.678  1.00  0.00     0.012 A 
ATOM     84  C   UNL     1      -6.773  -1.092 -10.414  1.00  0.00     0.148 A 
ATOM     85  C   UNL     1      -7.420   1.233 -11.805  1.00  0.00     0.002 A 
ATOM     86  C   UNL     1      -6.107  -0.769 -11.589  1.00  0.00     0.091 A 
ATOM     87  F   UNL     1      -6.389  -2.185  -9.752  1.00  0.00    -0.205 F 
ATOM     88  C   UNL     1      -6.400   0.416 -12.265  1.00  0.00     0.022 A 
BRANCH  86  89
ATOM     89  S   UNL     1      -4.924  -1.882 -12.361  1.00  0.00     0.127 S 
ATOM     90  O   UNL     1      -5.526  -2.075 -13.682  1.00  0.00    -0.237 OA
ATOM     91  O   UNL     1      -3.707  -1.073 -12.357  1.00  0.00    -0.237 OA
ATOM     92  O   UNL     1      -4.883  -3.079 -11.534  1.00  0.00    -0.744 OA
ENDBRANCH  86  89
ENDBRANCH  59  82
ENDBRANCH  33  34
ENDBRANCH  26  28
ENDBRANCH  25  26
ENDBRANCH  24  25
ENDBRANCH   1  24
TORSDOF 17
