REMARK SMILES Nn1c(Cc2ccc(F)c(F)c2)nnc1SCC(=O)OCCOC(=O)c1ccc(-c2c3nc(c(-c4cccc(S(=O)(=O)[O-])c4F)c4ccc([nH]4)c(-c4cccc(S(=O)(=O)[O-])c4F)c4nc(c(-c5cccc(S(=O)(=O)[O-])c5F)c5ccc2[nH]5)C=C4)C=C3)cc1
REMARK SMILES IDX 21 1 20 2 18 3 19 4 17 5 16 6 15 7 2 8 3 9 13 10 14 11 1 12
REMARK SMILES IDX 4 15 5 16 6 17 12 18 7 19 10 20 8 21 11 22 9 23 22 24 23 25
REMARK SMILES IDX 24 26 25 27 26 28 27 29 88 30 28 31 87 32 29 33 30 34 31 35
REMARK SMILES IDX 81 36 32 37 86 38 80 39 82 40 33 41 85 42 79 43 78 44 34 46
REMARK SMILES IDX 66 47 46 48 65 49 47 50 50 51 64 52 83 53 48 54 49 55 63 57
REMARK SMILES IDX 84 58 51 59 35 60 36 61 44 62 37 63 39 64 45 65 38 66 40 67
REMARK SMILES IDX 41 68 42 69 43 70 67 71 68 72 76 73 69 74 71 75 77 76 70 77
REMARK SMILES IDX 72 78 73 79 74 80 75 81 52 82 53 83 61 84 54 85 56 86 62 87
REMARK SMILES IDX 55 88 57 89 58 90 59 91 60 92
REMARK H PARENT 1 13 1 14 82 45 50 56
REMARK Flexibility Score: inf
ROOT
ATOM      1  C   UNL     1       2.739  -2.243  -3.527  1.00  0.00     0.274 C 
ENDROOT
BRANCH   1   2
ATOM      2  O   UNL     1       1.853  -2.452  -2.410  1.00  0.00    -0.461 OA
BRANCH   2   3
ATOM      3  C   UNL     1       2.429  -2.930  -1.281  1.00  0.00     0.316 C 
ATOM      4  O   UNL     1       3.637  -3.127  -1.159  1.00  0.00    -0.251 OA
BRANCH   3   5
ATOM      5  C   UNL     1       1.490  -3.196  -0.130  1.00  0.00     0.200 C 
BRANCH   5   6
ATOM      6  S   UNL     1      -0.277  -3.166  -0.465  1.00  0.00    -0.073 SA
BRANCH   6   7
ATOM      7  C   UNL     1      -0.674  -1.499  -0.711  1.00  0.00     0.210 A 
ATOM      8  N   UNL     1      -0.259  -0.429   0.048  1.00  0.00    -0.221 N 
ATOM      9  C   UNL     1      -0.873   0.676  -0.502  1.00  0.00     0.157 A 
ATOM     10  N   UNL     1      -1.688   0.273  -1.460  1.00  0.00    -0.132 NA
ATOM     11  N   UNL     1      -1.560  -1.089  -1.592  1.00  0.00    -0.121 NA
BRANCH   8  12
ATOM     12  N   UNL     1       0.554  -0.446   1.230  1.00  0.00    -0.336 N 
ATOM     13  H   UNL     1       0.781   0.398   1.683  1.00  0.00     0.178 HD
ATOM     14  H   UNL     1       0.884  -1.301   1.588  1.00  0.00     0.178 HD
ENDBRANCH   8  12
BRANCH   9  15
ATOM     15  C   UNL     1      -0.643   2.077  -0.038  1.00  0.00     0.115 C 
BRANCH  15  16
ATOM     16  C   UNL     1      -0.936   3.120  -1.096  1.00  0.00    -0.037 A 
ATOM     17  C   UNL     1      -2.257   3.527  -1.347  1.00  0.00     0.007 A 
ATOM     18  C   UNL     1       0.098   3.650  -1.882  1.00  0.00     0.046 A 
ATOM     19  C   UNL     1      -2.536   4.437  -2.370  1.00  0.00     0.043 A 
ATOM     20  C   UNL     1      -0.189   4.550  -2.903  1.00  0.00     0.159 A 
ATOM     21  C   UNL     1      -1.498   4.939  -3.147  1.00  0.00     0.158 A 
ATOM     22  F   UNL     1       0.811   5.027  -3.659  1.00  0.00    -0.204 F 
ATOM     23  F   UNL     1      -1.775   5.793  -4.143  1.00  0.00    -0.204 F 
ENDBRANCH  15  16
ENDBRANCH   9  15
ENDBRANCH   6   7
ENDBRANCH   5   6
ENDBRANCH   3   5
ENDBRANCH   2   3
ENDBRANCH   1   2
BRANCH   1  24
ATOM     24  C   UNL     1       3.124  -0.774  -3.682  1.00  0.00     0.275 C 
BRANCH  24  25
ATOM     25  O   UNL     1       3.754  -0.273  -2.488  1.00  0.00    -0.458 OA
BRANCH  25  26
ATOM     26  C   UNL     1       2.999   0.600  -1.791  1.00  0.00     0.338 C 
ATOM     27  O   UNL     1       1.873   0.985  -2.059  1.00  0.00    -0.246 OA
BRANCH  26  28
ATOM     28  C   UNL     1       3.663   1.067  -0.569  1.00  0.00     0.060 A 
ATOM     29  C   UNL     1       3.826   0.191   0.504  1.00  0.00     0.016 A 
ATOM     30  C   UNL     1       3.865   2.440  -0.406  1.00  0.00     0.016 A 
ATOM     31  C   UNL     1       4.095   0.709   1.772  1.00  0.00     0.010 A 
ATOM     32  C   UNL     1       4.199   2.946   0.851  1.00  0.00     0.010 A 
ATOM     33  C   UNL     1       4.262   2.092   1.962  1.00  0.00    -0.014 A 
BRANCH  33  34
ATOM     34  C   UNL     1       4.485   2.645   3.324  1.00  0.00     0.031 A 
ATOM     35  C   UNL     1       3.459   3.535   3.978  1.00  0.00     0.074 A 
ATOM     36  C   UNL     1       5.625   2.351   3.977  1.00  0.00     0.049 A 
ATOM     37  N   UNL     1       3.498   4.110   5.152  1.00  0.00    -0.248 NA
ATOM     38  C   UNL     1       2.229   3.816   3.218  1.00  0.00     0.031 C 
ATOM     39  C   UNL     1       6.709   1.528   3.442  1.00  0.00     0.029 A 
ATOM     40  N   UNL     1       6.063   2.715   5.225  1.00  0.00    -0.354 N 
ATOM     41  C   UNL     1       2.326   4.850   5.259  1.00  0.00     0.074 A 
ATOM     42  C   UNL     1       1.589   4.648   4.030  1.00  0.00     0.031 C 
ATOM     43  C   UNL     1       7.681   1.435   4.362  1.00  0.00     0.029 A 
ATOM     44  C   UNL     1       7.307   2.220   5.535  1.00  0.00     0.049 A 
ATOM     45  H   UNL     1       5.537   3.277   5.839  1.00  0.00     0.167 HD
ATOM     46  C   UNL     1       1.893   5.612   6.291  1.00  0.00     0.034 A 
ATOM     47  C   UNL     1       8.068   2.382   6.635  1.00  0.00     0.034 A 
ATOM     48  C   UNL     1       2.599   5.783   7.532  1.00  0.00     0.049 A 
ATOM     49  C   UNL     1       7.550   3.208   7.776  1.00  0.00     0.074 A 
ATOM     50  C   UNL     1       2.213   6.505   8.649  1.00  0.00     0.029 A 
ATOM     51  N   UNL     1       3.833   5.226   7.825  1.00  0.00    -0.354 N 
ATOM     52  N   UNL     1       6.392   3.812   7.894  1.00  0.00    -0.248 NA
ATOM     53  C   UNL     1       8.433   3.362   8.941  1.00  0.00     0.031 C 
ATOM     54  C   UNL     1       3.211   6.376   9.622  1.00  0.00     0.029 A 
ATOM     55  C   UNL     1       4.222   5.583   9.105  1.00  0.00     0.049 A 
ATOM     56  H   UNL     1       4.356   4.659   7.213  1.00  0.00     0.167 HD
ATOM     57  C   UNL     1       6.405   4.412   9.147  1.00  0.00     0.074 A 
ATOM     58  C   UNL     1       7.671   4.072   9.763  1.00  0.00     0.031 C 
ATOM     59  C   UNL     1       5.464   5.200   9.723  1.00  0.00     0.034 A 
BRANCH  46  60
ATOM     60  C   UNL     1       0.553   6.279   6.153  1.00  0.00     0.023 A 
ATOM     61  C   UNL     1      -0.610   5.537   6.441  1.00  0.00     0.012 A 
ATOM     62  C   UNL     1       0.442   7.642   5.824  1.00  0.00     0.148 A 
ATOM     63  C   UNL     1      -1.865   6.142   6.394  1.00  0.00     0.002 A 
ATOM     64  C   UNL     1      -0.813   8.244   5.803  1.00  0.00     0.091 A 
ATOM     65  F   UNL     1       1.555   8.324   5.519  1.00  0.00    -0.205 F 
ATOM     66  C   UNL     1      -1.966   7.496   6.086  1.00  0.00     0.022 A 
BRANCH  64  67
ATOM     67  S   UNL     1      -1.003   9.999   5.466  1.00  0.00     0.127 S 
ATOM     68  O   UNL     1      -1.191  10.004   4.017  1.00  0.00    -0.237 OA
ATOM     69  O   UNL     1      -2.198  10.347   6.236  1.00  0.00    -0.237 OA
ATOM     70  O   UNL     1       0.224  10.613   5.957  1.00  0.00    -0.744 OA
ENDBRANCH  64  67
ENDBRANCH  46  60
BRANCH  47  71
ATOM     71  C   UNL     1       9.377   1.680   6.717  1.00  0.00     0.023 A 
ATOM     72  C   UNL     1       9.507   0.564   7.564  1.00  0.00     0.012 A 
ATOM     73  C   UNL     1      10.457   2.048   5.894  1.00  0.00     0.148 A 
ATOM     74  C   UNL     1      10.692  -0.173   7.589  1.00  0.00     0.002 A 
ATOM     75  C   UNL     1      11.613   1.276   5.882  1.00  0.00     0.091 A 
ATOM     76  F   UNL     1      10.330   3.129   5.110  1.00  0.00    -0.205 F 
ATOM     77  C   UNL     1      11.738   0.171   6.736  1.00  0.00     0.022 A 
BRANCH  75  78
ATOM     78  S   UNL     1      12.902   1.596   4.674  1.00  0.00     0.127 S 
ATOM     79  O   UNL     1      13.682   2.642   5.326  1.00  0.00    -0.237 OA
ATOM     80  O   UNL     1      13.577   0.302   4.567  1.00  0.00    -0.237 OA
ATOM     81  O   UNL     1      12.171   1.981   3.471  1.00  0.00    -0.744 OA
ENDBRANCH  75  78
ENDBRANCH  47  71
BRANCH  59  82
ATOM     82  C   UNL     1       5.775   5.764  11.080  1.00  0.00     0.023 A 
ATOM     83  C   UNL     1       6.612   6.894  11.173  1.00  0.00     0.012 A 
ATOM     84  C   UNL     1       5.207   5.226  12.248  1.00  0.00     0.148 A 
ATOM     85  C   UNL     1       6.893   7.467  12.413  1.00  0.00     0.002 A 
ATOM     86  C   UNL     1       5.471   5.819  13.479  1.00  0.00     0.091 A 
ATOM     87  F   UNL     1       4.429   4.137  12.148  1.00  0.00    -0.205 F 
ATOM     88  C   UNL     1       6.316   6.936  13.565  1.00  0.00     0.022 A 
BRANCH  86  89
ATOM     89  S   UNL     1       4.696   5.194  14.973  1.00  0.00     0.127 S 
ATOM     90  O   UNL     1       5.547   4.055  15.307  1.00  0.00    -0.237 OA
ATOM     91  O   UNL     1       4.803   6.322  15.900  1.00  0.00    -0.237 OA
ATOM     92  O   UNL     1       3.329   4.884  14.571  1.00  0.00    -0.744 OA
ENDBRANCH  86  89
ENDBRANCH  59  82
ENDBRANCH  33  34
ENDBRANCH  26  28
ENDBRANCH  25  26
ENDBRANCH  24  25
ENDBRANCH   1  24
TORSDOF 19
