REMARK SMILES O=C(OCCOC(=O)[C@@H]1[C@@H](C(=O)Nc2cccc(C(F)(F)F)c2)[C@@H]2C=C[C@H]1O2)c1ccc(-c2c3nc(c(-c4cccc(S(=O)(=O)[O-])c4F)c4ccc([nH]4)c(-c4cccc(S(=O)(=O)[O-])c4F)c4nc(c(-c5cccc(S(=O)(=O)[O-])c5F)c5ccc2[nH]5)C=C4)C=C3)cc1
REMARK SMILES IDX 4 1 3 2 2 3 1 4 29 5 30 6 91 7 31 8 90 9 32 10 33 11 34 12
REMARK SMILES IDX 84 13 35 14 89 15 83 16 85 17 36 18 88 19 82 20 81 21 37 23
REMARK SMILES IDX 69 24 49 25 68 26 50 27 53 28 67 29 86 30 51 31 52 32 66 34
REMARK SMILES IDX 87 35 54 36 38 37 39 38 47 39 40 40 42 41 48 42 41 43 43 44
REMARK SMILES IDX 44 45 45 46 46 47 70 48 71 49 79 50 72 51 74 52 80 53 73 54
REMARK SMILES IDX 75 55 76 56 77 57 78 58 55 59 56 60 64 61 57 62 59 63 65 64
REMARK SMILES IDX 58 65 60 66 61 67 62 68 63 69 5 70 6 71 7 72 8 73 9 74 10 75
REMARK SMILES IDX 27 76 24 77 26 78 28 79 25 80 11 81 12 82 13 83 14 85 15 86
REMARK SMILES IDX 23 87 16 88 18 89 17 90 19 91 20 92 21 93 22 94
REMARK H PARENT 85 22 53 33 13 84
REMARK Flexibility Score: inf
ROOT
ATOM      1  C   UNL     1       4.679   1.621   0.246  1.00  0.00     0.275 C 
ENDROOT
BRANCH   1   2
ATOM      2  O   UNL     1       3.668   1.267  -0.704  1.00  0.00    -0.458 OA
BRANCH   2   3
ATOM      3  C   UNL     1       3.447   0.066  -1.288  1.00  0.00     0.338 C 
ATOM      4  O   UNL     1       2.526  -0.017  -2.101  1.00  0.00    -0.246 OA
BRANCH   3   5
ATOM      5  C   UNL     1       4.148  -1.201  -0.889  1.00  0.00     0.060 A 
ATOM      6  C   UNL     1       5.318  -1.319  -0.136  1.00  0.00     0.016 A 
ATOM      7  C   UNL     1       3.485  -2.387  -1.231  1.00  0.00     0.016 A 
ATOM      8  C   UNL     1       5.700  -2.540   0.420  1.00  0.00     0.010 A 
ATOM      9  C   UNL     1       3.845  -3.609  -0.666  1.00  0.00     0.010 A 
ATOM     10  C   UNL     1       4.949  -3.688   0.184  1.00  0.00    -0.014 A 
BRANCH  10  11
ATOM     11  C   UNL     1       5.478  -4.985   0.651  1.00  0.00     0.031 A 
ATOM     12  C   UNL     1       6.081  -5.887  -0.383  1.00  0.00     0.074 A 
ATOM     13  C   UNL     1       5.505  -5.303   1.960  1.00  0.00     0.049 A 
ATOM     14  N   UNL     1       6.728  -7.007  -0.223  1.00  0.00    -0.248 NA
ATOM     15  C   UNL     1       5.949  -5.466  -1.792  1.00  0.00     0.031 C 
ATOM     16  C   UNL     1       4.947  -4.494   3.046  1.00  0.00     0.029 A 
ATOM     17  N   UNL     1       6.028  -6.396   2.604  1.00  0.00    -0.354 N 
ATOM     18  C   UNL     1       7.072  -7.420  -1.502  1.00  0.00     0.074 A 
ATOM     19  C   UNL     1       6.507  -6.476  -2.433  1.00  0.00     0.031 C 
ATOM     20  C   UNL     1       5.136  -5.128   4.217  1.00  0.00     0.029 A 
ATOM     21  C   UNL     1       5.843  -6.379   3.969  1.00  0.00     0.049 A 
ATOM     22  H   UNL     1       6.492  -7.125   2.134  1.00  0.00     0.167 HD
ATOM     23  C   UNL     1       7.841  -8.466  -1.870  1.00  0.00     0.034 A 
ATOM     24  C   UNL     1       6.218  -7.274   4.905  1.00  0.00     0.034 A 
ATOM     25  C   UNL     1       8.411  -9.388  -0.937  1.00  0.00     0.049 A 
ATOM     26  C   UNL     1       7.034  -8.462   4.460  1.00  0.00     0.074 A 
ATOM     27  C   UNL     1       9.214 -10.482  -1.190  1.00  0.00     0.029 A 
ATOM     28  N   UNL     1       8.218  -9.329   0.436  1.00  0.00    -0.354 N 
ATOM     29  N   UNL     1       7.465  -8.766   3.258  1.00  0.00    -0.248 NA
ATOM     30  C   UNL     1       7.461  -9.405   5.503  1.00  0.00     0.031 C 
ATOM     31  C   UNL     1       9.480 -11.107   0.032  1.00  0.00     0.029 A 
ATOM     32  C   UNL     1       8.877 -10.377   1.047  1.00  0.00     0.049 A 
ATOM     33  H   UNL     1       7.691  -8.643   0.904  1.00  0.00     0.167 HD
ATOM     34  C   UNL     1       8.248  -9.904   3.407  1.00  0.00     0.074 A 
ATOM     35  C   UNL     1       8.249 -10.224   4.820  1.00  0.00     0.031 C 
ATOM     36  C   UNL     1       8.901 -10.629   2.465  1.00  0.00     0.034 A 
BRANCH  23  37
ATOM     37  C   UNL     1       8.097  -8.630  -3.340  1.00  0.00     0.023 A 
ATOM     38  C   UNL     1       8.927  -7.711  -4.015  1.00  0.00     0.012 A 
ATOM     39  C   UNL     1       7.477  -9.666  -4.059  1.00  0.00     0.148 A 
ATOM     40  C   UNL     1       9.096  -7.791  -5.396  1.00  0.00     0.002 A 
ATOM     41  C   UNL     1       7.690  -9.770  -5.427  1.00  0.00     0.091 A 
ATOM     42  F   UNL     1       6.668 -10.507  -3.399  1.00  0.00    -0.205 F 
ATOM     43  C   UNL     1       8.484  -8.825  -6.099  1.00  0.00     0.022 A 
BRANCH  41  44
ATOM     44  S   UNL     1       6.997 -11.097  -6.415  1.00  0.00     0.127 S 
ATOM     45  O   UNL     1       6.094 -10.364  -7.302  1.00  0.00    -0.237 OA
ATOM     46  O   UNL     1       8.188 -11.640  -7.067  1.00  0.00    -0.237 OA
ATOM     47  O   UNL     1       6.345 -12.001  -5.478  1.00  0.00    -0.744 OA
ENDBRANCH  41  44
ENDBRANCH  23  37
BRANCH  24  48
ATOM     48  C   UNL     1       5.897  -7.067   6.350  1.00  0.00     0.023 A 
ATOM     49  C   UNL     1       6.939  -6.828   7.270  1.00  0.00     0.012 A 
ATOM     50  C   UNL     1       4.574  -7.150   6.827  1.00  0.00     0.148 A 
ATOM     51  C   UNL     1       6.677  -6.730   8.639  1.00  0.00     0.002 A 
ATOM     52  C   UNL     1       4.314  -7.004   8.187  1.00  0.00     0.091 A 
ATOM     53  F   UNL     1       3.594  -7.387   5.944  1.00  0.00    -0.205 F 
ATOM     54  C   UNL     1       5.365  -6.815   9.097  1.00  0.00     0.022 A 
BRANCH  52  55
ATOM     55  S   UNL     1       2.651  -7.011   8.868  1.00  0.00     0.127 S 
ATOM     56  O   UNL     1       2.642  -8.258   9.626  1.00  0.00    -0.237 OA
ATOM     57  O   UNL     1       2.652  -5.795   9.679  1.00  0.00    -0.237 OA
ATOM     58  O   UNL     1       1.753  -6.968   7.717  1.00  0.00    -0.744 OA
ENDBRANCH  52  55
ENDBRANCH  24  48
BRANCH  36  59
ATOM     59  C   UNL     1       9.708 -11.810   2.928  1.00  0.00     0.023 A 
ATOM     60  C   UNL     1       9.056 -12.976   3.373  1.00  0.00     0.012 A 
ATOM     61  C   UNL     1      11.111 -11.797   2.812  1.00  0.00     0.148 A 
ATOM     62  C   UNL     1       9.795 -14.104   3.726  1.00  0.00     0.002 A 
ATOM     63  C   UNL     1      11.835 -12.943   3.107  1.00  0.00     0.091 A 
ATOM     64  F   UNL     1      11.709 -10.668   2.401  1.00  0.00    -0.205 F 
ATOM     65  C   UNL     1      11.180 -14.093   3.578  1.00  0.00     0.022 A 
BRANCH  63  66
ATOM     66  S   UNL     1      13.605 -13.057   2.830  1.00  0.00     0.127 S 
ATOM     67  O   UNL     1      14.121 -13.062   4.198  1.00  0.00    -0.237 OA
ATOM     68  O   UNL     1      13.726 -14.333   2.126  1.00  0.00    -0.237 OA
ATOM     69  O   UNL     1      13.964 -11.891   2.033  1.00  0.00    -0.744 OA
ENDBRANCH  63  66
ENDBRANCH  36  59
ENDBRANCH  10  11
ENDBRANCH   3   5
ENDBRANCH   2   3
ENDBRANCH   1   2
BRANCH   1  70
ATOM     70  C   UNL     1       4.426   1.119   1.674  1.00  0.00     0.274 C 
BRANCH  70  71
ATOM     71  O   UNL     1       3.613  -0.079   1.743  1.00  0.00    -0.462 OA
BRANCH  71  72
ATOM     72  C   UNL     1       2.358   0.112   2.220  1.00  0.00     0.312 C 
ATOM     73  O   UNL     1       1.973   1.225   2.570  1.00  0.00    -0.252 OA
BRANCH  72  74
ATOM     74  C   UNL     1       1.543  -1.167   2.426  1.00  0.00     0.147 C 
ATOM     75  C   UNL     1       0.963  -2.019   1.220  1.00  0.00     0.129 C 
ATOM     76  C   UNL     1       0.221  -0.689   3.084  1.00  0.00     0.157 C 
ATOM     77  C   UNL     1      -0.551  -1.885   1.471  1.00  0.00     0.155 C 
ATOM     78  C   UNL     1      -0.541   0.246   2.169  1.00  0.00     0.004 C 
ATOM     79  O   UNL     1      -0.598  -1.857   2.919  1.00  0.00    -0.365 OA
ATOM     80  C   UNL     1      -0.975  -0.494   1.146  1.00  0.00     0.004 C 
BRANCH  75  81
ATOM     81  C   UNL     1       1.285  -3.520   1.272  1.00  0.00     0.231 C 
ATOM     82  O   UNL     1       2.131  -3.957   2.051  1.00  0.00    -0.274 OA
ATOM     83  N   UNL     1       0.630  -4.436   0.467  1.00  0.00    -0.326 N 
ATOM     84  H   UNL     1       0.911  -5.374   0.571  1.00  0.00     0.169 HD
BRANCH  83  85
ATOM     85  C   UNL     1      -0.382  -4.203  -0.476  1.00  0.00     0.041 A 
ATOM     86  C   UNL     1      -1.605  -4.857  -0.311  1.00  0.00     0.026 A 
ATOM     87  C   UNL     1      -0.258  -3.222  -1.458  1.00  0.00     0.039 A 
ATOM     88  C   UNL     1      -2.729  -4.404  -1.007  1.00  0.00     0.003 A 
ATOM     89  C   UNL     1      -1.365  -2.792  -2.201  1.00  0.00     0.058 A 
ATOM     90  C   UNL     1      -2.615  -3.362  -1.931  1.00  0.00     0.013 A 
BRANCH  89  91
ATOM     91  C   UNL     1      -1.220  -1.681  -3.210  1.00  0.00     0.416 C 
ATOM     92  F   UNL     1      -1.893  -1.929  -4.368  1.00  0.00    -0.166 F 
ATOM     93  F   UNL     1      -1.710  -0.499  -2.742  1.00  0.00    -0.166 F 
ATOM     94  F   UNL     1       0.068  -1.440  -3.573  1.00  0.00    -0.166 F 
ENDBRANCH  89  91
ENDBRANCH  83  85
ENDBRANCH  75  81
ENDBRANCH  72  74
ENDBRANCH  71  72
ENDBRANCH  70  71
ENDBRANCH   1  70
TORSDOF 17
