REMARK SMILES C[C@@H](C(=O)OCCOC(=O)c1ccc(-c2c3nc(c(-c4cccc(S(=O)(=O)[O-])c4F)c4ccc([nH]4)c(-c4cccc(S(=O)(=O)[O-])c4F)c4nc(c(-c5cccc(S(=O)(=O)[O-])c5F)c5ccc2[nH]5)C=C4)C=C3)cc1)[C@H]1CCOC2(CCCCC2)C1
REMARK SMILES IDX 7 1 6 2 5 3 3 4 4 5 2 6 1 7 74 8 75 9 84 10 76 11 78 12
REMARK SMILES IDX 77 13 79 14 83 15 80 16 82 17 81 18 8 19 9 20 10 21 11 22
REMARK SMILES IDX 12 23 73 24 13 25 72 26 14 27 15 28 16 29 66 30 17 31 71 32
REMARK SMILES IDX 65 33 67 34 18 35 70 36 64 37 63 38 19 40 51 41 31 42 50 43
REMARK SMILES IDX 32 44 35 45 49 46 68 47 33 48 34 49 48 51 69 52 36 53 20 54
REMARK SMILES IDX 21 55 29 56 22 57 24 58 30 59 23 60 25 61 26 62 27 63 28 64
REMARK SMILES IDX 52 65 53 66 61 67 54 68 56 69 62 70 55 71 57 72 58 73 59 74
REMARK SMILES IDX 60 75 37 76 38 77 46 78 39 79 41 80 47 81 40 82 42 83 43 84
REMARK SMILES IDX 44 85 45 86
REMARK H PARENT 67 39 35 50
REMARK Flexibility Score: inf
ROOT
ATOM      1  C   UNL     1       1.221   3.981  -4.069  1.00  0.00     0.275 C 
ENDROOT
BRANCH   1   2
ATOM      2  C   UNL     1       0.474   2.885  -4.821  1.00  0.00     0.274 C 
BRANCH   2   3
ATOM      3  O   UNL     1      -0.731   2.548  -4.103  1.00  0.00    -0.462 OA
BRANCH   3   4
ATOM      4  C   UNL     1      -0.830   1.281  -3.621  1.00  0.00     0.309 C 
ATOM      5  O   UNL     1       0.007   0.404  -3.799  1.00  0.00    -0.252 OA
BRANCH   4   6
ATOM      6  C   UNL     1      -2.115   1.043  -2.817  1.00  0.00     0.099 C 
ATOM      7  C   UNL     1      -3.032   2.267  -2.790  1.00  0.00     0.020 C 
BRANCH   6   8
ATOM      8  C   UNL     1      -1.732   0.472  -1.418  1.00  0.00     0.008 C 
ATOM      9  C   UNL     1      -2.199   1.281  -0.201  1.00  0.00     0.033 C 
ATOM     10  C   UNL     1      -2.199  -0.993  -1.248  1.00  0.00     0.040 C 
ATOM     11  C   UNL     1      -1.748   0.620   1.096  1.00  0.00     0.161 C 
ATOM     12  C   UNL     1      -1.733  -1.591   0.101  1.00  0.00     0.069 C 
ATOM     13  O   UNL     1      -2.172  -0.734   1.166  1.00  0.00    -0.375 OA
ATOM     14  C   UNL     1      -0.207  -1.828   0.100  1.00  0.00     0.035 C 
ATOM     15  C   UNL     1      -2.409  -2.954   0.364  1.00  0.00     0.035 C 
ATOM     16  C   UNL     1       0.302  -2.422   1.410  1.00  0.00     0.003 C 
ATOM     17  C   UNL     1      -1.924  -3.588   1.676  1.00  0.00     0.003 C 
ATOM     18  C   UNL     1      -0.405  -3.734   1.725  1.00  0.00     0.000 C 
ENDBRANCH   6   8
ENDBRANCH   4   6
ENDBRANCH   3   4
ENDBRANCH   2   3
ENDBRANCH   1   2
BRANCH   1  19
ATOM     19  O   UNL     1       1.687   3.442  -2.820  1.00  0.00    -0.458 OA
BRANCH  19  20
ATOM     20  C   UNL     1       1.393   4.154  -1.707  1.00  0.00     0.338 C 
ATOM     21  O   UNL     1       0.839   5.238  -1.654  1.00  0.00    -0.246 OA
BRANCH  20  22
ATOM     22  C   UNL     1       1.839   3.405  -0.512  1.00  0.00     0.060 A 
ATOM     23  C   UNL     1       1.692   2.022  -0.452  1.00  0.00     0.016 A 
ATOM     24  C   UNL     1       2.330   4.095   0.600  1.00  0.00     0.016 A 
ATOM     25  C   UNL     1       1.944   1.355   0.748  1.00  0.00     0.010 A 
ATOM     26  C   UNL     1       2.662   3.399   1.773  1.00  0.00     0.010 A 
ATOM     27  C   UNL     1       2.422   2.020   1.887  1.00  0.00    -0.014 A 
BRANCH  27  28
ATOM     28  C   UNL     1       2.573   1.281   3.186  1.00  0.00     0.031 A 
ATOM     29  C   UNL     1       1.932   1.809   4.451  1.00  0.00     0.074 A 
ATOM     30  C   UNL     1       3.224   0.098   3.252  1.00  0.00     0.049 A 
ATOM     31  N   UNL     1       2.095   1.409   5.687  1.00  0.00    -0.248 NA
ATOM     32  C   UNL     1       1.006   2.946   4.316  1.00  0.00     0.031 C 
ATOM     33  C   UNL     1       3.875  -0.577   2.130  1.00  0.00     0.029 A 
ATOM     34  N   UNL     1       3.412  -0.770   4.304  1.00  0.00    -0.354 N 
ATOM     35  C   UNL     1       1.403   2.319   6.479  1.00  0.00     0.074 A 
ATOM     36  C   UNL     1       0.775   3.263   5.582  1.00  0.00     0.031 C 
ATOM     37  C   UNL     1       4.285  -1.792   2.520  1.00  0.00     0.029 A 
ATOM     38  C   UNL     1       4.039  -1.945   3.950  1.00  0.00     0.049 A 
ATOM     39  H   UNL     1       3.126  -0.570   5.225  1.00  0.00     0.167 HD
ATOM     40  C   UNL     1       1.307   2.369   7.830  1.00  0.00     0.034 A 
ATOM     41  C   UNL     1       4.401  -3.016   4.688  1.00  0.00     0.034 A 
ATOM     42  C   UNL     1       1.817   1.362   8.721  1.00  0.00     0.049 A 
ATOM     43  C   UNL     1       4.191  -2.989   6.177  1.00  0.00     0.074 A 
ATOM     44  C   UNL     1       1.784   1.340  10.106  1.00  0.00     0.029 A 
ATOM     45  N   UNL     1       2.405   0.175   8.318  1.00  0.00    -0.354 N 
ATOM     46  N   UNL     1       3.592  -2.084   6.911  1.00  0.00    -0.248 NA
ATOM     47  C   UNL     1       4.730  -4.123   6.944  1.00  0.00     0.031 C 
ATOM     48  C   UNL     1       2.344   0.132  10.539  1.00  0.00     0.029 A 
ATOM     49  C   UNL     1       2.723  -0.596   9.424  1.00  0.00     0.049 A 
ATOM     50  H   UNL     1       2.573  -0.083   7.383  1.00  0.00     0.167 HD
ATOM     51  C   UNL     1       3.704  -2.525   8.225  1.00  0.00     0.074 A 
ATOM     52  C   UNL     1       4.368  -3.811   8.181  1.00  0.00     0.031 C 
ATOM     53  C   UNL     1       3.339  -1.895   9.368  1.00  0.00     0.034 A 
BRANCH  40  54
ATOM     54  C   UNL     1       0.622   3.563   8.439  1.00  0.00     0.023 A 
ATOM     55  C   UNL     1      -0.783   3.643   8.455  1.00  0.00     0.012 A 
ATOM     56  C   UNL     1       1.381   4.582   9.051  1.00  0.00     0.148 A 
ATOM     57  C   UNL     1      -1.423   4.730   9.052  1.00  0.00     0.002 A 
ATOM     58  C   UNL     1       0.736   5.642   9.677  1.00  0.00     0.091 A 
ATOM     59  F   UNL     1       2.718   4.502   9.001  1.00  0.00    -0.205 F 
ATOM     60  C   UNL     1      -0.665   5.722   9.671  1.00  0.00     0.022 A 
BRANCH  58  61
ATOM     61  S   UNL     1       1.639   6.920  10.562  1.00  0.00     0.127 S 
ATOM     62  O   UNL     1       1.640   8.010   9.588  1.00  0.00    -0.237 OA
ATOM     63  O   UNL     1       0.791   7.150  11.733  1.00  0.00    -0.237 OA
ATOM     64  O   UNL     1       2.940   6.342  10.867  1.00  0.00    -0.744 OA
ENDBRANCH  58  61
ENDBRANCH  40  54
BRANCH  41  65
ATOM     65  C   UNL     1       4.983  -4.219   4.022  1.00  0.00     0.023 A 
ATOM     66  C   UNL     1       4.254  -5.425   4.026  1.00  0.00     0.012 A 
ATOM     67  C   UNL     1       6.212  -4.173   3.337  1.00  0.00     0.148 A 
ATOM     68  C   UNL     1       4.740  -6.557   3.368  1.00  0.00     0.002 A 
ATOM     69  C   UNL     1       6.650  -5.278   2.616  1.00  0.00     0.091 A 
ATOM     70  F   UNL     1       6.927  -3.038   3.377  1.00  0.00    -0.205 F 
ATOM     71  C   UNL     1       5.926  -6.478   2.644  1.00  0.00     0.022 A 
BRANCH  69  72
ATOM     72  S   UNL     1       8.059  -5.152   1.508  1.00  0.00     0.127 S 
ATOM     73  O   UNL     1       9.165  -5.553   2.372  1.00  0.00    -0.237 OA
ATOM     74  O   UNL     1       7.723  -6.109   0.453  1.00  0.00    -0.237 OA
ATOM     75  O   UNL     1       8.050  -3.762   1.066  1.00  0.00    -0.744 OA
ENDBRANCH  69  72
ENDBRANCH  41  65
BRANCH  53  76
ATOM     76  C   UNL     1       3.676  -2.568  10.672  1.00  0.00     0.023 A 
ATOM     77  C   UNL     1       5.008  -2.536  11.130  1.00  0.00     0.012 A 
ATOM     78  C   UNL     1       2.682  -3.160  11.474  1.00  0.00     0.148 A 
ATOM     79  C   UNL     1       5.352  -3.104  12.355  1.00  0.00     0.002 A 
ATOM     80  C   UNL     1       3.026  -3.694  12.711  1.00  0.00     0.091 A 
ATOM     81  F   UNL     1       1.424  -3.199  11.011  1.00  0.00    -0.205 F 
ATOM     82  C   UNL     1       4.360  -3.673  13.150  1.00  0.00     0.022 A 
BRANCH  80  83
ATOM     83  S   UNL     1       1.800  -4.380  13.832  1.00  0.00     0.127 S 
ATOM     84  O   UNL     1       1.983  -5.816  13.631  1.00  0.00    -0.237 OA
ATOM     85  O   UNL     1       2.249  -3.885  15.134  1.00  0.00    -0.237 OA
ATOM     86  O   UNL     1       0.520  -3.840  13.394  1.00  0.00    -0.744 OA
ENDBRANCH  80  83
ENDBRANCH  53  76
ENDBRANCH  27  28
ENDBRANCH  20  22
ENDBRANCH  19  20
ENDBRANCH   1  19
TORSDOF 15
