REMARK SMILES CCC[C@H](Nc1cc(C)c(N)c(C(=O)OCCOC(=O)c2ccc(-c3c4nc(c(-c5cccc(S(=O)(=O)[O-])c5F)c5ccc([nH]5)c(-c5cccc(S(=O)(=O)[O-])c5F)c5nc(c(-c6cccc(S(=O)(=O)[O-])c6F)c6ccc3[nH]6)C=C5)C=C4)cc2)c1)c1cccs1
REMARK SMILES IDX 16 1 15 2 13 3 14 4 12 5 6 6 7 7 84 8 8 9 9 10 10 11 5 12
REMARK SMILES IDX 4 14 3 15 2 16 1 17 85 18 86 19 89 20 87 21 88 22 11 23
REMARK SMILES IDX 17 26 18 27 19 28 20 29 21 30 22 31 83 32 23 33 82 34 24 35
REMARK SMILES IDX 25 36 26 37 76 38 27 39 81 40 75 41 77 42 28 43 80 44 74 45
REMARK SMILES IDX 73 46 29 48 61 49 41 50 60 51 42 52 45 53 59 54 78 55 43 56
REMARK SMILES IDX 44 57 58 59 79 60 46 61 30 62 31 63 39 64 32 65 34 66 40 67
REMARK SMILES IDX 33 68 35 69 36 70 37 71 38 72 62 73 63 74 71 75 64 76 66 77
REMARK SMILES IDX 72 78 65 79 67 80 68 81 69 82 70 83 47 84 48 85 56 86 49 87
REMARK SMILES IDX 51 88 57 89 50 90 52 91 53 92 54 93 55 94
REMARK H PARENT 5 13 11 24 11 25 77 47 45 58
REMARK Flexibility Score: inf
ROOT
ATOM      1  C   UNL     1      -1.688   2.277  -5.967  1.00  0.00     0.275 C 
ENDROOT
BRANCH   1   2
ATOM      2  O   UNL     1      -1.107   1.621  -4.821  1.00  0.00    -0.458 OA
BRANCH   2   3
ATOM      3  C   UNL     1      -0.465   2.422  -3.922  1.00  0.00     0.340 C 
ATOM      4  O   UNL     1      -0.277   3.618  -4.031  1.00  0.00    -0.246 OA
BRANCH   3   5
ATOM      5  C   UNL     1      -0.091   1.623  -2.720  1.00  0.00     0.085 A 
ATOM      6  C   UNL     1       0.496  -0.558  -1.785  1.00  0.00     0.036 A 
ATOM      7  C   UNL     1       0.382   0.004  -0.512  1.00  0.00     0.031 A 
ATOM      8  C   UNL     1       0.251   0.271  -2.882  1.00  0.00     0.043 A 
ATOM      9  C   UNL     1       0.056   1.363  -0.322  1.00  0.00    -0.025 A 
ATOM     10  C   UNL     1      -0.191   1.854   1.082  1.00  0.00     0.047 C 
ATOM     11  C   UNL     1      -0.107   2.210  -1.437  1.00  0.00     0.049 A 
BRANCH   6  12
ATOM     12  N   UNL     1       0.775  -1.894  -2.018  1.00  0.00    -0.377 N 
ATOM     13  H   UNL     1       1.230  -2.126  -2.860  1.00  0.00     0.161 HD
BRANCH  12  14
ATOM     14  C   UNL     1       0.440  -2.996  -1.096  1.00  0.00     0.119 C 
BRANCH  14  15
ATOM     15  C   UNL     1      -1.113  -3.080  -1.040  1.00  0.00     0.030 C 
BRANCH  15  16
ATOM     16  C   UNL     1      -1.762  -3.798   0.150  1.00  0.00    -0.001 C 
ATOM     17  C   UNL     1      -1.235  -3.376   1.512  1.00  0.00     0.004 C 
ENDBRANCH  15  16
ENDBRANCH  14  15
BRANCH  14  18
ATOM     18  C   UNL     1       1.083  -4.316  -1.548  1.00  0.00     0.027 A 
ATOM     19  C   UNL     1       1.917  -4.551  -2.632  1.00  0.00     0.017 A 
ATOM     20  S   UNL     1       0.897  -5.761  -0.630  1.00  0.00    -0.147 S 
ATOM     21  C   UNL     1       2.284  -5.921  -2.772  1.00  0.00     0.012 A 
ATOM     22  C   UNL     1       1.760  -6.696  -1.766  1.00  0.00     0.065 A 
ENDBRANCH  14  18
ENDBRANCH  12  14
ENDBRANCH   6  12
BRANCH  11  23
ATOM     23  N   UNL     1      -0.439   3.552  -1.252  1.00  0.00    -0.398 N 
ATOM     24  H   UNL     1      -0.443   3.938  -0.347  1.00  0.00     0.156 HD
ATOM     25  H   UNL     1      -0.670   4.113  -2.028  1.00  0.00     0.156 HD
ENDBRANCH  11  23
ENDBRANCH   3   5
ENDBRANCH   2   3
ENDBRANCH   1   2
BRANCH   1  26
ATOM     26  C   UNL     1      -3.211   2.294  -5.841  1.00  0.00     0.275 C 
BRANCH  26  27
ATOM     27  O   UNL     1      -3.565   3.072  -4.689  1.00  0.00    -0.458 OA
BRANCH  27  28
ATOM     28  C   UNL     1      -4.708   2.712  -4.059  1.00  0.00     0.338 C 
ATOM     29  O   UNL     1      -5.520   1.883  -4.431  1.00  0.00    -0.246 OA
BRANCH  28  30
ATOM     30  C   UNL     1      -4.827   3.493  -2.809  1.00  0.00     0.060 A 
ATOM     31  C   UNL     1      -3.712   3.659  -1.988  1.00  0.00     0.016 A 
ATOM     32  C   UNL     1      -6.061   4.005  -2.410  1.00  0.00     0.016 A 
ATOM     33  C   UNL     1      -3.831   4.299  -0.755  1.00  0.00     0.010 A 
ATOM     34  C   UNL     1      -6.162   4.713  -1.203  1.00  0.00     0.010 A 
ATOM     35  C   UNL     1      -5.055   4.845  -0.344  1.00  0.00    -0.014 A 
BRANCH  35  36
ATOM     36  C   UNL     1      -5.183   5.483   1.002  1.00  0.00     0.031 A 
ATOM     37  C   UNL     1      -6.178   4.949   2.003  1.00  0.00     0.074 A 
ATOM     38  C   UNL     1      -4.404   6.528   1.352  1.00  0.00     0.049 A 
ATOM     39  N   UNL     1      -6.535   5.444   3.161  1.00  0.00    -0.248 NA
ATOM     40  C   UNL     1      -6.875   3.702   1.649  1.00  0.00     0.031 C 
ATOM     41  C   UNL     1      -3.389   7.152   0.503  1.00  0.00     0.029 A 
ATOM     42  N   UNL     1      -4.343   7.251   2.522  1.00  0.00    -0.354 N 
ATOM     43  C   UNL     1      -7.556   4.624   3.629  1.00  0.00     0.074 A 
ATOM     44  C   UNL     1      -7.750   3.587   2.638  1.00  0.00     0.031 C 
ATOM     45  C   UNL     1      -2.782   8.134   1.188  1.00  0.00     0.029 A 
ATOM     46  C   UNL     1      -3.411   8.264   2.499  1.00  0.00     0.049 A 
ATOM     47  H   UNL     1      -4.913   7.062   3.302  1.00  0.00     0.167 HD
ATOM     48  C   UNL     1      -8.262   4.714   4.782  1.00  0.00     0.034 A 
ATOM     49  C   UNL     1      -3.111   9.210   3.413  1.00  0.00     0.034 A 
ATOM     50  C   UNL     1      -8.011   5.681   5.817  1.00  0.00     0.049 A 
ATOM     51  C   UNL     1      -3.875   9.257   4.708  1.00  0.00     0.074 A 
ATOM     52  C   UNL     1      -8.656   5.825   7.034  1.00  0.00     0.029 A 
ATOM     53  N   UNL     1      -7.025   6.653   5.773  1.00  0.00    -0.354 N 
ATOM     54  N   UNL     1      -4.817   8.455   5.141  1.00  0.00    -0.248 NA
ATOM     55  C   UNL     1      -3.530  10.337   5.645  1.00  0.00     0.031 C 
ATOM     56  C   UNL     1      -8.059   6.885   7.726  1.00  0.00     0.029 A 
ATOM     57  C   UNL     1      -7.035   7.393   6.944  1.00  0.00     0.049 A 
ATOM     58  H   UNL     1      -6.407   6.796   5.020  1.00  0.00     0.167 HD
ATOM     59  C   UNL     1      -5.171   8.927   6.400  1.00  0.00     0.074 A 
ATOM     60  C   UNL     1      -4.312  10.059   6.680  1.00  0.00     0.031 C 
ATOM     61  C   UNL     1      -6.142   8.484   7.236  1.00  0.00     0.034 A 
BRANCH  48  62
ATOM     62  C   UNL     1      -9.370   3.717   5.003  1.00  0.00     0.023 A 
ATOM     63  C   UNL     1      -9.060   2.389   5.353  1.00  0.00     0.012 A 
ATOM     64  C   UNL     1     -10.720   4.114   4.918  1.00  0.00     0.148 A 
ATOM     65  C   UNL     1     -10.075   1.462   5.587  1.00  0.00     0.002 A 
ATOM     66  C   UNL     1     -11.727   3.195   5.193  1.00  0.00     0.091 A 
ATOM     67  F   UNL     1     -10.996   5.376   4.560  1.00  0.00    -0.205 F 
ATOM     68  C   UNL     1     -11.406   1.867   5.517  1.00  0.00     0.022 A 
BRANCH  66  69
ATOM     69  S   UNL     1     -13.466   3.645   5.206  1.00  0.00     0.127 S 
ATOM     70  O   UNL     1     -13.934   3.052   3.954  1.00  0.00    -0.237 OA
ATOM     71  O   UNL     1     -13.951   2.978   6.415  1.00  0.00    -0.237 OA
ATOM     72  O   UNL     1     -13.500   5.100   5.265  1.00  0.00    -0.744 OA
ENDBRANCH  66  69
ENDBRANCH  48  62
BRANCH  49  73
ATOM     73  C   UNL     1      -2.014  10.186   3.141  1.00  0.00     0.023 A 
ATOM     74  C   UNL     1      -0.832  10.131   3.906  1.00  0.00     0.012 A 
ATOM     75  C   UNL     1      -2.118  11.139   2.111  1.00  0.00     0.148 A 
ATOM     76  C   UNL     1       0.217  11.018   3.660  1.00  0.00     0.002 A 
ATOM     77  C   UNL     1      -1.042  11.973   1.825  1.00  0.00     0.091 A 
ATOM     78  F   UNL     1      -3.263  11.205   1.416  1.00  0.00    -0.205 F 
ATOM     79  C   UNL     1       0.120  11.926   2.609  1.00  0.00     0.022 A 
BRANCH  77  80
ATOM     80  S   UNL     1      -1.035  13.049   0.387  1.00  0.00     0.127 S 
ATOM     81  O   UNL     1      -1.321  14.350   0.983  1.00  0.00    -0.237 OA
ATOM     82  O   UNL     1       0.331  12.886  -0.113  1.00  0.00    -0.237 OA
ATOM     83  O   UNL     1      -2.058  12.510  -0.499  1.00  0.00    -0.744 OA
ENDBRANCH  77  80
ENDBRANCH  49  73
BRANCH  61  84
ATOM     84  C   UNL     1      -6.321   9.213   8.541  1.00  0.00     0.023 A 
ATOM     85  C   UNL     1      -6.926  10.486   8.546  1.00  0.00     0.012 A 
ATOM     86  C   UNL     1      -5.942   8.623   9.762  1.00  0.00     0.148 A 
ATOM     87  C   UNL     1      -7.120  11.175   9.743  1.00  0.00     0.002 A 
ATOM     88  C   UNL     1      -6.176   9.299  10.956  1.00  0.00     0.091 A 
ATOM     89  F   UNL     1      -5.348   7.422   9.738  1.00  0.00    -0.205 F 
ATOM     90  C   UNL     1      -6.755  10.578  10.948  1.00  0.00     0.022 A 
BRANCH  88  91
ATOM     91  S   UNL     1      -5.810   8.563  12.553  1.00  0.00     0.127 S 
ATOM     92  O   UNL     1      -4.537   9.196  12.890  1.00  0.00    -0.237 OA
ATOM     93  O   UNL     1      -6.943   9.000  13.371  1.00  0.00    -0.237 OA
ATOM     94  O   UNL     1      -5.760   7.125  12.321  1.00  0.00    -0.744 OA
ENDBRANCH  88  91
ENDBRANCH  61  84
ENDBRANCH  35  36
ENDBRANCH  28  30
ENDBRANCH  27  28
ENDBRANCH  26  27
ENDBRANCH   1  26
TORSDOF 20
