REMARK SMILES Cc1c(NC(=O)c2ccccc2NC(=O)[C@@H]2CCCO2)cccc1C(=O)OCCOC(=O)c1ccc(-c2c3nc(c(-c4cccc(S(=O)(=O)[O-])c4F)c4ccc([nH]4)c(-c4cccc(S(=O)(=O)[O-])c4F)c4nc(c(-c5cccc(S(=O)(=O)[O-])c5F)c5ccc2[nH]5)C=C4)C=C3)cc1
REMARK SMILES IDX 28 1 27 2 25 3 26 4 24 5 1 6 2 7 3 8 21 9 23 10 22 11 4 12
REMARK SMILES IDX 5 13 6 15 7 16 8 17 12 18 9 19 11 20 10 21 13 22 14 23 15 25
REMARK SMILES IDX 16 26 17 27 20 28 18 29 19 30 29 31 30 32 31 33 32 34 33 35
REMARK SMILES IDX 34 36 95 37 35 38 94 39 36 40 37 41 38 42 88 43 39 44 93 45
REMARK SMILES IDX 87 46 89 47 40 48 92 49 86 50 85 51 41 53 73 54 53 55 72 56
REMARK SMILES IDX 54 57 57 58 71 59 90 60 55 61 56 62 70 64 91 65 58 66 42 67
REMARK SMILES IDX 43 68 51 69 44 70 46 71 52 72 45 73 47 74 48 75 49 76 50 77
REMARK SMILES IDX 74 78 75 79 83 80 76 81 78 82 84 83 77 84 79 85 80 86 81 87
REMARK SMILES IDX 82 88 59 89 60 90 68 91 61 92 63 93 69 94 62 95 64 96 65 97
REMARK SMILES IDX 66 98 67 99
REMARK H PARENT 4 14 13 24 89 52 57 63
REMARK Flexibility Score: inf
ROOT
ATOM      1  C   UNL     1       3.597   2.969  -1.820  1.00  0.00     0.275 C 
ENDROOT
BRANCH   1   2
ATOM      2  O   UNL     1       2.740   2.003  -1.197  1.00  0.00    -0.458 OA
BRANCH   2   3
ATOM      3  C   UNL     1       1.764   1.434  -1.925  1.00  0.00     0.338 C 
ATOM      4  O   UNL     1       1.487   1.732  -3.073  1.00  0.00    -0.246 OA
BRANCH   3   5
ATOM      5  C   UNL     1       0.985   0.482  -1.081  1.00  0.00     0.065 A 
ATOM      6  C   UNL     1       3.033  -0.855  -0.366  1.00  0.00     0.047 C 
ATOM      7  C   UNL     1       1.545  -0.633  -0.422  1.00  0.00    -0.013 A 
ATOM      8  C   UNL     1       0.639  -1.618   0.044  1.00  0.00     0.045 A 
ATOM      9  C   UNL     1      -0.715  -1.317   0.215  1.00  0.00     0.026 A 
ATOM     10  C   UNL     1      -0.406   0.679  -1.070  1.00  0.00     0.016 A 
ATOM     11  C   UNL     1      -1.237  -0.149  -0.325  1.00  0.00     0.003 A 
BRANCH   8  12
ATOM     12  N   UNL     1       1.089  -2.950   0.125  1.00  0.00    -0.322 N 
ATOM     13  C   UNL     1       0.507  -4.130  -0.304  1.00  0.00     0.257 C 
ATOM     14  H   UNL     1       1.965  -3.061   0.561  1.00  0.00     0.170 HD
ATOM     15  O   UNL     1       1.132  -5.180  -0.124  1.00  0.00    -0.269 OA
BRANCH  13  16
ATOM     16  C   UNL     1      -0.803  -4.230  -1.025  1.00  0.00     0.063 A 
ATOM     17  C   UNL     1      -1.564  -5.365  -0.671  1.00  0.00     0.016 A 
ATOM     18  C   UNL     1      -1.283  -3.368  -2.042  1.00  0.00     0.054 A 
ATOM     19  C   UNL     1      -2.822  -5.593  -1.218  1.00  0.00     0.001 A 
ATOM     20  C   UNL     1      -2.608  -3.541  -2.459  1.00  0.00     0.027 A 
ATOM     21  C   UNL     1      -3.365  -4.649  -2.070  1.00  0.00     0.002 A 
BRANCH  18  22
ATOM     22  N   UNL     1      -0.398  -2.450  -2.650  1.00  0.00    -0.323 N 
ATOM     23  C   UNL     1      -0.464  -1.503  -3.632  1.00  0.00     0.253 C 
ATOM     24  H   UNL     1       0.506  -2.508  -2.264  1.00  0.00     0.170 HD
ATOM     25  O   UNL     1       0.614  -0.991  -3.962  1.00  0.00    -0.272 OA
BRANCH  23  26
ATOM     26  C   UNL     1      -1.760  -1.139  -4.362  1.00  0.00     0.207 C 
ATOM     27  C   UNL     1      -1.980  -2.158  -5.475  1.00  0.00     0.044 C 
ATOM     28  O   UNL     1      -1.745   0.144  -5.013  1.00  0.00    -0.368 OA
ATOM     29  C   UNL     1      -2.748  -1.380  -6.505  1.00  0.00     0.032 C 
ATOM     30  C   UNL     1      -2.128  -0.009  -6.380  1.00  0.00     0.161 C 
ENDBRANCH  23  26
ENDBRANCH  18  22
ENDBRANCH  13  16
ENDBRANCH   8  12
ENDBRANCH   3   5
ENDBRANCH   2   3
ENDBRANCH   1   2
BRANCH   1  31
ATOM     31  C   UNL     1       3.060   4.045  -2.802  1.00  0.00     0.275 C 
BRANCH  31  32
ATOM     32  O   UNL     1       1.778   4.756  -2.773  1.00  0.00    -0.458 OA
BRANCH  32  33
ATOM     33  C   UNL     1       0.706   4.763  -1.953  1.00  0.00     0.338 C 
ATOM     34  O   UNL     1      -0.395   5.180  -2.297  1.00  0.00    -0.246 OA
BRANCH  33  35
ATOM     35  C   UNL     1       0.950   4.347  -0.583  1.00  0.00     0.060 A 
ATOM     36  C   UNL     1       0.034   3.535   0.102  1.00  0.00     0.016 A 
ATOM     37  C   UNL     1       2.156   4.732  -0.020  1.00  0.00     0.016 A 
ATOM     38  C   UNL     1       0.388   2.989   1.327  1.00  0.00     0.010 A 
ATOM     39  C   UNL     1       2.581   4.074   1.096  1.00  0.00     0.010 A 
ATOM     40  C   UNL     1       1.661   3.282   1.806  1.00  0.00    -0.014 A 
BRANCH  40  41
ATOM     41  C   UNL     1       1.970   3.308   3.220  1.00  0.00     0.031 A 
ATOM     42  C   UNL     1       2.588   2.171   3.893  1.00  0.00     0.074 A 
ATOM     43  C   UNL     1       1.904   4.586   3.664  1.00  0.00     0.049 A 
ATOM     44  N   UNL     1       2.691   2.087   5.168  1.00  0.00    -0.248 NA
ATOM     45  C   UNL     1       3.113   1.002   3.196  1.00  0.00     0.031 C 
ATOM     46  C   UNL     1       2.553   5.264   4.763  1.00  0.00     0.029 A 
ATOM     47  N   UNL     1       1.085   5.584   3.103  1.00  0.00    -0.354 N 
ATOM     48  C   UNL     1       3.570   1.060   5.442  1.00  0.00     0.074 A 
ATOM     49  C   UNL     1       3.672   0.322   4.207  1.00  0.00     0.031 C 
ATOM     50  C   UNL     1       1.898   6.426   4.980  1.00  0.00     0.029 A 
ATOM     51  C   UNL     1       0.701   6.421   4.137  1.00  0.00     0.049 A 
ATOM     52  H   UNL     1       0.833   5.671   2.155  1.00  0.00     0.167 HD
ATOM     53  C   UNL     1       4.232   1.102   6.634  1.00  0.00     0.034 A 
ATOM     54  C   UNL     1      -0.604   6.404   4.549  1.00  0.00     0.034 A 
ATOM     55  C   UNL     1       3.736   2.253   7.416  1.00  0.00     0.049 A 
ATOM     56  C   UNL     1      -0.680   5.831   5.950  1.00  0.00     0.074 A 
ATOM     57  C   UNL     1       4.209   3.549   7.542  1.00  0.00     0.029 A 
ATOM     58  N   UNL     1       2.418   2.270   7.863  1.00  0.00    -0.354 N 
ATOM     59  N   UNL     1       0.254   5.098   6.492  1.00  0.00    -0.248 NA
ATOM     60  C   UNL     1      -1.805   6.058   6.846  1.00  0.00     0.031 C 
ATOM     61  C   UNL     1       3.115   4.371   7.939  1.00  0.00     0.029 A 
ATOM     62  C   UNL     1       1.991   3.573   8.090  1.00  0.00     0.049 A 
ATOM     63  H   UNL     1       1.863   1.468   8.000  1.00  0.00     0.167 HD
ATOM     64  C   UNL     1      -0.124   4.710   7.742  1.00  0.00     0.074 A 
ATOM     65  C   UNL     1      -1.405   5.377   7.934  1.00  0.00     0.031 C 
ATOM     66  C   UNL     1       0.612   3.840   8.499  1.00  0.00     0.034 A 
BRANCH  53  67
ATOM     67  C   UNL     1       5.504   0.353   7.024  1.00  0.00     0.023 A 
ATOM     68  C   UNL     1       6.139   0.784   8.215  1.00  0.00     0.012 A 
ATOM     69  C   UNL     1       6.173  -0.676   6.315  1.00  0.00     0.148 A 
ATOM     70  C   UNL     1       7.372   0.282   8.648  1.00  0.00     0.002 A 
ATOM     71  C   UNL     1       7.405  -1.187   6.751  1.00  0.00     0.091 A 
ATOM     72  F   UNL     1       5.637  -1.184   5.207  1.00  0.00    -0.205 F 
ATOM     73  C   UNL     1       8.011  -0.700   7.912  1.00  0.00     0.022 A 
BRANCH  71  74
ATOM     74  S   UNL     1       8.309  -2.477   5.867  1.00  0.00     0.127 S 
ATOM     75  O   UNL     1       9.551  -1.791   5.510  1.00  0.00    -0.237 OA
ATOM     76  O   UNL     1       8.460  -3.511   6.891  1.00  0.00    -0.237 OA
ATOM     77  O   UNL     1       7.478  -2.859   4.731  1.00  0.00    -0.744 OA
ENDBRANCH  71  74
ENDBRANCH  53  67
BRANCH  54  78
ATOM     78  C   UNL     1      -1.619   6.128   3.456  1.00  0.00     0.023 A 
ATOM     79  C   UNL     1      -1.573   6.939   2.289  1.00  0.00     0.012 A 
ATOM     80  C   UNL     1      -2.365   4.936   3.390  1.00  0.00     0.148 A 
ATOM     81  C   UNL     1      -2.141   6.520   1.079  1.00  0.00     0.002 A 
ATOM     82  C   UNL     1      -2.931   4.523   2.176  1.00  0.00     0.091 A 
ATOM     83  F   UNL     1      -2.481   4.181   4.490  1.00  0.00    -0.205 F 
ATOM     84  C   UNL     1      -2.804   5.301   1.018  1.00  0.00     0.022 A 
BRANCH  82  85
ATOM     85  S   UNL     1      -3.682   2.891   2.029  1.00  0.00     0.127 S 
ATOM     86  O   UNL     1      -3.611   2.615   0.593  1.00  0.00    -0.237 OA
ATOM     87  O   UNL     1      -2.817   2.032   2.827  1.00  0.00    -0.237 OA
ATOM     88  O   UNL     1      -5.027   3.128   2.541  1.00  0.00    -0.744 OA
ENDBRANCH  82  85
ENDBRANCH  54  78
BRANCH  66  89
ATOM     89  C   UNL     1       0.066   3.152   9.726  1.00  0.00     0.023 A 
ATOM     90  C   UNL     1      -1.314   2.933   9.898  1.00  0.00     0.012 A 
ATOM     91  C   UNL     1       0.935   2.549  10.665  1.00  0.00     0.148 A 
ATOM     92  C   UNL     1      -1.817   2.240  10.999  1.00  0.00     0.002 A 
ATOM     93  C   UNL     1       0.435   1.739  11.676  1.00  0.00     0.091 A 
ATOM     94  F   UNL     1       2.258   2.761  10.592  1.00  0.00    -0.205 F 
ATOM     95  C   UNL     1      -0.941   1.621  11.877  1.00  0.00     0.022 A 
BRANCH  93  96
ATOM     96  S   UNL     1       1.536   0.676  12.618  1.00  0.00     0.127 S 
ATOM     97  O   UNL     1       1.859   1.514  13.769  1.00  0.00    -0.237 OA
ATOM     98  O   UNL     1       0.681  -0.474  12.920  1.00  0.00    -0.237 OA
ATOM     99  O   UNL     1       2.633   0.376  11.707  1.00  0.00    -0.744 OA
ENDBRANCH  93  96
ENDBRANCH  66  89
ENDBRANCH  40  41
ENDBRANCH  33  35
ENDBRANCH  32  33
ENDBRANCH  31  32
ENDBRANCH   1  31
TORSDOF 18
