REMARK SMILES C[C@H]1[C@@H](C(=O)OCCOC(=O)c2ccc(-c3c4nc(c(-c5cccc(S(=O)(=O)[O-])c5F)c5ccc([nH]5)c(-c5cccc(S(=O)(=O)[O-])c5F)c5nc(c(-c6cccc(S(=O)(=O)[O-])c6F)c6ccc3[nH]6)C=C5)C=C4)cc2)CC[N@@H+]1CC1(O)CCCC1
REMARK SMILES IDX 7 1 6 2 4 3 5 4 3 5 1 6 2 7 77 8 75 9 76 10 78 12 79 13
REMARK SMILES IDX 81 14 84 15 82 16 83 17 80 18 8 20 9 21 10 22 11 23 12 24
REMARK SMILES IDX 13 25 74 26 14 27 73 28 15 29 16 30 17 31 67 32 18 33 72 34
REMARK SMILES IDX 66 35 68 36 19 37 71 38 65 39 64 40 20 42 52 43 32 44 51 45
REMARK SMILES IDX 33 46 36 47 50 48 69 49 34 50 35 51 49 53 70 54 37 55 21 56
REMARK SMILES IDX 22 57 30 58 23 59 25 60 31 61 24 62 26 63 27 64 28 65 29 66
REMARK SMILES IDX 53 67 54 68 62 69 55 70 57 71 63 72 56 73 58 74 59 75 60 76
REMARK SMILES IDX 61 77 38 78 39 79 47 80 40 81 42 82 48 83 41 84 43 85 44 86
REMARK SMILES IDX 45 87 46 88
REMARK H PARENT 77 11 80 19 68 41 36 52
REMARK Flexibility Score: inf
ROOT
ATOM      1  C   UNL     1       2.121   2.444  -2.906  1.00  0.00     0.274 C 
ENDROOT
BRANCH   1   2
ATOM      2  O   UNL     1       1.637   1.495  -1.934  1.00  0.00    -0.462 OA
BRANCH   2   3
ATOM      3  C   UNL     1       1.083   2.014  -0.812  1.00  0.00     0.315 C 
ATOM      4  O   UNL     1       1.003   3.215  -0.570  1.00  0.00    -0.252 OA
BRANCH   3   5
ATOM      5  C   UNL     1       0.487   0.977   0.113  1.00  0.00     0.162 C 
ATOM      6  C   UNL     1       2.400  -0.716  -0.347  1.00  0.00     0.076 C 
ATOM      7  C   UNL     1       1.331  -0.193   0.615  1.00  0.00     0.195 C 
ATOM      8  N   UNL     1       0.372  -1.286   0.832  1.00  0.00    -0.330 N 
ATOM      9  C   UNL     1      -0.809   0.371  -0.403  1.00  0.00     0.083 C 
ATOM     10  C   UNL     1      -0.713  -1.117  -0.130  1.00  0.00     0.263 C 
ATOM     11  H   UNL     1       0.875  -2.157   0.662  1.00  0.00     0.348 HD
BRANCH   8  12
ATOM     12  C   UNL     1      -0.056  -1.573   2.207  1.00  0.00     0.297 C 
BRANCH  12  13
ATOM     13  C   UNL     1      -1.002  -0.658   3.044  1.00  0.00     0.113 C 
ATOM     14  C   UNL     1      -0.431   0.699   3.462  1.00  0.00     0.041 C 
ATOM     15  C   UNL     1      -1.287  -1.321   4.403  1.00  0.00     0.041 C 
ATOM     16  C   UNL     1      -1.120   1.067   4.780  1.00  0.00     0.003 C 
ATOM     17  C   UNL     1      -1.806  -0.195   5.285  1.00  0.00     0.003 C 
BRANCH  13  18
ATOM     18  O   UNL     1      -2.247  -0.481   2.364  1.00  0.00    -0.384 OA
ATOM     19  H   UNL     1      -2.088  -0.064   1.503  1.00  0.00     0.211 HD
ENDBRANCH  13  18
ENDBRANCH  12  13
ENDBRANCH   8  12
ENDBRANCH   3   5
ENDBRANCH   2   3
ENDBRANCH   1   2
BRANCH   1  20
ATOM     20  C   UNL     1       1.274   2.358  -4.169  1.00  0.00     0.275 C 
BRANCH  20  21
ATOM     21  O   UNL     1      -0.091   2.677  -3.850  1.00  0.00    -0.458 OA
BRANCH  21  22
ATOM     22  C   UNL     1      -0.965   1.652  -3.973  1.00  0.00     0.338 C 
ATOM     23  O   UNL     1      -0.727   0.520  -4.359  1.00  0.00    -0.246 OA
BRANCH  22  24
ATOM     24  C   UNL     1      -2.311   2.090  -3.572  1.00  0.00     0.060 A 
ATOM     25  C   UNL     1      -2.550   2.613  -2.297  1.00  0.00     0.016 A 
ATOM     26  C   UNL     1      -3.367   1.855  -4.449  1.00  0.00     0.016 A 
ATOM     27  C   UNL     1      -3.862   2.826  -1.872  1.00  0.00     0.010 A 
ATOM     28  C   UNL     1      -4.667   2.166  -4.056  1.00  0.00     0.010 A 
ATOM     29  C   UNL     1      -4.934   2.629  -2.755  1.00  0.00    -0.014 A 
BRANCH  29  30
ATOM     30  C   UNL     1      -6.345   2.918  -2.375  1.00  0.00     0.031 A 
ATOM     31  C   UNL     1      -7.392   1.847  -2.522  1.00  0.00     0.074 A 
ATOM     32  C   UNL     1      -6.706   4.168  -2.025  1.00  0.00     0.049 A 
ATOM     33  N   UNL     1      -8.692   1.965  -2.590  1.00  0.00    -0.248 NA
ATOM     34  C   UNL     1      -6.909   0.460  -2.634  1.00  0.00     0.031 C 
ATOM     35  C   UNL     1      -5.792   5.293  -1.829  1.00  0.00     0.029 A 
ATOM     36  N   UNL     1      -7.951   4.713  -1.821  1.00  0.00    -0.354 N 
ATOM     37  C   UNL     1      -9.177   0.686  -2.838  1.00  0.00     0.074 A 
ATOM     38  C   UNL     1      -8.033  -0.200  -2.881  1.00  0.00     0.031 C 
ATOM     39  C   UNL     1      -6.502   6.397  -1.554  1.00  0.00     0.029 A 
ATOM     40  C   UNL     1      -7.921   6.078  -1.640  1.00  0.00     0.049 A 
ATOM     41  H   UNL     1      -8.780   4.182  -1.807  1.00  0.00     0.167 HD
ATOM     42  C   UNL     1     -10.460   0.291  -3.016  1.00  0.00     0.034 A 
ATOM     43  C   UNL     1      -8.916   6.986  -1.613  1.00  0.00     0.034 A 
ATOM     44  C   UNL     1     -11.594   1.168  -2.895  1.00  0.00     0.049 A 
ATOM     45  C   UNL     1     -10.333   6.522  -1.796  1.00  0.00     0.074 A 
ATOM     46  C   UNL     1     -12.938   0.859  -3.008  1.00  0.00     0.029 A 
ATOM     47  N   UNL     1     -11.517   2.524  -2.617  1.00  0.00    -0.354 N 
ATOM     48  N   UNL     1     -10.781   5.306  -1.994  1.00  0.00    -0.248 NA
ATOM     49  C   UNL     1     -11.382   7.550  -1.744  1.00  0.00     0.031 C 
ATOM     50  C   UNL     1     -13.674   2.030  -2.798  1.00  0.00     0.029 A 
ATOM     51  C   UNL     1     -12.789   3.065  -2.546  1.00  0.00     0.049 A 
ATOM     52  H   UNL     1     -10.681   3.028  -2.488  1.00  0.00     0.167 HD
ATOM     53  C   UNL     1     -12.164   5.416  -2.061  1.00  0.00     0.074 A 
ATOM     54  C   UNL     1     -12.482   6.817  -1.868  1.00  0.00     0.031 C 
ATOM     55  C   UNL     1     -13.086   4.449  -2.283  1.00  0.00     0.034 A 
BRANCH  42  56
ATOM     56  C   UNL     1     -10.721  -1.159  -3.329  1.00  0.00     0.023 A 
ATOM     57  C   UNL     1     -10.641  -2.120  -2.303  1.00  0.00     0.012 A 
ATOM     58  C   UNL     1     -11.124  -1.558  -4.620  1.00  0.00     0.148 A 
ATOM     59  C   UNL     1     -10.937  -3.459  -2.560  1.00  0.00     0.002 A 
ATOM     60  C   UNL     1     -11.453  -2.888  -4.860  1.00  0.00     0.091 A 
ATOM     61  F   UNL     1     -11.172  -0.634  -5.590  1.00  0.00    -0.205 F 
ATOM     62  C   UNL     1     -11.353  -3.840  -3.833  1.00  0.00     0.022 A 
BRANCH  60  63
ATOM     63  S   UNL     1     -12.072  -3.453  -6.450  1.00  0.00     0.127 S 
ATOM     64  O   UNL     1     -10.891  -4.104  -7.013  1.00  0.00    -0.237 OA
ATOM     65  O   UNL     1     -13.145  -4.369  -6.061  1.00  0.00    -0.237 OA
ATOM     66  O   UNL     1     -12.526  -2.257  -7.146  1.00  0.00    -0.744 OA
ENDBRANCH  60  63
ENDBRANCH  42  56
BRANCH  43  67
ATOM     67  C   UNL     1      -8.590   8.423  -1.391  1.00  0.00     0.023 A 
ATOM     68  C   UNL     1      -8.922   9.019  -0.161  1.00  0.00     0.012 A 
ATOM     69  C   UNL     1      -7.885   9.176  -2.352  1.00  0.00     0.148 A 
ATOM     70  C   UNL     1      -8.567  10.342   0.106  1.00  0.00     0.002 A 
ATOM     71  C   UNL     1      -7.481  10.473  -2.056  1.00  0.00     0.091 A 
ATOM     72  F   UNL     1      -7.598   8.600  -3.528  1.00  0.00    -0.205 F 
ATOM     73  C   UNL     1      -7.833  11.062  -0.833  1.00  0.00     0.022 A 
BRANCH  71  74
ATOM     74  S   UNL     1      -6.400  11.403  -3.149  1.00  0.00     0.127 S 
ATOM     75  O   UNL     1      -7.341  12.301  -3.810  1.00  0.00    -0.237 OA
ATOM     76  O   UNL     1      -5.489  12.053  -2.204  1.00  0.00    -0.237 OA
ATOM     77  O   UNL     1      -5.761  10.406  -3.997  1.00  0.00    -0.744 OA
ENDBRANCH  71  74
ENDBRANCH  43  67
BRANCH  55  78
ATOM     78  C   UNL     1     -14.534   4.851  -2.284  1.00  0.00     0.023 A 
ATOM     79  C   UNL     1     -15.079   5.480  -3.420  1.00  0.00     0.012 A 
ATOM     80  C   UNL     1     -15.372   4.515  -1.203  1.00  0.00     0.148 A 
ATOM     81  C   UNL     1     -16.439   5.782  -3.474  1.00  0.00     0.002 A 
ATOM     82  C   UNL     1     -16.733   4.785  -1.280  1.00  0.00     0.091 A 
ATOM     83  F   UNL     1     -14.824   3.935  -0.126  1.00  0.00    -0.205 F 
ATOM     84  C   UNL     1     -17.267   5.424  -2.412  1.00  0.00     0.022 A 
BRANCH  82  85
ATOM     85  S   UNL     1     -17.887   4.286   0.003  1.00  0.00     0.127 S 
ATOM     86  O   UNL     1     -18.217   5.569   0.622  1.00  0.00    -0.237 OA
ATOM     87  O   UNL     1     -18.972   3.684  -0.771  1.00  0.00    -0.237 OA
ATOM     88  O   UNL     1     -17.162   3.351   0.853  1.00  0.00    -0.744 OA
ENDBRANCH  82  85
ENDBRANCH  55  78
ENDBRANCH  29  30
ENDBRANCH  22  24
ENDBRANCH  21  22
ENDBRANCH  20  21
ENDBRANCH   1  20
TORSDOF 17
