REMARK SMILES O=C(OCCOC(=O)c1c(C(F)(F)F)nn(-c2ccccc2)c1C(F)(F)Cl)c1ccc(-c2c3nc(c(-c4cccc(S(=O)(=O)[O-])c4F)c4ccc([nH]4)c(-c4cccc(S(=O)(=O)[O-])c4F)c4nc(c(-c5cccc(S(=O)(=O)[O-])c5F)c5ccc2[nH]5)C=C4)C=C3)cc1
REMARK SMILES IDX 4 1 3 2 2 3 1 4 28 5 29 6 90 7 30 8 89 9 31 10 32 11 33 12
REMARK SMILES IDX 83 13 34 14 88 15 82 16 84 17 35 18 87 19 81 20 80 21 36 23
REMARK SMILES IDX 68 24 48 25 67 26 49 27 52 28 66 29 85 30 50 31 51 32 65 34
REMARK SMILES IDX 86 35 53 36 37 37 38 38 46 39 39 40 41 41 47 42 40 43 42 44
REMARK SMILES IDX 43 45 44 46 45 47 69 48 70 49 78 50 71 51 73 52 79 53 72 54
REMARK SMILES IDX 74 55 75 56 76 57 77 58 54 59 55 60 63 61 56 62 58 63 64 64
REMARK SMILES IDX 57 65 59 66 60 67 61 68 62 69 5 70 6 71 7 72 8 73 9 74 10 75
REMARK SMILES IDX 23 76 15 77 16 78 11 79 12 80 13 81 14 82 24 83 25 84 26 85
REMARK SMILES IDX 27 86 17 87 18 88 22 89 19 90 21 91 20 92
REMARK H PARENT 84 22 52 33
REMARK Flexibility Score: inf
ROOT
ATOM      1  C   UNL     1       4.630  -1.440   0.284  1.00  0.00     0.275 C 
ENDROOT
BRANCH   1   2
ATOM      2  O   UNL     1       3.884  -1.100   1.465  1.00  0.00    -0.458 OA
BRANCH   2   3
ATOM      3  C   UNL     1       2.580  -0.777   1.341  1.00  0.00     0.338 C 
ATOM      4  O   UNL     1       1.723  -1.460   0.804  1.00  0.00    -0.246 OA
BRANCH   3   5
ATOM      5  C   UNL     1       2.379   0.587   1.879  1.00  0.00     0.060 A 
ATOM      6  C   UNL     1       3.478   1.417   2.151  1.00  0.00     0.016 A 
ATOM      7  C   UNL     1       1.078   1.072   2.037  1.00  0.00     0.016 A 
ATOM      8  C   UNL     1       3.278   2.707   2.616  1.00  0.00     0.010 A 
ATOM      9  C   UNL     1       0.880   2.374   2.490  1.00  0.00     0.010 A 
ATOM     10  C   UNL     1       1.979   3.182   2.807  1.00  0.00    -0.014 A 
BRANCH  10  11
ATOM     11  C   UNL     1       1.839   4.522   3.372  1.00  0.00     0.031 A 
ATOM     12  C   UNL     1       2.311   5.692   2.578  1.00  0.00     0.074 A 
ATOM     13  C   UNL     1       1.212   4.758   4.541  1.00  0.00     0.049 A 
ATOM     14  N   UNL     1       3.190   6.582   2.919  1.00  0.00    -0.248 NA
ATOM     15  C   UNL     1       1.723   5.903   1.250  1.00  0.00     0.031 C 
ATOM     16  C   UNL     1       0.399   3.816   5.313  1.00  0.00     0.029 A 
ATOM     17  N   UNL     1       1.052   5.943   5.205  1.00  0.00    -0.354 N 
ATOM     18  C   UNL     1       3.112   7.583   1.950  1.00  0.00     0.074 A 
ATOM     19  C   UNL     1       2.272   7.067   0.898  1.00  0.00     0.031 C 
ATOM     20  C   UNL     1      -0.369   4.513   6.175  1.00  0.00     0.029 A 
ATOM     21  C   UNL     1       0.007   5.915   6.112  1.00  0.00     0.049 A 
ATOM     22  H   UNL     1       1.621   6.732   5.054  1.00  0.00     0.167 HD
ATOM     23  C   UNL     1       3.584   8.843   2.156  1.00  0.00     0.034 A 
ATOM     24  C   UNL     1      -0.569   6.969   6.729  1.00  0.00     0.034 A 
ATOM     25  C   UNL     1       4.474   8.939   3.281  1.00  0.00     0.049 A 
ATOM     26  C   UNL     1       0.375   8.106   6.720  1.00  0.00     0.074 A 
ATOM     27  C   UNL     1       5.672   8.373   3.661  1.00  0.00     0.029 A 
ATOM     28  N   UNL     1       4.019   9.628   4.375  1.00  0.00    -0.354 N 
ATOM     29  N   UNL     1       1.469   8.165   7.429  1.00  0.00    -0.248 NA
ATOM     30  C   UNL     1       0.224   9.152   5.719  1.00  0.00     0.031 C 
ATOM     31  C   UNL     1       5.684   8.420   5.087  1.00  0.00     0.029 A 
ATOM     32  C   UNL     1       4.471   8.980   5.492  1.00  0.00     0.049 A 
ATOM     33  H   UNL     1       3.468  10.444   4.360  1.00  0.00     0.167 HD
ATOM     34  C   UNL     1       2.314   8.988   6.702  1.00  0.00     0.074 A 
ATOM     35  C   UNL     1       1.436   9.704   5.786  1.00  0.00     0.031 C 
ATOM     36  C   UNL     1       3.666   8.781   6.683  1.00  0.00     0.034 A 
BRANCH  23  37
ATOM     37  C   UNL     1       3.023  10.096   1.519  1.00  0.00     0.023 A 
ATOM     38  C   UNL     1       3.797  11.278   1.595  1.00  0.00     0.012 A 
ATOM     39  C   UNL     1       1.682  10.237   1.102  1.00  0.00     0.148 A 
ATOM     40  C   UNL     1       3.255  12.536   1.309  1.00  0.00     0.002 A 
ATOM     41  C   UNL     1       1.173  11.482   0.737  1.00  0.00     0.091 A 
ATOM     42  F   UNL     1       0.845   9.194   1.172  1.00  0.00    -0.205 F 
ATOM     43  C   UNL     1       1.944  12.639   0.866  1.00  0.00     0.022 A 
BRANCH  41  44
ATOM     44  S   UNL     1      -0.489  11.612   0.070  1.00  0.00     0.127 S 
ATOM     45  O   UNL     1      -1.293  11.701   1.283  1.00  0.00    -0.237 OA
ATOM     46  O   UNL     1      -0.421  12.844  -0.718  1.00  0.00    -0.237 OA
ATOM     47  O   UNL     1      -0.636  10.404  -0.734  1.00  0.00    -0.744 OA
ENDBRANCH  41  44
ENDBRANCH  23  37
BRANCH  24  48
ATOM     48  C   UNL     1      -1.941   7.080   7.262  1.00  0.00     0.023 A 
ATOM     49  C   UNL     1      -2.210   7.962   8.323  1.00  0.00     0.012 A 
ATOM     50  C   UNL     1      -3.034   6.462   6.611  1.00  0.00     0.148 A 
ATOM     51  C   UNL     1      -3.525   8.222   8.725  1.00  0.00     0.002 A 
ATOM     52  C   UNL     1      -4.337   6.701   7.034  1.00  0.00     0.091 A 
ATOM     53  F   UNL     1      -2.805   5.707   5.527  1.00  0.00    -0.205 F 
ATOM     54  C   UNL     1      -4.588   7.588   8.085  1.00  0.00     0.022 A 
BRANCH  52  55
ATOM     55  S   UNL     1      -5.732   5.866   6.267  1.00  0.00     0.127 S 
ATOM     56  O   UNL     1      -6.654   5.694   7.391  1.00  0.00    -0.237 OA
ATOM     57  O   UNL     1      -6.164   6.838   5.268  1.00  0.00    -0.237 OA
ATOM     58  O   UNL     1      -5.188   4.613   5.756  1.00  0.00    -0.744 OA
ENDBRANCH  52  55
ENDBRANCH  24  48
BRANCH  36  59
ATOM     59  C   UNL     1       4.286   7.942   7.774  1.00  0.00     0.023 A 
ATOM     60  C   UNL     1       3.901   6.602   7.978  1.00  0.00     0.012 A 
ATOM     61  C   UNL     1       5.393   8.442   8.488  1.00  0.00     0.148 A 
ATOM     62  C   UNL     1       4.571   5.792   8.898  1.00  0.00     0.002 A 
ATOM     63  C   UNL     1       6.090   7.615   9.367  1.00  0.00     0.091 A 
ATOM     64  F   UNL     1       5.770   9.714   8.283  1.00  0.00    -0.205 F 
ATOM     65  C   UNL     1       5.673   6.294   9.583  1.00  0.00     0.022 A 
BRANCH  63  66
ATOM     66  S   UNL     1       7.606   8.173  10.153  1.00  0.00     0.127 S 
ATOM     67  O   UNL     1       7.117   8.755  11.400  1.00  0.00    -0.237 OA
ATOM     68  O   UNL     1       8.367   6.932  10.318  1.00  0.00    -0.237 OA
ATOM     69  O   UNL     1       8.205   9.104   9.204  1.00  0.00    -0.744 OA
ENDBRANCH  63  66
ENDBRANCH  36  59
ENDBRANCH  10  11
ENDBRANCH   3   5
ENDBRANCH   2   3
ENDBRANCH   1   2
BRANCH   1  70
ATOM     70  C   UNL     1       3.925  -1.290  -1.065  1.00  0.00     0.275 C 
BRANCH  70  71
ATOM     71  O   UNL     1       3.520   0.076  -1.275  1.00  0.00    -0.458 OA
BRANCH  71  72
ATOM     72  C   UNL     1       2.676   0.246  -2.330  1.00  0.00     0.342 C 
ATOM     73  O   UNL     1       2.212  -0.652  -3.021  1.00  0.00    -0.246 OA
BRANCH  72  74
ATOM     74  C   UNL     1       2.530   1.637  -2.696  1.00  0.00     0.121 A 
ATOM     75  C   UNL     1       1.538   2.570  -2.292  1.00  0.00     0.181 A 
ATOM     76  C   UNL     1       3.311   2.312  -3.628  1.00  0.00     0.145 A 
ATOM     77  N   UNL     1       1.772   3.772  -2.854  1.00  0.00    -0.162 NA
ATOM     78  N   UNL     1       2.706   3.538  -3.800  1.00  0.00    -0.229 N 
BRANCH  75  79
ATOM     79  C   UNL     1       0.342   2.314  -1.411  1.00  0.00     0.436 C 
ATOM     80  F   UNL     1       0.236   3.202  -0.394  1.00  0.00    -0.164 F 
ATOM     81  F   UNL     1      -0.819   2.364  -2.116  1.00  0.00    -0.164 F 
ATOM     82  F   UNL     1       0.392   1.076  -0.853  1.00  0.00    -0.164 F 
ENDBRANCH  75  79
BRANCH  76  83
ATOM     83  C   UNL     1       4.514   1.931  -4.403  1.00  0.00     0.365 C 
ATOM     84  F   UNL     1       4.151   1.296  -5.549  1.00  0.00    -0.181 F 
ATOM     85  F   UNL     1       5.240   3.014  -4.784  1.00  0.00    -0.181 F 
ATOM     86  Cl  UNL     1       5.625   0.870  -3.511  1.00  0.00    -0.040 Cl
ENDBRANCH  76  83
BRANCH  78  87
ATOM     87  C   UNL     1       2.868   4.459  -4.861  1.00  0.00     0.065 A 
ATOM     88  C   UNL     1       3.006   5.819  -4.575  1.00  0.00     0.028 A 
ATOM     89  C   UNL     1       2.887   4.003  -6.186  1.00  0.00     0.028 A 
ATOM     90  C   UNL     1       3.253   6.712  -5.619  1.00  0.00     0.002 A 
ATOM     91  C   UNL     1       3.099   4.908  -7.225  1.00  0.00     0.002 A 
ATOM     92  C   UNL     1       3.304   6.257  -6.939  1.00  0.00     0.000 A 
ENDBRANCH  78  87
ENDBRANCH  72  74
ENDBRANCH  71  72
ENDBRANCH  70  71
ENDBRANCH   1  70
TORSDOF 17
