REMARK SMILES O=C(OCCOC(=O)c1ccccc1/N=C/c1coc2ccccc2c1=O)c1ccc(-c2c3nc(c(-c4cccc(S(=O)(=O)[O-])c4F)c4ccc([nH]4)c(-c4cccc(S(=O)(=O)[O-])c4F)c4nc(c(-c5cccc(S(=O)(=O)[O-])c5F)c5ccc2[nH]5)C=C4)C=C3)cc1
REMARK SMILES IDX 4 1 3 2 2 3 1 4 28 5 29 6 90 7 30 8 89 9 31 10 32 11 33 12
REMARK SMILES IDX 83 13 34 14 88 15 82 16 84 17 35 18 87 19 81 20 80 21 36 23
REMARK SMILES IDX 68 24 48 25 67 26 49 27 52 28 66 29 85 30 50 31 51 32 65 34
REMARK SMILES IDX 86 35 53 36 37 37 38 38 46 39 39 40 41 41 47 42 40 43 42 44
REMARK SMILES IDX 43 45 44 46 45 47 69 48 70 49 78 50 71 51 73 52 79 53 72 54
REMARK SMILES IDX 74 55 75 56 76 57 77 58 54 59 55 60 63 61 56 62 58 63 64 64
REMARK SMILES IDX 57 65 59 66 60 67 61 68 62 69 5 70 6 71 7 72 8 73 9 74 10 75
REMARK SMILES IDX 14 76 11 77 13 78 12 79 15 80 16 81 17 82 18 83 26 84 19 85
REMARK SMILES IDX 25 86 27 87 20 88 24 89 21 90 23 91 22 92
REMARK H PARENT 84 22 52 33
REMARK Flexibility Score: inf
ROOT
ATOM      1  C   UNL     1       4.609  -0.827   1.137  1.00  0.00     0.275 C 
ENDROOT
BRANCH   1   2
ATOM      2  O   UNL     1       3.700   0.258   1.371  1.00  0.00    -0.458 OA
BRANCH   2   3
ATOM      3  C   UNL     1       3.384   1.297   0.564  1.00  0.00     0.338 C 
ATOM      4  O   UNL     1       2.457   2.033   0.904  1.00  0.00    -0.246 OA
BRANCH   3   5
ATOM      5  C   UNL     1       4.065   1.599  -0.737  1.00  0.00     0.060 A 
ATOM      6  C   UNL     1       5.417   1.383  -1.026  1.00  0.00     0.016 A 
ATOM      7  C   UNL     1       3.293   2.285  -1.689  1.00  0.00     0.016 A 
ATOM      8  C   UNL     1       5.988   1.829  -2.234  1.00  0.00     0.010 A 
ATOM      9  C   UNL     1       3.858   2.744  -2.882  1.00  0.00     0.010 A 
ATOM     10  C   UNL     1       5.222   2.543  -3.155  1.00  0.00    -0.014 A 
BRANCH  10  11
ATOM     11  C   UNL     1       5.811   3.265  -4.309  1.00  0.00     0.031 A 
ATOM     12  C   UNL     1       5.972   4.749  -4.205  1.00  0.00     0.074 A 
ATOM     13  C   UNL     1       6.091   2.669  -5.484  1.00  0.00     0.049 A 
ATOM     14  N   UNL     1       6.356   5.584  -5.129  1.00  0.00    -0.248 NA
ATOM     15  C   UNL     1       5.740   5.362  -2.886  1.00  0.00     0.031 C 
ATOM     16  C   UNL     1       6.146   1.241  -5.730  1.00  0.00     0.029 A 
ATOM     17  N   UNL     1       6.232   3.217  -6.738  1.00  0.00    -0.354 N 
ATOM     18  C   UNL     1       6.532   6.792  -4.481  1.00  0.00     0.074 A 
ATOM     19  C   UNL     1       6.074   6.623  -3.119  1.00  0.00     0.031 C 
ATOM     20  C   UNL     1       6.011   1.019  -7.050  1.00  0.00     0.029 A 
ATOM     21  C   UNL     1       5.948   2.302  -7.731  1.00  0.00     0.049 A 
ATOM     22  H   UNL     1       6.502   4.149  -6.906  1.00  0.00     0.167 HD
ATOM     23  C   UNL     1       7.140   7.900  -4.960  1.00  0.00     0.034 A 
ATOM     24  C   UNL     1       5.630   2.498  -9.025  1.00  0.00     0.034 A 
ATOM     25  C   UNL     1       7.558   8.044  -6.325  1.00  0.00     0.049 A 
ATOM     26  C   UNL     1       5.946   3.841  -9.608  1.00  0.00     0.074 A 
ATOM     27  C   UNL     1       8.289   9.057  -6.914  1.00  0.00     0.029 A 
ATOM     28  N   UNL     1       7.227   7.149  -7.331  1.00  0.00    -0.354 N 
ATOM     29  N   UNL     1       6.349   4.919  -8.982  1.00  0.00    -0.248 NA
ATOM     30  C   UNL     1       5.936   3.957 -11.072  1.00  0.00     0.031 C 
ATOM     31  C   UNL     1       8.367   8.790  -8.289  1.00  0.00     0.029 A 
ATOM     32  C   UNL     1       7.695   7.605  -8.549  1.00  0.00     0.049 A 
ATOM     33  H   UNL     1       6.731   6.310  -7.197  1.00  0.00     0.167 HD
ATOM     34  C   UNL     1       6.801   5.779  -9.970  1.00  0.00     0.074 A 
ATOM     35  C   UNL     1       6.514   5.141 -11.241  1.00  0.00     0.031 C 
ATOM     36  C   UNL     1       7.466   6.948  -9.813  1.00  0.00     0.034 A 
BRANCH  23  37
ATOM     37  C   UNL     1       7.471   8.954  -3.950  1.00  0.00     0.023 A 
ATOM     38  C   UNL     1       8.532   8.710  -3.050  1.00  0.00     0.012 A 
ATOM     39  C   UNL     1       6.723  10.134  -3.840  1.00  0.00     0.148 A 
ATOM     40  C   UNL     1       8.815   9.610  -2.026  1.00  0.00     0.002 A 
ATOM     41  C   UNL     1       7.027  11.040  -2.830  1.00  0.00     0.091 A 
ATOM     42  F   UNL     1       5.696  10.325  -4.681  1.00  0.00    -0.205 F 
ATOM     43  C   UNL     1       8.064  10.777  -1.918  1.00  0.00     0.022 A 
BRANCH  41  44
ATOM     44  S   UNL     1       6.126  12.578  -2.631  1.00  0.00     0.127 S 
ATOM     45  O   UNL     1       5.211  12.245  -1.541  1.00  0.00    -0.237 OA
ATOM     46  O   UNL     1       7.187  13.519  -2.271  1.00  0.00    -0.237 OA
ATOM     47  O   UNL     1       5.505  12.839  -3.923  1.00  0.00    -0.744 OA
ENDBRANCH  41  44
ENDBRANCH  23  37
BRANCH  24  48
ATOM     48  C   UNL     1       5.100   1.393  -9.867  1.00  0.00     0.023 A 
ATOM     49  C   UNL     1       5.981   0.573 -10.594  1.00  0.00     0.012 A 
ATOM     50  C   UNL     1       3.713   1.146  -9.939  1.00  0.00     0.148 A 
ATOM     51  C   UNL     1       5.491  -0.472 -11.380  1.00  0.00     0.002 A 
ATOM     52  C   UNL     1       3.232   0.090 -10.710  1.00  0.00     0.091 A 
ATOM     53  F   UNL     1       2.889   1.946  -9.248  1.00  0.00    -0.205 F 
ATOM     54  C   UNL     1       4.121  -0.719 -11.433  1.00  0.00     0.022 A 
BRANCH  52  55
ATOM     55  S   UNL     1       1.492  -0.373 -10.766  1.00  0.00     0.127 S 
ATOM     56  O   UNL     1       1.132  -0.038 -12.141  1.00  0.00    -0.237 OA
ATOM     57  O   UNL     1       1.557  -1.806 -10.473  1.00  0.00    -0.237 OA
ATOM     58  O   UNL     1       0.841   0.419  -9.731  1.00  0.00    -0.744 OA
ENDBRANCH  52  55
ENDBRANCH  24  48
BRANCH  36  59
ATOM     59  C   UNL     1       8.050   7.588 -11.037  1.00  0.00     0.023 A 
ATOM     60  C   UNL     1       7.227   8.294 -11.931  1.00  0.00     0.012 A 
ATOM     61  C   UNL     1       9.446   7.573 -11.232  1.00  0.00     0.148 A 
ATOM     62  C   UNL     1       7.787   8.975 -13.010  1.00  0.00     0.002 A 
ATOM     63  C   UNL     1      10.001   8.294 -12.279  1.00  0.00     0.091 A 
ATOM     64  F   UNL     1      10.204   6.867 -10.380  1.00  0.00    -0.205 F 
ATOM     65  C   UNL     1       9.172   8.990 -13.174  1.00  0.00     0.022 A 
BRANCH  63  66
ATOM     66  S   UNL     1      11.775   8.457 -12.505  1.00  0.00     0.127 S 
ATOM     67  O   UNL     1      11.990   7.702 -13.738  1.00  0.00    -0.237 OA
ATOM     68  O   UNL     1      11.936   9.905 -12.638  1.00  0.00    -0.237 OA
ATOM     69  O   UNL     1      12.389   7.887 -11.313  1.00  0.00    -0.744 OA
ENDBRANCH  63  66
ENDBRANCH  36  59
ENDBRANCH  10  11
ENDBRANCH   3   5
ENDBRANCH   2   3
ENDBRANCH   1   2
BRANCH   1  70
ATOM     70  C   UNL     1       4.107  -1.894   0.175  1.00  0.00     0.275 C 
BRANCH  70  71
ATOM     71  O   UNL     1       3.222  -1.377  -0.822  1.00  0.00    -0.458 OA
BRANCH  71  72
ATOM     72  C   UNL     1       1.940  -1.806  -0.735  1.00  0.00     0.340 C 
ATOM     73  O   UNL     1       1.447  -2.517   0.126  1.00  0.00    -0.246 OA
BRANCH  72  74
ATOM     74  C   UNL     1       1.207  -1.328  -1.902  1.00  0.00     0.085 A 
ATOM     75  C   UNL     1       0.483  -0.133  -1.724  1.00  0.00     0.018 A 
ATOM     76  C   UNL     1       1.248  -1.994  -3.138  1.00  0.00     0.077 A 
ATOM     77  C   UNL     1      -0.191   0.445  -2.796  1.00  0.00     0.001 A 
ATOM     78  C   UNL     1       0.513  -1.402  -4.185  1.00  0.00     0.029 A 
ATOM     79  C   UNL     1      -0.181  -0.195  -4.029  1.00  0.00     0.002 A 
BRANCH  76  80
ATOM     80  N   UNL     1       2.154  -2.980  -3.582  1.00  0.00    -0.255 NA
ATOM     81  C   UNL     1       3.058  -3.590  -2.882  1.00  0.00     0.127 C 
BRANCH  81  82
ATOM     82  C   UNL     1       4.430  -3.588  -3.495  1.00  0.00     0.076 A 
ATOM     83  C   UNL     1       4.565  -4.325  -4.614  1.00  0.00     0.209 A 
ATOM     84  C   UNL     1       4.980  -2.212  -3.662  1.00  0.00     0.201 A 
ATOM     85  O   UNL     1       4.870  -3.753  -5.859  1.00  0.00    -0.463 OA
ATOM     86  C   UNL     1       4.449  -1.603  -4.885  1.00  0.00     0.065 A 
ATOM     87  O   UNL     1       5.668  -1.647  -2.827  1.00  0.00    -0.288 OA
ATOM     88  C   UNL     1       4.388  -2.458  -5.987  1.00  0.00     0.137 A 
ATOM     89  C   UNL     1       3.769  -0.391  -4.852  1.00  0.00     0.016 A 
ATOM     90  C   UNL     1       3.691  -2.063  -7.118  1.00  0.00     0.048 A 
ATOM     91  C   UNL     1       3.062   0.005  -5.979  1.00  0.00     0.001 A 
ATOM     92  C   UNL     1       3.019  -0.834  -7.097  1.00  0.00     0.004 A 
ENDBRANCH  81  82
ENDBRANCH  76  80
ENDBRANCH  72  74
ENDBRANCH  71  72
ENDBRANCH  70  71
ENDBRANCH   1  70
TORSDOF 16
