REMARK SMILES CCCCCCCCNC(=O)Oc1cccc(-c2ccc([C@@H](C)C(=O)OCCOC(=O)c3ccc(-c4c5nc(c(-c6cccc(S(=O)(=O)[O-])c6F)c6ccc([nH]6)c(-c6cccc(S(=O)(=O)[O-])c6F)c6nc(c(-c7cccc(S(=O)(=O)[O-])c7F)c7ccc4[nH]7)C=C6)C=C5)cc3)cc2F)c1
REMARK SMILES IDX 18 1 19 2 20 3 21 4 95 5 96 6 97 7 17 8 13 9 14 10 98 11
REMARK SMILES IDX 15 12 16 13 12 14 10 15 9 16 11 18 8 19 7 20 6 21 5 22 4 23
REMARK SMILES IDX 3 24 2 25 1 26 22 27 23 28 24 29 25 30 26 31 27 32 28 33
REMARK SMILES IDX 29 34 30 35 31 36 32 37 33 38 94 39 34 40 93 41 35 42 36 43
REMARK SMILES IDX 37 44 87 45 38 46 92 47 86 48 88 49 39 50 91 51 85 52 84 53
REMARK SMILES IDX 40 55 72 56 52 57 71 58 53 59 56 60 70 61 89 62 54 63 55 64
REMARK SMILES IDX 69 66 90 67 57 68 41 69 42 70 50 71 43 72 45 73 51 74 44 75
REMARK SMILES IDX 46 76 47 77 48 78 49 79 73 80 74 81 82 82 75 83 77 84 83 85
REMARK SMILES IDX 76 86 78 87 79 88 80 89 81 90 58 91 59 92 67 93 60 94 62 95
REMARK SMILES IDX 68 96 61 97 63 98 64 99 65 100 66 101
REMARK H PARENT 9 17 88 54 56 65
REMARK Flexibility Score: inf
ROOT
ATOM      1  C   UNL     1      -6.370  -5.703   9.938  1.00  0.00     0.018 A 
ATOM      2  C   UNL     1      -7.540  -5.495  10.686  1.00  0.00     0.012 A 
ATOM      3  C   UNL     1      -8.574  -6.438  10.697  1.00  0.00     0.005 A 
ATOM      4  C   UNL     1      -8.480  -7.616   9.945  1.00  0.00    -0.031 A 
ATOM      5  C   UNL     1      -7.325  -7.818   9.174  1.00  0.00     0.044 A 
ATOM      6  C   UNL     1      -6.295  -6.876   9.175  1.00  0.00     0.131 A 
ATOM      7  F   UNL     1      -5.197  -7.143   8.451  1.00  0.00    -0.206 F 
ENDROOT
BRANCH   1   8
ATOM      8  C   UNL     1      -5.264  -4.732   9.993  1.00  0.00    -0.012 A 
ATOM      9  C   UNL     1      -3.623  -3.306   8.920  1.00  0.00     0.133 A 
ATOM     10  C   UNL     1      -3.122  -2.900  10.154  1.00  0.00     0.047 A 
ATOM     11  C   UNL     1      -4.674  -4.221   8.827  1.00  0.00     0.056 A 
ATOM     12  C   UNL     1      -3.696  -3.397  11.318  1.00  0.00     0.004 A 
ATOM     13  C   UNL     1      -4.755  -4.305  11.236  1.00  0.00     0.009 A 
BRANCH   9  14
ATOM     14  O   UNL     1      -2.933  -2.862   7.782  1.00  0.00    -0.410 OA
BRANCH  14  15
ATOM     15  C   UNL     1      -3.658  -2.230   6.784  1.00  0.00     0.412 C 
ATOM     16  N   UNL     1      -2.890  -1.901   5.700  1.00  0.00    -0.321 N 
ATOM     17  H   UNL     1      -3.352  -1.467   4.947  1.00  0.00     0.167 HD
ATOM     18  O   UNL     1      -4.848  -1.946   6.824  1.00  0.00    -0.224 OA
BRANCH  16  19
ATOM     19  C   UNL     1      -1.467  -2.127   5.547  1.00  0.00     0.119 C 
BRANCH  19  20
ATOM     20  C   UNL     1      -1.143  -2.995   4.332  1.00  0.00     0.021 C 
BRANCH  20  21
ATOM     21  C   UNL     1      -1.540  -2.389   2.981  1.00  0.00     0.002 C 
BRANCH  21  22
ATOM     22  C   UNL     1      -0.945  -1.009   2.678  1.00  0.00     0.000 C 
BRANCH  22  23
ATOM     23  C   UNL     1       0.586  -0.956   2.636  1.00  0.00    -0.000 C 
BRANCH  23  24
ATOM     24  C   UNL     1       1.238  -1.801   1.537  1.00  0.00    -0.000 C 
BRANCH  24  25
ATOM     25  C   UNL     1       0.814  -1.457   0.106  1.00  0.00    -0.003 C 
ATOM     26  C   UNL     1       1.143  -0.027  -0.295  1.00  0.00     0.004 C 
ENDBRANCH  24  25
ENDBRANCH  23  24
ENDBRANCH  22  23
ENDBRANCH  21  22
ENDBRANCH  20  21
ENDBRANCH  19  20
ENDBRANCH  16  19
ENDBRANCH  14  15
ENDBRANCH   9  14
ENDBRANCH   1   8
BRANCH   4  27
ATOM     27  C   UNL     1      -9.579  -8.666   9.959  1.00  0.00     0.126 C 
ATOM     28  C   UNL     1      -9.831  -9.218  11.361  1.00  0.00     0.025 C 
BRANCH  27  29
ATOM     29  C   UNL     1     -10.902  -8.270   9.313  1.00  0.00     0.313 C 
ATOM     30  O   UNL     1     -11.721  -9.107   8.945  1.00  0.00    -0.252 OA
BRANCH  29  31
ATOM     31  O   UNL     1     -11.088  -6.928   9.221  1.00  0.00    -0.462 OA
BRANCH  31  32
ATOM     32  C   UNL     1     -12.259  -6.477   8.514  1.00  0.00     0.274 C 
BRANCH  32  33
ATOM     33  C   UNL     1     -11.879  -5.941   7.134  1.00  0.00     0.275 C 
BRANCH  33  34
ATOM     34  O   UNL     1     -11.405  -7.002   6.287  1.00  0.00    -0.458 OA
BRANCH  34  35
ATOM     35  C   UNL     1     -10.059  -7.110   6.187  1.00  0.00     0.338 C 
ATOM     36  O   UNL     1      -9.213  -6.396   6.692  1.00  0.00    -0.246 OA
BRANCH  35  37
ATOM     37  C   UNL     1      -9.742  -8.331   5.436  1.00  0.00     0.060 A 
ATOM     38  C   UNL     1      -9.392  -9.479   6.148  1.00  0.00     0.016 A 
ATOM     39  C   UNL     1      -9.744  -8.331   4.043  1.00  0.00     0.016 A 
ATOM     40  C   UNL     1      -9.039 -10.641   5.471  1.00  0.00     0.010 A 
ATOM     41  C   UNL     1      -9.417  -9.507   3.363  1.00  0.00     0.010 A 
ATOM     42  C   UNL     1      -9.063 -10.668   4.072  1.00  0.00    -0.014 A 
BRANCH  42  43
ATOM     43  C   UNL     1      -8.756 -11.923   3.346  1.00  0.00     0.031 A 
ATOM     44  C   UNL     1      -7.509 -12.033   2.520  1.00  0.00     0.074 A 
ATOM     45  C   UNL     1      -9.636 -12.941   3.395  1.00  0.00     0.049 A 
ATOM     46  N   UNL     1      -7.141 -12.988   1.708  1.00  0.00    -0.248 NA
ATOM     47  C   UNL     1      -6.550 -10.920   2.616  1.00  0.00     0.031 C 
ATOM     48  C   UNL     1     -10.878 -12.945   4.171  1.00  0.00     0.029 A 
ATOM     49  N   UNL     1      -9.639 -14.154   2.753  1.00  0.00    -0.354 N 
ATOM     50  C   UNL     1      -5.934 -12.576   1.159  1.00  0.00     0.074 A 
ATOM     51  C   UNL     1      -5.626 -11.284   1.737  1.00  0.00     0.031 C 
ATOM     52  C   UNL     1     -11.536 -14.091   3.939  1.00  0.00     0.029 A 
ATOM     53  C   UNL     1     -10.791 -14.876   2.961  1.00  0.00     0.049 A 
ATOM     54  H   UNL     1      -8.891 -14.475   2.199  1.00  0.00     0.167 HD
ATOM     55  C   UNL     1      -5.153 -13.221   0.261  1.00  0.00     0.034 A 
ATOM     56  C   UNL     1     -11.222 -16.019   2.392  1.00  0.00     0.034 A 
ATOM     57  C   UNL     1      -5.453 -14.520  -0.281  1.00  0.00     0.049 A 
ATOM     58  C   UNL     1     -10.349 -16.698   1.373  1.00  0.00     0.074 A 
ATOM     59  C   UNL     1      -4.693 -15.288  -1.146  1.00  0.00     0.029 A 
ATOM     60  N   UNL     1      -6.609 -15.240  -0.019  1.00  0.00    -0.354 N 
ATOM     61  N   UNL     1      -9.159 -16.350   0.945  1.00  0.00    -0.248 NA
ATOM     62  C   UNL     1     -10.869 -17.932   0.769  1.00  0.00     0.031 C 
ATOM     63  C   UNL     1      -5.403 -16.460  -1.427  1.00  0.00     0.029 A 
ATOM     64  C   UNL     1      -6.596 -16.432  -0.723  1.00  0.00     0.049 A 
ATOM     65  H   UNL     1      -7.334 -14.946   0.580  1.00  0.00     0.167 HD
ATOM     66  C   UNL     1      -8.781 -17.329   0.034  1.00  0.00     0.074 A 
ATOM     67  C   UNL     1      -9.856 -18.301  -0.004  1.00  0.00     0.031 C 
ATOM     68  C   UNL     1      -7.657 -17.407  -0.719  1.00  0.00     0.034 A 
BRANCH  55  69
ATOM     69  C   UNL     1      -3.883 -12.544  -0.180  1.00  0.00     0.023 A 
ATOM     70  C   UNL     1      -2.776 -12.505   0.691  1.00  0.00     0.012 A 
ATOM     71  C   UNL     1      -3.764 -12.005  -1.476  1.00  0.00     0.148 A 
ATOM     72  C   UNL     1      -1.577 -11.918   0.288  1.00  0.00     0.002 A 
ATOM     73  C   UNL     1      -2.554 -11.455  -1.884  1.00  0.00     0.091 A 
ATOM     74  F   UNL     1      -4.836 -12.032  -2.281  1.00  0.00    -0.205 F 
ATOM     75  C   UNL     1      -1.463 -11.403  -1.001  1.00  0.00     0.022 A 
BRANCH  73  76
ATOM     76  S   UNL     1      -2.288 -10.826  -3.545  1.00  0.00     0.127 S 
ATOM     77  O   UNL     1      -2.244  -9.383  -3.311  1.00  0.00    -0.237 OA
ATOM     78  O   UNL     1      -1.000 -11.424  -3.900  1.00  0.00    -0.237 OA
ATOM     79  O   UNL     1      -3.414 -11.297  -4.338  1.00  0.00    -0.744 OA
ENDBRANCH  73  76
ENDBRANCH  55  69
BRANCH  56  80
ATOM     80  C   UNL     1     -12.542 -16.589   2.781  1.00  0.00     0.023 A 
ATOM     81  C   UNL     1     -12.588 -17.785   3.521  1.00  0.00     0.012 A 
ATOM     82  C   UNL     1     -13.747 -15.932   2.461  1.00  0.00     0.148 A 
ATOM     83  C   UNL     1     -13.811 -18.328   3.918  1.00  0.00     0.002 A 
ATOM     84  C   UNL     1     -14.958 -16.448   2.907  1.00  0.00     0.091 A 
ATOM     85  F   UNL     1     -13.684 -14.806   1.735  1.00  0.00    -0.205 F 
ATOM     86  C   UNL     1     -14.994 -17.654   3.623  1.00  0.00     0.022 A 
BRANCH  84  87
ATOM     87  S   UNL     1     -16.511 -15.572   2.688  1.00  0.00     0.127 S 
ATOM     88  O   UNL     1     -17.152 -16.357   1.637  1.00  0.00    -0.237 OA
ATOM     89  O   UNL     1     -17.123 -15.700   4.012  1.00  0.00    -0.237 OA
ATOM     90  O   UNL     1     -16.144 -14.209   2.330  1.00  0.00    -0.744 OA
ENDBRANCH  84  87
ENDBRANCH  56  80
BRANCH  68  91
ATOM     91  C   UNL     1      -7.525 -18.584  -1.649  1.00  0.00     0.023 A 
ATOM     92  C   UNL     1      -8.290 -18.619  -2.832  1.00  0.00     0.012 A 
ATOM     93  C   UNL     1      -6.596 -19.610  -1.393  1.00  0.00     0.148 A 
ATOM     94  C   UNL     1      -8.150 -19.672  -3.734  1.00  0.00     0.002 A 
ATOM     95  C   UNL     1      -6.430 -20.634  -2.319  1.00  0.00     0.091 A 
ATOM     96  F   UNL     1      -5.891 -19.566  -0.253  1.00  0.00    -0.205 F 
ATOM     97  C   UNL     1      -7.213 -20.672  -3.485  1.00  0.00     0.022 A 
BRANCH  95  98
ATOM     98  S   UNL     1      -5.186 -21.916  -2.127  1.00  0.00     0.127 S 
ATOM     99  O   UNL     1      -6.008 -23.085  -1.819  1.00  0.00    -0.237 OA
ATOM    100  O   UNL     1      -4.560 -21.942  -3.449  1.00  0.00    -0.237 OA
ATOM    101  O   UNL     1      -4.310 -21.468  -1.053  1.00  0.00    -0.744 OA
ENDBRANCH  95  98
ENDBRANCH  68  91
ENDBRANCH  42  43
ENDBRANCH  35  37
ENDBRANCH  34  35
ENDBRANCH  33  34
ENDBRANCH  32  33
ENDBRANCH  31  32
ENDBRANCH  29  31
ENDBRANCH  27  29
ENDBRANCH   4  27
TORSDOF 25
