REMARK SMILES COc1cc2c(cc1OC)[C@H](C(=O)OCCOC(=O)c1ccc(-c3c4nc(c(-c5cccc(S(=O)(=O)[O-])c5F)c5ccc([nH]5)c(-c5cccc(S(=O)(=O)[O-])c5F)c5nc(c(-c6cccc(S(=O)(=O)[O-])c6F)c6ccc3[nH]6)C=C5)C=C4)cc1)[C@H](c1cccs1)N(C)C2=O
REMARK SMILES IDX 16 1 15 2 14 3 12 4 13 5 11 6 3 7 4 8 8 9 5 10 7 11 6 12
REMARK SMILES IDX 91 13 89 14 92 15 83 16 90 17 2 18 1 19 9 20 10 21 84 22
REMARK SMILES IDX 85 23 88 24 86 25 87 26 17 27 18 28 19 29 20 30 21 31 82 32
REMARK SMILES IDX 22 33 81 34 23 35 24 36 25 37 75 38 26 39 80 40 74 41 76 42
REMARK SMILES IDX 27 43 79 44 73 45 72 46 28 48 60 49 40 50 59 51 41 52 44 53
REMARK SMILES IDX 58 54 77 55 42 56 43 57 57 59 78 60 45 61 29 62 30 63 38 64
REMARK SMILES IDX 31 65 33 66 39 67 32 68 34 69 35 70 36 71 37 72 61 73 62 74
REMARK SMILES IDX 70 75 63 76 65 77 71 78 64 79 66 80 67 81 68 82 69 83 46 84
REMARK SMILES IDX 47 85 55 86 48 87 50 88 56 89 49 90 51 91 52 92 53 93 54 94
REMARK H PARENT 76 47 44 58
REMARK Flexibility Score: inf
ROOT
ATOM      1  C   UNL     1      -1.215   3.027   9.073  1.00  0.00     0.275 C 
ENDROOT
BRANCH   1   2
ATOM      2  C   UNL     1      -1.045   3.447   7.610  1.00  0.00     0.274 C 
BRANCH   2   3
ATOM      3  O   UNL     1      -0.180   2.563   6.865  1.00  0.00    -0.462 OA
BRANCH   3   4
ATOM      4  C   UNL     1       1.098   3.009   6.684  1.00  0.00     0.316 C 
ATOM      5  O   UNL     1       1.531   4.007   7.242  1.00  0.00    -0.251 OA
BRANCH   4   6
ATOM      6  C   UNL     1       1.933   2.056   5.840  1.00  0.00     0.158 C 
ATOM      7  C   UNL     1       0.826   1.042   1.743  1.00  0.00     0.161 A 
ATOM      8  C   UNL     1       2.104   0.784   2.250  1.00  0.00     0.064 A 
ATOM      9  C   UNL     1      -0.138   1.608   2.592  1.00  0.00     0.161 A 
ATOM     10  C   UNL     1       2.428   1.094   3.579  1.00  0.00     0.048 A 
ATOM     11  C   UNL     1       0.205   1.932   3.919  1.00  0.00     0.056 A 
ATOM     12  C   UNL     1       1.491   1.715   4.426  1.00  0.00    -0.015 A 
ATOM     13  C   UNL     1       3.810   0.777   4.056  1.00  0.00     0.254 C 
ATOM     14  N   UNL     1       4.239   1.425   5.209  1.00  0.00    -0.333 N 
ATOM     15  O   UNL     1       4.495  -0.023   3.426  1.00  0.00    -0.269 OA
ATOM     16  C   UNL     1       3.427   2.485   5.827  1.00  0.00     0.144 C 
ATOM     17  C   UNL     1       5.596   1.210   5.684  1.00  0.00     0.147 C 
BRANCH   7  18
ATOM     18  O   UNL     1       0.515   0.820   0.428  1.00  0.00    -0.493 OA
ATOM     19  C   UNL     1       1.156  -0.291  -0.191  1.00  0.00     0.278 C 
ENDBRANCH   7  18
BRANCH   9  20
ATOM     20  O   UNL     1      -1.450   1.900   2.319  1.00  0.00    -0.493 OA
ATOM     21  C   UNL     1      -1.945   1.671   1.010  1.00  0.00     0.278 C 
ENDBRANCH   9  20
BRANCH  16  22
ATOM     22  C   UNL     1       3.742   3.852   5.213  1.00  0.00     0.028 A 
ATOM     23  C   UNL     1       3.893   5.045   5.905  1.00  0.00     0.017 A 
ATOM     24  S   UNL     1       4.004   4.111   3.533  1.00  0.00    -0.147 S 
ATOM     25  C   UNL     1       4.179   6.155   5.062  1.00  0.00     0.012 A 
ATOM     26  C   UNL     1       4.288   5.779   3.745  1.00  0.00     0.065 A 
ENDBRANCH  16  22
ENDBRANCH   4   6
ENDBRANCH   3   4
ENDBRANCH   2   3
ENDBRANCH   1   2
BRANCH   1  27
ATOM     27  O   UNL     1       0.029   3.064   9.796  1.00  0.00    -0.458 OA
BRANCH  27  28
ATOM     28  C   UNL     1       0.653   1.868   9.911  1.00  0.00     0.338 C 
ATOM     29  O   UNL     1       0.244   0.787   9.520  1.00  0.00    -0.246 OA
BRANCH  28  30
ATOM     30  C   UNL     1       2.029   2.061  10.400  1.00  0.00     0.060 A 
ATOM     31  C   UNL     1       3.055   1.671   9.537  1.00  0.00     0.016 A 
ATOM     32  C   UNL     1       2.322   2.531  11.681  1.00  0.00     0.016 A 
ATOM     33  C   UNL     1       4.384   1.772   9.935  1.00  0.00     0.010 A 
ATOM     34  C   UNL     1       3.663   2.607  12.091  1.00  0.00     0.010 A 
ATOM     35  C   UNL     1       4.700   2.222  11.221  1.00  0.00    -0.014 A 
BRANCH  35  36
ATOM     36  C   UNL     1       6.118   2.192  11.654  1.00  0.00     0.031 A 
ATOM     37  C   UNL     1       6.604   1.079  12.539  1.00  0.00     0.074 A 
ATOM     38  C   UNL     1       6.986   3.116  11.202  1.00  0.00     0.049 A 
ATOM     39  N   UNL     1       7.804   0.866  13.013  1.00  0.00    -0.248 NA
ATOM     40  C   UNL     1       5.610   0.070  12.936  1.00  0.00     0.031 C 
ATOM     41  C   UNL     1       6.646   4.227  10.314  1.00  0.00     0.029 A 
ATOM     42  N   UNL     1       8.331   3.266  11.430  1.00  0.00    -0.354 N 
ATOM     43  C   UNL     1       7.704  -0.276  13.797  1.00  0.00     0.074 A 
ATOM     44  C   UNL     1       6.326  -0.715  13.729  1.00  0.00     0.031 C 
ATOM     45  C   UNL     1       7.753   4.951  10.079  1.00  0.00     0.029 A 
ATOM     46  C   UNL     1       8.872   4.375  10.824  1.00  0.00     0.049 A 
ATOM     47  H   UNL     1       8.859   2.639  11.976  1.00  0.00     0.167 HD
ATOM     48  C   UNL     1       8.672  -0.909  14.500  1.00  0.00     0.034 A 
ATOM     49  C   UNL     1      10.121   4.881  10.879  1.00  0.00     0.034 A 
ATOM     50  C   UNL     1      10.051  -0.502  14.538  1.00  0.00     0.049 A 
ATOM     51  C   UNL     1      11.176   4.163  11.678  1.00  0.00     0.074 A 
ATOM     52  C   UNL     1      11.109  -1.108  15.193  1.00  0.00     0.029 A 
ATOM     53  N   UNL     1      10.565   0.615  13.899  1.00  0.00    -0.354 N 
ATOM     54  N   UNL     1      11.086   3.034  12.339  1.00  0.00    -0.248 NA
ATOM     55  C   UNL     1      12.511   4.778  11.723  1.00  0.00     0.031 C 
ATOM     56  C   UNL     1      12.261  -0.348  14.961  1.00  0.00     0.029 A 
ATOM     57  C   UNL     1      11.922   0.725  14.152  1.00  0.00     0.049 A 
ATOM     58  H   UNL     1      10.042   1.240  13.346  1.00  0.00     0.167 HD
ATOM     59  C   UNL     1      12.352   2.796  12.864  1.00  0.00     0.074 A 
ATOM     60  C   UNL     1      13.200   3.881  12.416  1.00  0.00     0.031 C 
ATOM     61  C   UNL     1      12.768   1.785  13.666  1.00  0.00     0.034 A 
BRANCH  48  62
ATOM     62  C   UNL     1       8.271  -2.132  15.280  1.00  0.00     0.023 A 
ATOM     63  C   UNL     1       8.053  -3.349  14.605  1.00  0.00     0.012 A 
ATOM     64  C   UNL     1       8.150  -2.084  16.682  1.00  0.00     0.148 A 
ATOM     65  C   UNL     1       7.692  -4.495  15.312  1.00  0.00     0.002 A 
ATOM     66  C   UNL     1       7.825  -3.239  17.383  1.00  0.00     0.091 A 
ATOM     67  F   UNL     1       8.332  -0.909  17.301  1.00  0.00    -0.205 F 
ATOM     68  C   UNL     1       7.588  -4.443  16.700  1.00  0.00     0.022 A 
BRANCH  66  69
ATOM     69  S   UNL     1       7.733  -3.276  19.176  1.00  0.00     0.127 S 
ATOM     70  O   UNL     1       6.288  -3.254  19.398  1.00  0.00    -0.237 OA
ATOM     71  O   UNL     1       8.379  -4.550  19.496  1.00  0.00    -0.237 OA
ATOM     72  O   UNL     1       8.461  -2.101  19.634  1.00  0.00    -0.744 OA
ENDBRANCH  66  69
ENDBRANCH  48  62
BRANCH  49  73
ATOM     73  C   UNL     1      10.445   6.130  10.132  1.00  0.00     0.023 A 
ATOM     74  C   UNL     1      11.302   6.072   9.016  1.00  0.00     0.012 A 
ATOM     75  C   UNL     1       9.884   7.367  10.505  1.00  0.00     0.148 A 
ATOM     76  C   UNL     1      11.607   7.228   8.296  1.00  0.00     0.002 A 
ATOM     77  C   UNL     1      10.146   8.503   9.748  1.00  0.00     0.091 A 
ATOM     78  F   UNL     1       9.095   7.407  11.588  1.00  0.00    -0.205 F 
ATOM     79  C   UNL     1      11.019   8.439   8.652  1.00  0.00     0.022 A 
BRANCH  77  80
ATOM     80  S   UNL     1       9.317  10.067  10.056  1.00  0.00     0.127 S 
ATOM     81  O   UNL     1      10.382  10.855  10.670  1.00  0.00    -0.237 OA
ATOM     82  O   UNL     1       8.941  10.484   8.704  1.00  0.00    -0.237 OA
ATOM     83  O   UNL     1       8.186   9.745  10.916  1.00  0.00    -0.744 OA
ENDBRANCH  77  80
ENDBRANCH  49  73
BRANCH  61  84
ATOM     84  C   UNL     1      14.206   1.797  14.116  1.00  0.00     0.023 A 
ATOM     85  C   UNL     1      14.614   2.720  15.100  1.00  0.00     0.012 A 
ATOM     86  C   UNL     1      15.134   0.859  13.623  1.00  0.00     0.148 A 
ATOM     87  C   UNL     1      15.929   2.728  15.565  1.00  0.00     0.002 A 
ATOM     88  C   UNL     1      16.433   0.846  14.121  1.00  0.00     0.091 A 
ATOM     89  F   UNL     1      14.736   0.003  12.670  1.00  0.00    -0.205 F 
ATOM     90  C   UNL     1      16.834   1.785  15.085  1.00  0.00     0.022 A 
BRANCH  88  91
ATOM     91  S   UNL     1      17.634  -0.393  13.620  1.00  0.00     0.127 S 
ATOM     92  O   UNL     1      18.442   0.348  12.653  1.00  0.00    -0.237 OA
ATOM     93  O   UNL     1      18.318  -0.698  14.878  1.00  0.00    -0.237 OA
ATOM     94  O   UNL     1      16.857  -1.499  13.077  1.00  0.00    -0.744 OA
ENDBRANCH  88  91
ENDBRANCH  61  84
ENDBRANCH  35  36
ENDBRANCH  28  30
ENDBRANCH  27  28
ENDBRANCH   1  27
TORSDOF 17
