REMARK SMILES O=C(CC1(CC(=O)OCCOC(=O)c2ccc(-c3c4nc(c(-c5cccc(S(=O)(=O)[O-])c5F)c5ccc([nH]5)c(-c5cccc(S(=O)(=O)[O-])c5F)c5nc(c(-c6cccc(S(=O)(=O)[O-])c6F)c6ccc3[nH]6)C=C5)C=C4)cc2)CCCCC1)Nc1ccc2ccccc2n1
REMARK SMILES IDX 9 1 8 2 6 3 7 4 5 5 4 6 77 7 81 8 78 9 80 10 79 11 3 12 2 13
REMARK SMILES IDX 1 14 82 15 83 17 84 18 92 19 85 20 91 21 86 22 90 23 87 24
REMARK SMILES IDX 89 25 88 26 10 27 11 28 12 29 13 30 14 31 15 32 76 33 16 34
REMARK SMILES IDX 75 35 17 36 18 37 19 38 69 39 20 40 74 41 68 42 70 43 21 44
REMARK SMILES IDX 73 45 67 46 66 47 22 49 54 50 34 51 53 52 35 53 38 54 52 55
REMARK SMILES IDX 71 56 36 57 37 58 51 60 72 61 39 62 23 63 24 64 32 65 25 66
REMARK SMILES IDX 27 67 33 68 26 69 28 70 29 71 30 72 31 73 55 74 56 75 64 76
REMARK SMILES IDX 57 77 59 78 65 79 58 80 60 81 61 82 62 83 63 84 40 85 41 86
REMARK SMILES IDX 49 87 42 88 44 89 50 90 43 91 45 92 46 93 47 94 48 95
REMARK H PARENT 82 16 70 48 38 59
REMARK Flexibility Score: inf
ROOT
ATOM      1  C   UNL     1       2.697  -4.906  -2.901  1.00  0.00     0.274 C 
ENDROOT
BRANCH   1   2
ATOM      2  O   UNL     1       3.308  -3.634  -2.537  1.00  0.00    -0.462 OA
BRANCH   2   3
ATOM      3  C   UNL     1       2.926  -2.554  -3.256  1.00  0.00     0.306 C 
ATOM      4  O   UNL     1       2.182  -2.632  -4.233  1.00  0.00    -0.252 OA
BRANCH   3   5
ATOM      5  C   UNL     1       3.523  -1.193  -2.870  1.00  0.00     0.130 C 
BRANCH   5   6
ATOM      6  C   UNL     1       4.379  -0.846  -1.617  1.00  0.00    -0.010 C 
ATOM      7  C   UNL     1       5.152   0.480  -1.879  1.00  0.00     0.008 C 
ATOM      8  C   UNL     1       5.435  -1.947  -1.330  1.00  0.00     0.008 C 
ATOM      9  C   UNL     1       6.236   0.385  -2.945  1.00  0.00     0.001 C 
ATOM     10  C   UNL     1       6.423  -2.106  -2.482  1.00  0.00     0.001 C 
ATOM     11  C   UNL     1       7.170  -0.800  -2.727  1.00  0.00     0.000 C 
BRANCH   6  12
ATOM     12  C   UNL     1       3.581  -0.587  -0.319  1.00  0.00     0.108 C 
BRANCH  12  13
ATOM     13  C   UNL     1       2.242   0.134  -0.306  1.00  0.00     0.226 C 
ATOM     14  O   UNL     1       1.299  -0.566   0.065  1.00  0.00    -0.275 OA
ATOM     15  N   UNL     1       2.116   1.500  -0.562  1.00  0.00    -0.311 N 
ATOM     16  H   UNL     1       2.757   1.951  -1.158  1.00  0.00     0.171 HD
BRANCH  15  17
ATOM     17  C   UNL     1       1.043   2.253   0.046  1.00  0.00     0.133 A 
ATOM     18  C   UNL     1       0.783   1.852   1.333  1.00  0.00     0.048 A 
ATOM     19  N   UNL     1       0.103   2.938  -0.673  1.00  0.00    -0.231 NA
ATOM     20  C   UNL     1      -0.239   0.936   1.417  1.00  0.00     0.014 A 
ATOM     21  C   UNL     1      -1.224   2.635  -0.391  1.00  0.00     0.073 A 
ATOM     22  C   UNL     1      -1.349   1.173   0.622  1.00  0.00     0.000 A 
ATOM     23  C   UNL     1      -2.807   3.379  -0.938  1.00  0.00     0.029 A 
ATOM     24  C   UNL     1      -2.945   0.331   0.913  1.00  0.00     0.010 A 
ATOM     25  C   UNL     1      -4.466   2.582  -0.514  1.00  0.00     0.002 A 
ATOM     26  C   UNL     1      -4.490   1.032   0.376  1.00  0.00     0.001 A 
ENDBRANCH  15  17
ENDBRANCH  12  13
ENDBRANCH   6  12
ENDBRANCH   5   6
ENDBRANCH   3   5
ENDBRANCH   2   3
ENDBRANCH   1   2
BRANCH   1  27
ATOM     27  C   UNL     1       1.609  -5.342  -1.909  1.00  0.00     0.275 C 
BRANCH  27  28
ATOM     28  O   UNL     1       0.441  -4.512  -2.043  1.00  0.00    -0.458 OA
BRANCH  28  29
ATOM     29  C   UNL     1       0.559  -3.367  -1.335  1.00  0.00     0.338 C 
ATOM     30  O   UNL     1       1.471  -3.120  -0.562  1.00  0.00    -0.246 OA
BRANCH  29  31
ATOM     31  C   UNL     1      -0.493  -2.397  -1.679  1.00  0.00     0.060 A 
ATOM     32  C   UNL     1      -0.122  -1.209  -2.304  1.00  0.00     0.016 A 
ATOM     33  C   UNL     1      -1.760  -2.525  -1.133  1.00  0.00     0.016 A 
ATOM     34  C   UNL     1      -0.867  -0.055  -2.106  1.00  0.00     0.010 A 
ATOM     35  C   UNL     1      -2.586  -1.399  -1.085  1.00  0.00     0.010 A 
ATOM     36  C   UNL     1      -2.071  -0.111  -1.384  1.00  0.00    -0.014 A 
BRANCH  36  37
ATOM     37  C   UNL     1      -2.858   1.307  -1.030  1.00  0.00     0.031 A 
ATOM     38  C   UNL     1      -2.987   2.409   0.833  1.00  0.00     0.074 A 
ATOM     39  C   UNL     1      -3.399   1.544  -2.413  1.00  0.00     0.049 A 
ATOM     40  N   UNL     1      -3.477   3.711   1.068  1.00  0.00    -0.248 NA
ATOM     41  C   UNL     1      -2.691   2.067   2.451  1.00  0.00     0.031 C 
ATOM     42  C   UNL     1      -3.251   0.787  -3.699  1.00  0.00     0.029 A 
ATOM     43  N   UNL     1      -4.204   2.595  -2.915  1.00  0.00    -0.354 N 
ATOM     44  C   UNL     1      -3.743   4.046   2.347  1.00  0.00     0.074 A 
ATOM     45  C   UNL     1      -3.118   3.081   3.179  1.00  0.00     0.031 C 
ATOM     46  C   UNL     1      -3.927   1.390  -4.707  1.00  0.00     0.029 A 
ATOM     47  C   UNL     1      -4.646   2.532  -4.187  1.00  0.00     0.049 A 
ATOM     48  H   UNL     1      -4.438   3.362  -2.343  1.00  0.00     0.167 HD
ATOM     49  C   UNL     1      -4.560   5.043   2.751  1.00  0.00     0.034 A 
ATOM     50  C   UNL     1      -5.560   3.360  -4.733  1.00  0.00     0.034 A 
ATOM     51  C   UNL     1      -5.463   5.797   1.906  1.00  0.00     0.049 A 
ATOM     52  C   UNL     1      -6.266   4.437  -3.878  1.00  0.00     0.074 A 
ATOM     53  C   UNL     1      -6.353   6.768   2.321  1.00  0.00     0.029 A 
ATOM     54  N   UNL     1      -5.688   5.622   0.532  1.00  0.00    -0.354 N 
ATOM     55  N   UNL     1      -6.101   4.794  -2.615  1.00  0.00    -0.248 NA
ATOM     56  C   UNL     1      -7.304   5.216  -4.569  1.00  0.00     0.031 C 
ATOM     57  C   UNL     1      -7.173   7.101   1.240  1.00  0.00     0.029 A 
ATOM     58  C   UNL     1      -6.744   6.423   0.102  1.00  0.00     0.049 A 
ATOM     59  H   UNL     1      -5.171   5.017  -0.048  1.00  0.00     0.167 HD
ATOM     60  C   UNL     1      -6.996   5.852  -2.371  1.00  0.00     0.074 A 
ATOM     61  C   UNL     1      -7.671   6.086  -3.639  1.00  0.00     0.031 C 
ATOM     62  C   UNL     1      -7.285   6.576  -1.247  1.00  0.00     0.034 A 
BRANCH  49  63
ATOM     63  C   UNL     1      -4.535   5.240   4.232  1.00  0.00     0.023 A 
ATOM     64  C   UNL     1      -3.328   5.689   4.814  1.00  0.00     0.012 A 
ATOM     65  C   UNL     1      -5.592   4.803   5.045  1.00  0.00     0.148 A 
ATOM     66  C   UNL     1      -3.135   5.595   6.186  1.00  0.00     0.002 A 
ATOM     67  C   UNL     1      -5.411   4.771   6.419  1.00  0.00     0.091 A 
ATOM     68  F   UNL     1      -6.712   4.352   4.462  1.00  0.00    -0.205 F 
ATOM     69  C   UNL     1      -4.175   5.134   6.987  1.00  0.00     0.022 A 
BRANCH  67  70
ATOM     70  S   UNL     1      -6.697   4.245   7.550  1.00  0.00     0.127 S 
ATOM     71  O   UNL     1      -6.111   3.031   8.118  1.00  0.00    -0.237 OA
ATOM     72  O   UNL     1      -6.766   5.379   8.470  1.00  0.00    -0.237 OA
ATOM     73  O   UNL     1      -7.889   4.037   6.742  1.00  0.00    -0.744 OA
ENDBRANCH  67  70
ENDBRANCH  49  63
BRANCH  50  74
ATOM     74  C   UNL     1      -5.903   3.188  -6.165  1.00  0.00     0.023 A 
ATOM     75  C   UNL     1      -5.603   4.212  -7.084  1.00  0.00     0.012 A 
ATOM     76  C   UNL     1      -6.512   2.007  -6.620  1.00  0.00     0.148 A 
ATOM     77  C   UNL     1      -5.922   4.066  -8.433  1.00  0.00     0.002 A 
ATOM     78  C   UNL     1      -6.766   1.840  -7.972  1.00  0.00     0.091 A 
ATOM     79  F   UNL     1      -6.823   1.066  -5.716  1.00  0.00    -0.205 F 
ATOM     80  C   UNL     1      -6.489   2.874  -8.879  1.00  0.00     0.022 A 
BRANCH  78  81
ATOM     81  S   UNL     1      -7.374   0.293  -8.645  1.00  0.00     0.127 S 
ATOM     82  O   UNL     1      -8.661   0.698  -9.207  1.00  0.00    -0.237 OA
ATOM     83  O   UNL     1      -6.342  -0.025  -9.631  1.00  0.00    -0.237 OA
ATOM     84  O   UNL     1      -7.447  -0.630  -7.521  1.00  0.00    -0.744 OA
ENDBRANCH  78  81
ENDBRANCH  50  74
BRANCH  62  85
ATOM     85  C   UNL     1      -8.318   7.708  -1.394  1.00  0.00     0.023 A 
ATOM     86  C   UNL     1      -9.690   7.428  -1.581  1.00  0.00     0.012 A 
ATOM     87  C   UNL     1      -7.923   9.055  -1.218  1.00  0.00     0.148 A 
ATOM     88  C   UNL     1     -10.634   8.460  -1.630  1.00  0.00     0.002 A 
ATOM     89  C   UNL     1      -8.877  10.071  -1.203  1.00  0.00     0.091 A 
ATOM     90  F   UNL     1      -6.620   9.317  -1.043  1.00  0.00    -0.205 F 
ATOM     91  C   UNL     1     -10.231   9.777  -1.426  1.00  0.00     0.022 A 
BRANCH  89  92
ATOM     92  S   UNL     1      -8.470  11.782  -0.825  1.00  0.00     0.127 S 
ATOM     93  O   UNL     1      -8.704  12.436  -2.111  1.00  0.00    -0.237 OA
ATOM     94  O   UNL     1      -9.449  12.112   0.212  1.00  0.00    -0.237 OA
ATOM     95  O   UNL     1      -7.086  11.778  -0.372  1.00  0.00    -0.744 OA
ENDBRANCH  89  92
ENDBRANCH  62  85
ENDBRANCH  36  37
ENDBRANCH  29  31
ENDBRANCH  28  29
ENDBRANCH  27  28
ENDBRANCH   1  27
TORSDOF 18
