REMARK SMILES O=C(COc1ccc(-c2cc3cc(Br)ccc3oc2=O)cc1)OCCOC(=O)c1ccc(-c2c3nc(c(-c4cccc(S(=O)(=O)[O-])c4F)c4ccc([nH]4)c(-c4cccc(S(=O)(=O)[O-])c4F)c4nc(c(-c5cccc(S(=O)(=O)[O-])c5F)c5ccc2[nH]5)C=C4)C=C3)cc1
REMARK SMILES IDX 24 1 23 2 2 3 1 4 3 5 4 6 5 7 6 8 22 9 7 10 21 11 8 12 9 13
REMARK SMILES IDX 10 14 19 15 11 16 18 17 20 18 12 19 17 20 13 21 16 22 14 23
REMARK SMILES IDX 15 24 25 25 26 26 27 27 28 28 29 29 30 30 91 31 31 32 90 33
REMARK SMILES IDX 32 34 33 35 34 36 84 37 35 38 89 39 83 40 85 41 36 42 88 43
REMARK SMILES IDX 82 44 81 45 37 47 69 48 49 49 68 50 50 51 53 52 67 53 86 54
REMARK SMILES IDX 51 55 52 56 66 58 87 59 54 60 38 61 39 62 47 63 40 64 42 65
REMARK SMILES IDX 48 66 41 67 43 68 44 69 45 70 46 71 70 72 71 73 79 74 72 75
REMARK SMILES IDX 74 76 80 77 73 78 75 79 76 80 77 81 78 82 55 83 56 84 64 85
REMARK SMILES IDX 57 86 59 87 65 88 58 89 60 90 61 91 62 92 63 93
REMARK H PARENT 85 46 53 57
REMARK Flexibility Score: inf
ROOT
ATOM      1  C   UNL     1       4.921   1.011  -0.196  1.00  0.00     0.274 C 
ENDROOT
BRANCH   1   2
ATOM      2  O   UNL     1       3.591   0.640  -0.590  1.00  0.00    -0.460 OA
BRANCH   2   3
ATOM      3  C   UNL     1       2.850  -0.180   0.192  1.00  0.00     0.344 C 
ATOM      4  O   UNL     1       1.632  -0.019   0.261  1.00  0.00    -0.248 OA
BRANCH   3   5
ATOM      5  C   UNL     1       3.556  -1.357   0.883  1.00  0.00     0.351 C 
BRANCH   5   6
ATOM      6  O   UNL     1       4.165  -2.330   0.041  1.00  0.00    -0.482 OA
BRANCH   6   7
ATOM      7  C   UNL     1       3.257  -3.222  -0.460  1.00  0.00     0.120 A 
ATOM      8  C   UNL     1       3.572  -4.577  -0.442  1.00  0.00     0.047 A 
ATOM      9  C   UNL     1       2.067  -2.814  -1.042  1.00  0.00     0.047 A 
ATOM     10  C   UNL     1       2.733  -5.496  -1.091  1.00  0.00     0.013 A 
ATOM     11  C   UNL     1       1.179  -3.733  -1.562  1.00  0.00     0.013 A 
ATOM     12  C   UNL     1       1.556  -5.064  -1.724  1.00  0.00    -0.011 A 
BRANCH  12  13
ATOM     13  C   UNL     1       0.929  -5.912  -2.789  1.00  0.00     0.068 A 
ATOM     14  C   UNL     1      -0.342  -5.764  -3.245  1.00  0.00     0.028 A 
ATOM     15  C   UNL     1       1.813  -5.963  -4.017  1.00  0.00     0.344 A 
ATOM     16  C   UNL     1      -0.543  -4.485  -3.970  1.00  0.00     0.019 A 
ATOM     17  O   UNL     1       1.706  -4.816  -4.827  1.00  0.00    -0.422 OA
ATOM     18  O   UNL     1       2.607  -6.867  -4.239  1.00  0.00    -0.246 OA
ATOM     19  C   UNL     1      -1.675  -3.688  -3.806  1.00  0.00     0.027 A 
ATOM     20  C   UNL     1       0.568  -3.989  -4.672  1.00  0.00     0.138 A 
ATOM     21  C   UNL     1      -1.643  -2.373  -4.281  1.00  0.00     0.018 A 
ATOM     22  C   UNL     1       0.608  -2.679  -5.134  1.00  0.00     0.049 A 
ATOM     23  Br  UNL     1      -3.134  -1.244  -3.994  1.00  0.00    -0.051 Br
ATOM     24  C   UNL     1      -0.504  -1.860  -4.917  1.00  0.00     0.019 A 
ENDBRANCH  12  13
ENDBRANCH   6   7
ENDBRANCH   5   6
ENDBRANCH   3   5
ENDBRANCH   2   3
ENDBRANCH   1   2
BRANCH   1  25
ATOM     25  C   UNL     1       4.890   2.024   0.956  1.00  0.00     0.275 C 
BRANCH  25  26
ATOM     26  O   UNL     1       4.373   1.400   2.148  1.00  0.00    -0.458 OA
BRANCH  26  27
ATOM     27  C   UNL     1       3.103   1.744   2.510  1.00  0.00     0.338 C 
ATOM     28  O   UNL     1       2.430   2.623   2.026  1.00  0.00    -0.246 OA
BRANCH  27  29
ATOM     29  C   UNL     1       2.592   0.723   3.467  1.00  0.00     0.060 A 
ATOM     30  C   UNL     1       1.263   0.295   3.340  1.00  0.00     0.016 A 
ATOM     31  C   UNL     1       3.409   0.171   4.459  1.00  0.00     0.016 A 
ATOM     32  C   UNL     1       0.735  -0.641   4.231  1.00  0.00     0.010 A 
ATOM     33  C   UNL     1       2.876  -0.758   5.360  1.00  0.00     0.010 A 
ATOM     34  C   UNL     1       1.524  -1.133   5.278  1.00  0.00    -0.014 A 
BRANCH  34  35
ATOM     35  C   UNL     1       0.874  -1.834   6.414  1.00  0.00     0.031 A 
ATOM     36  C   UNL     1       0.471  -1.013   7.612  1.00  0.00     0.074 A 
ATOM     37  C   UNL     1       0.634  -3.158   6.400  1.00  0.00     0.049 A 
ATOM     38  N   UNL     1      -0.163  -1.378   8.695  1.00  0.00    -0.248 NA
ATOM     39  C   UNL     1       0.840   0.414   7.583  1.00  0.00     0.031 C 
ATOM     40  C   UNL     1       0.985  -4.075   5.318  1.00  0.00     0.029 A 
ATOM     41  N   UNL     1       0.046  -3.962   7.346  1.00  0.00    -0.354 N 
ATOM     42  C   UNL     1      -0.256  -0.235   9.480  1.00  0.00     0.074 A 
ATOM     43  C   UNL     1       0.408   0.830   8.763  1.00  0.00     0.031 C 
ATOM     44  C   UNL     1       0.619  -5.322   5.669  1.00  0.00     0.029 A 
ATOM     45  C   UNL     1       0.011  -5.292   6.999  1.00  0.00     0.049 A 
ATOM     46  H   UNL     1      -0.316  -3.618   8.194  1.00  0.00     0.167 HD
ATOM     47  C   UNL     1      -0.862  -0.073  10.679  1.00  0.00     0.034 A 
ATOM     48  C   UNL     1      -0.464  -6.358   7.677  1.00  0.00     0.034 A 
ATOM     49  C   UNL     1      -1.541  -1.120  11.390  1.00  0.00     0.049 A 
ATOM     50  C   UNL     1      -1.127  -6.152   9.018  1.00  0.00     0.074 A 
ATOM     51  C   UNL     1      -2.237  -1.037  12.583  1.00  0.00     0.029 A 
ATOM     52  N   UNL     1      -1.597  -2.442  10.983  1.00  0.00    -0.354 N 
ATOM     53  N   UNL     1      -1.355  -5.037   9.668  1.00  0.00    -0.248 NA
ATOM     54  C   UNL     1      -1.637  -7.354   9.699  1.00  0.00     0.031 C 
ATOM     55  C   UNL     1      -2.694  -2.318  12.910  1.00  0.00     0.029 A 
ATOM     56  C   UNL     1      -2.303  -3.192  11.907  1.00  0.00     0.049 A 
ATOM     57  H   UNL     1      -1.194  -2.797  10.158  1.00  0.00     0.167 HD
ATOM     58  C   UNL     1      -2.078  -5.395  10.804  1.00  0.00     0.074 A 
ATOM     59  C   UNL     1      -2.260  -6.830  10.747  1.00  0.00     0.031 C 
ATOM     60  C   UNL     1      -2.540  -4.609  11.808  1.00  0.00     0.034 A 
BRANCH  47  61
ATOM     61  C   UNL     1      -0.844   1.305  11.280  1.00  0.00     0.023 A 
ATOM     62  C   UNL     1      -1.663   2.313  10.732  1.00  0.00     0.012 A 
ATOM     63  C   UNL     1      -0.047   1.594  12.403  1.00  0.00     0.148 A 
ATOM     64  C   UNL     1      -1.664   3.598  11.272  1.00  0.00     0.002 A 
ATOM     65  C   UNL     1      -0.085   2.865  12.962  1.00  0.00     0.091 A 
ATOM     66  F   UNL     1       0.748   0.630  12.890  1.00  0.00    -0.205 F 
ATOM     67  C   UNL     1      -0.884   3.871  12.393  1.00  0.00     0.022 A 
BRANCH  65  68
ATOM     68  S   UNL     1       0.831   3.291  14.447  1.00  0.00     0.127 S 
ATOM     69  O   UNL     1       1.912   4.111  13.902  1.00  0.00    -0.237 OA
ATOM     70  O   UNL     1      -0.164   4.031  15.224  1.00  0.00    -0.237 OA
ATOM     71  O   UNL     1       1.241   2.026  15.040  1.00  0.00    -0.744 OA
ENDBRANCH  65  68
ENDBRANCH  47  61
BRANCH  48  72
ATOM     72  C   UNL     1      -0.403  -7.720   7.073  1.00  0.00     0.023 A 
ATOM     73  C   UNL     1      -1.596  -8.350   6.668  1.00  0.00     0.012 A 
ATOM     74  C   UNL     1       0.820  -8.399   6.912  1.00  0.00     0.148 A 
ATOM     75  C   UNL     1      -1.578  -9.644   6.146  1.00  0.00     0.002 A 
ATOM     76  C   UNL     1       0.837  -9.669   6.345  1.00  0.00     0.091 A 
ATOM     77  F   UNL     1       1.943  -7.792   7.322  1.00  0.00    -0.205 F 
ATOM     78  C   UNL     1      -0.362 -10.300   5.978  1.00  0.00     0.022 A 
BRANCH  76  79
ATOM     79  S   UNL     1       2.363 -10.546   5.988  1.00  0.00     0.127 S 
ATOM     80  O   UNL     1       2.330 -11.620   6.978  1.00  0.00    -0.237 OA
ATOM     81  O   UNL     1       2.148 -10.975   4.605  1.00  0.00    -0.237 OA
ATOM     82  O   UNL     1       3.427  -9.565   6.153  1.00  0.00    -0.744 OA
ENDBRANCH  76  79
ENDBRANCH  48  72
BRANCH  60  83
ATOM     83  C   UNL     1      -3.334  -5.261  12.911  1.00  0.00     0.023 A 
ATOM     84  C   UNL     1      -2.683  -6.075  13.859  1.00  0.00     0.012 A 
ATOM     85  C   UNL     1      -4.711  -4.998  13.058  1.00  0.00     0.148 A 
ATOM     86  C   UNL     1      -3.396  -6.645  14.914  1.00  0.00     0.002 A 
ATOM     87  C   UNL     1      -5.405  -5.530  14.139  1.00  0.00     0.091 A 
ATOM     88  F   UNL     1      -5.320  -4.237  12.137  1.00  0.00    -0.205 F 
ATOM     89  C   UNL     1      -4.753  -6.363  15.061  1.00  0.00     0.022 A 
BRANCH  87  90
ATOM     90  S   UNL     1      -7.129  -5.131  14.457  1.00  0.00     0.127 S 
ATOM     91  O   UNL     1      -7.807  -6.334  13.977  1.00  0.00    -0.237 OA
ATOM     92  O   UNL     1      -7.150  -4.959  15.911  1.00  0.00    -0.237 OA
ATOM     93  O   UNL     1      -7.398  -3.913  13.706  1.00  0.00    -0.744 OA
ENDBRANCH  87  90
ENDBRANCH  60  83
ENDBRANCH  34  35
ENDBRANCH  27  29
ENDBRANCH  26  27
ENDBRANCH  25  26
ENDBRANCH   1  25
TORSDOF 17
