REMARK SMILES Cc1ccc(S(=O)(=O)n2cc(C(=O)C(=O)N[C@@H](Cc3c[nH]c4ccccc34)C(=O)OCCOC(=O)c3ccc(-c4c5nc(c(-c6cccc(S(=O)(=O)[O-])c6F)c6ccc([nH]6)c(-c6cccc(S(=O)(=O)[O-])c6F)c6nc(c(-c7cccc(S(=O)(=O)[O-])c7F)c7ccc4[nH]7)C=C6)C=C5)cc3)c3ccccc32)cc1
REMARK SMILES IDX 31 1 30 2 28 3 29 4 17 5 16 6 14 7 15 8 12 10 13 11 11 12
REMARK SMILES IDX 9 13 10 14 104 15 99 16 103 17 100 18 102 19 101 20 6 21
REMARK SMILES IDX 7 22 8 23 5 24 1 25 2 26 3 27 106 28 4 29 105 30 18 31 19 32
REMARK SMILES IDX 20 33 27 34 21 35 22 36 26 37 23 39 25 40 24 41 32 42 33 43
REMARK SMILES IDX 34 44 35 45 36 46 37 47 98 48 38 49 97 50 39 51 40 52 41 53
REMARK SMILES IDX 91 54 42 55 96 56 90 57 92 58 43 59 95 60 89 61 88 62 44 64
REMARK SMILES IDX 76 65 56 66 75 67 57 68 60 69 74 70 93 71 58 72 59 73 73 75
REMARK SMILES IDX 94 76 61 77 45 78 46 79 54 80 47 81 49 82 55 83 48 84 50 85
REMARK SMILES IDX 51 86 52 87 53 88 77 89 78 90 86 91 79 92 81 93 87 94 80 95
REMARK SMILES IDX 82 96 83 97 84 98 85 99 62 100 63 101 71 102 64 103 66 104
REMARK SMILES IDX 72 105 65 106 67 107 68 108 69 109 70 110
REMARK H PARENT 16 9 21 38 92 63 60 74
REMARK Flexibility Score: inf
ROOT
ATOM      1  C   UNL     1     -12.058   4.094  -3.231  1.00  0.00     0.274 C 
ENDROOT
BRANCH   1   2
ATOM      2  O   UNL     1     -11.141   3.810  -2.171  1.00  0.00    -0.461 OA
BRANCH   2   3
ATOM      3  C   UNL     1     -11.742   3.293  -1.053  1.00  0.00     0.329 C 
ATOM      4  O   UNL     1     -12.950   3.114  -0.975  1.00  0.00    -0.250 OA
BRANCH   3   5
ATOM      5  C   UNL     1     -10.716   2.841   0.007  1.00  0.00     0.197 C 
BRANCH   5   6
ATOM      6  N   UNL     1      -9.394   3.515  -0.181  1.00  0.00    -0.335 N 
ATOM      7  C   UNL     1      -8.096   3.006  -0.190  1.00  0.00     0.293 C 
ATOM      8  O   UNL     1      -7.146   3.740  -0.451  1.00  0.00    -0.265 OA
ATOM      9  H   UNL     1      -9.450   4.488  -0.324  1.00  0.00     0.164 HD
BRANCH   7  10
ATOM     10  C   UNL     1      -7.836   1.542   0.178  1.00  0.00     0.252 C 
ATOM     11  O   UNL     1      -8.778   0.968   0.725  1.00  0.00    -0.283 OA
BRANCH  10  12
ATOM     12  C   UNL     1      -6.557   0.805   0.059  1.00  0.00     0.054 A 
ATOM     13  N   UNL     1      -4.538  -0.040   0.558  1.00  0.00    -0.240 N 
ATOM     14  C   UNL     1      -5.197   1.142   0.201  1.00  0.00     0.117 A 
ATOM     15  C   UNL     1      -5.487  -1.066   0.622  1.00  0.00     0.065 A 
ATOM     16  C   UNL     1      -6.553  -0.609  -0.131  1.00  0.00     0.012 A 
ATOM     17  C   UNL     1      -5.377  -2.416   1.012  1.00  0.00     0.028 A 
ATOM     18  C   UNL     1      -7.404  -1.557  -0.720  1.00  0.00     0.011 A 
ATOM     19  C   UNL     1      -6.184  -3.343   0.365  1.00  0.00     0.002 A 
ATOM     20  C   UNL     1      -7.149  -2.922  -0.536  1.00  0.00     0.001 A 
BRANCH  13  21
ATOM     21  S   UNL     1      -3.006  -0.685   0.126  1.00  0.00     0.268 S 
ATOM     22  O   UNL     1      -3.252  -1.254  -1.191  1.00  0.00    -0.201 OA
ATOM     23  O   UNL     1      -2.731  -1.540   1.279  1.00  0.00    -0.201 OA
BRANCH  21  24
ATOM     24  C   UNL     1      -1.428   0.041  -0.056  1.00  0.00     0.088 A 
ATOM     25  C   UNL     1       2.840   0.660  -0.046  1.00  0.00     0.044 C 
ATOM     26  C   UNL     1       1.350   0.498  -0.120  1.00  0.00    -0.051 A 
ATOM     27  C   UNL     1       0.876  -0.788  -0.311  1.00  0.00     0.005 A 
ATOM     28  C   UNL     1       0.425   1.556   0.054  1.00  0.00     0.005 A 
ATOM     29  C   UNL     1      -0.485  -0.999  -0.296  1.00  0.00     0.022 A 
ATOM     30  C   UNL     1      -0.979   1.336   0.095  1.00  0.00     0.022 A 
ENDBRANCH  21  24
ENDBRANCH  13  21
ENDBRANCH  10  12
ENDBRANCH   7  10
ENDBRANCH   5   6
BRANCH   5  31
ATOM     31  C   UNL     1     -11.330   2.988   1.426  1.00  0.00     0.074 C 
BRANCH  31  32
ATOM     32  C   UNL     1     -12.114   4.262   1.589  1.00  0.00    -0.020 A 
ATOM     33  C   UNL     1     -13.487   4.399   1.519  1.00  0.00     0.087 A 
ATOM     34  C   UNL     1     -11.586   5.580   1.621  1.00  0.00     0.003 A 
ATOM     35  N   UNL     1     -13.805   5.727   1.456  1.00  0.00    -0.361 N 
ATOM     36  C   UNL     1     -12.645   6.461   1.395  1.00  0.00     0.046 A 
ATOM     37  C   UNL     1     -10.280   6.087   1.704  1.00  0.00     0.010 A 
ATOM     38  H   UNL     1     -14.717   6.097   1.453  1.00  0.00     0.166 HD
ATOM     39  C   UNL     1     -12.451   7.820   1.149  1.00  0.00     0.026 A 
ATOM     40  C   UNL     1     -10.066   7.443   1.463  1.00  0.00     0.001 A 
ATOM     41  C   UNL     1     -11.134   8.288   1.163  1.00  0.00     0.002 A 
ENDBRANCH  31  32
ENDBRANCH   5  31
ENDBRANCH   3   5
ENDBRANCH   2   3
ENDBRANCH   1   2
BRANCH   1  42
ATOM     42  C   UNL     1     -11.481   3.716  -4.599  1.00  0.00     0.275 C 
BRANCH  42  43
ATOM     43  O   UNL     1     -10.878   2.411  -4.856  1.00  0.00    -0.458 OA
BRANCH  43  44
ATOM     44  C   UNL     1     -10.566   1.475  -3.915  1.00  0.00     0.338 C 
ATOM     45  O   UNL     1      -9.429   1.099  -3.725  1.00  0.00    -0.246 OA
BRANCH  44  46
ATOM     46  C   UNL     1     -11.746   0.883  -3.233  1.00  0.00     0.060 A 
ATOM     47  C   UNL     1     -11.612   0.205  -2.008  1.00  0.00     0.016 A 
ATOM     48  C   UNL     1     -13.005   1.169  -3.736  1.00  0.00     0.016 A 
ATOM     49  C   UNL     1     -12.737  -0.022  -1.194  1.00  0.00     0.010 A 
ATOM     50  C   UNL     1     -14.076   1.077  -2.885  1.00  0.00     0.010 A 
ATOM     51  C   UNL     1     -13.970   0.473  -1.611  1.00  0.00    -0.014 A 
BRANCH  51  52
ATOM     52  C   UNL     1     -15.285   0.303  -0.982  1.00  0.00     0.031 A 
ATOM     53  C   UNL     1     -15.781   1.099   0.173  1.00  0.00     0.074 A 
ATOM     54  C   UNL     1     -16.095  -0.435  -1.770  1.00  0.00     0.049 A 
ATOM     55  N   UNL     1     -16.876   1.800   0.177  1.00  0.00    -0.248 NA
ATOM     56  C   UNL     1     -15.061   1.129   1.453  1.00  0.00     0.031 C 
ATOM     57  C   UNL     1     -17.534  -0.541  -1.838  1.00  0.00     0.029 A 
ATOM     58  N   UNL     1     -15.677  -1.367  -2.707  1.00  0.00    -0.354 N 
ATOM     59  C   UNL     1     -17.088   2.258   1.479  1.00  0.00     0.074 A 
ATOM     60  C   UNL     1     -15.879   1.876   2.209  1.00  0.00     0.031 C 
ATOM     61  C   UNL     1     -17.851  -1.659  -2.526  1.00  0.00     0.029 A 
ATOM     62  C   UNL     1     -16.607  -2.380  -2.792  1.00  0.00     0.049 A 
ATOM     63  H   UNL     1     -14.845  -1.314  -3.231  1.00  0.00     0.167 HD
ATOM     64  C   UNL     1     -18.292   2.065   2.096  1.00  0.00     0.034 A 
ATOM     65  C   UNL     1     -16.248  -3.592  -2.261  1.00  0.00     0.034 A 
ATOM     66  C   UNL     1     -18.986   0.906   1.579  1.00  0.00     0.049 A 
ATOM     67  C   UNL     1     -17.056  -3.857  -1.014  1.00  0.00     0.074 A 
ATOM     68  C   UNL     1     -19.858   0.713   0.527  1.00  0.00     0.029 A 
ATOM     69  N   UNL     1     -18.657  -0.340   2.081  1.00  0.00    -0.354 N 
ATOM     70  N   UNL     1     -17.487  -2.924  -0.208  1.00  0.00    -0.248 NA
ATOM     71  C   UNL     1     -17.553  -5.182  -0.670  1.00  0.00     0.031 C 
ATOM     72  C   UNL     1     -19.985  -0.686   0.340  1.00  0.00     0.029 A 
ATOM     73  C   UNL     1     -19.213  -1.330   1.297  1.00  0.00     0.049 A 
ATOM     74  H   UNL     1     -18.105  -0.498   2.881  1.00  0.00     0.167 HD
ATOM     75  C   UNL     1     -18.351  -3.476   0.694  1.00  0.00     0.074 A 
ATOM     76  C   UNL     1     -18.351  -4.894   0.371  1.00  0.00     0.031 C 
ATOM     77  C   UNL     1     -19.032  -2.735   1.618  1.00  0.00     0.034 A 
BRANCH  64  78
ATOM     78  C   UNL     1     -18.990   3.180   2.858  1.00  0.00     0.023 A 
ATOM     79  C   UNL     1     -20.396   3.077   2.994  1.00  0.00     0.012 A 
ATOM     80  C   UNL     1     -18.383   4.345   3.389  1.00  0.00     0.148 A 
ATOM     81  C   UNL     1     -21.178   4.092   3.551  1.00  0.00     0.002 A 
ATOM     82  C   UNL     1     -19.170   5.357   3.966  1.00  0.00     0.091 A 
ATOM     83  F   UNL     1     -17.051   4.477   3.313  1.00  0.00    -0.205 F 
ATOM     84  C   UNL     1     -20.566   5.237   4.031  1.00  0.00     0.022 A 
BRANCH  82  85
ATOM     85  S   UNL     1     -18.501   6.891   4.639  1.00  0.00     0.127 S 
ATOM     86  O   UNL     1     -19.055   7.893   3.726  1.00  0.00    -0.237 OA
ATOM     87  O   UNL     1     -19.069   6.925   5.987  1.00  0.00    -0.237 OA
ATOM     88  O   UNL     1     -17.051   6.756   4.588  1.00  0.00    -0.744 OA
ENDBRANCH  82  85
ENDBRANCH  64  78
BRANCH  65  89
ATOM     89  C   UNL     1     -14.780  -3.902  -2.444  1.00  0.00     0.023 A 
ATOM     90  C   UNL     1     -14.280  -3.833  -3.774  1.00  0.00     0.012 A 
ATOM     91  C   UNL     1     -13.851  -3.893  -1.389  1.00  0.00     0.148 A 
ATOM     92  C   UNL     1     -12.933  -3.577  -4.038  1.00  0.00     0.002 A 
ATOM     93  C   UNL     1     -12.497  -3.680  -1.665  1.00  0.00     0.091 A 
ATOM     94  F   UNL     1     -14.289  -4.048  -0.132  1.00  0.00    -0.205 F 
ATOM     95  C   UNL     1     -12.046  -3.469  -2.979  1.00  0.00     0.022 A 
BRANCH  93  96
ATOM     96  S   UNL     1     -11.283  -3.542  -0.348  1.00  0.00     0.127 S 
ATOM     97  O   UNL     1     -10.865  -4.931  -0.182  1.00  0.00    -0.237 OA
ATOM     98  O   UNL     1     -10.280  -2.670  -0.956  1.00  0.00    -0.237 OA
ATOM     99  O   UNL     1     -12.002  -2.936   0.763  1.00  0.00    -0.744 OA
ENDBRANCH  93  96
ENDBRANCH  65  89
BRANCH  77 100
ATOM    100  C   UNL     1     -19.647  -3.311   2.873  1.00  0.00     0.023 A 
ATOM    101  C   UNL     1     -19.255  -4.573   3.361  1.00  0.00     0.012 A 
ATOM    102  C   UNL     1     -20.499  -2.543   3.707  1.00  0.00     0.148 A 
ATOM    103  C   UNL     1     -19.751  -5.097   4.554  1.00  0.00     0.002 A 
ATOM    104  C   UNL     1     -20.892  -3.020   4.954  1.00  0.00     0.091 A 
ATOM    105  F   UNL     1     -20.939  -1.345   3.298  1.00  0.00    -0.205 F 
ATOM    106  C   UNL     1     -20.556  -4.312   5.362  1.00  0.00     0.022 A 
BRANCH 104 107
ATOM    107  S   UNL     1     -21.686  -1.944   6.156  1.00  0.00     0.127 S 
ATOM    108  O   UNL     1     -23.097  -2.270   5.966  1.00  0.00    -0.237 OA
ATOM    109  O   UNL     1     -21.115  -2.415   7.419  1.00  0.00    -0.237 OA
ATOM    110  O   UNL     1     -21.280  -0.595   5.785  1.00  0.00    -0.744 OA
ENDBRANCH 104 107
ENDBRANCH  77 100
ENDBRANCH  51  52
ENDBRANCH  44  46
ENDBRANCH  43  44
ENDBRANCH  42  43
ENDBRANCH   1  42
TORSDOF 21
