REMARK SMILES CC[C@H](C(=O)OCCOC(=O)c1ccc(-c2c3nc(c(-c4cccc(S(=O)(=O)[O-])c4F)c4ccc([nH]4)c(-c4cccc(S(=O)(=O)[O-])c4F)c4nc(c(-c5cccc(S(=O)(=O)[O-])c5F)c5ccc2[nH]5)C=C4)C=C3)cc1)[N@H+](C)[C@H]1CC[C@H]([NH3+])CC1
REMARK SMILES IDX 7 1 6 2 4 3 5 4 3 5 2 6 1 7 75 8 76 9 77 11 78 12 83 13
REMARK SMILES IDX 79 14 82 15 80 16 81 17 8 21 9 22 10 23 11 24 12 25 13 26
REMARK SMILES IDX 74 27 14 28 73 29 15 30 16 31 17 32 67 33 18 34 72 35 66 36
REMARK SMILES IDX 68 37 19 38 71 39 65 40 64 41 20 43 52 44 32 45 51 46 33 47
REMARK SMILES IDX 36 48 50 49 69 50 34 51 35 52 49 54 70 55 37 56 21 57 22 58
REMARK SMILES IDX 30 59 23 60 25 61 31 62 24 63 26 64 27 65 28 66 29 67 53 68
REMARK SMILES IDX 54 69 62 70 55 71 57 72 63 73 56 74 58 75 59 76 60 77 61 78
REMARK SMILES IDX 38 79 39 80 47 81 40 82 42 83 48 84 41 85 43 86 44 87 45 88
REMARK SMILES IDX 46 89
REMARK H PARENT 75 10 81 18 81 19 81 20 68 42 36 53
REMARK Flexibility Score: inf
ROOT
ATOM      1  C   UNL     1       0.009  -0.558   1.492  1.00  0.00     0.274 C 
ENDROOT
BRANCH   1   2
ATOM      2  O   UNL     1       0.410   0.061   0.263  1.00  0.00    -0.458 OA
BRANCH   2   3
ATOM      3  C   UNL     1      -0.368   1.069  -0.233  1.00  0.00     0.365 C 
ATOM      4  O   UNL     1      -1.522   1.282   0.111  1.00  0.00    -0.245 OA
BRANCH   3   5
ATOM      5  C   UNL     1       0.494   1.910  -1.206  1.00  0.00     0.294 C 
BRANCH   5   6
ATOM      6  C   UNL     1       0.988   1.135  -2.462  1.00  0.00     0.074 C 
ATOM      7  C   UNL     1       0.480  -0.292  -2.640  1.00  0.00     0.011 C 
ENDBRANCH   5   6
BRANCH   5   8
ATOM      8  N   UNL     1       0.032   3.324  -1.414  1.00  0.00    -0.323 N 
ATOM      9  C   UNL     1      -0.498   3.971  -0.212  1.00  0.00     0.333 C 
ATOM     10  H   UNL     1       0.919   3.789  -1.605  1.00  0.00     0.348 HD
BRANCH   8  11
ATOM     11  C   UNL     1      -0.706   3.628  -2.648  1.00  0.00     0.184 C 
ATOM     12  C   UNL     1      -1.149   5.105  -2.787  1.00  0.00     0.071 C 
ATOM     13  C   UNL     1      -1.915   2.712  -2.895  1.00  0.00     0.071 C 
ATOM     14  C   UNL     1      -1.774   5.372  -4.161  1.00  0.00     0.071 C 
ATOM     15  C   UNL     1      -2.475   2.945  -4.295  1.00  0.00     0.071 C 
ATOM     16  C   UNL     1      -2.918   4.397  -4.468  1.00  0.00     0.181 C 
BRANCH  16  17
ATOM     17  N   UNL     1      -3.410   4.593  -5.832  1.00  0.00    -0.355 N 
ATOM     18  H   UNL     1      -2.660   4.399  -6.495  1.00  0.00     0.344 HD
ATOM     19  H   UNL     1      -3.723   5.558  -5.945  1.00  0.00     0.344 HD
ATOM     20  H   UNL     1      -4.191   3.960  -6.006  1.00  0.00     0.344 HD
ENDBRANCH  16  17
ENDBRANCH   8  11
ENDBRANCH   5   8
ENDBRANCH   3   5
ENDBRANCH   2   3
ENDBRANCH   1   2
BRANCH   1  21
ATOM     21  C   UNL     1       1.193  -0.502   2.460  1.00  0.00     0.275 C 
BRANCH  21  22
ATOM     22  O   UNL     1       1.561   0.861   2.755  1.00  0.00    -0.458 OA
BRANCH  22  23
ATOM     23  C   UNL     1       2.512   1.405   1.949  1.00  0.00     0.338 C 
ATOM     24  O   UNL     1       3.087   0.859   1.024  1.00  0.00    -0.246 OA
BRANCH  23  25
ATOM     25  C   UNL     1       2.683   2.836   2.280  1.00  0.00     0.060 A 
ATOM     26  C   UNL     1       2.771   3.763   1.234  1.00  0.00     0.016 A 
ATOM     27  C   UNL     1       2.785   3.265   3.605  1.00  0.00     0.016 A 
ATOM     28  C   UNL     1       2.907   5.121   1.505  1.00  0.00     0.010 A 
ATOM     29  C   UNL     1       2.966   4.624   3.877  1.00  0.00     0.010 A 
ATOM     30  C   UNL     1       3.026   5.556   2.828  1.00  0.00    -0.014 A 
BRANCH  30  31
ATOM     31  C   UNL     1       3.322   6.977   3.100  1.00  0.00     0.031 A 
ATOM     32  C   UNL     1       4.748   7.399   3.285  1.00  0.00     0.074 A 
ATOM     33  C   UNL     1       2.324   7.876   3.173  1.00  0.00     0.049 A 
ATOM     34  N   UNL     1       5.231   8.581   3.556  1.00  0.00    -0.248 NA
ATOM     35  C   UNL     1       5.767   6.346   3.142  1.00  0.00     0.031 C 
ATOM     36  C   UNL     1       0.905   7.578   2.981  1.00  0.00     0.029 A 
ATOM     37  N   UNL     1       2.355   9.218   3.452  1.00  0.00    -0.354 N 
ATOM     38  C   UNL     1       6.607   8.415   3.640  1.00  0.00     0.074 A 
ATOM     39  C   UNL     1       6.882   7.016   3.395  1.00  0.00     0.031 C 
ATOM     40  C   UNL     1       0.195   8.701   3.184  1.00  0.00     0.029 A 
ATOM     41  C   UNL     1       1.106   9.786   3.545  1.00  0.00     0.049 A 
ATOM     42  H   UNL     1       3.189   9.726   3.573  1.00  0.00     0.167 HD
ATOM     43  C   UNL     1       7.554   9.347   3.895  1.00  0.00     0.034 A 
ATOM     44  C   UNL     1       0.744  11.031   3.910  1.00  0.00     0.034 A 
ATOM     45  C   UNL     1       7.270  10.734   4.145  1.00  0.00     0.049 A 
ATOM     46  C   UNL     1       1.816  12.038   4.237  1.00  0.00     0.074 A 
ATOM     47  C   UNL     1       8.161  11.764   4.386  1.00  0.00     0.029 A 
ATOM     48  N   UNL     1       5.997  11.281   4.208  1.00  0.00    -0.354 N 
ATOM     49  N   UNL     1       3.120  11.895   4.211  1.00  0.00    -0.248 NA
ATOM     50  C   UNL     1       1.370  13.387   4.615  1.00  0.00     0.031 C 
ATOM     51  C   UNL     1       7.424  12.927   4.634  1.00  0.00     0.029 A 
ATOM     52  C   UNL     1       6.076  12.631   4.503  1.00  0.00     0.049 A 
ATOM     53  H   UNL     1       5.161  10.783   4.064  1.00  0.00     0.167 HD
ATOM     54  C   UNL     1       3.649  13.142   4.527  1.00  0.00     0.074 A 
ATOM     55  C   UNL     1       2.523  14.032   4.728  1.00  0.00     0.031 C 
ATOM     56  C   UNL     1       4.947  13.515   4.649  1.00  0.00     0.034 A 
BRANCH  43  57
ATOM     57  C   UNL     1       8.988   8.890   3.922  1.00  0.00     0.023 A 
ATOM     58  C   UNL     1       9.637   8.541   2.720  1.00  0.00     0.012 A 
ATOM     59  C   UNL     1       9.703   8.839   5.134  1.00  0.00     0.148 A 
ATOM     60  C   UNL     1      10.965   8.115   2.729  1.00  0.00     0.002 A 
ATOM     61  C   UNL     1      11.038   8.458   5.130  1.00  0.00     0.091 A 
ATOM     62  F   UNL     1       9.060   9.151   6.268  1.00  0.00    -0.205 F 
ATOM     63  C   UNL     1      11.667   8.083   3.931  1.00  0.00     0.022 A 
BRANCH  61  64
ATOM     64  S   UNL     1      12.048   8.457   6.614  1.00  0.00     0.127 S 
ATOM     65  O   UNL     1      12.239   7.024   6.840  1.00  0.00    -0.237 OA
ATOM     66  O   UNL     1      13.247   9.169   6.171  1.00  0.00    -0.237 OA
ATOM     67  O   UNL     1      11.270   9.150   7.631  1.00  0.00    -0.744 OA
ENDBRANCH  61  64
ENDBRANCH  43  57
BRANCH  44  68
ATOM     68  C   UNL     1      -0.699  11.401   3.968  1.00  0.00     0.023 A 
ATOM     69  C   UNL     1      -1.221  12.323   3.040  1.00  0.00     0.012 A 
ATOM     70  C   UNL     1      -1.557  10.834   4.930  1.00  0.00     0.148 A 
ATOM     71  C   UNL     1      -2.565  12.697   3.090  1.00  0.00     0.002 A 
ATOM     72  C   UNL     1      -2.905  11.168   4.939  1.00  0.00     0.091 A 
ATOM     73  F   UNL     1      -1.037   9.970   5.814  1.00  0.00    -0.205 F 
ATOM     74  C   UNL     1      -3.408  12.113   4.031  1.00  0.00     0.022 A 
BRANCH  72  75
ATOM     75  S   UNL     1      -4.089  10.379   6.035  1.00  0.00     0.127 S 
ATOM     76  O   UNL     1      -4.465  11.483   6.915  1.00  0.00    -0.237 OA
ATOM     77  O   UNL     1      -5.130   9.956   5.097  1.00  0.00    -0.237 OA
ATOM     78  O   UNL     1      -3.370   9.284   6.671  1.00  0.00    -0.744 OA
ENDBRANCH  72  75
ENDBRANCH  44  68
BRANCH  56  79
ATOM     79  C   UNL     1       5.236  14.960   4.969  1.00  0.00     0.023 A 
ATOM     80  C   UNL     1       4.973  15.465   6.257  1.00  0.00     0.012 A 
ATOM     81  C   UNL     1       5.849  15.793   4.011  1.00  0.00     0.148 A 
ATOM     82  C   UNL     1       5.287  16.786   6.577  1.00  0.00     0.002 A 
ATOM     83  C   UNL     1       6.207  17.090   4.353  1.00  0.00     0.091 A 
ATOM     84  F   UNL     1       6.075  15.298   2.785  1.00  0.00    -0.205 F 
ATOM     85  C   UNL     1       5.915  17.593   5.631  1.00  0.00     0.022 A 
BRANCH  83  86
ATOM     86  S   UNL     1       7.110  18.168   3.234  1.00  0.00     0.127 S 
ATOM     87  O   UNL     1       6.089  19.153   2.881  1.00  0.00    -0.237 OA
ATOM     88  O   UNL     1       8.180  18.678   4.093  1.00  0.00    -0.237 OA
ATOM     89  O   UNL     1       7.565  17.321   2.140  1.00  0.00    -0.744 OA
ENDBRANCH  83  86
ENDBRANCH  56  79
ENDBRANCH  30  31
ENDBRANCH  23  25
ENDBRANCH  22  23
ENDBRANCH  21  22
ENDBRANCH   1  21
TORSDOF 18
