REMARK SMILES O=C(Nc1cccc(C(=O)OCCOC(=O)c2ccc(-c3c4nc(c(-c5cccc(S(=O)(=O)[O-])c5F)c5ccc([nH]5)c(-c5cccc(S(=O)(=O)[O-])c5F)c5nc(c(-c6cccc(S(=O)(=O)[O-])c6F)c6ccc3[nH]6)C=C5)C=C4)cc2)c1)Nc1cc(Cl)c(Cl)cc1Cl
REMARK SMILES IDX 13 1 12 2 11 3 9 4 10 5 8 6 4 7 5 8 80 9 6 10 7 11 3 12 1 13
REMARK SMILES IDX 2 14 81 15 82 18 83 19 89 20 84 21 88 22 90 23 85 24 86 25
REMARK SMILES IDX 87 26 14 27 15 28 16 29 17 30 18 31 79 32 19 33 78 34 20 35
REMARK SMILES IDX 21 36 22 37 72 38 23 39 77 40 71 41 73 42 24 43 76 44 70 45
REMARK SMILES IDX 69 46 25 48 57 49 37 50 56 51 38 52 41 53 55 54 74 55 39 56
REMARK SMILES IDX 40 57 54 59 75 60 42 61 26 62 27 63 35 64 28 65 30 66 36 67
REMARK SMILES IDX 29 68 31 69 32 70 33 71 34 72 58 73 59 74 67 75 60 76 62 77
REMARK SMILES IDX 68 78 61 79 63 80 64 81 65 82 66 83 43 84 44 85 52 86 45 87
REMARK SMILES IDX 47 88 53 89 46 90 48 91 49 92 50 93 51 94
REMARK H PARENT 3 16 81 17 73 47 41 58
REMARK Flexibility Score: inf
ROOT
ATOM      1  C   UNL     1       7.810  -3.448   3.131  1.00  0.00     0.275 C 
ENDROOT
BRANCH   1   2
ATOM      2  C   UNL     1       7.055  -2.128   3.305  1.00  0.00     0.275 C 
BRANCH   2   3
ATOM      3  O   UNL     1       6.322  -1.786   2.110  1.00  0.00    -0.458 OA
BRANCH   3   4
ATOM      4  C   UNL     1       6.824  -0.777   1.358  1.00  0.00     0.338 C 
ATOM      5  O   UNL     1       7.800  -0.088   1.616  1.00  0.00    -0.246 OA
BRANCH   4   6
ATOM      6  C   UNL     1       6.050  -0.630   0.102  1.00  0.00     0.062 A 
ATOM      7  C   UNL     1       3.935  -0.513  -1.058  1.00  0.00     0.043 A 
ATOM      8  C   UNL     1       4.599  -0.324  -2.272  1.00  0.00     0.026 A 
ATOM      9  C   UNL     1       4.665  -0.768   0.107  1.00  0.00     0.041 A 
ATOM     10  C   UNL     1       5.984  -0.185  -2.283  1.00  0.00     0.003 A 
ATOM     11  C   UNL     1       6.694  -0.266  -1.087  1.00  0.00     0.016 A 
BRANCH   7  12
ATOM     12  N   UNL     1       2.540  -0.355  -1.046  1.00  0.00    -0.308 N 
ATOM     13  O   UNL     1       0.520   0.110  -0.174  1.00  0.00    -0.248 OA
ATOM     14  C   UNL     1       1.740   0.128  -0.037  1.00  0.00     0.323 C 
ATOM     15  N   UNL     1       2.403   0.753   0.990  1.00  0.00    -0.306 N 
ATOM     16  H   UNL     1       2.073  -0.626  -1.869  1.00  0.00     0.171 HD
ATOM     17  H   UNL     1       3.349   0.971   0.822  1.00  0.00     0.171 HD
BRANCH  15  18
ATOM     18  C   UNL     1       1.902   1.122   2.253  1.00  0.00     0.063 A 
ATOM     19  C   UNL     1       2.542   2.217   2.859  1.00  0.00     0.049 A 
ATOM     20  C   UNL     1       0.875   0.469   2.955  1.00  0.00     0.066 A 
ATOM     21  C   UNL     1       2.107   2.713   4.093  1.00  0.00     0.061 A 
ATOM     22  C   UNL     1       0.432   0.977   4.182  1.00  0.00     0.044 A 
ATOM     23  Cl  UNL     1       0.225  -1.068   2.502  1.00  0.00    -0.082 Cl
ATOM     24  Cl  UNL     1       2.936   4.078   4.751  1.00  0.00    -0.083 Cl
ATOM     25  C   UNL     1       1.033   2.104   4.744  1.00  0.00     0.061 A 
ATOM     26  Cl  UNL     1       0.423   2.672   6.257  1.00  0.00    -0.083 Cl
ENDBRANCH  15  18
ENDBRANCH   7  12
ENDBRANCH   4   6
ENDBRANCH   3   4
ENDBRANCH   2   3
ENDBRANCH   1   2
BRANCH   1  27
ATOM     27  O   UNL     1       8.894  -3.294   2.198  1.00  0.00    -0.458 OA
BRANCH  27  28
ATOM     28  C   UNL     1       8.641  -3.747   0.950  1.00  0.00     0.338 C 
ATOM     29  O   UNL     1       7.631  -4.303   0.553  1.00  0.00    -0.246 OA
BRANCH  28  30
ATOM     30  C   UNL     1       9.725  -3.346   0.043  1.00  0.00     0.060 A 
ATOM     31  C   UNL     1       9.639  -2.082  -0.525  1.00  0.00     0.016 A 
ATOM     32  C   UNL     1      10.699  -4.237  -0.387  1.00  0.00     0.016 A 
ATOM     33  C   UNL     1      10.423  -1.740  -1.618  1.00  0.00     0.010 A 
ATOM     34  C   UNL     1      11.582  -3.842  -1.403  1.00  0.00     0.010 A 
ATOM     35  C   UNL     1      11.425  -2.607  -2.064  1.00  0.00    -0.014 A 
BRANCH  35  36
ATOM     36  C   UNL     1      12.287  -2.220  -3.219  1.00  0.00     0.031 A 
ATOM     37  C   UNL     1      12.402  -3.128  -4.419  1.00  0.00     0.074 A 
ATOM     38  C   UNL     1      12.982  -1.062  -3.192  1.00  0.00     0.049 A 
ATOM     39  N   UNL     1      13.225  -3.054  -5.433  1.00  0.00    -0.248 NA
ATOM     40  C   UNL     1      11.482  -4.277  -4.482  1.00  0.00     0.031 C 
ATOM     41  C   UNL     1      12.953  -0.077  -2.107  1.00  0.00     0.029 A 
ATOM     42  N   UNL     1      13.870  -0.524  -4.094  1.00  0.00    -0.354 N 
ATOM     43  C   UNL     1      12.991  -4.190  -6.199  1.00  0.00     0.074 A 
ATOM     44  C   UNL     1      11.927  -4.925  -5.550  1.00  0.00     0.031 C 
ATOM     45  C   UNL     1      13.772   0.941  -2.406  1.00  0.00     0.029 A 
ATOM     46  C   UNL     1      14.461   0.639  -3.652  1.00  0.00     0.049 A 
ATOM     47  H   UNL     1      14.063  -0.930  -4.970  1.00  0.00     0.167 HD
ATOM     48  C   UNL     1      13.610  -4.585  -7.337  1.00  0.00     0.034 A 
ATOM     49  C   UNL     1      15.489   1.354  -4.152  1.00  0.00     0.034 A 
ATOM     50  C   UNL     1      14.614  -3.813  -8.019  1.00  0.00     0.049 A 
ATOM     51  C   UNL     1      16.152   0.888  -5.418  1.00  0.00     0.074 A 
ATOM     52  C   UNL     1      15.239  -4.094  -9.222  1.00  0.00     0.029 A 
ATOM     53  N   UNL     1      15.145  -2.619  -7.561  1.00  0.00    -0.354 N 
ATOM     54  N   UNL     1      15.860  -0.145  -6.169  1.00  0.00    -0.248 NA
ATOM     55  C   UNL     1      17.276   1.694  -5.914  1.00  0.00     0.031 C 
ATOM     56  C   UNL     1      16.181  -3.092  -9.469  1.00  0.00     0.029 A 
ATOM     57  C   UNL     1      16.106  -2.161  -8.445  1.00  0.00     0.049 A 
ATOM     58  H   UNL     1      14.879  -2.164  -6.730  1.00  0.00     0.167 HD
ATOM     59  C   UNL     1      16.740  -0.093  -7.243  1.00  0.00     0.074 A 
ATOM     60  C   UNL     1      17.557   1.088  -7.058  1.00  0.00     0.031 C 
ATOM     61  C   UNL     1      16.871  -0.953  -8.281  1.00  0.00     0.034 A 
BRANCH  48  62
ATOM     62  C   UNL     1      13.239  -5.920  -7.930  1.00  0.00     0.023 A 
ATOM     63  C   UNL     1      12.012  -6.088  -8.600  1.00  0.00     0.012 A 
ATOM     64  C   UNL     1      14.168  -6.980  -7.910  1.00  0.00     0.148 A 
ATOM     65  C   UNL     1      11.707  -7.299  -9.224  1.00  0.00     0.002 A 
ATOM     66  C   UNL     1      13.879  -8.165  -8.573  1.00  0.00     0.091 A 
ATOM     67  F   UNL     1      15.322  -6.804  -7.250  1.00  0.00    -0.205 F 
ATOM     68  C   UNL     1      12.644  -8.331  -9.222  1.00  0.00     0.022 A 
BRANCH  66  69
ATOM     69  S   UNL     1      15.054  -9.517  -8.704  1.00  0.00     0.127 S 
ATOM     70  O   UNL     1      14.391 -10.561  -7.924  1.00  0.00    -0.237 OA
ATOM     71  O   UNL     1      15.082  -9.759 -10.147  1.00  0.00    -0.237 OA
ATOM     72  O   UNL     1      16.304  -9.023  -8.143  1.00  0.00    -0.744 OA
ENDBRANCH  66  69
ENDBRANCH  48  62
BRANCH  49  73
ATOM     73  C   UNL     1      15.980   2.570  -3.440  1.00  0.00     0.023 A 
ATOM     74  C   UNL     1      15.856   3.834  -4.049  1.00  0.00     0.012 A 
ATOM     75  C   UNL     1      16.577   2.479  -2.167  1.00  0.00     0.148 A 
ATOM     76  C   UNL     1      16.358   4.976  -3.424  1.00  0.00     0.002 A 
ATOM     77  C   UNL     1      17.013   3.629  -1.520  1.00  0.00     0.091 A 
ATOM     78  F   UNL     1      16.706   1.267  -1.609  1.00  0.00    -0.205 F 
ATOM     79  C   UNL     1      16.926   4.876  -2.156  1.00  0.00     0.022 A 
BRANCH  77  80
ATOM     80  S   UNL     1      17.624   3.603   0.168  1.00  0.00     0.127 S 
ATOM     81  O   UNL     1      19.057   3.799  -0.029  1.00  0.00    -0.237 OA
ATOM     82  O   UNL     1      16.922   4.742   0.762  1.00  0.00    -0.237 OA
ATOM     83  O   UNL     1      17.225   2.310   0.708  1.00  0.00    -0.744 OA
ENDBRANCH  77  80
ENDBRANCH  49  73
BRANCH  61  84
ATOM     84  C   UNL     1      17.890  -0.622  -9.338  1.00  0.00     0.023 A 
ATOM     85  C   UNL     1      19.265  -0.743  -9.060  1.00  0.00     0.012 A 
ATOM     86  C   UNL     1      17.474  -0.255 -10.633  1.00  0.00     0.148 A 
ATOM     87  C   UNL     1      20.212  -0.467 -10.046  1.00  0.00     0.002 A 
ATOM     88  C   UNL     1      18.421  -0.037 -11.625  1.00  0.00     0.091 A 
ATOM     89  F   UNL     1      16.160  -0.128 -10.870  1.00  0.00    -0.205 F 
ATOM     90  C   UNL     1      19.790  -0.128 -11.329  1.00  0.00     0.022 A 
BRANCH  88  91
ATOM     91  S   UNL     1      17.968   0.303 -13.329  1.00  0.00     0.127 S 
ATOM     92  O   UNL     1      18.360   1.704 -13.467  1.00  0.00    -0.237 OA
ATOM     93  O   UNL     1      18.808  -0.642 -14.066  1.00  0.00    -0.237 OA
ATOM     94  O   UNL     1      16.538   0.044 -13.426  1.00  0.00    -0.744 OA
ENDBRANCH  88  91
ENDBRANCH  61  84
ENDBRANCH  35  36
ENDBRANCH  28  30
ENDBRANCH  27  28
ENDBRANCH   1  27
TORSDOF 16
