REMARK SMILES O=C(OCCOC(=O)[C@H]1CCCN(C(=O)C2CCN(S(=O)(=O)c3ccccc3)CC2)C1)c1ccc(-c2c3nc(c(-c4cccc(S(=O)(=O)[O-])c4F)c4ccc([nH]4)c(-c4cccc(S(=O)(=O)[O-])c4F)c4nc(c(-c5cccc(S(=O)(=O)[O-])c5F)c5ccc2[nH]5)C=C4)C=C3)cc1
REMARK SMILES IDX 5 1 4 2 3 3 2 4 1 5 32 6 33 7 94 8 34 9 93 10 35 11 36 12
REMARK SMILES IDX 37 13 87 14 38 15 92 16 86 17 88 18 39 19 91 20 85 21 84 22
REMARK SMILES IDX 40 24 72 25 52 26 71 27 53 28 56 29 70 30 89 31 54 32 55 33
REMARK SMILES IDX 69 35 90 36 57 37 41 38 42 39 50 40 43 41 45 42 51 43 44 44
REMARK SMILES IDX 46 45 47 46 48 47 49 48 73 49 74 50 82 51 75 52 77 53 83 54
REMARK SMILES IDX 76 55 78 56 79 57 80 58 81 59 58 60 59 61 67 62 60 63 62 64
REMARK SMILES IDX 68 65 61 66 63 67 64 68 65 69 66 70 6 71 7 72 8 73 9 74
REMARK SMILES IDX 10 75 31 76 11 77 13 78 12 79 14 80 15 81 16 82 17 83 30 84
REMARK SMILES IDX 18 85 29 86 19 87 20 88 21 89 22 90 23 91 24 92 28 93 25 94
REMARK SMILES IDX 27 95 26 96
REMARK H PARENT 88 23 56 34
REMARK Flexibility Score: inf
ROOT
ATOM      1  C   UNL     1       1.429   3.344   4.920  1.00  0.00     0.274 C 
ENDROOT
BRANCH   1   2
ATOM      2  C   UNL     1      -0.042   3.652   4.656  1.00  0.00     0.275 C 
BRANCH   2   3
ATOM      3  O   UNL     1      -0.890   2.493   4.617  1.00  0.00    -0.458 OA
BRANCH   3   4
ATOM      4  C   UNL     1      -1.278   1.745   3.557  1.00  0.00     0.338 C 
ATOM      5  O   UNL     1      -2.223   0.970   3.699  1.00  0.00    -0.246 OA
BRANCH   4   6
ATOM      6  C   UNL     1      -0.517   1.689   2.269  1.00  0.00     0.060 A 
ATOM      7  C   UNL     1       0.105   2.756   1.619  1.00  0.00     0.016 A 
ATOM      8  C   UNL     1      -0.452   0.431   1.655  1.00  0.00     0.016 A 
ATOM      9  C   UNL     1       0.829   2.555   0.431  1.00  0.00     0.010 A 
ATOM     10  C   UNL     1       0.322   0.218   0.510  1.00  0.00     0.010 A 
ATOM     11  C   UNL     1       0.948   1.282  -0.137  1.00  0.00    -0.014 A 
BRANCH  11  12
ATOM     12  C   UNL     1       1.597   1.097  -1.463  1.00  0.00     0.031 A 
ATOM     13  C   UNL     1       0.764   0.638  -2.636  1.00  0.00     0.074 A 
ATOM     14  C   UNL     1       2.913   1.340  -1.634  1.00  0.00     0.049 A 
ATOM     15  N   UNL     1       1.098   0.546  -3.898  1.00  0.00    -0.248 NA
ATOM     16  C   UNL     1      -0.614   0.199  -2.354  1.00  0.00     0.031 C 
ATOM     17  C   UNL     1       3.863   1.675  -0.571  1.00  0.00     0.029 A 
ATOM     18  N   UNL     1       3.680   1.343  -2.774  1.00  0.00    -0.354 N 
ATOM     19  C   UNL     1      -0.023   0.039  -4.547  1.00  0.00     0.074 A 
ATOM     20  C   UNL     1      -1.007  -0.252  -3.533  1.00  0.00     0.031 C 
ATOM     21  C   UNL     1       5.079   1.875  -1.113  1.00  0.00     0.029 A 
ATOM     22  C   UNL     1       4.993   1.698  -2.561  1.00  0.00     0.049 A 
ATOM     23  H   UNL     1       3.323   1.112  -3.662  1.00  0.00     0.167 HD
ATOM     24  C   UNL     1      -0.258  -0.101  -5.873  1.00  0.00     0.034 A 
ATOM     25  C   UNL     1       5.997   1.896  -3.441  1.00  0.00     0.034 A 
ATOM     26  C   UNL     1       0.693   0.236  -6.890  1.00  0.00     0.049 A 
ATOM     27  C   UNL     1       5.702   1.796  -4.919  1.00  0.00     0.074 A 
ATOM     28  C   UNL     1       0.546   0.191  -8.263  1.00  0.00     0.029 A 
ATOM     29  N   UNL     1       1.976   0.693  -6.634  1.00  0.00    -0.354 N 
ATOM     30  N   UNL     1       4.571   1.512  -5.519  1.00  0.00    -0.248 NA
ATOM     31  C   UNL     1       6.806   2.103  -5.843  1.00  0.00     0.031 C 
ATOM     32  C   UNL     1       1.744   0.627  -8.840  1.00  0.00     0.029 A 
ATOM     33  C   UNL     1       2.631   0.948  -7.823  1.00  0.00     0.049 A 
ATOM     34  H   UNL     1       2.363   0.818  -5.738  1.00  0.00     0.167 HD
ATOM     35  C   UNL     1       4.814   1.653  -6.882  1.00  0.00     0.074 A 
ATOM     36  C   UNL     1       6.195   2.068  -7.019  1.00  0.00     0.031 C 
ATOM     37  C   UNL     1       3.979   1.441  -7.929  1.00  0.00     0.034 A 
BRANCH  24  38
ATOM     38  C   UNL     1      -1.642  -0.540  -6.271  1.00  0.00     0.023 A 
ATOM     39  C   UNL     1      -2.717   0.359  -6.092  1.00  0.00     0.012 A 
ATOM     40  C   UNL     1      -1.895  -1.826  -6.781  1.00  0.00     0.148 A 
ATOM     41  C   UNL     1      -4.027  -0.034  -6.355  1.00  0.00     0.002 A 
ATOM     42  C   UNL     1      -3.201  -2.197  -7.082  1.00  0.00     0.091 A 
ATOM     43  F   UNL     1      -0.864  -2.669  -6.931  1.00  0.00    -0.205 F 
ATOM     44  C   UNL     1      -4.268  -1.310  -6.852  1.00  0.00     0.022 A 
BRANCH  42  45
ATOM     45  S   UNL     1      -3.623  -3.796  -7.783  1.00  0.00     0.127 S 
ATOM     46  O   UNL     1      -4.358  -4.417  -6.682  1.00  0.00    -0.237 OA
ATOM     47  O   UNL     1      -4.449  -3.417  -8.930  1.00  0.00    -0.237 OA
ATOM     48  O   UNL     1      -2.359  -4.431  -8.126  1.00  0.00    -0.744 OA
ENDBRANCH  42  45
ENDBRANCH  24  38
BRANCH  25  49
ATOM     49  C   UNL     1       7.349   2.323  -2.971  1.00  0.00     0.023 A 
ATOM     50  C   UNL     1       7.802   3.628  -3.253  1.00  0.00     0.012 A 
ATOM     51  C   UNL     1       8.198   1.444  -2.273  1.00  0.00     0.148 A 
ATOM     52  C   UNL     1       9.090   4.032  -2.897  1.00  0.00     0.002 A 
ATOM     53  C   UNL     1       9.464   1.869  -1.877  1.00  0.00     0.091 A 
ATOM     54  F   UNL     1       7.761   0.202  -2.019  1.00  0.00    -0.205 F 
ATOM     55  C   UNL     1       9.920   3.155  -2.205  1.00  0.00     0.022 A 
BRANCH  53  56
ATOM     56  S   UNL     1      10.538   0.840  -0.871  1.00  0.00     0.127 S 
ATOM     57  O   UNL     1      11.474   0.318  -1.862  1.00  0.00    -0.237 OA
ATOM     58  O   UNL     1      11.108   1.808   0.067  1.00  0.00    -0.237 OA
ATOM     59  O   UNL     1       9.653  -0.135  -0.246  1.00  0.00    -0.744 OA
ENDBRANCH  53  56
ENDBRANCH  25  49
BRANCH  37  60
ATOM     60  C   UNL     1       4.506   1.692  -9.316  1.00  0.00     0.023 A 
ATOM     61  C   UNL     1       5.407   0.779  -9.897  1.00  0.00     0.012 A 
ATOM     62  C   UNL     1       4.018   2.769 -10.083  1.00  0.00     0.148 A 
ATOM     63  C   UNL     1       5.832   0.946 -11.214  1.00  0.00     0.002 A 
ATOM     64  C   UNL     1       4.408   2.900 -11.410  1.00  0.00     0.091 A 
ATOM     65  F   UNL     1       3.179   3.641  -9.504  1.00  0.00    -0.205 F 
ATOM     66  C   UNL     1       5.321   1.995 -11.975  1.00  0.00     0.022 A 
BRANCH  64  67
ATOM     67  S   UNL     1       3.713   4.159 -12.488  1.00  0.00     0.127 S 
ATOM     68  O   UNL     1       4.793   5.142 -12.533  1.00  0.00    -0.237 OA
ATOM     69  O   UNL     1       3.503   3.423 -13.735  1.00  0.00    -0.237 OA
ATOM     70  O   UNL     1       2.486   4.601 -11.839  1.00  0.00    -0.744 OA
ENDBRANCH  64  67
ENDBRANCH  37  60
ENDBRANCH  11  12
ENDBRANCH   4   6
ENDBRANCH   3   4
ENDBRANCH   2   3
ENDBRANCH   1   2
BRANCH   1  71
ATOM     71  O   UNL     1       1.951   2.323   4.062  1.00  0.00    -0.462 OA
BRANCH  71  72
ATOM     72  C   UNL     1       2.023   1.074   4.608  1.00  0.00     0.310 C 
ATOM     73  O   UNL     1       1.661   0.780   5.739  1.00  0.00    -0.252 OA
BRANCH  72  74
ATOM     74  C   UNL     1       2.677   0.112   3.648  1.00  0.00     0.119 C 
ATOM     75  C   UNL     1       4.096  -0.191   4.146  1.00  0.00     0.019 C 
ATOM     76  C   UNL     1       1.850  -1.176   3.538  1.00  0.00     0.134 C 
ATOM     77  C   UNL     1       4.745  -1.284   3.306  1.00  0.00     0.022 C 
ATOM     78  N   UNL     1       2.533  -2.135   2.666  1.00  0.00    -0.342 N 
ATOM     79  C   UNL     1       3.826  -2.490   3.189  1.00  0.00     0.119 C 
BRANCH  78  80
ATOM     80  C   UNL     1       1.858  -2.792   1.655  1.00  0.00     0.225 C 
ATOM     81  O   UNL     1       0.617  -2.776   1.652  1.00  0.00    -0.275 OA
BRANCH  80  82
ATOM     82  C   UNL     1       2.550  -3.548   0.482  1.00  0.00     0.081 C 
ATOM     83  C   UNL     1       2.553  -5.062   0.595  1.00  0.00     0.030 C 
ATOM     84  C   UNL     1       3.868  -3.090  -0.117  1.00  0.00     0.030 C 
ATOM     85  C   UNL     1       3.688  -5.576   1.450  1.00  0.00     0.103 C 
ATOM     86  C   UNL     1       5.144  -3.716   0.439  1.00  0.00     0.103 C 
ATOM     87  N   UNL     1       5.049  -5.056   1.091  1.00  0.00    -0.198 NA
BRANCH  87  88
ATOM     88  S   UNL     1       6.159  -5.406   2.393  1.00  0.00     0.243 S 
ATOM     89  O   UNL     1       5.694  -4.719   3.582  1.00  0.00    -0.207 OA
ATOM     90  O   UNL     1       6.287  -6.853   2.432  1.00  0.00    -0.207 OA
BRANCH  88  91
ATOM     91  C   UNL     1       7.754  -4.716   2.033  1.00  0.00     0.082 A 
ATOM     92  C   UNL     1       8.863  -5.561   1.942  1.00  0.00     0.022 A 
ATOM     93  C   UNL     1       7.947  -3.329   2.077  1.00  0.00     0.022 A 
ATOM     94  C   UNL     1      10.145  -5.014   1.839  1.00  0.00     0.001 A 
ATOM     95  C   UNL     1       9.220  -2.788   1.917  1.00  0.00     0.001 A 
ATOM     96  C   UNL     1      10.319  -3.631   1.803  1.00  0.00     0.000 A 
ENDBRANCH  88  91
ENDBRANCH  87  88
ENDBRANCH  80  82
ENDBRANCH  78  80
ENDBRANCH  72  74
ENDBRANCH  71  72
ENDBRANCH   1  71
TORSDOF 18
