REMARK SMILES O=C(OCCOC(=O)c1cc2nn[nH]n2n1)c1ccc(-c2c3nc(c(-c4cccc(S(=O)(=O)[O-])c4F)c4ccc([nH]4)c(-c4cccc(S(=O)(=O)[O-])c4F)c4nc(c(-c5cccc(S(=O)(=O)[O-])c5F)c5ccc2[nH]5)C=C4)C=C3)cc1
REMARK SMILES IDX 3 1 2 2 1 3 17 4 18 5 79 6 19 7 78 8 20 9 21 10 22 11 72 12
REMARK SMILES IDX 23 13 77 14 71 15 73 16 24 17 76 18 70 19 69 20 25 22 57 23
REMARK SMILES IDX 37 24 56 25 38 26 41 27 55 28 74 29 39 30 40 31 54 33 75 34
REMARK SMILES IDX 42 35 26 36 27 37 35 38 28 39 30 40 36 41 29 42 31 43 32 44
REMARK SMILES IDX 33 45 34 46 58 47 59 48 67 49 60 50 62 51 68 52 61 53 63 54
REMARK SMILES IDX 64 55 65 56 66 57 43 58 44 59 52 60 45 61 47 62 53 63 46 64
REMARK SMILES IDX 48 65 49 66 50 67 51 68 4 69 5 70 6 71 7 72 8 73 9 74 10 75
REMARK SMILES IDX 16 76 11 77 15 78 12 79 14 80 13 81
REMARK H PARENT 73 21 41 32 14 82
REMARK Flexibility Score: inf
ROOT
ATOM      1  O   UNL     1       3.355  -0.802   1.300  1.00  0.00    -0.458 OA
ENDROOT
BRANCH   1   2
ATOM      2  C   UNL     1       2.304  -0.228   0.669  1.00  0.00     0.338 C 
ATOM      3  O   UNL     1       1.397  -0.871   0.166  1.00  0.00    -0.246 OA
BRANCH   2   4
ATOM      4  C   UNL     1       2.220   1.228   0.930  1.00  0.00     0.060 A 
ATOM      5  C   UNL     1       3.353   2.021   1.149  1.00  0.00     0.016 A 
ATOM      6  C   UNL     1       0.942   1.796   1.004  1.00  0.00     0.016 A 
ATOM      7  C   UNL     1       3.208   3.335   1.560  1.00  0.00     0.010 A 
ATOM      8  C   UNL     1       0.794   3.112   1.414  1.00  0.00     0.010 A 
ATOM      9  C   UNL     1       1.927   3.857   1.740  1.00  0.00    -0.014 A 
BRANCH   9  10
ATOM     10  C   UNL     1       1.806   5.253   2.137  1.00  0.00     0.031 A 
ATOM     11  C   UNL     1       2.253   6.211   1.090  1.00  0.00     0.074 A 
ATOM     12  C   UNL     1       1.215   5.630   3.289  1.00  0.00     0.049 A 
ATOM     13  N   UNL     1       3.259   7.023   1.133  1.00  0.00    -0.248 NA
ATOM     14  C   UNL     1       1.604   6.139  -0.228  1.00  0.00     0.031 C 
ATOM     15  C   UNL     1       0.503   4.774   4.242  1.00  0.00     0.029 A 
ATOM     16  N   UNL     1       0.993   6.882   3.780  1.00  0.00    -0.354 N 
ATOM     17  C   UNL     1       3.202   7.748  -0.058  1.00  0.00     0.074 A 
ATOM     18  C   UNL     1       2.321   7.019  -0.929  1.00  0.00     0.031 C 
ATOM     19  C   UNL     1      -0.285   5.544   5.027  1.00  0.00     0.029 A 
ATOM     20  C   UNL     1      -0.032   6.941   4.724  1.00  0.00     0.049 A 
ATOM     21  H   UNL     1       1.507   7.671   3.494  1.00  0.00     0.167 HD
ATOM     22  C   UNL     1       3.660   9.030  -0.122  1.00  0.00     0.034 A 
ATOM     23  C   UNL     1      -0.679   8.054   5.157  1.00  0.00     0.034 A 
ATOM     24  C   UNL     1       4.514   9.332   0.999  1.00  0.00     0.049 A 
ATOM     25  C   UNL     1       0.180   9.216   4.840  1.00  0.00     0.074 A 
ATOM     26  C   UNL     1       5.686   8.812   1.511  1.00  0.00     0.029 A 
ATOM     27  N   UNL     1       3.965  10.091   2.003  1.00  0.00    -0.354 N 
ATOM     28  N   UNL     1       1.331   9.431   5.411  1.00  0.00    -0.248 NA
ATOM     29  C   UNL     1      -0.034   9.896   3.574  1.00  0.00     0.031 C 
ATOM     30  C   UNL     1       5.531   8.890   2.926  1.00  0.00     0.029 A 
ATOM     31  C   UNL     1       4.315   9.522   3.195  1.00  0.00     0.049 A 
ATOM     32  H   UNL     1       3.417  10.900   1.885  1.00  0.00     0.167 HD
ATOM     33  C   UNL     1       2.146   9.854   4.371  1.00  0.00     0.074 A 
ATOM     34  C   UNL     1       1.229  10.231   3.296  1.00  0.00     0.031 C 
ATOM     35  C   UNL     1       3.482   9.572   4.373  1.00  0.00     0.034 A 
BRANCH  22  36
ATOM     36  C   UNL     1       3.021  10.148  -0.929  1.00  0.00     0.023 A 
ATOM     37  C   UNL     1       3.664  11.409  -0.889  1.00  0.00     0.012 A 
ATOM     38  C   UNL     1       1.706  10.124  -1.446  1.00  0.00     0.148 A 
ATOM     39  C   UNL     1       3.001  12.588  -1.245  1.00  0.00     0.002 A 
ATOM     40  C   UNL     1       1.074  11.291  -1.866  1.00  0.00     0.091 A 
ATOM     41  F   UNL     1       0.994   8.997  -1.430  1.00  0.00    -0.205 F 
ATOM     42  C   UNL     1       1.702  12.530  -1.730  1.00  0.00     0.022 A 
BRANCH  40  43
ATOM     43  S   UNL     1      -0.594  11.275  -2.538  1.00  0.00     0.127 S 
ATOM     44  O   UNL     1      -1.343  11.931  -1.471  1.00  0.00    -0.237 OA
ATOM     45  O   UNL     1      -0.427  12.066  -3.758  1.00  0.00    -0.237 OA
ATOM     46  O   UNL     1      -0.913   9.873  -2.772  1.00  0.00    -0.744 OA
ENDBRANCH  40  43
ENDBRANCH  22  36
BRANCH  23  47
ATOM     47  C   UNL     1      -2.094   8.234   5.568  1.00  0.00     0.023 A 
ATOM     48  C   UNL     1      -2.468   9.368   6.319  1.00  0.00     0.012 A 
ATOM     49  C   UNL     1      -3.119   7.461   4.979  1.00  0.00     0.148 A 
ATOM     50  C   UNL     1      -3.813   9.738   6.451  1.00  0.00     0.002 A 
ATOM     51  C   UNL     1      -4.455   7.830   5.117  1.00  0.00     0.091 A 
ATOM     52  F   UNL     1      -2.779   6.423   4.205  1.00  0.00    -0.205 F 
ATOM     53  C   UNL     1      -4.805   8.975   5.843  1.00  0.00     0.022 A 
BRANCH  51  54
ATOM     54  S   UNL     1      -5.786   6.913   4.329  1.00  0.00     0.127 S 
ATOM     55  O   UNL     1      -6.719   6.721   5.440  1.00  0.00    -0.237 OA
ATOM     56  O   UNL     1      -6.237   7.854   3.307  1.00  0.00    -0.237 OA
ATOM     57  O   UNL     1      -5.183   5.683   3.833  1.00  0.00    -0.744 OA
ENDBRANCH  51  54
ENDBRANCH  23  47
BRANCH  35  58
ATOM     58  C   UNL     1       4.095   9.043   5.643  1.00  0.00     0.023 A 
ATOM     59  C   UNL     1       3.731   7.803   6.210  1.00  0.00     0.012 A 
ATOM     60  C   UNL     1       5.189   9.741   6.177  1.00  0.00     0.148 A 
ATOM     61  C   UNL     1       4.434   7.285   7.302  1.00  0.00     0.002 A 
ATOM     62  C   UNL     1       5.915   9.200   7.228  1.00  0.00     0.091 A 
ATOM     63  F   UNL     1       5.521  10.916   5.621  1.00  0.00    -0.205 F 
ATOM     64  C   UNL     1       5.535   7.976   7.802  1.00  0.00     0.022 A 
BRANCH  62  65
ATOM     65  S   UNL     1       7.415   9.982   7.822  1.00  0.00     0.127 S 
ATOM     66  O   UNL     1       6.972  10.571   9.083  1.00  0.00    -0.237 OA
ATOM     67  O   UNL     1       8.327   8.846   7.962  1.00  0.00    -0.237 OA
ATOM     68  O   UNL     1       7.808  10.932   6.788  1.00  0.00    -0.744 OA
ENDBRANCH  62  65
ENDBRANCH  35  58
ENDBRANCH   9  10
ENDBRANCH   2   4
ENDBRANCH   1   2
BRANCH   1  69
ATOM     69  C   UNL     1       4.604  -0.982   0.606  1.00  0.00     0.275 C 
BRANCH  69  70
ATOM     70  C   UNL     1       4.538  -1.285  -0.890  1.00  0.00     0.275 C 
BRANCH  70  71
ATOM     71  O   UNL     1       4.055  -0.144  -1.616  1.00  0.00    -0.457 OA
BRANCH  71  72
ATOM     72  C   UNL     1       2.955  -0.355  -2.411  1.00  0.00     0.359 C 
ATOM     73  O   UNL     1       2.455  -1.444  -2.636  1.00  0.00    -0.244 OA
BRANCH  72  74
ATOM     74  C   UNL     1       2.495   0.901  -3.005  1.00  0.00     0.174 A 
ATOM     75  C   UNL     1       3.235   1.709  -3.935  1.00  0.00     0.091 A 
ATOM     76  N   UNL     1       1.278   1.436  -2.733  1.00  0.00    -0.142 NA
ATOM     77  C   UNL     1       2.386   2.742  -4.211  1.00  0.00     0.199 A 
ATOM     78  N   UNL     1       1.310   2.550  -3.442  1.00  0.00    -0.135 N 
ATOM     79  N   UNL     1       2.213   3.858  -4.952  1.00  0.00    -0.109 NA
ATOM     80  N   UNL     1       0.460   3.511  -3.742  1.00  0.00    -0.177 N 
ATOM     81  N   UNL     1       1.075   4.360  -4.649  1.00  0.00    -0.050 NA
ATOM     82  H   UNL     1      -0.453   3.610  -3.385  1.00  0.00     0.216 HD
ENDBRANCH  72  74
ENDBRANCH  71  72
ENDBRANCH  70  71
ENDBRANCH  69  70
ENDBRANCH   1  69
TORSDOF 14
