REMARK SMILES O=C(OCCOC(=O)c1ccc(-c2c3nc(c(-c4cccc(S(=O)(=O)[O-])c4F)c4ccc([nH]4)c(-c4cccc(S(=O)(=O)[O-])c4F)c4nc(c(-c5cccc(S(=O)(=O)[O-])c5F)c5ccc2[nH]5)C=C4)C=C3)cc1)C1=Cc2c(cc(Cl)c(Cl)c2Cl)O[C@H]1C(F)(F)F
REMARK SMILES IDX 5 1 4 2 3 3 2 4 1 5 72 6 73 7 84 8 74 9 83 10 75 11 81 12
REMARK SMILES IDX 76 13 79 14 82 15 77 16 80 17 78 18 85 19 86 20 87 21 88 22
REMARK SMILES IDX 6 23 7 24 8 25 9 26 10 27 71 28 11 29 70 30 12 31 13 32
REMARK SMILES IDX 14 33 64 34 15 35 69 36 63 37 65 38 16 39 68 40 62 41 61 42
REMARK SMILES IDX 17 44 49 45 29 46 48 47 30 48 33 49 47 50 66 51 31 52 32 53
REMARK SMILES IDX 46 55 67 56 34 57 18 58 19 59 27 60 20 61 22 62 28 63 21 64
REMARK SMILES IDX 23 65 24 66 25 67 26 68 50 69 51 70 59 71 52 72 54 73 60 74
REMARK SMILES IDX 53 75 55 76 56 77 57 78 58 79 35 80 36 81 44 82 37 83 39 84
REMARK SMILES IDX 45 85 38 86 40 87 41 88 42 89 43 90
REMARK H PARENT 65 43 33 54
REMARK Flexibility Score: inf
ROOT
ATOM      1  C   UNL     1       2.700   2.131   2.021  1.00  0.00     0.275 C 
ENDROOT
BRANCH   1   2
ATOM      2  C   UNL     1       2.573   1.977   0.499  1.00  0.00     0.275 C 
BRANCH   2   3
ATOM      3  O   UNL     1       1.965   0.740   0.071  1.00  0.00    -0.459 OA
BRANCH   3   4
ATOM      4  C   UNL     1       2.539  -0.462  -0.144  1.00  0.00     0.338 C 
ATOM      5  O   UNL     1       1.875  -1.347  -0.680  1.00  0.00    -0.246 OA
BRANCH   4   6
ATOM      6  C   UNL     1       3.947  -0.764   0.219  1.00  0.00     0.087 C 
ATOM      7  C   UNL     1       4.809   0.070   0.831  1.00  0.00     0.029 C 
ATOM      8  C   UNL     1       4.506  -1.953  -0.553  1.00  0.00     0.316 C 
ATOM      9  C   UNL     1       5.863   0.514  -0.117  1.00  0.00     0.038 A 
ATOM     10  O   UNL     1       5.840  -1.702  -1.099  1.00  0.00    -0.475 OA
ATOM     11  C   UNL     1       6.256  -0.395  -1.104  1.00  0.00     0.131 A 
ATOM     12  C   UNL     1       6.406   1.813  -0.109  1.00  0.00     0.072 A 
ATOM     13  C   UNL     1       7.121  -0.000  -2.117  1.00  0.00     0.069 A 
ATOM     14  C   UNL     1       7.213   2.241  -1.175  1.00  0.00     0.079 A 
ATOM     15  Cl  UNL     1       6.106   2.872   1.234  1.00  0.00    -0.082 Cl
ATOM     16  C   UNL     1       7.560   1.326  -2.179  1.00  0.00     0.064 A 
ATOM     17  Cl  UNL     1       7.736   3.897  -1.273  1.00  0.00    -0.081 Cl
ATOM     18  Cl  UNL     1       8.537   1.774  -3.535  1.00  0.00    -0.083 Cl
BRANCH   8  19
ATOM     19  C   UNL     1       4.495  -3.217   0.321  1.00  0.00     0.430 C 
ATOM     20  F   UNL     1       3.282  -3.444   0.870  1.00  0.00    -0.167 F 
ATOM     21  F   UNL     1       4.830  -4.313  -0.396  1.00  0.00    -0.167 F 
ATOM     22  F   UNL     1       5.383  -3.108   1.341  1.00  0.00    -0.167 F 
ENDBRANCH   8  19
ENDBRANCH   4   6
ENDBRANCH   3   4
ENDBRANCH   2   3
ENDBRANCH   1   2
BRANCH   1  23
ATOM     23  O   UNL     1       2.644   0.874   2.693  1.00  0.00    -0.458 OA
BRANCH  23  24
ATOM     24  C   UNL     1       1.375   0.431   2.854  1.00  0.00     0.338 C 
ATOM     25  O   UNL     1       0.355   1.085   2.688  1.00  0.00    -0.246 OA
BRANCH  24  26
ATOM     26  C   UNL     1       1.395  -1.020   3.094  1.00  0.00     0.060 A 
ATOM     27  C   UNL     1       0.289  -1.744   2.644  1.00  0.00     0.016 A 
ATOM     28  C   UNL     1       2.439  -1.653   3.781  1.00  0.00     0.016 A 
ATOM     29  C   UNL     1       0.144  -3.068   3.020  1.00  0.00     0.010 A 
ATOM     30  C   UNL     1       2.311  -2.998   4.126  1.00  0.00     0.010 A 
ATOM     31  C   UNL     1       1.114  -3.670   3.833  1.00  0.00    -0.014 A 
BRANCH  31  32
ATOM     32  C   UNL     1       0.710  -4.874   4.589  1.00  0.00     0.031 A 
ATOM     33  C   UNL     1       0.321  -4.706   6.035  1.00  0.00     0.074 A 
ATOM     34  C   UNL     1       0.558  -6.050   3.958  1.00  0.00     0.049 A 
ATOM     35  N   UNL     1      -0.268  -5.551   6.838  1.00  0.00    -0.248 NA
ATOM     36  C   UNL     1       0.628  -3.408   6.663  1.00  0.00     0.031 C 
ATOM     37  C   UNL     1       0.900  -6.308   2.560  1.00  0.00     0.029 A 
ATOM     38  N   UNL     1       0.050  -7.239   4.409  1.00  0.00    -0.354 N 
ATOM     39  C   UNL     1      -0.381  -4.897   8.059  1.00  0.00     0.074 A 
ATOM     40  C   UNL     1       0.233  -3.600   7.910  1.00  0.00     0.031 C 
ATOM     41  C   UNL     1       0.573  -7.577   2.260  1.00  0.00     0.029 A 
ATOM     42  C   UNL     1       0.009  -8.216   3.446  1.00  0.00     0.049 A 
ATOM     43  H   UNL     1      -0.256  -7.379   5.334  1.00  0.00     0.167 HD
ATOM     44  C   UNL     1      -0.966  -5.327   9.201  1.00  0.00     0.034 A 
ATOM     45  C   UNL     1      -0.450  -9.480   3.520  1.00  0.00     0.034 A 
ATOM     46  C   UNL     1      -1.582  -6.615   9.332  1.00  0.00     0.049 A 
ATOM     47  C   UNL     1      -1.089  -9.939   4.805  1.00  0.00     0.074 A 
ATOM     48  C   UNL     1      -2.237  -7.152  10.423  1.00  0.00     0.029 A 
ATOM     49  N   UNL     1      -1.599  -7.579   8.334  1.00  0.00    -0.354 N 
ATOM     50  N   UNL     1      -1.294  -9.269   5.915  1.00  0.00    -0.248 NA
ATOM     51  C   UNL     1      -1.603 -11.315   4.832  1.00  0.00     0.031 C 
ATOM     52  C   UNL     1      -2.606  -8.463  10.102  1.00  0.00     0.029 A 
ATOM     53  C   UNL     1      -2.237  -8.717   8.789  1.00  0.00     0.049 A 
ATOM     54  H   UNL     1      -1.214  -7.468   7.435  1.00  0.00     0.167 HD
ATOM     55  C   UNL     1      -2.009 -10.120   6.750  1.00  0.00     0.074 A 
ATOM     56  C   UNL     1      -2.207 -11.351   6.011  1.00  0.00     0.031 C 
ATOM     57  C   UNL     1      -2.462  -9.909   8.011  1.00  0.00     0.034 A 
BRANCH  44  58
ATOM     58  C   UNL     1      -0.944  -4.397  10.386  1.00  0.00     0.023 A 
ATOM     59  C   UNL     1      -1.704  -3.208  10.374  1.00  0.00     0.012 A 
ATOM     60  C   UNL     1      -0.162  -4.702  11.516  1.00  0.00     0.148 A 
ATOM     61  C   UNL     1      -1.644  -2.315  11.444  1.00  0.00     0.002 A 
ATOM     62  C   UNL     1      -0.148  -3.834  12.600  1.00  0.00     0.091 A 
ATOM     63  F   UNL     1       0.573  -5.823  11.500  1.00  0.00    -0.205 F 
ATOM     64  C   UNL     1      -0.873  -2.632  12.559  1.00  0.00     0.022 A 
BRANCH  62  65
ATOM     65  S   UNL     1       0.754  -4.189  14.111  1.00  0.00     0.127 S 
ATOM     66  O   UNL     1       1.805  -3.172  14.073  1.00  0.00    -0.237 OA
ATOM     67  O   UNL     1      -0.268  -3.970  15.135  1.00  0.00    -0.237 OA
ATOM     68  O   UNL     1       1.214  -5.565  13.994  1.00  0.00    -0.744 OA
ENDBRANCH  62  65
ENDBRANCH  44  58
BRANCH  45  69
ATOM     69  C   UNL     1      -0.386 -10.373   2.329  1.00  0.00     0.023 A 
ATOM     70  C   UNL     1      -1.574 -10.776   1.689  1.00  0.00     0.012 A 
ATOM     71  C   UNL     1       0.851 -10.824   1.829  1.00  0.00     0.148 A 
ATOM     72  C   UNL     1      -1.534 -11.647   0.599  1.00  0.00     0.002 A 
ATOM     73  C   UNL     1       0.887 -11.650   0.712  1.00  0.00     0.091 A 
ATOM     74  F   UNL     1       1.969 -10.431   2.454  1.00  0.00    -0.205 F 
ATOM     75  C   UNL     1      -0.305 -12.078   0.107  1.00  0.00     0.022 A 
BRANCH  73  76
ATOM     76  S   UNL     1       2.424 -12.170  -0.057  1.00  0.00     0.127 S 
ATOM     77  O   UNL     1       2.409 -13.610   0.191  1.00  0.00    -0.237 OA
ATOM     78  O   UNL     1       2.208 -11.782  -1.451  1.00  0.00    -0.237 OA
ATOM     79  O   UNL     1       3.478 -11.428   0.621  1.00  0.00    -0.744 OA
ENDBRANCH  73  76
ENDBRANCH  45  69
BRANCH  57  80
ATOM     80  C   UNL     1      -3.279 -11.000   8.650  1.00  0.00     0.023 A 
ATOM     81  C   UNL     1      -2.675 -12.210   9.041  1.00  0.00     0.012 A 
ATOM     82  C   UNL     1      -4.644 -10.784   8.928  1.00  0.00     0.148 A 
ATOM     83  C   UNL     1      -3.429 -13.208   9.657  1.00  0.00     0.002 A 
ATOM     84  C   UNL     1      -5.373 -11.757   9.598  1.00  0.00     0.091 A 
ATOM     85  F   UNL     1      -5.204  -9.632   8.533  1.00  0.00    -0.205 F 
ATOM     86  C   UNL     1      -4.772 -12.977   9.947  1.00  0.00     0.022 A 
BRANCH  84  87
ATOM     87  S   UNL     1      -7.072 -11.493  10.113  1.00  0.00     0.127 S 
ATOM     88  O   UNL     1      -7.803 -12.344   9.175  1.00  0.00    -0.237 OA
ATOM     89  O   UNL     1      -7.056 -11.980  11.493  1.00  0.00    -0.237 OA
ATOM     90  O   UNL     1      -7.315 -10.063   9.982  1.00  0.00    -0.744 OA
ENDBRANCH  84  87
ENDBRANCH  57  80
ENDBRANCH  31  32
ENDBRANCH  24  26
ENDBRANCH  23  24
ENDBRANCH   1  23
TORSDOF 15
