REMARK SMILES Cc1ccc(-c2nc(C)cc(N3CCCC[C@H]3C(=O)OCCOC(=O)c3ccc(-c4c5nc(c(-c6cccc(S(=O)(=O)[O-])c6F)c6ccc([nH]6)c(-c6cccc(S(=O)(=O)[O-])c6F)c6nc(c(-c7cccc(S(=O)(=O)[O-])c7F)c7ccc4[nH]7)C=C6)C=C5)cc3)n2)cc1
REMARK SMILES IDX 22 1 21 2 20 3 18 4 19 5 17 6 12 7 13 8 14 9 16 10 15 11
REMARK SMILES IDX 11 12 6 13 7 14 89 15 8 16 9 17 10 18 5 19 1 20 2 21 3 22
REMARK SMILES IDX 91 23 4 24 90 25 23 26 24 27 25 28 26 29 27 30 88 31 28 32
REMARK SMILES IDX 87 33 29 34 30 35 31 36 81 37 32 38 86 39 80 40 82 41 33 42
REMARK SMILES IDX 85 43 79 44 78 45 34 47 66 48 46 49 65 50 47 51 50 52 64 53
REMARK SMILES IDX 83 54 48 55 49 56 63 58 84 59 51 60 35 61 36 62 44 63 37 64
REMARK SMILES IDX 39 65 45 66 38 67 40 68 41 69 42 70 43 71 67 72 68 73 76 74
REMARK SMILES IDX 69 75 71 76 77 77 70 78 72 79 73 80 74 81 75 82 52 83 53 84
REMARK SMILES IDX 61 85 54 86 56 87 62 88 55 89 57 90 58 91 59 92 60 93
REMARK H PARENT 82 46 50 57
REMARK Flexibility Score: inf
ROOT
ATOM      1  C   UNL     1      -9.799   0.561  -5.550  1.00  0.00     0.275 C 
ENDROOT
BRANCH   1   2
ATOM      2  C   UNL     1      -9.275   2.030  -5.557  1.00  0.00     0.274 C 
BRANCH   2   3
ATOM      3  O   UNL     1      -8.247   2.413  -4.634  1.00  0.00    -0.461 OA
BRANCH   3   4
ATOM      4  C   UNL     1      -7.179   1.584  -4.566  1.00  0.00     0.328 C 
ATOM      5  O   UNL     1      -7.049   0.643  -5.343  1.00  0.00    -0.250 OA
BRANCH   4   6
ATOM      6  C   UNL     1      -6.154   2.026  -3.480  1.00  0.00     0.193 C 
ATOM      7  N   UNL     1      -5.174   0.950  -3.239  1.00  0.00    -0.343 N 
ATOM      8  C   UNL     1      -4.374   0.518  -4.374  1.00  0.00     0.119 C 
ATOM      9  C   UNL     1      -3.852   1.688  -5.219  1.00  0.00     0.022 C 
ATOM     10  C   UNL     1      -5.418   3.264  -4.001  1.00  0.00     0.037 C 
ATOM     11  C   UNL     1      -4.738   2.933  -5.325  1.00  0.00     0.005 C 
BRANCH   7  12
ATOM     12  C   UNL     1      -4.712   0.606  -1.979  1.00  0.00     0.133 A 
ATOM     13  C   UNL     1      -2.944   0.339  -0.547  1.00  0.00     0.161 A 
ATOM     14  N   UNL     1      -3.627  -0.375   0.354  1.00  0.00    -0.233 NA
ATOM     15  N   UNL     1      -3.423   0.853  -1.697  1.00  0.00    -0.211 NA
ATOM     16  C   UNL     1      -4.915  -0.593   0.082  1.00  0.00     0.043 A 
ATOM     17  C   UNL     1      -5.638  -1.406   1.110  1.00  0.00     0.067 C 
ATOM     18  C   UNL     1      -5.480  -0.161  -1.110  1.00  0.00     0.070 A 
BRANCH  13  19
ATOM     19  C   UNL     1      -1.499   0.297  -0.376  1.00  0.00     0.019 A 
ATOM     20  C   UNL     1       2.774   0.021   0.068  1.00  0.00     0.044 C 
ATOM     21  C   UNL     1       1.287   0.129  -0.057  1.00  0.00    -0.051 A 
ATOM     22  C   UNL     1       0.517  -1.036  -0.085  1.00  0.00     0.004 A 
ATOM     23  C   UNL     1       0.657   1.376  -0.167  1.00  0.00     0.004 A 
ATOM     24  C   UNL     1      -0.862  -0.949  -0.235  1.00  0.00     0.012 A 
ATOM     25  C   UNL     1      -0.726   1.460  -0.332  1.00  0.00     0.012 A 
ENDBRANCH  13  19
ENDBRANCH   7  12
ENDBRANCH   4   6
ENDBRANCH   3   4
ENDBRANCH   2   3
ENDBRANCH   1   2
BRANCH   1  26
ATOM     26  O   UNL     1      -9.548  -0.428  -4.490  1.00  0.00    -0.458 OA
BRANCH  26  27
ATOM     27  C   UNL     1      -9.290  -0.385  -3.155  1.00  0.00     0.338 C 
ATOM     28  O   UNL     1      -8.876  -1.341  -2.541  1.00  0.00    -0.246 OA
BRANCH  27  29
ATOM     29  C   UNL     1      -9.508   0.899  -2.485  1.00  0.00     0.060 A 
ATOM     30  C   UNL     1      -8.679   1.314  -1.431  1.00  0.00     0.016 A 
ATOM     31  C   UNL     1     -10.483   1.732  -2.993  1.00  0.00     0.016 A 
ATOM     32  C   UNL     1      -8.769   2.596  -0.929  1.00  0.00     0.010 A 
ATOM     33  C   UNL     1     -10.399   3.062  -2.708  1.00  0.00     0.010 A 
ATOM     34  C   UNL     1      -9.671   3.426  -1.564  1.00  0.00    -0.014 A 
BRANCH  34  35
ATOM     35  C   UNL     1     -10.402   4.425  -0.818  1.00  0.00     0.031 A 
ATOM     36  C   UNL     1      -9.916   5.790  -0.835  1.00  0.00     0.074 A 
ATOM     37  C   UNL     1     -11.632   3.921  -0.544  1.00  0.00     0.049 A 
ATOM     38  N   UNL     1     -10.209   6.644   0.075  1.00  0.00    -0.248 NA
ATOM     39  C   UNL     1      -8.942   6.294  -1.810  1.00  0.00     0.031 C 
ATOM     40  C   UNL     1     -12.951   4.510  -0.552  1.00  0.00     0.029 A 
ATOM     41  N   UNL     1     -11.888   2.559  -0.311  1.00  0.00    -0.354 N 
ATOM     42  C   UNL     1      -9.914   7.858  -0.496  1.00  0.00     0.074 A 
ATOM     43  C   UNL     1      -8.863   7.578  -1.438  1.00  0.00     0.031 C 
ATOM     44  C   UNL     1     -13.835   3.588  -0.105  1.00  0.00     0.029 A 
ATOM     45  C   UNL     1     -13.089   2.419   0.361  1.00  0.00     0.049 A 
ATOM     46  H   UNL     1     -11.302   1.817  -0.584  1.00  0.00     0.167 HD
ATOM     47  C   UNL     1     -10.845   8.847  -0.393  1.00  0.00     0.034 A 
ATOM     48  C   UNL     1     -13.083   1.868   1.613  1.00  0.00     0.034 A 
ATOM     49  C   UNL     1     -12.006   8.357   0.396  1.00  0.00     0.049 A 
ATOM     50  C   UNL     1     -13.219   3.010   2.620  1.00  0.00     0.074 A 
ATOM     51  C   UNL     1     -13.292   7.992   0.035  1.00  0.00     0.029 A 
ATOM     52  N   UNL     1     -11.811   7.840   1.679  1.00  0.00    -0.354 N 
ATOM     53  N   UNL     1     -13.223   4.278   2.308  1.00  0.00    -0.248 NA
ATOM     54  C   UNL     1     -13.300   2.799   4.059  1.00  0.00     0.031 C 
ATOM     55  C   UNL     1     -13.829   7.175   1.077  1.00  0.00     0.029 A 
ATOM     56  C   UNL     1     -12.884   7.051   2.082  1.00  0.00     0.049 A 
ATOM     57  H   UNL     1     -11.013   8.012   2.229  1.00  0.00     0.167 HD
ATOM     58  C   UNL     1     -13.116   5.039   3.434  1.00  0.00     0.074 A 
ATOM     59  C   UNL     1     -13.257   4.064   4.508  1.00  0.00     0.031 C 
ATOM     60  C   UNL     1     -12.850   6.384   3.391  1.00  0.00     0.034 A 
BRANCH  47  61
ATOM     61  C   UNL     1     -10.900  10.138  -1.203  1.00  0.00     0.023 A 
ATOM     62  C   UNL     1     -11.953  11.022  -0.879  1.00  0.00     0.012 A 
ATOM     63  C   UNL     1     -10.042  10.565  -2.251  1.00  0.00     0.148 A 
ATOM     64  C   UNL     1     -12.154  12.237  -1.545  1.00  0.00     0.002 A 
ATOM     65  C   UNL     1     -10.213  11.802  -2.886  1.00  0.00     0.091 A 
ATOM     66  F   UNL     1      -9.075   9.770  -2.705  1.00  0.00    -0.205 F 
ATOM     67  C   UNL     1     -11.276  12.636  -2.540  1.00  0.00     0.022 A 
BRANCH  65  68
ATOM     68  S   UNL     1      -9.086  12.415  -4.159  1.00  0.00     0.127 S 
ATOM     69  O   UNL     1      -9.949  12.457  -5.339  1.00  0.00    -0.237 OA
ATOM     70  O   UNL     1      -8.708  13.728  -3.635  1.00  0.00    -0.237 OA
ATOM     71  O   UNL     1      -7.989  11.458  -4.237  1.00  0.00    -0.744 OA
ENDBRANCH  65  68
ENDBRANCH  47  61
BRANCH  48  72
ATOM     72  C   UNL     1     -12.064   0.746   1.766  1.00  0.00     0.023 A 
ATOM     73  C   UNL     1     -12.051  -0.306   0.808  1.00  0.00     0.012 A 
ATOM     74  C   UNL     1     -10.896   0.965   2.507  1.00  0.00     0.148 A 
ATOM     75  C   UNL     1     -10.864  -0.977   0.486  1.00  0.00     0.002 A 
ATOM     76  C   UNL     1      -9.704   0.373   2.115  1.00  0.00     0.091 A 
ATOM     77  F   UNL     1     -10.910   1.808   3.544  1.00  0.00    -0.205 F 
ATOM     78  C   UNL     1      -9.678  -0.594   1.104  1.00  0.00     0.022 A 
BRANCH  76  79
ATOM     79  S   UNL     1      -8.177   1.146   2.670  1.00  0.00     0.127 S 
ATOM     80  O   UNL     1      -7.278   0.886   1.551  1.00  0.00    -0.237 OA
ATOM     81  O   UNL     1      -8.527   2.552   2.811  1.00  0.00    -0.237 OA
ATOM     82  O   UNL     1      -7.893   0.408   3.894  1.00  0.00    -0.744 OA
ENDBRANCH  76  79
ENDBRANCH  48  72
BRANCH  60  83
ATOM     83  C   UNL     1     -12.541   7.219   4.619  1.00  0.00     0.023 A 
ATOM     84  C   UNL     1     -12.054   6.660   5.815  1.00  0.00     0.012 A 
ATOM     85  C   UNL     1     -12.635   8.633   4.574  1.00  0.00     0.148 A 
ATOM     86  C   UNL     1     -11.811   7.438   6.949  1.00  0.00     0.002 A 
ATOM     87  C   UNL     1     -12.239   9.413   5.653  1.00  0.00     0.091 A 
ATOM     88  F   UNL     1     -13.142   9.243   3.493  1.00  0.00    -0.205 F 
ATOM     89  C   UNL     1     -11.884   8.820   6.863  1.00  0.00     0.022 A 
BRANCH  87  90
ATOM     90  S   UNL     1     -12.023  11.187   5.477  1.00  0.00     0.127 S 
ATOM     91  O   UNL     1     -13.295  11.699   5.980  1.00  0.00    -0.237 OA
ATOM     92  O   UNL     1     -10.873  11.449   6.345  1.00  0.00    -0.237 OA
ATOM     93  O   UNL     1     -11.758  11.403   4.060  1.00  0.00    -0.744 OA
ENDBRANCH  87  90
ENDBRANCH  60  83
ENDBRANCH  34  35
ENDBRANCH  27  29
ENDBRANCH  26  27
ENDBRANCH   1  26
TORSDOF 16
