REMARK SMILES CC(C)(C)c1cc(Nc2ccccc2C(=O)OCCOC(=O)c2ccc(-c3c4nc(c(-c5cccc(S(=O)(=O)[O-])c5F)c5ccc([nH]5)c(-c5cccc(S(=O)(=O)[O-])c5F)c5nc(c(-c6cccc(S(=O)(=O)[O-])c6F)c6ccc3[nH]6)C=C5)C=C4)cc2)cc2c1OCC2(C)C
REMARK SMILES IDX 18 1 17 2 15 3 16 4 14 5 9 6 10 7 11 8 13 9 12 10 8 11 7 13
REMARK SMILES IDX 5 14 6 15 88 16 87 17 89 18 86 19 91 20 90 21 92 22 93 23
REMARK SMILES IDX 2 24 1 25 3 26 4 27 19 28 20 29 21 30 22 31 23 32 24 33
REMARK SMILES IDX 85 34 25 35 84 36 26 37 27 38 28 39 78 40 29 41 83 42 77 43
REMARK SMILES IDX 79 44 30 45 82 46 76 47 75 48 31 50 63 51 43 52 62 53 44 54
REMARK SMILES IDX 47 55 61 56 80 57 45 58 46 59 60 61 81 62 48 63 32 64 33 65
REMARK SMILES IDX 41 66 34 67 36 68 42 69 35 70 37 71 38 72 39 73 40 74 64 75
REMARK SMILES IDX 65 76 73 77 66 78 68 79 74 80 67 81 69 82 70 83 71 84 72 85
REMARK SMILES IDX 49 86 50 87 58 88 51 89 53 90 59 91 52 92 54 93 55 94 56 95
REMARK SMILES IDX 57 96
REMARK H PARENT 8 12 79 49 47 60
REMARK Flexibility Score: inf
ROOT
ATOM      1  C   UNL     1       0.453   2.186   7.749  1.00  0.00     0.275 C 
ENDROOT
BRANCH   1   2
ATOM      2  O   UNL     1       1.357   1.091   7.507  1.00  0.00    -0.458 OA
BRANCH   2   3
ATOM      3  C   UNL     1       2.344   0.878   8.416  1.00  0.00     0.340 C 
ATOM      4  O   UNL     1       2.552   1.552   9.406  1.00  0.00    -0.246 OA
BRANCH   3   5
ATOM      5  C   UNL     1       3.118  -0.358   8.089  1.00  0.00     0.083 A 
ATOM      6  C   UNL     1       3.259  -0.886   6.789  1.00  0.00     0.053 A 
ATOM      7  C   UNL     1       3.942  -2.110   6.646  1.00  0.00     0.027 A 
ATOM      8  C   UNL     1       4.429  -2.815   7.748  1.00  0.00     0.002 A 
ATOM      9  C   UNL     1       3.687  -1.036   9.185  1.00  0.00     0.018 A 
ATOM     10  C   UNL     1       4.305  -2.275   9.020  1.00  0.00     0.001 A 
BRANCH   6  11
ATOM     11  N   UNL     1       2.680  -0.261   5.660  1.00  0.00    -0.355 N 
ATOM     12  H   UNL     1       2.804   0.714   5.615  1.00  0.00     0.167 HD
BRANCH  11  13
ATOM     13  C   UNL     1       1.953  -0.820   4.591  1.00  0.00     0.039 A 
ATOM     14  C   UNL     1       0.911  -0.497   2.360  1.00  0.00     0.002 A 
ATOM     15  C   UNL     1       1.620  -0.009   3.483  1.00  0.00     0.034 A 
ATOM     16  C   UNL     1       0.615  -1.863   2.385  1.00  0.00     0.127 A 
ATOM     17  C   UNL     1       0.947  -2.674   3.456  1.00  0.00     0.006 A 
ATOM     18  O   UNL     1      -0.029  -2.547   1.388  1.00  0.00    -0.492 OA
ATOM     19  C   UNL     1       1.583  -2.162   4.570  1.00  0.00     0.034 A 
ATOM     20  C   UNL     1       0.552  -4.088   3.212  1.00  0.00     0.028 C 
ATOM     21  C   UNL     1      -0.075  -3.932   1.814  1.00  0.00     0.240 C 
ATOM     22  C   UNL     1       1.784  -5.001   3.187  1.00  0.00     0.020 C 
ATOM     23  C   UNL     1      -0.461  -4.593   4.243  1.00  0.00     0.020 C 
BRANCH  14  24
ATOM     24  C   UNL     1       0.467   0.420   1.210  1.00  0.00    -0.009 C 
ATOM     25  C   UNL     1       1.018  -0.080  -0.142  1.00  0.00     0.016 C 
ATOM     26  C   UNL     1       0.942   1.887   1.363  1.00  0.00     0.016 C 
ATOM     27  C   UNL     1      -1.077   0.459   1.158  1.00  0.00     0.016 C 
ENDBRANCH  14  24
ENDBRANCH  11  13
ENDBRANCH   6  11
ENDBRANCH   3   5
ENDBRANCH   2   3
ENDBRANCH   1   2
BRANCH   1  28
ATOM     28  C   UNL     1      -0.946   1.677   8.107  1.00  0.00     0.275 C 
BRANCH  28  29
ATOM     29  O   UNL     1      -0.955   1.123   9.434  1.00  0.00    -0.458 OA
BRANCH  29  30
ATOM     30  C   UNL     1      -0.886  -0.228   9.499  1.00  0.00     0.338 C 
ATOM     31  O   UNL     1      -0.938  -1.017   8.570  1.00  0.00    -0.246 OA
BRANCH  30  32
ATOM     32  C   UNL     1      -0.535  -0.611  10.876  1.00  0.00     0.060 A 
ATOM     33  C   UNL     1      -1.369  -0.345  11.962  1.00  0.00     0.016 A 
ATOM     34  C   UNL     1       0.677  -1.276  11.061  1.00  0.00     0.016 A 
ATOM     35  C   UNL     1      -0.958  -0.732  13.244  1.00  0.00     0.010 A 
ATOM     36  C   UNL     1       1.092  -1.647  12.337  1.00  0.00     0.010 A 
ATOM     37  C   UNL     1       0.280  -1.377  13.443  1.00  0.00    -0.014 A 
BRANCH  37  38
ATOM     38  C   UNL     1       0.671  -1.870  14.787  1.00  0.00     0.031 A 
ATOM     39  C   UNL     1       1.802  -1.250  15.560  1.00  0.00     0.074 A 
ATOM     40  C   UNL     1       0.030  -2.944  15.287  1.00  0.00     0.049 A 
ATOM     41  N   UNL     1       2.186  -1.502  16.785  1.00  0.00    -0.248 NA
ATOM     42  C   UNL     1       2.621  -0.239  14.872  1.00  0.00     0.031 C 
ATOM     43  C   UNL     1      -0.990  -3.717  14.575  1.00  0.00     0.029 A 
ATOM     44  N   UNL     1       0.142  -3.574  16.500  1.00  0.00    -0.354 N 
ATOM     45  C   UNL     1       3.292  -0.694  17.015  1.00  0.00     0.074 A 
ATOM     46  C   UNL     1       3.541   0.036  15.790  1.00  0.00     0.031 C 
ATOM     47  C   UNL     1      -1.438  -4.694  15.378  1.00  0.00     0.029 A 
ATOM     48  C   UNL     1      -0.738  -4.619  16.658  1.00  0.00     0.049 A 
ATOM     49  H   UNL     1       0.789  -3.304  17.191  1.00  0.00     0.167 HD
ATOM     50  C   UNL     1       4.009  -0.549  18.154  1.00  0.00     0.034 A 
ATOM     51  C   UNL     1      -0.980  -5.409  17.722  1.00  0.00     0.034 A 
ATOM     52  C   UNL     1       3.726  -1.245  19.381  1.00  0.00     0.049 A 
ATOM     53  C   UNL     1      -0.234  -5.169  19.003  1.00  0.00     0.074 A 
ATOM     54  C   UNL     1       4.319  -1.075  20.620  1.00  0.00     0.029 A 
ATOM     55  N   UNL     1       2.777  -2.245  19.525  1.00  0.00    -0.354 N 
ATOM     56  N   UNL     1       0.677  -4.263  19.262  1.00  0.00    -0.248 NA
ATOM     57  C   UNL     1      -0.569  -6.030  20.146  1.00  0.00     0.031 C 
ATOM     58  C   UNL     1       3.736  -1.979  21.512  1.00  0.00     0.029 A 
ATOM     59  C   UNL     1       2.774  -2.706  20.829  1.00  0.00     0.049 A 
ATOM     60  H   UNL     1       2.193  -2.577  18.806  1.00  0.00     0.167 HD
ATOM     61  C   UNL     1       1.013  -4.433  20.599  1.00  0.00     0.074 A 
ATOM     62  C   UNL     1       0.197  -5.518  21.103  1.00  0.00     0.031 C 
ATOM     63  C   UNL     1       1.928  -3.756  21.333  1.00  0.00     0.034 A 
BRANCH  50  64
ATOM     64  C   UNL     1       5.115   0.472  18.181  1.00  0.00     0.023 A 
ATOM     65  C   UNL     1       4.774   1.834  18.298  1.00  0.00     0.012 A 
ATOM     66  C   UNL     1       6.470   0.088  18.233  1.00  0.00     0.148 A 
ATOM     67  C   UNL     1       5.764   2.802  18.457  1.00  0.00     0.002 A 
ATOM     68  C   UNL     1       7.450   1.057  18.421  1.00  0.00     0.091 A 
ATOM     69  F   UNL     1       6.769  -1.214  18.118  1.00  0.00    -0.205 F 
ATOM     70  C   UNL     1       7.099   2.413  18.529  1.00  0.00     0.022 A 
BRANCH  68  71
ATOM     71  S   UNL     1       9.196   0.664  18.587  1.00  0.00     0.127 S 
ATOM     72  O   UNL     1       9.758   1.312  17.402  1.00  0.00    -0.237 OA
ATOM     73  O   UNL     1       9.536   1.311  19.854  1.00  0.00    -0.237 OA
ATOM     74  O   UNL     1       9.285  -0.789  18.597  1.00  0.00    -0.744 OA
ENDBRANCH  68  71
ENDBRANCH  50  64
BRANCH  51  75
ATOM     75  C   UNL     1      -2.069  -6.417  17.634  1.00  0.00     0.023 A 
ATOM     76  C   UNL     1      -3.311  -6.133  18.234  1.00  0.00     0.012 A 
ATOM     77  C   UNL     1      -1.916  -7.596  16.881  1.00  0.00     0.148 A 
ATOM     78  C   UNL     1      -4.385  -7.010  18.087  1.00  0.00     0.002 A 
ATOM     79  C   UNL     1      -3.001  -8.447  16.707  1.00  0.00     0.091 A 
ATOM     80  F   UNL     1      -0.724  -7.838  16.320  1.00  0.00    -0.205 F 
ATOM     81  C   UNL     1      -4.234  -8.160  17.316  1.00  0.00     0.022 A 
BRANCH  79  82
ATOM     82  S   UNL     1      -2.939  -9.895  15.646  1.00  0.00     0.127 S 
ATOM     83  O   UNL     1      -3.139 -10.977  16.607  1.00  0.00    -0.237 OA
ATOM     84  O   UNL     1      -4.067  -9.654  14.746  1.00  0.00    -0.237 OA
ATOM     85  O   UNL     1      -1.633  -9.861  15.004  1.00  0.00    -0.744 OA
ENDBRANCH  79  82
ENDBRANCH  51  75
BRANCH  63  86
ATOM     86  C   UNL     1       2.124  -4.151  22.770  1.00  0.00     0.023 A 
ATOM     87  C   UNL     1       2.922  -5.272  23.070  1.00  0.00     0.012 A 
ATOM     88  C   UNL     1       1.656  -3.328  23.813  1.00  0.00     0.148 A 
ATOM     89  C   UNL     1       3.255  -5.567  24.390  1.00  0.00     0.002 A 
ATOM     90  C   UNL     1       2.019  -3.611  25.124  1.00  0.00     0.091 A 
ATOM     91  F   UNL     1       0.896  -2.270  23.497  1.00  0.00    -0.205 F 
ATOM     92  C   UNL     1       2.816  -4.731  25.415  1.00  0.00     0.022 A 
BRANCH  90  93
ATOM     93  S   UNL     1       1.569  -2.555  26.507  1.00  0.00     0.127 S 
ATOM     94  O   UNL     1       0.736  -3.451  27.308  1.00  0.00    -0.237 OA
ATOM     95  O   UNL     1       2.873  -2.245  27.094  1.00  0.00    -0.237 OA
ATOM     96  O   UNL     1       0.869  -1.413  25.934  1.00  0.00    -0.744 OA
ENDBRANCH  90  93
ENDBRANCH  63  86
ENDBRANCH  37  38
ENDBRANCH  30  32
ENDBRANCH  29  30
ENDBRANCH  28  29
ENDBRANCH   1  28
TORSDOF 17
