REMARK SMILES O=C(OCCOC(=O)[C@H](CO)NC(=O)[C@H]1CC(=O)N(CC(F)(F)F)C1)c1ccc(-c2c3nc(c(-c4cccc(S(=O)(=O)[O-])c4F)c4ccc([nH]4)c(-c4cccc(S(=O)(=O)[O-])c4F)c4nc(c(-c5cccc(S(=O)(=O)[O-])c5F)c5ccc2[nH]5)C=C4)C=C3)cc1
REMARK SMILES IDX 5 1 4 2 3 3 2 4 1 5 26 6 27 7 88 8 28 9 87 10 29 11 30 12
REMARK SMILES IDX 31 13 81 14 32 15 86 16 80 17 82 18 33 19 85 20 79 21 78 22
REMARK SMILES IDX 34 24 66 25 46 26 65 27 47 28 50 29 64 30 83 31 48 32 49 33
REMARK SMILES IDX 63 35 84 36 51 37 35 38 36 39 44 40 37 41 39 42 45 43 38 44
REMARK SMILES IDX 40 45 41 46 42 47 43 48 67 49 68 50 76 51 69 52 71 53 77 54
REMARK SMILES IDX 70 55 72 56 73 57 74 58 75 59 52 60 53 61 61 62 54 63 56 64
REMARK SMILES IDX 62 65 55 66 57 67 58 68 59 69 60 70 6 71 7 72 8 73 9 74
REMARK SMILES IDX 12 75 13 76 14 78 15 79 16 80 25 81 17 82 19 83 18 84 20 85
REMARK SMILES IDX 21 86 22 87 23 88 24 89 10 90 11 91
REMARK H PARENT 82 23 50 34 12 77 11 92
REMARK Flexibility Score: inf
ROOT
ATOM      1  C   UNL     1       5.750   1.655  -1.528  1.00  0.00     0.274 C 
ENDROOT
BRANCH   1   2
ATOM      2  C   UNL     1       5.994   0.170  -1.204  1.00  0.00     0.275 C 
BRANCH   2   3
ATOM      3  O   UNL     1       5.875  -0.659  -2.358  1.00  0.00    -0.458 OA
BRANCH   3   4
ATOM      4  C   UNL     1       4.719  -0.986  -2.975  1.00  0.00     0.338 C 
ATOM      5  O   UNL     1       4.793  -1.397  -4.133  1.00  0.00    -0.246 OA
BRANCH   4   6
ATOM      6  C   UNL     1       3.348  -0.856  -2.358  1.00  0.00     0.060 A 
ATOM      7  C   UNL     1       2.906  -0.014  -1.320  1.00  0.00     0.016 A 
ATOM      8  C   UNL     1       2.369  -1.572  -3.026  1.00  0.00     0.016 A 
ATOM      9  C   UNL     1       1.540   0.277  -1.109  1.00  0.00     0.010 A 
ATOM     10  C   UNL     1       1.025  -1.318  -2.771  1.00  0.00     0.010 A 
ATOM     11  C   UNL     1       0.567  -0.298  -1.909  1.00  0.00    -0.014 A 
BRANCH  11  12
ATOM     12  C   UNL     1      -0.893   0.108  -1.912  1.00  0.00     0.031 A 
ATOM     13  C   UNL     1      -1.928  -0.987  -2.022  1.00  0.00     0.074 A 
ATOM     14  C   UNL     1      -1.332   1.388  -2.054  1.00  0.00     0.049 A 
ATOM     15  N   UNL     1      -3.160  -0.933  -2.451  1.00  0.00    -0.248 NA
ATOM     16  C   UNL     1      -1.458  -2.348  -1.717  1.00  0.00     0.031 C 
ATOM     17  C   UNL     1      -0.517   2.604  -2.044  1.00  0.00     0.029 A 
ATOM     18  N   UNL     1      -2.603   1.873  -2.327  1.00  0.00    -0.354 N 
ATOM     19  C   UNL     1      -3.548  -2.258  -2.589  1.00  0.00     0.074 A 
ATOM     20  C   UNL     1      -2.371  -3.062  -2.350  1.00  0.00     0.031 C 
ATOM     21  C   UNL     1      -1.276   3.665  -2.379  1.00  0.00     0.029 A 
ATOM     22  C   UNL     1      -2.645   3.226  -2.620  1.00  0.00     0.049 A 
ATOM     23  H   UNL     1      -3.406   1.304  -2.313  1.00  0.00     0.167 HD
ATOM     24  C   UNL     1      -4.780  -2.788  -2.778  1.00  0.00     0.034 A 
ATOM     25  C   UNL     1      -3.655   4.026  -3.036  1.00  0.00     0.034 A 
ATOM     26  C   UNL     1      -5.978  -2.003  -2.818  1.00  0.00     0.049 A 
ATOM     27  C   UNL     1      -5.053   3.461  -3.127  1.00  0.00     0.074 A 
ATOM     28  C   UNL     1      -7.291  -2.430  -2.768  1.00  0.00     0.029 A 
ATOM     29  N   UNL     1      -6.003  -0.622  -2.897  1.00  0.00    -0.354 N 
ATOM     30  N   UNL     1      -5.443   2.214  -3.031  1.00  0.00    -0.248 NA
ATOM     31  C   UNL     1      -6.164   4.418  -3.287  1.00  0.00     0.031 C 
ATOM     32  C   UNL     1      -8.115  -1.302  -2.820  1.00  0.00     0.029 A 
ATOM     33  C   UNL     1      -7.310  -0.175  -2.873  1.00  0.00     0.049 A 
ATOM     34  H   UNL     1      -5.209  -0.044  -2.961  1.00  0.00     0.167 HD
ATOM     35  C   UNL     1      -6.835   2.245  -3.030  1.00  0.00     0.074 A 
ATOM     36  C   UNL     1      -7.226   3.631  -3.164  1.00  0.00     0.031 C 
ATOM     37  C   UNL     1      -7.702   1.210  -2.906  1.00  0.00     0.034 A 
BRANCH  24  38
ATOM     38  C   UNL     1      -4.877  -4.293  -2.822  1.00  0.00     0.023 A 
ATOM     39  C   UNL     1      -4.485  -5.053  -1.696  1.00  0.00     0.012 A 
ATOM     40  C   UNL     1      -5.307  -4.960  -3.983  1.00  0.00     0.148 A 
ATOM     41  C   UNL     1      -4.386  -6.439  -1.769  1.00  0.00     0.002 A 
ATOM     42  C   UNL     1      -5.285  -6.349  -4.019  1.00  0.00     0.091 A 
ATOM     43  F   UNL     1      -5.695  -4.232  -5.040  1.00  0.00    -0.205 F 
ATOM     44  C   UNL     1      -4.788  -7.086  -2.931  1.00  0.00     0.022 A 
BRANCH  42  45
ATOM     45  S   UNL     1      -5.918  -7.292  -5.408  1.00  0.00     0.127 S 
ATOM     46  O   UNL     1      -4.687  -7.797  -6.013  1.00  0.00    -0.237 OA
ATOM     47  O   UNL     1      -6.727  -8.313  -4.739  1.00  0.00    -0.237 OA
ATOM     48  O   UNL     1      -6.683  -6.354  -6.217  1.00  0.00    -0.744 OA
ENDBRANCH  42  45
ENDBRANCH  24  38
BRANCH  25  49
ATOM     49  C   UNL     1      -3.437   5.494  -3.255  1.00  0.00     0.023 A 
ATOM     50  C   UNL     1      -3.838   6.395  -2.246  1.00  0.00     0.012 A 
ATOM     51  C   UNL     1      -2.874   6.009  -4.441  1.00  0.00     0.148 A 
ATOM     52  C   UNL     1      -3.718   7.775  -2.422  1.00  0.00     0.002 A 
ATOM     53  C   UNL     1      -2.721   7.387  -4.596  1.00  0.00     0.091 A 
ATOM     54  F   UNL     1      -2.511   5.146  -5.400  1.00  0.00    -0.205 F 
ATOM     55  C   UNL     1      -3.156   8.270  -3.594  1.00  0.00     0.022 A 
BRANCH  53  56
ATOM     56  S   UNL     1      -1.944   8.148  -6.030  1.00  0.00     0.127 S 
ATOM     57  O   UNL     1      -3.020   8.994  -6.544  1.00  0.00    -0.237 OA
ATOM     58  O   UNL     1      -0.836   8.878  -5.413  1.00  0.00    -0.237 OA
ATOM     59  O   UNL     1      -1.546   7.052  -6.901  1.00  0.00    -0.744 OA
ENDBRANCH  53  56
ENDBRANCH  25  49
BRANCH  37  60
ATOM     60  C   UNL     1      -9.173   1.496  -2.774  1.00  0.00     0.023 A 
ATOM     61  C   UNL     1      -9.943   1.835  -3.902  1.00  0.00     0.012 A 
ATOM     62  C   UNL     1      -9.816   1.248  -1.543  1.00  0.00     0.148 A 
ATOM     63  C   UNL     1     -11.332   1.921  -3.805  1.00  0.00     0.002 A 
ATOM     64  C   UNL     1     -11.202   1.285  -1.466  1.00  0.00     0.091 A 
ATOM     65  F   UNL     1      -9.058   0.945  -0.478  1.00  0.00    -0.205 F 
ATOM     66  C   UNL     1     -11.962   1.628  -2.595  1.00  0.00     0.022 A 
BRANCH  64  67
ATOM     67  S   UNL     1     -12.101   0.810   0.016  1.00  0.00     0.127 S 
ATOM     68  O   UNL     1     -12.718   2.076   0.409  1.00  0.00    -0.237 OA
ATOM     69  O   UNL     1     -13.036  -0.190  -0.498  1.00  0.00    -0.237 OA
ATOM     70  O   UNL     1     -11.107   0.292   0.947  1.00  0.00    -0.744 OA
ENDBRANCH  64  67
ENDBRANCH  37  60
ENDBRANCH  11  12
ENDBRANCH   4   6
ENDBRANCH   3   4
ENDBRANCH   2   3
ENDBRANCH   1   2
BRANCH   1  71
ATOM     71  O   UNL     1       4.648   1.864  -2.454  1.00  0.00    -0.460 OA
BRANCH  71  72
ATOM     72  C   UNL     1       4.979   2.160  -3.742  1.00  0.00     0.331 C 
ATOM     73  O   UNL     1       6.131   2.422  -4.087  1.00  0.00    -0.250 OA
BRANCH  72  74
ATOM     74  C   UNL     1       3.780   2.204  -4.739  1.00  0.00     0.218 C 
BRANCH  74  75
ATOM     75  N   UNL     1       2.435   1.884  -4.213  1.00  0.00    -0.341 N 
ATOM     76  C   UNL     1       1.304   1.924  -5.009  1.00  0.00     0.226 C 
ATOM     77  H   UNL     1       2.341   1.636  -3.265  1.00  0.00     0.164 HD
ATOM     78  O   UNL     1       0.543   2.874  -4.867  1.00  0.00    -0.275 OA
BRANCH  76  79
ATOM     79  C   UNL     1       1.002   0.773  -5.950  1.00  0.00     0.107 C 
ATOM     80  C   UNL     1      -0.212  -0.032  -5.479  1.00  0.00     0.115 C 
ATOM     81  C   UNL     1       0.462   1.178  -7.327  1.00  0.00     0.133 C 
ATOM     82  C   UNL     1      -0.567  -0.824  -6.691  1.00  0.00     0.223 C 
ATOM     83  N   UNL     1      -0.209  -0.037  -7.771  1.00  0.00    -0.333 N 
ATOM     84  O   UNL     1      -1.101  -1.918  -6.721  1.00  0.00    -0.275 OA
BRANCH  83  85
ATOM     85  C   UNL     1      -0.919  -0.205  -9.034  1.00  0.00     0.234 C 
BRANCH  85  86
ATOM     86  C   UNL     1      -2.390   0.238  -9.006  1.00  0.00     0.406 C 
ATOM     87  F   UNL     1      -2.486   1.566  -8.774  1.00  0.00    -0.169 F 
ATOM     88  F   UNL     1      -2.970  -0.002 -10.208  1.00  0.00    -0.169 F 
ATOM     89  F   UNL     1      -3.116  -0.402  -8.070  1.00  0.00    -0.169 F 
ENDBRANCH  85  86
ENDBRANCH  83  85
ENDBRANCH  76  79
ENDBRANCH  74  75
BRANCH  74  90
ATOM     90  C   UNL     1       3.796   3.641  -5.317  1.00  0.00     0.193 C 
BRANCH  90  91
ATOM     91  O   UNL     1       4.993   3.935  -6.037  1.00  0.00    -0.394 OA
ATOM     92  H   UNL     1       5.754   3.871  -5.439  1.00  0.00     0.210 HD
ENDBRANCH  90  91
ENDBRANCH  74  90
ENDBRANCH  72  74
ENDBRANCH  71  72
ENDBRANCH   1  71
TORSDOF 20
