REMARK SMILES CN(C)S(=O)(=O)c1c[nH]c(C(=O)OCCOC(=O)c2ccc(-c3c4nc(c(-c5cccc(S(=O)(=O)[O-])c5F)c5ccc([nH]5)c(-c5cccc(S(=O)(=O)[O-])c5F)c5nc(c(-c6cccc(S(=O)(=O)[O-])c6F)c6ccc3[nH]6)C=C5)C=C4)cc2)c1
REMARK SMILES IDX 15 1 14 2 13 3 11 4 12 5 10 6 7 7 8 8 82 9 9 10 4 12 5 13
REMARK SMILES IDX 6 14 2 15 1 16 3 17 16 18 17 19 18 20 19 21 20 22 81 23
REMARK SMILES IDX 21 24 80 25 22 26 23 27 24 28 74 29 25 30 79 31 73 32 75 33
REMARK SMILES IDX 26 34 78 35 72 36 71 37 27 39 59 40 39 41 58 42 40 43 43 44
REMARK SMILES IDX 57 45 76 46 41 47 42 48 56 50 77 51 44 52 28 53 29 54 37 55
REMARK SMILES IDX 30 56 32 57 38 58 31 59 33 60 34 61 35 62 36 63 60 64 61 65
REMARK SMILES IDX 69 66 62 67 64 68 70 69 63 70 65 71 66 72 67 73 68 74 45 75
REMARK SMILES IDX 46 76 54 77 47 78 49 79 55 80 48 81 50 82 51 83 52 84 53 85
REMARK H PARENT 9 11 75 38 43 49
REMARK Flexibility Score: inf
ROOT
ATOM      1  C   UNL     1       1.677  -9.547  -0.221  1.00  0.00     0.275 C 
ENDROOT
BRANCH   1   2
ATOM      2  C   UNL     1       2.240  -9.066  -1.562  1.00  0.00     0.275 C 
BRANCH   2   3
ATOM      3  O   UNL     1       2.089  -7.648  -1.748  1.00  0.00    -0.457 OA
BRANCH   3   4
ATOM      4  C   UNL     1       0.972  -7.287  -2.450  1.00  0.00     0.354 C 
ATOM      5  O   UNL     1       0.240  -8.046  -3.043  1.00  0.00    -0.244 OA
BRANCH   4   6
ATOM      6  C   UNL     1       0.732  -5.861  -2.344  1.00  0.00     0.126 A 
ATOM      7  C   UNL     1       0.726  -3.608  -2.058  1.00  0.00     0.100 A 
ATOM      8  C   UNL     1      -0.527  -3.994  -2.490  1.00  0.00     0.105 A 
ATOM      9  C   UNL     1       1.511  -4.790  -1.936  1.00  0.00     0.057 A 
ATOM     10  N   UNL     1      -0.512  -5.351  -2.656  1.00  0.00    -0.354 N 
ATOM     11  H   UNL     1      -1.280  -5.889  -2.956  1.00  0.00     0.166 HD
BRANCH   7  12
ATOM     12  S   UNL     1       1.245  -1.980  -1.780  1.00  0.00     0.244 S 
ATOM     13  O   UNL     1       0.633  -1.222  -2.854  1.00  0.00    -0.207 OA
ATOM     14  O   UNL     1       2.686  -2.061  -1.656  1.00  0.00    -0.207 OA
BRANCH  12  15
ATOM     15  N   UNL     1       0.615  -1.386  -0.306  1.00  0.00    -0.204 NA
ATOM     16  C   UNL     1       1.143  -0.044   0.029  1.00  0.00     0.124 C 
ATOM     17  C   UNL     1      -0.858  -1.429  -0.185  1.00  0.00     0.124 C 
ENDBRANCH  12  15
ENDBRANCH   7  12
ENDBRANCH   4   6
ENDBRANCH   3   4
ENDBRANCH   2   3
ENDBRANCH   1   2
BRANCH   1  18
ATOM     18  O   UNL     1       0.247  -9.504  -0.106  1.00  0.00    -0.458 OA
BRANCH  18  19
ATOM     19  C   UNL     1      -0.237  -8.342   0.390  1.00  0.00     0.338 C 
ATOM     20  O   UNL     1       0.320  -7.255   0.364  1.00  0.00    -0.246 OA
BRANCH  19  21
ATOM     21  C   UNL     1      -1.498  -8.531   1.119  1.00  0.00     0.060 A 
ATOM     22  C   UNL     1      -2.386  -7.450   1.176  1.00  0.00     0.016 A 
ATOM     23  C   UNL     1      -1.709  -9.676   1.894  1.00  0.00     0.016 A 
ATOM     24  C   UNL     1      -3.487  -7.511   2.020  1.00  0.00     0.010 A 
ATOM     25  C   UNL     1      -2.792  -9.719   2.768  1.00  0.00     0.010 A 
ATOM     26  C   UNL     1      -3.690  -8.644   2.821  1.00  0.00    -0.014 A 
BRANCH  26  27
ATOM     27  C   UNL     1      -4.990  -8.765   3.526  1.00  0.00     0.031 A 
ATOM     28  C   UNL     1      -6.065  -9.369   2.600  1.00  0.00     0.074 A 
ATOM     29  C   UNL     1      -5.077  -8.272   4.802  1.00  0.00     0.049 A 
ATOM     30  N   UNL     1      -7.347  -9.157   2.566  1.00  0.00    -0.248 NA
ATOM     31  C   UNL     1      -5.646 -10.235   1.460  1.00  0.00     0.031 C 
ATOM     32  C   UNL     1      -3.930  -7.760   5.584  1.00  0.00     0.029 A 
ATOM     33  N   UNL     1      -6.115  -8.095   5.704  1.00  0.00    -0.354 N 
ATOM     34  C   UNL     1      -7.887 -10.048   1.604  1.00  0.00     0.074 A 
ATOM     35  C   UNL     1      -6.788 -10.544   0.845  1.00  0.00     0.031 C 
ATOM     36  C   UNL     1      -4.335  -7.269   6.778  1.00  0.00     0.029 A 
ATOM     37  C   UNL     1      -5.771  -7.442   6.919  1.00  0.00     0.049 A 
ATOM     38  H   UNL     1      -7.032  -8.402   5.515  1.00  0.00     0.167 HD
ATOM     39  C   UNL     1      -9.189 -10.459   1.622  1.00  0.00     0.034 A 
ATOM     40  C   UNL     1      -6.575  -7.052   7.963  1.00  0.00     0.034 A 
ATOM     41  C   UNL     1      -9.854  -9.831   2.712  1.00  0.00     0.049 A 
ATOM     42  C   UNL     1      -7.880  -7.669   7.717  1.00  0.00     0.074 A 
ATOM     43  C   UNL     1     -10.296  -8.556   2.928  1.00  0.00     0.029 A 
ATOM     44  N   UNL     1      -9.811 -10.527   3.896  1.00  0.00    -0.354 N 
ATOM     45  N   UNL     1      -8.143  -8.925   7.921  1.00  0.00    -0.248 NA
ATOM     46  C   UNL     1      -8.971  -6.851   7.172  1.00  0.00     0.031 C 
ATOM     47  C   UNL     1     -10.143  -8.391   4.316  1.00  0.00     0.029 A 
ATOM     48  C   UNL     1      -9.789  -9.612   4.909  1.00  0.00     0.049 A 
ATOM     49  H   UNL     1      -9.798 -11.506   3.995  1.00  0.00     0.167 HD
ATOM     50  C   UNL     1      -9.275  -9.090   7.167  1.00  0.00     0.074 A 
ATOM     51  C   UNL     1      -9.907  -7.793   7.092  1.00  0.00     0.031 C 
ATOM     52  C   UNL     1      -9.264 -10.030   6.186  1.00  0.00     0.034 A 
BRANCH  39  53
ATOM     53  C   UNL     1      -9.948 -11.585   0.956  1.00  0.00     0.023 A 
ATOM     54  C   UNL     1     -11.368 -11.523   1.091  1.00  0.00     0.012 A 
ATOM     55  C   UNL     1      -9.403 -12.799   0.509  1.00  0.00     0.148 A 
ATOM     56  C   UNL     1     -12.187 -12.639   0.943  1.00  0.00     0.002 A 
ATOM     57  C   UNL     1     -10.239 -13.901   0.300  1.00  0.00     0.091 A 
ATOM     58  F   UNL     1      -8.081 -12.920   0.368  1.00  0.00    -0.205 F 
ATOM     59  C   UNL     1     -11.616 -13.837   0.561  1.00  0.00     0.022 A 
BRANCH  57  60
ATOM     60  S   UNL     1      -9.627 -15.478  -0.305  1.00  0.00     0.127 S 
ATOM     61  O   UNL     1      -9.652 -16.298   0.903  1.00  0.00    -0.237 OA
ATOM     62  O   UNL     1     -10.642 -15.833  -1.300  1.00  0.00    -0.237 OA
ATOM     63  O   UNL     1      -8.315 -15.197  -0.873  1.00  0.00    -0.744 OA
ENDBRANCH  57  60
ENDBRANCH  39  53
BRANCH  40  64
ATOM     64  C   UNL     1      -6.490  -6.202   9.220  1.00  0.00     0.023 A 
ATOM     65  C   UNL     1      -5.295  -5.792   9.823  1.00  0.00     0.012 A 
ATOM     66  C   UNL     1      -7.688  -5.716   9.843  1.00  0.00     0.148 A 
ATOM     67  C   UNL     1      -5.296  -4.895  10.916  1.00  0.00     0.002 A 
ATOM     68  C   UNL     1      -7.687  -4.741  10.832  1.00  0.00     0.091 A 
ATOM     69  F   UNL     1      -8.873  -6.235   9.514  1.00  0.00    -0.205 F 
ATOM     70  C   UNL     1      -6.484  -4.335  11.392  1.00  0.00     0.022 A 
BRANCH  68  71
ATOM     71  S   UNL     1      -9.203  -3.886  11.322  1.00  0.00     0.127 S 
ATOM     72  O   UNL     1      -9.198  -4.043  12.775  1.00  0.00    -0.237 OA
ATOM     73  O   UNL     1      -8.934  -2.528  10.849  1.00  0.00    -0.237 OA
ATOM     74  O   UNL     1     -10.300  -4.556  10.635  1.00  0.00    -0.744 OA
ENDBRANCH  68  71
ENDBRANCH  40  64
BRANCH  52  75
ATOM     75  C   UNL     1      -8.372 -11.234   6.484  1.00  0.00     0.023 A 
ATOM     76  C   UNL     1      -8.673 -11.973   7.649  1.00  0.00     0.012 A 
ATOM     77  C   UNL     1      -7.199 -11.591   5.777  1.00  0.00     0.148 A 
ATOM     78  C   UNL     1      -7.841 -12.997   8.110  1.00  0.00     0.002 A 
ATOM     79  C   UNL     1      -6.359 -12.610   6.245  1.00  0.00     0.091 A 
ATOM     80  F   UNL     1      -6.901 -10.930   4.658  1.00  0.00    -0.205 F 
ATOM     81  C   UNL     1      -6.684 -13.313   7.412  1.00  0.00     0.022 A 
BRANCH  79  82
ATOM     82  S   UNL     1      -4.798 -13.072   5.465  1.00  0.00     0.127 S 
ATOM     83  O   UNL     1      -3.840 -12.932   6.564  1.00  0.00    -0.237 OA
ATOM     84  O   UNL     1      -5.048 -14.455   5.067  1.00  0.00    -0.237 OA
ATOM     85  O   UNL     1      -4.589 -12.136   4.368  1.00  0.00    -0.744 OA
ENDBRANCH  79  82
ENDBRANCH  52  75
ENDBRANCH  26  27
ENDBRANCH  19  21
ENDBRANCH  18  19
ENDBRANCH   1  18
TORSDOF 16
