REMARK SMILES CCC(CC)COc1cc2c(cc1Cl)C=C(C(=O)OCCOC(=O)c1ccc(-c3c4nc(c(-c5cccc(S(=O)(=O)[O-])c5F)c5ccc([nH]5)c(-c5cccc(S(=O)(=O)[O-])c5F)c5nc(c(-c6cccc(S(=O)(=O)[O-])c6F)c6ccc3[nH]6)C=C5)C=C4)cc1)[C@@H](C(F)(F)F)O2
REMARK SMILES IDX 20 1 19 2 17 3 18 4 16 5 8 6 9 7 13 8 10 9 12 10 14 11 11 12
REMARK SMILES IDX 93 13 15 14 88 15 7 16 6 17 3 18 2 19 1 20 4 21 5 22 89 23
REMARK SMILES IDX 90 24 91 25 92 26 21 27 22 28 23 29 24 30 25 31 26 32 87 33
REMARK SMILES IDX 27 34 86 35 28 36 29 37 30 38 80 39 31 40 85 41 79 42 81 43
REMARK SMILES IDX 32 44 84 45 78 46 77 47 33 49 65 50 45 51 64 52 46 53 49 54
REMARK SMILES IDX 63 55 82 56 47 57 48 58 62 60 83 61 50 62 34 63 35 64 43 65
REMARK SMILES IDX 36 66 38 67 44 68 37 69 39 70 40 71 41 72 42 73 66 74 67 75
REMARK SMILES IDX 75 76 68 77 70 78 76 79 69 80 71 81 72 82 73 83 74 84 51 85
REMARK SMILES IDX 52 86 60 87 53 88 55 89 61 90 54 91 56 92 57 93 58 94 59 95
REMARK H PARENT 81 48 49 59
REMARK Flexibility Score: inf
ROOT
ATOM      1  C   UNL     1      -0.878  -1.295 -10.057  1.00  0.00     0.275 C 
ENDROOT
BRANCH   1   2
ATOM      2  O   UNL     1      -0.781  -2.029  -8.815  1.00  0.00    -0.459 OA
BRANCH   2   3
ATOM      3  C   UNL     1       0.239  -1.630  -8.015  1.00  0.00     0.338 C 
ATOM      4  O   UNL     1       1.018  -0.731  -8.264  1.00  0.00    -0.246 OA
BRANCH   3   5
ATOM      5  C   UNL     1       0.294  -2.395  -6.750  1.00  0.00     0.087 C 
ATOM      6  C   UNL     1       1.249  -3.730  -2.010  1.00  0.00     0.141 A 
ATOM      7  C   UNL     1       0.430  -4.287  -3.007  1.00  0.00     0.095 A 
ATOM      8  C   UNL     1       2.103  -2.667  -2.327  1.00  0.00     0.083 A 
ATOM      9  C   UNL     1       0.389  -3.695  -4.276  1.00  0.00     0.131 A 
ATOM     10  C   UNL     1       1.955  -2.002  -3.536  1.00  0.00     0.036 A 
ATOM     11  Cl  UNL     1       3.381  -2.149  -1.294  1.00  0.00    -0.080 Cl
ATOM     12  C   UNL     1       1.084  -2.506  -4.497  1.00  0.00     0.019 A 
ATOM     13  O   UNL     1      -0.362  -4.287  -5.264  1.00  0.00    -0.475 OA
ATOM     14  C   UNL     1       0.908  -1.779  -5.735  1.00  0.00     0.027 C 
ATOM     15  C   UNL     1      -0.114  -3.838  -6.642  1.00  0.00     0.316 C 
BRANCH   6  16
ATOM     16  O   UNL     1       1.260  -4.272  -0.751  1.00  0.00    -0.492 OA
BRANCH  16  17
ATOM     17  C   UNL     1       0.228  -3.732   0.115  1.00  0.00     0.233 C 
BRANCH  17  18
ATOM     18  C   UNL     1       0.590  -2.356   0.739  1.00  0.00     0.026 C 
BRANCH  18  19
ATOM     19  C   UNL     1      -0.032  -1.197  -0.076  1.00  0.00     0.003 C 
ATOM     20  C   UNL     1       0.573   0.163   0.246  1.00  0.00     0.004 C 
ENDBRANCH  18  19
BRANCH  18  21
ATOM     21  C   UNL     1       0.237  -2.269   2.241  1.00  0.00     0.003 C 
ATOM     22  C   UNL     1      -1.247  -2.262   2.572  1.00  0.00     0.004 C 
ENDBRANCH  18  21
ENDBRANCH  17  18
ENDBRANCH  16  17
ENDBRANCH   6  16
BRANCH  15  23
ATOM     23  C   UNL     1       0.956  -4.711  -7.326  1.00  0.00     0.430 C 
ATOM     24  F   UNL     1       0.653  -6.029  -7.261  1.00  0.00    -0.167 F 
ATOM     25  F   UNL     1       1.067  -4.404  -8.644  1.00  0.00    -0.167 F 
ATOM     26  F   UNL     1       2.184  -4.552  -6.780  1.00  0.00    -0.167 F 
ENDBRANCH  15  23
ENDBRANCH   3   5
ENDBRANCH   2   3
ENDBRANCH   1   2
BRANCH   1  27
ATOM     27  C   UNL     1      -1.959  -0.209 -10.030  1.00  0.00     0.275 C 
BRANCH  27  28
ATOM     28  O   UNL     1      -1.655   0.845  -9.097  1.00  0.00    -0.458 OA
BRANCH  28  29
ATOM     29  C   UNL     1      -2.290   0.755  -7.907  1.00  0.00     0.338 C 
ATOM     30  O   UNL     1      -3.071  -0.119  -7.557  1.00  0.00    -0.246 OA
BRANCH  29  31
ATOM     31  C   UNL     1      -1.803   1.796  -6.990  1.00  0.00     0.060 A 
ATOM     32  C   UNL     1      -2.375   3.062  -6.923  1.00  0.00     0.016 A 
ATOM     33  C   UNL     1      -0.829   1.424  -6.068  1.00  0.00     0.016 A 
ATOM     34  C   UNL     1      -1.929   3.958  -5.940  1.00  0.00     0.010 A 
ATOM     35  C   UNL     1      -0.433   2.289  -5.052  1.00  0.00     0.010 A 
ATOM     36  C   UNL     1      -0.960   3.581  -4.983  1.00  0.00    -0.014 A 
BRANCH  36  37
ATOM     37  C   UNL     1      -0.541   4.519  -3.901  1.00  0.00     0.031 A 
ATOM     38  C   UNL     1       0.900   4.938  -3.725  1.00  0.00     0.074 A 
ATOM     39  C   UNL     1      -1.468   4.985  -3.038  1.00  0.00     0.049 A 
ATOM     40  N   UNL     1       1.393   5.854  -2.929  1.00  0.00    -0.248 NA
ATOM     41  C   UNL     1       1.927   4.224  -4.504  1.00  0.00     0.031 C 
ATOM     42  C   UNL     1      -2.864   4.543  -2.980  1.00  0.00     0.029 A 
ATOM     43  N   UNL     1      -1.388   5.945  -2.058  1.00  0.00    -0.354 N 
ATOM     44  C   UNL     1       2.773   5.807  -3.094  1.00  0.00     0.074 A 
ATOM     45  C   UNL     1       3.051   4.737  -4.023  1.00  0.00     0.031 C 
ATOM     46  C   UNL     1      -3.525   5.286  -2.079  1.00  0.00     0.029 A 
ATOM     47  C   UNL     1      -2.602   6.248  -1.485  1.00  0.00     0.049 A 
ATOM     48  H   UNL     1      -0.543   6.375  -1.792  1.00  0.00     0.167 HD
ATOM     49  C   UNL     1       3.722   6.616  -2.567  1.00  0.00     0.034 A 
ATOM     50  C   UNL     1      -2.948   7.219  -0.615  1.00  0.00     0.034 A 
ATOM     51  C   UNL     1       3.438   7.740  -1.720  1.00  0.00     0.049 A 
ATOM     52  C   UNL     1      -1.905   8.191  -0.143  1.00  0.00     0.074 A 
ATOM     53  C   UNL     1       4.313   8.703  -1.252  1.00  0.00     0.029 A 
ATOM     54  N   UNL     1       2.184   8.057  -1.227  1.00  0.00    -0.354 N 
ATOM     55  N   UNL     1      -0.636   8.250  -0.466  1.00  0.00    -0.248 NA
ATOM     56  C   UNL     1      -2.339   9.247   0.785  1.00  0.00     0.031 C 
ATOM     57  C   UNL     1       3.586   9.606  -0.472  1.00  0.00     0.029 A 
ATOM     58  C   UNL     1       2.260   9.202  -0.458  1.00  0.00     0.049 A 
ATOM     59  H   UNL     1       1.361   7.544  -1.398  1.00  0.00     0.167 HD
ATOM     60  C   UNL     1      -0.122   9.351   0.208  1.00  0.00     0.074 A 
ATOM     61  C   UNL     1      -1.220   9.945   0.943  1.00  0.00     0.031 C 
ATOM     62  C   UNL     1       1.151   9.812   0.228  1.00  0.00     0.034 A 
BRANCH  49  63
ATOM     63  C   UNL     1       5.154   6.403  -2.982  1.00  0.00     0.023 A 
ATOM     64  C   UNL     1       5.557   6.828  -4.265  1.00  0.00     0.012 A 
ATOM     65  C   UNL     1       6.114   5.897  -2.085  1.00  0.00     0.148 A 
ATOM     66  C   UNL     1       6.891   6.734  -4.657  1.00  0.00     0.002 A 
ATOM     67  C   UNL     1       7.449   5.836  -2.473  1.00  0.00     0.091 A 
ATOM     68  F   UNL     1       5.707   5.498  -0.872  1.00  0.00    -0.205 F 
ATOM     69  C   UNL     1       7.836   6.248  -3.759  1.00  0.00     0.022 A 
BRANCH  67  70
ATOM     70  S   UNL     1       8.763   5.284  -1.378  1.00  0.00     0.127 S 
ATOM     71  O   UNL     1       9.233   4.082  -2.066  1.00  0.00    -0.237 OA
ATOM     72  O   UNL     1       9.691   6.414  -1.422  1.00  0.00    -0.237 OA
ATOM     73  O   UNL     1       8.140   5.051  -0.083  1.00  0.00    -0.744 OA
ENDBRANCH  67  70
ENDBRANCH  49  63
BRANCH  50  74
ATOM     74  C   UNL     1      -4.383   7.387  -0.252  1.00  0.00     0.023 A 
ATOM     75  C   UNL     1      -5.124   8.422  -0.855  1.00  0.00     0.012 A 
ATOM     76  C   UNL     1      -5.035   6.481   0.605  1.00  0.00     0.148 A 
ATOM     77  C   UNL     1      -6.490   8.555  -0.608  1.00  0.00     0.002 A 
ATOM     78  C   UNL     1      -6.404   6.595   0.817  1.00  0.00     0.091 A 
ATOM     79  F   UNL     1      -4.307   5.506   1.167  1.00  0.00    -0.205 F 
ATOM     80  C   UNL     1      -7.132   7.636   0.218  1.00  0.00     0.022 A 
BRANCH  78  81
ATOM     81  S   UNL     1      -7.342   5.398   1.774  1.00  0.00     0.127 S 
ATOM     82  O   UNL     1      -7.797   6.209   2.901  1.00  0.00    -0.237 OA
ATOM     83  O   UNL     1      -8.389   5.013   0.828  1.00  0.00    -0.237 OA
ATOM     84  O   UNL     1      -6.404   4.334   2.105  1.00  0.00    -0.744 OA
ENDBRANCH  78  81
ENDBRANCH  50  74
BRANCH  62  85
ATOM     85  C   UNL     1       1.469  11.015   1.068  1.00  0.00     0.023 A 
ATOM     86  C   UNL     1       1.704  10.839   2.444  1.00  0.00     0.012 A 
ATOM     87  C   UNL     1       1.727  12.262   0.466  1.00  0.00     0.148 A 
ATOM     88  C   UNL     1       2.202  11.889   3.213  1.00  0.00     0.002 A 
ATOM     89  C   UNL     1       2.254  13.294   1.232  1.00  0.00     0.091 A 
ATOM     90  F   UNL     1       1.496  12.396  -0.848  1.00  0.00    -0.205 F 
ATOM     91  C   UNL     1       2.491  13.110   2.605  1.00  0.00     0.022 A 
BRANCH  89  92
ATOM     92  S   UNL     1       2.739  14.875   0.530  1.00  0.00     0.127 S 
ATOM     93  O   UNL     1       1.866  15.801   1.250  1.00  0.00    -0.237 OA
ATOM     94  O   UNL     1       4.152  14.954   0.899  1.00  0.00    -0.237 OA
ATOM     95  O   UNL     1       2.484  14.779  -0.901  1.00  0.00    -0.744 OA
ENDBRANCH  89  92
ENDBRANCH  62  85
ENDBRANCH  36  37
ENDBRANCH  29  31
ENDBRANCH  28  29
ENDBRANCH  27  28
ENDBRANCH   1  27
TORSDOF 20
