REMARK SMILES COc1cc([C@@H]2CC(=O)Nc3c(C(=O)OCCOC(=O)c4ccc(-c5c6nc(c(-c7cccc(S(=O)(=O)[O-])c7F)c7ccc([nH]7)c(-c7cccc(S(=O)(=O)[O-])c7F)c7nc(c(-c8cccc(S(=O)(=O)[O-])c8F)c8ccc5[nH]8)C=C7)C=C6)cc4)cn(-c4ccccc4)c32)cc(OC)c1OC
REMARK SMILES IDX 17 1 16 2 15 3 13 4 14 5 12 6 6 7 7 8 92 9 8 10 11 11 85 12
REMARK SMILES IDX 9 13 10 14 84 15 5 17 3 18 4 19 97 20 94 21 93 22 2 23 1 24
REMARK SMILES IDX 98 25 99 26 95 27 96 28 86 29 87 30 91 31 88 32 90 33 89 34
REMARK SMILES IDX 18 35 19 36 20 37 21 38 22 39 83 40 23 41 82 42 24 43 25 44
REMARK SMILES IDX 26 45 76 46 27 47 81 48 75 49 77 50 28 51 80 52 74 53 73 54
REMARK SMILES IDX 29 56 61 57 41 58 60 59 42 60 45 61 59 62 78 63 43 64 44 65
REMARK SMILES IDX 58 67 79 68 46 69 30 70 31 71 39 72 32 73 34 74 40 75 33 76
REMARK SMILES IDX 35 77 36 78 37 79 38 80 62 81 63 82 71 83 64 84 66 85 72 86
REMARK SMILES IDX 65 87 67 88 68 89 69 90 70 91 47 92 48 93 56 94 49 95 51 96
REMARK SMILES IDX 57 97 50 98 52 99 53 100 54 101 55 102
REMARK H PARENT 10 16 77 55 45 66
REMARK Flexibility Score: inf
ROOT
ATOM      1  C   UNL     1      -0.943  12.581  -2.484  1.00  0.00     0.275 C 
ENDROOT
BRANCH   1   2
ATOM      2  C   UNL     1       0.346  11.954  -1.968  1.00  0.00     0.275 C 
BRANCH   2   3
ATOM      3  O   UNL     1       0.260  10.516  -1.906  1.00  0.00    -0.458 OA
BRANCH   3   4
ATOM      4  C   UNL     1      -0.281   9.982  -0.764  1.00  0.00     0.341 C 
ATOM      5  O   UNL     1      -0.494  10.616   0.264  1.00  0.00    -0.246 OA
BRANCH   4   6
ATOM      6  C   UNL     1      -0.632   8.576  -0.920  1.00  0.00     0.102 A 
ATOM      7  C   UNL     1      -0.512   5.201  -2.472  1.00  0.00     0.078 C 
ATOM      8  C   UNL     1      -0.093   5.646  -3.890  1.00  0.00     0.115 C 
ATOM      9  C   UNL     1      -0.743   6.423  -1.633  1.00  0.00     0.055 A 
ATOM     10  C   UNL     1       0.809   6.877  -3.941  1.00  0.00     0.225 C 
ATOM     11  C   UNL     1      -0.217   7.661  -1.912  1.00  0.00     0.078 A 
ATOM     12  N   UNL     1      -1.573   6.554  -0.539  1.00  0.00    -0.317 N 
ATOM     13  O   UNL     1       1.620   7.049  -4.852  1.00  0.00    -0.275 OA
ATOM     14  N   UNL     1       0.599   7.851  -3.000  1.00  0.00    -0.324 N 
ATOM     15  C   UNL     1      -1.538   7.873  -0.131  1.00  0.00     0.109 A 
ATOM     16  H   UNL     1       1.051   8.719  -3.108  1.00  0.00     0.170 HD
BRANCH   7  17
ATOM     17  C   UNL     1       0.516   4.237  -1.890  1.00  0.00    -0.031 A 
ATOM     18  C   UNL     1       1.187   1.967  -1.270  1.00  0.00     0.164 A 
ATOM     19  C   UNL     1       0.234   2.867  -1.782  1.00  0.00     0.055 A 
ATOM     20  C   UNL     1       2.473   2.404  -0.900  1.00  0.00     0.203 A 
ATOM     21  C   UNL     1       2.754   3.782  -1.005  1.00  0.00     0.164 A 
ATOM     22  C   UNL     1       1.778   4.673  -1.479  1.00  0.00     0.055 A 
BRANCH  18  23
ATOM     23  O   UNL     1       0.833   0.640  -1.271  1.00  0.00    -0.493 OA
ATOM     24  C   UNL     1       0.108   0.281  -0.093  1.00  0.00     0.278 C 
ENDBRANCH  18  23
BRANCH  20  25
ATOM     25  O   UNL     1       3.501   1.619  -0.459  1.00  0.00    -0.490 OA
ATOM     26  C   UNL     1       3.317   0.249  -0.165  1.00  0.00     0.278 C 
ENDBRANCH  20  25
BRANCH  21  27
ATOM     27  O   UNL     1       3.913   4.445  -0.678  1.00  0.00    -0.493 OA
ATOM     28  C   UNL     1       5.106   3.699  -0.511  1.00  0.00     0.278 C 
ENDBRANCH  21  27
ENDBRANCH   7  17
BRANCH  12  29
ATOM     29  C   UNL     1      -2.325   5.527   0.069  1.00  0.00     0.045 A 
ATOM     30  C   UNL     1      -1.661   4.409   0.579  1.00  0.00     0.026 A 
ATOM     31  C   UNL     1      -3.719   5.606   0.102  1.00  0.00     0.026 A 
ATOM     32  C   UNL     1      -2.393   3.331   1.069  1.00  0.00     0.002 A 
ATOM     33  C   UNL     1      -4.447   4.514   0.583  1.00  0.00     0.002 A 
ATOM     34  C   UNL     1      -3.786   3.376   1.053  1.00  0.00     0.000 A 
ENDBRANCH  12  29
ENDBRANCH   4   6
ENDBRANCH   3   4
ENDBRANCH   2   3
ENDBRANCH   1   2
BRANCH   1  35
ATOM     35  O   UNL     1      -1.976  12.450  -1.515  1.00  0.00    -0.458 OA
BRANCH  35  36
ATOM     36  C   UNL     1      -2.760  11.360  -1.657  1.00  0.00     0.338 C 
ATOM     37  O   UNL     1      -2.572  10.410  -2.400  1.00  0.00    -0.246 OA
BRANCH  36  38
ATOM     38  C   UNL     1      -4.002  11.568  -0.914  1.00  0.00     0.060 A 
ATOM     39  C   UNL     1      -4.931  10.523  -0.942  1.00  0.00     0.016 A 
ATOM     40  C   UNL     1      -4.348  12.875  -0.546  1.00  0.00     0.016 A 
ATOM     41  C   UNL     1      -6.263  10.841  -0.835  1.00  0.00     0.010 A 
ATOM     42  C   UNL     1      -5.675  13.195  -0.469  1.00  0.00     0.010 A 
ATOM     43  C   UNL     1      -6.607  12.188  -0.708  1.00  0.00    -0.014 A 
BRANCH  43  44
ATOM     44  C   UNL     1      -8.001  12.549  -0.788  1.00  0.00     0.031 A 
ATOM     45  C   UNL     1      -8.730  12.282   0.469  1.00  0.00     0.074 A 
ATOM     46  C   UNL     1      -8.479  13.201  -1.865  1.00  0.00     0.049 A 
ATOM     47  N   UNL     1      -9.673  11.424   0.674  1.00  0.00    -0.248 NA
ATOM     48  C   UNL     1      -8.201  12.899   1.697  1.00  0.00     0.031 C 
ATOM     49  C   UNL     1      -7.718  13.773  -2.982  1.00  0.00     0.029 A 
ATOM     50  N   UNL     1      -9.739  13.648  -2.093  1.00  0.00    -0.354 N 
ATOM     51  C   UNL     1     -10.012  11.579   2.016  1.00  0.00     0.074 A 
ATOM     52  C   UNL     1      -8.926  12.287   2.631  1.00  0.00     0.031 C 
ATOM     53  C   UNL     1      -8.477  14.710  -3.594  1.00  0.00     0.029 A 
ATOM     54  C   UNL     1      -9.797  14.710  -2.988  1.00  0.00     0.049 A 
ATOM     55  H   UNL     1     -10.536  13.257  -1.666  1.00  0.00     0.167 HD
ATOM     56  C   UNL     1     -11.287  11.383   2.448  1.00  0.00     0.034 A 
ATOM     57  C   UNL     1     -10.820  15.593  -3.109  1.00  0.00     0.034 A 
ATOM     58  C   UNL     1     -12.060  10.660   1.472  1.00  0.00     0.049 A 
ATOM     59  C   UNL     1     -12.005  14.990  -2.447  1.00  0.00     0.074 A 
ATOM     60  C   UNL     1     -11.958   9.424   0.867  1.00  0.00     0.029 A 
ATOM     61  N   UNL     1     -12.916  11.402   0.692  1.00  0.00    -0.354 N 
ATOM     62  N   UNL     1     -12.606  13.918  -2.884  1.00  0.00    -0.248 NA
ATOM     63  C   UNL     1     -12.228  15.303  -1.043  1.00  0.00     0.031 C 
ATOM     64  C   UNL     1     -12.384   9.638  -0.475  1.00  0.00     0.029 A 
ATOM     65  C   UNL     1     -12.777  10.973  -0.599  1.00  0.00     0.049 A 
ATOM     66  H   UNL     1     -13.521  12.112   1.007  1.00  0.00     0.167 HD
ATOM     67  C   UNL     1     -12.902  13.192  -1.735  1.00  0.00     0.074 A 
ATOM     68  C   UNL     1     -12.740  14.139  -0.633  1.00  0.00     0.031 C 
ATOM     69  C   UNL     1     -12.947  11.827  -1.754  1.00  0.00     0.034 A 
BRANCH  56  70
ATOM     70  C   UNL     1     -11.958  12.178   3.547  1.00  0.00     0.023 A 
ATOM     71  C   UNL     1     -13.259  11.770   3.917  1.00  0.00     0.012 A 
ATOM     72  C   UNL     1     -11.528  13.440   4.019  1.00  0.00     0.148 A 
ATOM     73  C   UNL     1     -14.114  12.606   4.641  1.00  0.00     0.002 A 
ATOM     74  C   UNL     1     -12.353  14.236   4.804  1.00  0.00     0.091 A 
ATOM     75  F   UNL     1     -10.369  13.960   3.612  1.00  0.00    -0.205 F 
ATOM     76  C   UNL     1     -13.661  13.840   5.086  1.00  0.00     0.022 A 
BRANCH  74  77
ATOM     77  S   UNL     1     -11.798  15.824   5.437  1.00  0.00     0.127 S 
ATOM     78  O   UNL     1     -12.518  16.752   4.570  1.00  0.00    -0.237 OA
ATOM     79  O   UNL     1     -12.268  15.774   6.822  1.00  0.00    -0.237 OA
ATOM     80  O   UNL     1     -10.346  15.815   5.303  1.00  0.00    -0.744 OA
ENDBRANCH  74  77
ENDBRANCH  56  70
BRANCH  57  81
ATOM     81  C   UNL     1     -10.758  17.031  -3.463  1.00  0.00     0.023 A 
ATOM     82  C   UNL     1     -11.903  17.681  -3.964  1.00  0.00     0.012 A 
ATOM     83  C   UNL     1      -9.655  17.829  -3.081  1.00  0.00     0.148 A 
ATOM     84  C   UNL     1     -11.951  19.077  -4.071  1.00  0.00     0.002 A 
ATOM     85  C   UNL     1      -9.701  19.215  -3.203  1.00  0.00     0.091 A 
ATOM     86  F   UNL     1      -8.595  17.237  -2.515  1.00  0.00    -0.205 F 
ATOM     87  C   UNL     1     -10.853  19.844  -3.688  1.00  0.00     0.022 A 
BRANCH  85  88
ATOM     88  S   UNL     1      -8.325  20.267  -2.717  1.00  0.00     0.127 S 
ATOM     89  O   UNL     1      -8.162  21.116  -3.898  1.00  0.00    -0.237 OA
ATOM     90  O   UNL     1      -8.864  20.947  -1.543  1.00  0.00    -0.237 OA
ATOM     91  O   UNL     1      -7.204  19.369  -2.468  1.00  0.00    -0.744 OA
ENDBRANCH  85  88
ENDBRANCH  57  81
BRANCH  69  92
ATOM     92  C   UNL     1     -12.903  11.126  -3.087  1.00  0.00     0.023 A 
ATOM     93  C   UNL     1     -11.760  11.151  -3.913  1.00  0.00     0.012 A 
ATOM     94  C   UNL     1     -13.945  10.235  -3.391  1.00  0.00     0.148 A 
ATOM     95  C   UNL     1     -11.661  10.306  -5.022  1.00  0.00     0.002 A 
ATOM     96  C   UNL     1     -13.820   9.359  -4.461  1.00  0.00     0.091 A 
ATOM     97  F   UNL     1     -15.021  10.224  -2.589  1.00  0.00    -0.205 F 
ATOM     98  C   UNL     1     -12.684   9.397  -5.285  1.00  0.00     0.022 A 
BRANCH  96  99
ATOM     99  S   UNL     1     -15.027   8.065  -4.754  1.00  0.00     0.127 S 
ATOM    100  O   UNL     1     -15.718   8.557  -5.944  1.00  0.00    -0.237 OA
ATOM    101  O   UNL     1     -14.179   6.892  -4.979  1.00  0.00    -0.237 OA
ATOM    102  O   UNL     1     -15.837   7.988  -3.545  1.00  0.00    -0.744 OA
ENDBRANCH  96  99
ENDBRANCH  69  92
ENDBRANCH  43  44
ENDBRANCH  36  38
ENDBRANCH  35  36
ENDBRANCH   1  35
TORSDOF 19
