REMARK SMILES O=C(OCCOC(=O)[C@H]1Cc2[nH]cnc2CN1C(=O)C[C@]12C[C@H]3C[C@H](C[C@H](C3)C1)C2)c1ccc(-c2c3nc(c(-c4cccc(S(=O)(=O)[O-])c4F)c4ccc([nH]4)c(-c4cccc(S(=O)(=O)[O-])c4F)c4nc(c(-c5cccc(S(=O)(=O)[O-])c5F)c5ccc2[nH]5)C=C4)C=C3)cc1
REMARK SMILES IDX 4 1 3 2 2 3 1 4 31 5 32 6 93 7 33 8 92 9 34 10 35 11 36 12
REMARK SMILES IDX 86 13 37 14 91 15 85 16 87 17 38 18 90 19 84 20 83 21 39 23
REMARK SMILES IDX 71 24 51 25 70 26 52 27 55 28 69 29 88 30 53 31 54 32 68 34
REMARK SMILES IDX 89 35 56 36 40 37 41 38 49 39 42 40 44 41 50 42 43 43 45 44
REMARK SMILES IDX 46 45 47 46 48 47 72 48 73 49 81 50 74 51 76 52 82 53 75 54
REMARK SMILES IDX 77 55 78 56 79 57 80 58 57 59 58 60 66 61 59 62 61 63 67 64
REMARK SMILES IDX 60 65 62 66 63 67 64 68 65 69 5 70 6 71 7 72 8 73 9 74 10 75
REMARK SMILES IDX 17 76 11 77 16 78 12 79 15 80 13 81 14 83 18 84 19 85 20 86
REMARK SMILES IDX 21 87 22 88 29 89 30 90 23 91 27 92 25 93 24 94 28 95 26 96
REMARK H PARENT 87 22 55 33 12 82
REMARK Flexibility Score: inf
ROOT
ATOM      1  C   UNL     1       5.632   0.046  -0.873  1.00  0.00     0.275 C 
ENDROOT
BRANCH   1   2
ATOM      2  O   UNL     1       4.486  -0.407  -1.620  1.00  0.00    -0.458 OA
BRANCH   2   3
ATOM      3  C   UNL     1       3.636  -1.427  -1.370  1.00  0.00     0.338 C 
ATOM      4  O   UNL     1       2.937  -1.876  -2.277  1.00  0.00    -0.246 OA
BRANCH   3   5
ATOM      5  C   UNL     1       3.396  -1.933   0.000  1.00  0.00     0.060 A 
ATOM      6  C   UNL     1       4.381  -2.300   0.920  1.00  0.00     0.016 A 
ATOM      7  C   UNL     1       2.046  -2.138   0.322  1.00  0.00     0.016 A 
ATOM      8  C   UNL     1       4.018  -2.930   2.104  1.00  0.00     0.010 A 
ATOM      9  C   UNL     1       1.675  -2.644   1.547  1.00  0.00     0.010 A 
ATOM     10  C   UNL     1       2.668  -3.170   2.359  1.00  0.00    -0.014 A 
BRANCH  10  11
ATOM     11  C   UNL     1       2.287  -4.141   3.371  1.00  0.00     0.031 A 
ATOM     12  C   UNL     1       2.622  -3.789   4.771  1.00  0.00     0.074 A 
ATOM     13  C   UNL     1       1.543  -5.214   3.025  1.00  0.00     0.049 A 
ATOM     14  N   UNL     1       3.599  -4.215   5.507  1.00  0.00    -0.248 NA
ATOM     15  C   UNL     1       1.874  -2.680   5.368  1.00  0.00     0.031 C 
ATOM     16  C   UNL     1       0.904  -5.521   1.735  1.00  0.00     0.029 A 
ATOM     17  N   UNL     1       1.073  -6.201   3.822  1.00  0.00    -0.354 N 
ATOM     18  C   UNL     1       3.413  -3.594   6.745  1.00  0.00     0.074 A 
ATOM     19  C   UNL     1       2.555  -2.468   6.495  1.00  0.00     0.031 C 
ATOM     20  C   UNL     1      -0.083  -6.423   1.927  1.00  0.00     0.029 A 
ATOM     21  C   UNL     1      -0.013  -6.889   3.296  1.00  0.00     0.049 A 
ATOM     22  H   UNL     1       1.467  -6.413   4.699  1.00  0.00     0.167 HD
ATOM     23  C   UNL     1       3.698  -4.221   7.923  1.00  0.00     0.034 A 
ATOM     24  C   UNL     1      -0.833  -7.721   3.980  1.00  0.00     0.034 A 
ATOM     25  C   UNL     1       4.453  -5.429   7.704  1.00  0.00     0.049 A 
ATOM     26  C   UNL     1      -0.090  -8.146   5.194  1.00  0.00     0.074 A 
ATOM     27  C   UNL     1       5.667  -5.739   7.127  1.00  0.00     0.029 A 
ATOM     28  N   UNL     1       3.750  -6.611   7.753  1.00  0.00    -0.354 N 
ATOM     29  N   UNL     1       1.018  -8.837   5.143  1.00  0.00    -0.248 NA
ATOM     30  C   UNL     1      -0.291  -7.377   6.412  1.00  0.00     0.031 C 
ATOM     31  C   UNL     1       5.424  -6.947   6.406  1.00  0.00     0.029 A 
ATOM     32  C   UNL     1       4.107  -7.343   6.651  1.00  0.00     0.049 A 
ATOM     33  H   UNL     1       3.109  -6.880   8.450  1.00  0.00     0.167 HD
ATOM     34  C   UNL     1       1.845  -8.247   6.092  1.00  0.00     0.074 A 
ATOM     35  C   UNL     1       0.951  -7.419   6.907  1.00  0.00     0.031 C 
ATOM     36  C   UNL     1       3.205  -8.231   5.946  1.00  0.00     0.034 A 
BRANCH  23  37
ATOM     37  C   UNL     1       2.986  -3.985   9.243  1.00  0.00     0.023 A 
ATOM     38  C   UNL     1       3.545  -4.587  10.394  1.00  0.00     0.012 A 
ATOM     39  C   UNL     1       1.683  -3.449   9.379  1.00  0.00     0.148 A 
ATOM     40  C   UNL     1       2.827  -4.698  11.592  1.00  0.00     0.002 A 
ATOM     41  C   UNL     1       1.006  -3.491  10.592  1.00  0.00     0.091 A 
ATOM     42  F   UNL     1       1.019  -3.017   8.305  1.00  0.00    -0.205 F 
ATOM     43  C   UNL     1       1.559  -4.144  11.694  1.00  0.00     0.022 A 
BRANCH  41  44
ATOM     44  S   UNL     1      -0.623  -2.755  10.790  1.00  0.00     0.127 S 
ATOM     45  O   UNL     1      -1.473  -3.941  10.827  1.00  0.00    -0.237 OA
ATOM     46  O   UNL     1      -0.480  -2.053  12.066  1.00  0.00    -0.237 OA
ATOM     47  O   UNL     1      -0.791  -1.876   9.641  1.00  0.00    -0.744 OA
ENDBRANCH  41  44
ENDBRANCH  23  37
BRANCH  24  48
ATOM     48  C   UNL     1      -2.299  -7.872   3.825  1.00  0.00     0.023 A 
ATOM     49  C   UNL     1      -2.942  -9.039   4.279  1.00  0.00     0.012 A 
ATOM     50  C   UNL     1      -3.106  -6.767   3.459  1.00  0.00     0.148 A 
ATOM     51  C   UNL     1      -4.338  -9.098   4.381  1.00  0.00     0.002 A 
ATOM     52  C   UNL     1      -4.493  -6.835   3.552  1.00  0.00     0.091 A 
ATOM     53  F   UNL     1      -2.507  -5.622   3.103  1.00  0.00    -0.205 F 
ATOM     54  C   UNL     1      -5.113  -7.997   4.024  1.00  0.00     0.022 A 
BRANCH  52  55
ATOM     55  S   UNL     1      -5.558  -5.451   3.118  1.00  0.00     0.127 S 
ATOM     56  O   UNL     1      -6.549  -6.094   2.253  1.00  0.00    -0.237 OA
ATOM     57  O   UNL     1      -6.065  -5.040   4.424  1.00  0.00    -0.237 OA
ATOM     58  O   UNL     1      -4.702  -4.492   2.435  1.00  0.00    -0.744 OA
ENDBRANCH  52  55
ENDBRANCH  24  48
BRANCH  36  59
ATOM     59  C   UNL     1       3.809  -9.003   4.791  1.00  0.00     0.023 A 
ATOM     60  C   UNL     1       3.600  -8.626   3.446  1.00  0.00     0.012 A 
ATOM     61  C   UNL     1       4.766  -9.991   5.066  1.00  0.00     0.148 A 
ATOM     62  C   UNL     1       4.307  -9.230   2.402  1.00  0.00     0.002 A 
ATOM     63  C   UNL     1       5.499 -10.563   4.031  1.00  0.00     0.091 A 
ATOM     64  F   UNL     1       4.976 -10.325   6.348  1.00  0.00    -0.205 F 
ATOM     65  C   UNL     1       5.266 -10.193   2.696  1.00  0.00     0.022 A 
BRANCH  63  66
ATOM     66  S   UNL     1       6.839 -11.712   4.346  1.00  0.00     0.127 S 
ATOM     67  O   UNL     1       6.276 -12.975   3.874  1.00  0.00    -0.237 OA
ATOM     68  O   UNL     1       7.915 -11.173   3.512  1.00  0.00    -0.237 OA
ATOM     69  O   UNL     1       7.103 -11.641   5.778  1.00  0.00    -0.744 OA
ENDBRANCH  63  66
ENDBRANCH  36  59
ENDBRANCH  10  11
ENDBRANCH   3   5
ENDBRANCH   2   3
ENDBRANCH   1   2
BRANCH   1  70
ATOM     70  C   UNL     1       5.428   1.353  -0.092  1.00  0.00     0.274 C 
BRANCH  70  71
ATOM     71  O   UNL     1       4.815   1.210   1.217  1.00  0.00    -0.461 OA
BRANCH  71  72
ATOM     72  C   UNL     1       3.458   1.149   1.153  1.00  0.00     0.329 C 
ATOM     73  O   UNL     1       2.913   1.077   0.055  1.00  0.00    -0.250 OA
BRANCH  72  74
ATOM     74  C   UNL     1       2.724   1.285   2.500  1.00  0.00     0.201 C 
ATOM     75  C   UNL     1       2.731   2.765   3.066  1.00  0.00     0.093 C 
ATOM     76  N   UNL     1       1.385   0.593   2.741  1.00  0.00    -0.322 N 
ATOM     77  C   UNL     1       1.764   2.886   4.203  1.00  0.00     0.042 A 
ATOM     78  C   UNL     1       1.101   0.456   4.192  1.00  0.00     0.178 C 
ATOM     79  N   UNL     1       1.311   3.995   4.862  1.00  0.00    -0.348 N 
ATOM     80  C   UNL     1       1.031   1.843   4.728  1.00  0.00     0.081 A 
ATOM     81  C   UNL     1       0.388   3.569   5.782  1.00  0.00     0.197 A 
ATOM     82  H   UNL     1       1.594   4.925   4.704  1.00  0.00     0.167 HD
ATOM     83  N   UNL     1       0.212   2.270   5.730  1.00  0.00    -0.240 NA
BRANCH  76  84
ATOM     84  C   UNL     1       0.227   0.529   1.959  1.00  0.00     0.224 C 
ATOM     85  O   UNL     1      -0.879   0.326   2.476  1.00  0.00    -0.275 OA
BRANCH  84  86
ATOM     86  C   UNL     1       0.231   0.585   0.443  1.00  0.00     0.107 C 
BRANCH  86  87
ATOM     87  C   UNL     1       0.017   1.941  -0.244  1.00  0.00    -0.020 C 
ATOM     88  C   UNL     1      -1.478   2.333  -0.238  1.00  0.00     0.011 C 
ATOM     89  C   UNL     1       0.461   1.834  -1.732  1.00  0.00     0.011 C 
ATOM     90  C   UNL     1       0.789   3.079   0.442  1.00  0.00     0.011 C 
ATOM     91  C   UNL     1      -1.674   3.691  -0.943  1.00  0.00    -0.010 C 
ATOM     92  C   UNL     1       0.293   3.185  -2.442  1.00  0.00    -0.010 C 
ATOM     93  C   UNL     1       0.630   4.411  -0.272  1.00  0.00    -0.010 C 
ATOM     94  C   UNL     1      -0.852   4.775  -0.226  1.00  0.00     0.007 C 
ATOM     95  C   UNL     1      -1.188   3.588  -2.400  1.00  0.00     0.007 C 
ATOM     96  C   UNL     1       1.130   4.248  -1.715  1.00  0.00     0.007 C 
ENDBRANCH  86  87
ENDBRANCH  84  86
ENDBRANCH  76  84
ENDBRANCH  72  74
ENDBRANCH  71  72
ENDBRANCH  70  71
ENDBRANCH   1  70
TORSDOF 17
