REMARK SMILES O=C(C[C@@H]1C(=O)NC(=S)N1c1ccccc1)OCCOC(=O)c1ccc(-c2c3nc(c(-c4cccc(S(=O)(=O)[O-])c4F)c4ccc([nH]4)c(-c4cccc(S(=O)(=O)[O-])c4F)c4nc(c(-c5cccc(S(=O)(=O)[O-])c5F)c5ccc2[nH]5)C=C4)C=C3)cc1
REMARK SMILES IDX 19 1 18 2 17 3 2 4 1 5 3 6 4 7 5 8 10 9 6 10 7 11 8 12 9 14
REMARK SMILES IDX 11 15 12 16 16 17 13 18 15 19 14 20 20 21 21 22 22 23 23 24
REMARK SMILES IDX 24 25 85 26 25 27 84 28 26 29 27 30 28 31 78 32 29 33 83 34
REMARK SMILES IDX 77 35 79 36 30 37 82 38 76 39 75 40 31 42 63 43 43 44 62 45
REMARK SMILES IDX 44 46 47 47 61 48 80 49 45 50 46 51 60 53 81 54 48 55 32 56
REMARK SMILES IDX 33 57 41 58 34 59 36 60 42 61 35 62 37 63 38 64 39 65 40 66
REMARK SMILES IDX 64 67 65 68 73 69 66 70 68 71 74 72 67 73 69 74 70 75 71 76
REMARK SMILES IDX 72 77 49 78 50 79 58 80 51 81 53 82 59 83 52 84 54 85 55 86
REMARK SMILES IDX 56 87 57 88
REMARK H PARENT 7 13 79 41 47 52
REMARK Flexibility Score: inf
ROOT
ATOM      1  C   UNL     1       4.608   1.574  -1.773  1.00  0.00     0.275 C 
ENDROOT
BRANCH   1   2
ATOM      2  C   UNL     1       4.753   0.132  -1.287  1.00  0.00     0.274 C 
BRANCH   2   3
ATOM      3  O   UNL     1       3.480  -0.522  -1.117  1.00  0.00    -0.462 OA
BRANCH   3   4
ATOM      4  C   UNL     1       2.664  -0.378  -0.054  1.00  0.00     0.308 C 
ATOM      5  O   UNL     1       1.457  -0.572  -0.188  1.00  0.00    -0.252 OA
BRANCH   4   6
ATOM      6  C   UNL     1       3.232   0.031   1.282  1.00  0.00     0.158 C 
BRANCH   6   7
ATOM      7  C   UNL     1       3.897  -1.041   2.140  1.00  0.00     0.190 C 
ATOM      8  C   UNL     1       5.408  -0.907   1.978  1.00  0.00     0.249 C 
ATOM      9  N   UNL     1       3.716  -2.456   1.821  1.00  0.00    -0.306 N 
ATOM     10  O   UNL     1       6.075   0.102   2.154  1.00  0.00    -0.272 OA
ATOM     11  N   UNL     1       5.901  -2.068   1.484  1.00  0.00    -0.301 N 
ATOM     12  C   UNL     1       4.922  -3.002   1.339  1.00  0.00     0.180 C 
ATOM     13  H   UNL     1       6.848  -2.217   1.259  1.00  0.00     0.172 HD
ATOM     14  S   UNL     1       5.271  -4.461   0.623  1.00  0.00    -0.040 S 
BRANCH   9  15
ATOM     15  C   UNL     1       2.542  -3.163   2.221  1.00  0.00     0.044 A 
ATOM     16  C   UNL     1       2.603  -4.496   2.650  1.00  0.00     0.026 A 
ATOM     17  C   UNL     1       1.288  -2.541   2.258  1.00  0.00     0.026 A 
ATOM     18  C   UNL     1       1.452  -5.200   3.022  1.00  0.00     0.002 A 
ATOM     19  C   UNL     1       0.129  -3.249   2.596  1.00  0.00     0.002 A 
ATOM     20  C   UNL     1       0.209  -4.583   2.971  1.00  0.00     0.000 A 
ENDBRANCH   9  15
ENDBRANCH   6   7
ENDBRANCH   4   6
ENDBRANCH   3   4
ENDBRANCH   2   3
ENDBRANCH   1   2
BRANCH   1  21
ATOM     21  O   UNL     1       4.101   2.398  -0.708  1.00  0.00    -0.458 OA
BRANCH  21  22
ATOM     22  C   UNL     1       2.815   2.809  -0.832  1.00  0.00     0.338 C 
ATOM     23  O   UNL     1       2.099   2.662  -1.808  1.00  0.00    -0.246 OA
BRANCH  22  24
ATOM     24  C   UNL     1       2.333   3.318   0.474  1.00  0.00     0.060 A 
ATOM     25  C   UNL     1       1.013   3.029   0.840  1.00  0.00     0.016 A 
ATOM     26  C   UNL     1       3.154   4.052   1.340  1.00  0.00     0.016 A 
ATOM     27  C   UNL     1       0.496   3.517   2.041  1.00  0.00     0.010 A 
ATOM     28  C   UNL     1       2.632   4.540   2.545  1.00  0.00     0.010 A 
ATOM     29  C   UNL     1       1.289   4.308   2.884  1.00  0.00    -0.014 A 
BRANCH  29  30
ATOM     30  C   UNL     1       0.656   5.008   4.029  1.00  0.00     0.031 A 
ATOM     31  C   UNL     1       0.218   6.438   3.858  1.00  0.00     0.074 A 
ATOM     32  C   UNL     1       0.438   4.380   5.200  1.00  0.00     0.049 A 
ATOM     33  N   UNL     1      -0.459   7.200   4.677  1.00  0.00    -0.248 NA
ATOM     34  C   UNL     1       0.594   7.096   2.596  1.00  0.00     0.031 C 
ATOM     35  C   UNL     1       0.847   3.014   5.519  1.00  0.00     0.029 A 
ATOM     36  N   UNL     1      -0.174   4.825   6.346  1.00  0.00    -0.354 N 
ATOM     37  C   UNL     1      -0.603   8.419   4.028  1.00  0.00     0.074 A 
ATOM     38  C   UNL     1       0.097   8.312   2.766  1.00  0.00     0.031 C 
ATOM     39  C   UNL     1       0.495   2.740   6.788  1.00  0.00     0.029 A 
ATOM     40  C   UNL     1      -0.172   3.905   7.367  1.00  0.00     0.049 A 
ATOM     41  H   UNL     1      -0.577   5.720   6.428  1.00  0.00     0.167 HD
ATOM     42  C   UNL     1      -1.286   9.520   4.424  1.00  0.00     0.034 A 
ATOM     43  C   UNL     1      -0.659   3.992   8.622  1.00  0.00     0.034 A 
ATOM     44  C   UNL     1      -1.981   9.638   5.677  1.00  0.00     0.049 A 
ATOM     45  C   UNL     1      -1.411   5.230   9.044  1.00  0.00     0.074 A 
ATOM     46  C   UNL     1      -2.726  10.704   6.151  1.00  0.00     0.029 A 
ATOM     47  N   UNL     1      -2.007   8.664   6.661  1.00  0.00    -0.354 N 
ATOM     48  N   UNL     1      -1.684   6.310   8.352  1.00  0.00    -0.248 NA
ATOM     49  C   UNL     1      -1.966   5.240  10.407  1.00  0.00     0.031 C 
ATOM     50  C   UNL     1      -3.192  10.378   7.430  1.00  0.00     0.029 A 
ATOM     51  C   UNL     1      -2.750   9.103   7.744  1.00  0.00     0.049 A 
ATOM     52  H   UNL     1      -1.563   7.787   6.600  1.00  0.00     0.167 HD
ATOM     53  C   UNL     1      -2.468   7.108   9.180  1.00  0.00     0.074 A 
ATOM     54  C   UNL     1      -2.651   6.375  10.415  1.00  0.00     0.031 C 
ATOM     55  C   UNL     1      -2.974   8.345   8.948  1.00  0.00     0.034 A 
BRANCH  42  56
ATOM     56  C   UNL     1      -1.365  10.667   3.454  1.00  0.00     0.023 A 
ATOM     57  C   UNL     1      -2.203  10.550   2.325  1.00  0.00     0.012 A 
ATOM     58  C   UNL     1      -0.663  11.866   3.674  1.00  0.00     0.148 A 
ATOM     59  C   UNL     1      -2.320  11.599   1.415  1.00  0.00     0.002 A 
ATOM     60  C   UNL     1      -0.813  12.922   2.782  1.00  0.00     0.091 A 
ATOM     61  F   UNL     1       0.147  11.947   4.739  1.00  0.00    -0.205 F 
ATOM     62  C   UNL     1      -1.633  12.787   1.649  1.00  0.00     0.022 A 
BRANCH  60  63
ATOM     63  S   UNL     1      -0.024  14.517   3.027  1.00  0.00     0.127 S 
ATOM     64  O   UNL     1       0.994  14.506   1.977  1.00  0.00    -0.237 OA
ATOM     65  O   UNL     1      -1.129  15.447   2.795  1.00  0.00    -0.237 OA
ATOM     66  O   UNL     1       0.485  14.507   4.391  1.00  0.00    -0.744 OA
ENDBRANCH  60  63
ENDBRANCH  42  56
BRANCH  43  67
ATOM     67  C   UNL     1      -0.507   2.845   9.562  1.00  0.00     0.023 A 
ATOM     68  C   UNL     1      -1.639   2.100   9.945  1.00  0.00     0.012 A 
ATOM     69  C   UNL     1       0.754   2.494  10.082  1.00  0.00     0.148 A 
ATOM     70  C   UNL     1      -1.524   1.050  10.857  1.00  0.00     0.002 A 
ATOM     71  C   UNL     1       0.869   1.413  10.948  1.00  0.00     0.091 A 
ATOM     72  F   UNL     1       1.817   3.228   9.723  1.00  0.00    -0.205 F 
ATOM     73  C   UNL     1      -0.270   0.701  11.352  1.00  0.00     0.022 A 
BRANCH  71  74
ATOM     74  S   UNL     1       2.462   0.820  11.529  1.00  0.00     0.127 S 
ATOM     75  O   UNL     1       2.478   1.303  12.907  1.00  0.00    -0.237 OA
ATOM     76  O   UNL     1       2.320  -0.629  11.384  1.00  0.00    -0.237 OA
ATOM     77  O   UNL     1       3.446   1.414  10.633  1.00  0.00    -0.744 OA
ENDBRANCH  71  74
ENDBRANCH  43  67
BRANCH  55  78
ATOM     78  C   UNL     1      -3.794   8.985  10.041  1.00  0.00     0.023 A 
ATOM     79  C   UNL     1      -3.156   9.449  11.209  1.00  0.00     0.012 A 
ATOM     80  C   UNL     1      -5.181   9.181   9.889  1.00  0.00     0.148 A 
ATOM     81  C   UNL     1      -3.890  10.063  12.223  1.00  0.00     0.002 A 
ATOM     82  C   UNL     1      -5.899   9.836  10.885  1.00  0.00     0.091 A 
ATOM     83  F   UNL     1      -5.778   8.717   8.782  1.00  0.00    -0.205 F 
ATOM     84  C   UNL     1      -5.258  10.266  12.057  1.00  0.00     0.022 A 
BRANCH  82  85
ATOM     85  S   UNL     1      -7.646  10.218  10.708  1.00  0.00     0.127 S 
ATOM     86  O   UNL     1      -8.266   9.164  11.508  1.00  0.00    -0.237 OA
ATOM     87  O   UNL     1      -7.737  11.558  11.290  1.00  0.00    -0.237 OA
ATOM     88  O   UNL     1      -7.917  10.168   9.277  1.00  0.00    -0.744 OA
ENDBRANCH  82  85
ENDBRANCH  55  78
ENDBRANCH  29  30
ENDBRANCH  22  24
ENDBRANCH  21  22
ENDBRANCH   1  21
TORSDOF 16
