REMARK SMILES COc1ccc(-c2nc3cc(N4C[C@@H](C(=O)OCCOC(=O)c5ccc(-c6c7nc(c(-c8cccc(S(=O)(=O)[O-])c8F)c8ccc([nH]8)c(-c8cccc(S(=O)(=O)[O-])c8F)c8nc(c(-c9cccc(S(=O)(=O)[O-])c9F)c9ccc6[nH]9)C=C8)C=C7)cc5)CC4=O)ccc3o2)cc1
REMARK SMILES IDX 18 1 17 2 15 3 16 4 14 5 12 6 13 7 87 8 86 9 88 10 11 11
REMARK SMILES IDX 7 12 8 13 92 14 9 15 91 16 10 17 90 18 89 19 6 20 3 21 4 22
REMARK SMILES IDX 94 23 5 24 93 25 2 26 1 27 19 28 20 29 21 30 22 31 23 32
REMARK SMILES IDX 24 33 85 34 25 35 84 36 26 37 27 38 28 39 78 40 29 41 83 42
REMARK SMILES IDX 77 43 79 44 30 45 82 46 76 47 75 48 31 50 63 51 43 52 62 53
REMARK SMILES IDX 44 54 47 55 61 56 80 57 45 58 46 59 60 61 81 62 48 63 32 64
REMARK SMILES IDX 33 65 41 66 34 67 36 68 42 69 35 70 37 71 38 72 39 73 40 74
REMARK SMILES IDX 64 75 65 76 73 77 66 78 68 79 74 80 67 81 69 82 70 83 71 84
REMARK SMILES IDX 72 85 49 86 50 87 58 88 51 89 53 90 59 91 52 92 54 93 55 94
REMARK SMILES IDX 56 95 57 96
REMARK H PARENT 79 49 47 60
REMARK Flexibility Score: inf
ROOT
ATOM      1  C   UNL     1       9.867 -13.624   2.345  1.00  0.00     0.274 C 
ENDROOT
BRANCH   1   2
ATOM      2  O   UNL     1       9.041 -13.076   1.300  1.00  0.00    -0.462 OA
BRANCH   2   3
ATOM      3  C   UNL     1       8.610 -11.810   1.500  1.00  0.00     0.311 C 
ATOM      4  O   UNL     1       8.761 -11.174   2.537  1.00  0.00    -0.252 OA
BRANCH   3   5
ATOM      5  C   UNL     1       7.908 -11.219   0.313  1.00  0.00     0.128 C 
ATOM      6  N   UNL     1       5.806 -10.753  -0.524  1.00  0.00    -0.311 N 
ATOM      7  C   UNL     1       6.495 -10.910   0.730  1.00  0.00     0.141 C 
ATOM      8  C   UNL     1       6.433 -11.498  -1.529  1.00  0.00     0.227 C 
ATOM      9  C   UNL     1       7.727 -12.045  -0.952  1.00  0.00     0.117 C 
ATOM     10  O   UNL     1       6.068 -11.677  -2.680  1.00  0.00    -0.274 OA
BRANCH   6  11
ATOM     11  C   UNL     1       4.670  -9.930  -0.667  1.00  0.00     0.046 A 
ATOM     12  C   UNL     1       2.125  -6.320  -0.069  1.00  0.00     0.227 A 
ATOM     13  N   UNL     1       3.246  -6.703   0.506  1.00  0.00    -0.209 NA
ATOM     14  O   UNL     1       1.581  -7.227  -0.948  1.00  0.00    -0.436 OA
ATOM     15  C   UNL     1       3.495  -7.915  -0.059  1.00  0.00     0.112 A 
ATOM     16  C   UNL     1       2.502  -8.243  -0.963  1.00  0.00     0.155 A 
ATOM     17  C   UNL     1       4.578  -8.772   0.121  1.00  0.00     0.058 A 
ATOM     18  C   UNL     1       2.522  -9.389  -1.747  1.00  0.00     0.051 A 
ATOM     19  C   UNL     1       3.656 -10.214  -1.599  1.00  0.00     0.030 A 
BRANCH  12  20
ATOM     20  C   UNL     1       1.517  -5.006   0.015  1.00  0.00     0.037 A 
ATOM     21  C   UNL     1       0.487  -2.406   0.291  1.00  0.00     0.118 A 
ATOM     22  C   UNL     1      -0.352  -3.522   0.395  1.00  0.00     0.047 A 
ATOM     23  C   UNL     1       1.847  -2.594   0.056  1.00  0.00     0.047 A 
ATOM     24  C   UNL     1       0.154  -4.818   0.244  1.00  0.00     0.017 A 
ATOM     25  C   UNL     1       2.357  -3.886  -0.072  1.00  0.00     0.017 A 
BRANCH  21  26
ATOM     26  O   UNL     1      -0.127  -1.195   0.459  1.00  0.00    -0.497 OA
ATOM     27  C   UNL     1       0.629  -0.052   0.069  1.00  0.00     0.278 C 
ENDBRANCH  21  26
ENDBRANCH  12  20
ENDBRANCH   6  11
ENDBRANCH   3   5
ENDBRANCH   2   3
ENDBRANCH   1   2
BRANCH   1  28
ATOM     28  C   UNL     1      11.351 -13.545   1.972  1.00  0.00     0.275 C 
BRANCH  28  29
ATOM     29  O   UNL     1      11.853 -12.194   1.978  1.00  0.00    -0.458 OA
BRANCH  29  30
ATOM     30  C   UNL     1      11.699 -11.516   0.816  1.00  0.00     0.338 C 
ATOM     31  O   UNL     1      11.176 -11.923  -0.208  1.00  0.00    -0.246 OA
BRANCH  30  32
ATOM     32  C   UNL     1      12.138 -10.120   0.977  1.00  0.00     0.060 A 
ATOM     33  C   UNL     1      11.193  -9.112   0.776  1.00  0.00     0.016 A 
ATOM     34  C   UNL     1      13.475  -9.799   1.214  1.00  0.00     0.016 A 
ATOM     35  C   UNL     1      11.579  -7.777   0.777  1.00  0.00     0.010 A 
ATOM     36  C   UNL     1      13.859  -8.453   1.234  1.00  0.00     0.010 A 
ATOM     37  C   UNL     1      12.917  -7.436   0.997  1.00  0.00    -0.014 A 
BRANCH  37  38
ATOM     38  C   UNL     1      13.322  -6.011   0.947  1.00  0.00     0.031 A 
ATOM     39  C   UNL     1      14.143  -5.501  -0.203  1.00  0.00     0.074 A 
ATOM     40  C   UNL     1      12.937  -5.177   1.931  1.00  0.00     0.049 A 
ATOM     41  N   UNL     1      14.641  -4.308  -0.393  1.00  0.00    -0.248 NA
ATOM     42  C   UNL     1      14.445  -6.458  -1.279  1.00  0.00     0.031 C 
ATOM     43  C   UNL     1      12.125  -5.558   3.089  1.00  0.00     0.029 A 
ATOM     44  N   UNL     1      13.187  -3.842   2.123  1.00  0.00    -0.354 N 
ATOM     45  C   UNL     1      15.351  -4.378  -1.585  1.00  0.00     0.074 A 
ATOM     46  C   UNL     1      15.218  -5.733  -2.077  1.00  0.00     0.031 C 
ATOM     47  C   UNL     1      11.954  -4.484   3.876  1.00  0.00     0.029 A 
ATOM     48  C   UNL     1      12.675  -3.352   3.300  1.00  0.00     0.049 A 
ATOM     49  H   UNL     1      13.685  -3.289   1.479  1.00  0.00     0.167 HD
ATOM     50  C   UNL     1      16.038  -3.398  -2.219  1.00  0.00     0.034 A 
ATOM     51  C   UNL     1      12.794  -2.135   3.865  1.00  0.00     0.034 A 
ATOM     52  C   UNL     1      16.128  -2.042  -1.749  1.00  0.00     0.049 A 
ATOM     53  C   UNL     1      13.570  -1.068   3.142  1.00  0.00     0.074 A 
ATOM     54  C   UNL     1      16.767  -0.967  -2.341  1.00  0.00     0.029 A 
ATOM     55  N   UNL     1      15.562  -1.572  -0.574  1.00  0.00    -0.354 N 
ATOM     56  N   UNL     1      14.158  -1.127   1.972  1.00  0.00    -0.248 NA
ATOM     57  C   UNL     1      13.679   0.239   3.804  1.00  0.00     0.031 C 
ATOM     58  C   UNL     1      16.596   0.151  -1.518  1.00  0.00     0.029 A 
ATOM     59  C   UNL     1      15.841  -0.225  -0.418  1.00  0.00     0.049 A 
ATOM     60  H   UNL     1      15.038  -2.116   0.058  1.00  0.00     0.167 HD
ATOM     61  C   UNL     1      14.688   0.138   1.747  1.00  0.00     0.074 A 
ATOM     62  C   UNL     1      14.325   0.951   2.890  1.00  0.00     0.031 C 
ATOM     63  C   UNL     1      15.426   0.582   0.700  1.00  0.00     0.034 A 
BRANCH  50  64
ATOM     64  C   UNL     1      16.723  -3.748  -3.512  1.00  0.00     0.023 A 
ATOM     65  C   UNL     1      15.957  -3.892  -4.686  1.00  0.00     0.012 A 
ATOM     66  C   UNL     1      18.124  -3.876  -3.578  1.00  0.00     0.148 A 
ATOM     67  C   UNL     1      16.574  -4.180  -5.903  1.00  0.00     0.002 A 
ATOM     68  C   UNL     1      18.735  -4.128  -4.801  1.00  0.00     0.091 A 
ATOM     69  F   UNL     1      18.831  -3.761  -2.445  1.00  0.00    -0.205 F 
ATOM     70  C   UNL     1      17.961  -4.287  -5.963  1.00  0.00     0.022 A 
BRANCH  68  71
ATOM     71  S   UNL     1      20.519  -4.218  -4.988  1.00  0.00     0.127 S 
ATOM     72  O   UNL     1      20.725  -5.655  -5.162  1.00  0.00    -0.237 OA
ATOM     73  O   UNL     1      20.746  -3.420  -6.194  1.00  0.00    -0.237 OA
ATOM     74  O   UNL     1      21.078  -3.646  -3.771  1.00  0.00    -0.744 OA
ENDBRANCH  68  71
ENDBRANCH  50  64
BRANCH  51  75
ATOM     75  C   UNL     1      12.136  -1.856   5.172  1.00  0.00     0.023 A 
ATOM     76  C   UNL     1      11.035  -0.980   5.220  1.00  0.00     0.012 A 
ATOM     77  C   UNL     1      12.570  -2.479   6.359  1.00  0.00     0.148 A 
ATOM     78  C   UNL     1      10.392  -0.713   6.430  1.00  0.00     0.002 A 
ATOM     79  C   UNL     1      11.890  -2.253   7.550  1.00  0.00     0.091 A 
ATOM     80  F   UNL     1      13.636  -3.290   6.299  1.00  0.00    -0.205 F 
ATOM     81  C   UNL     1      10.810  -1.359   7.591  1.00  0.00     0.022 A 
BRANCH  79  82
ATOM     82  S   UNL     1      12.284  -3.152   9.054  1.00  0.00     0.127 S 
ATOM     83  O   UNL     1      13.050  -2.161   9.804  1.00  0.00    -0.237 OA
ATOM     84  O   UNL     1      10.956  -3.443   9.597  1.00  0.00    -0.237 OA
ATOM     85  O   UNL     1      13.019  -4.331   8.616  1.00  0.00    -0.744 OA
ENDBRANCH  79  82
ENDBRANCH  51  75
BRANCH  63  86
ATOM     86  C   UNL     1      15.880   2.017   0.730  1.00  0.00     0.023 A 
ATOM     87  C   UNL     1      16.935   2.391   1.585  1.00  0.00     0.012 A 
ATOM     88  C   UNL     1      15.317   2.973  -0.136  1.00  0.00     0.148 A 
ATOM     89  C   UNL     1      17.406   3.703   1.597  1.00  0.00     0.002 A 
ATOM     90  C   UNL     1      15.819   4.269  -0.149  1.00  0.00     0.091 A 
ATOM     91  F   UNL     1      14.299   2.602  -0.926  1.00  0.00    -0.205 F 
ATOM     92  C   UNL     1      16.857   4.638   0.722  1.00  0.00     0.022 A 
BRANCH  90  93
ATOM     93  S   UNL     1      15.230   5.512  -1.305  1.00  0.00     0.127 S 
ATOM     94  O   UNL     1      14.370   6.330  -0.452  1.00  0.00    -0.237 OA
ATOM     95  O   UNL     1      16.470   6.165  -1.726  1.00  0.00    -0.237 OA
ATOM     96  O   UNL     1      14.550   4.777  -2.364  1.00  0.00    -0.744 OA
ENDBRANCH  90  93
ENDBRANCH  63  86
ENDBRANCH  37  38
ENDBRANCH  30  32
ENDBRANCH  29  30
ENDBRANCH  28  29
ENDBRANCH   1  28
TORSDOF 17
