REMARK SMILES C[C@@H]1CN(S(=O)(=O)N[C@H](C(=O)OCCOC(=O)c2ccc(-c3c4nc(c(-c5cccc(S(=O)(=O)[O-])c5F)c5ccc([nH]5)c(-c5cccc(S(=O)(=O)[O-])c5F)c5nc(c(-c6cccc(S(=O)(=O)[O-])c6F)c6ccc3[nH]6)C=C5)C=C4)cc2)[C@@H](C)O)C[C@@H](C)O1
REMARK SMILES IDX 13 1 12 2 10 3 11 4 9 5 8 6 5 8 6 9 7 10 4 11 1 12 2 13 3 14
REMARK SMILES IDX 87 15 85 16 84 17 86 18 81 19 82 20 83 21 14 23 15 24 16 25
REMARK SMILES IDX 17 26 18 27 19 28 80 29 20 30 79 31 21 32 22 33 23 34 73 35
REMARK SMILES IDX 24 36 78 37 72 38 74 39 25 40 77 41 71 42 70 43 26 45 58 46
REMARK SMILES IDX 38 47 57 48 39 49 42 50 56 51 75 52 40 53 41 54 55 56 76 57
REMARK SMILES IDX 43 58 27 59 28 60 36 61 29 62 31 63 37 64 30 65 32 66 33 67
REMARK SMILES IDX 34 68 35 69 59 70 60 71 68 72 61 73 63 74 69 75 62 76 64 77
REMARK SMILES IDX 65 78 66 79 67 80 44 81 45 82 53 83 46 84 48 85 54 86 47 87
REMARK SMILES IDX 49 88 50 89 51 90 52 91
REMARK H PARENT 8 7 83 22 74 44 42 55
REMARK Flexibility Score: inf
ROOT
ATOM      1  C   UNL     1       5.529   2.775  -2.276  1.00  0.00     0.274 C 
ENDROOT
BRANCH   1   2
ATOM      2  O   UNL     1       4.707   1.593  -2.384  1.00  0.00    -0.461 OA
BRANCH   2   3
ATOM      3  C   UNL     1       4.491   1.128  -3.645  1.00  0.00     0.327 C 
ATOM      4  O   UNL     1       4.906   1.658  -4.671  1.00  0.00    -0.250 OA
BRANCH   3   5
ATOM      5  C   UNL     1       3.635  -0.157  -3.646  1.00  0.00     0.208 C 
BRANCH   5   6
ATOM      6  N   UNL     1       2.856  -0.065  -4.934  1.00  0.00    -0.185 NA
ATOM      7  H   UNL     1       1.912   0.176  -4.632  1.00  0.00     0.143 HD
BRANCH   6   8
ATOM      8  S   UNL     1       2.618  -1.176  -6.136  1.00  0.00     0.280 S 
ATOM      9  O   UNL     1       3.877  -1.674  -6.611  1.00  0.00    -0.195 OA
ATOM     10  O   UNL     1       1.758  -0.484  -7.082  1.00  0.00    -0.195 OA
BRANCH   8  11
ATOM     11  N   UNL     1       1.662  -2.408  -5.496  1.00  0.00    -0.184 NA
ATOM     12  C   UNL     1      -0.416  -3.292  -3.347  1.00  0.00     0.040 C 
ATOM     13  C   UNL     1       0.919  -3.948  -3.685  1.00  0.00     0.130 C 
ATOM     14  C   UNL     1       1.975  -2.949  -4.160  1.00  0.00     0.135 C 
ATOM     15  O   UNL     1       0.791  -5.029  -4.613  1.00  0.00    -0.373 OA
ATOM     16  C   UNL     1       0.535  -4.596  -5.959  1.00  0.00     0.130 C 
ATOM     17  C   UNL     1       1.560  -3.559  -6.457  1.00  0.00     0.135 C 
ATOM     18  C   UNL     1       0.577  -5.849  -6.832  1.00  0.00     0.040 C 
ENDBRANCH   8  11
ENDBRANCH   6   8
ENDBRANCH   5   6
BRANCH   5  19
ATOM     19  C   UNL     1       4.599  -1.319  -3.328  1.00  0.00     0.140 C 
ATOM     20  C   UNL     1       4.358  -2.018  -1.989  1.00  0.00     0.040 C 
BRANCH  19  21
ATOM     21  O   UNL     1       4.720  -2.299  -4.330  1.00  0.00    -0.391 OA
ATOM     22  H   UNL     1       3.890  -2.796  -4.398  1.00  0.00     0.211 HD
ENDBRANCH  19  21
ENDBRANCH   5  19
ENDBRANCH   3   5
ENDBRANCH   2   3
ENDBRANCH   1   2
BRANCH   1  23
ATOM     23  C   UNL     1       6.747   2.481  -1.405  1.00  0.00     0.275 C 
BRANCH  23  24
ATOM     24  O   UNL     1       7.525   1.427  -2.007  1.00  0.00    -0.458 OA
BRANCH  24  25
ATOM     25  C   UNL     1       7.537   0.252  -1.333  1.00  0.00     0.338 C 
ATOM     26  O   UNL     1       7.027   0.039  -0.243  1.00  0.00    -0.246 OA
BRANCH  25  27
ATOM     27  C   UNL     1       8.122  -0.841  -2.146  1.00  0.00     0.060 A 
ATOM     28  C   UNL     1       7.857  -0.913  -3.507  1.00  0.00     0.016 A 
ATOM     29  C   UNL     1       8.678  -1.949  -1.503  1.00  0.00     0.016 A 
ATOM     30  C   UNL     1       7.915  -2.158  -4.141  1.00  0.00     0.010 A 
ATOM     31  C   UNL     1       8.928  -3.133  -2.216  1.00  0.00     0.010 A 
ATOM     32  C   UNL     1       8.489  -3.293  -3.540  1.00  0.00    -0.014 A 
BRANCH  32  33
ATOM     33  C   UNL     1       8.636  -4.605  -4.279  1.00  0.00     0.031 A 
ATOM     34  C   UNL     1       8.441  -5.949  -3.587  1.00  0.00     0.074 A 
ATOM     35  C   UNL     1       8.992  -4.630  -5.585  1.00  0.00     0.049 A 
ATOM     36  N   UNL     1       8.841  -7.141  -3.962  1.00  0.00    -0.248 NA
ATOM     37  C   UNL     1       7.719  -5.957  -2.303  1.00  0.00     0.031 C 
ATOM     38  C   UNL     1       9.200  -3.462  -6.444  1.00  0.00     0.029 A 
ATOM     39  N   UNL     1       9.268  -5.689  -6.426  1.00  0.00    -0.354 N 
ATOM     40  C   UNL     1       8.524  -8.014  -2.922  1.00  0.00     0.074 A 
ATOM     41  C   UNL     1       7.864  -7.218  -1.908  1.00  0.00     0.031 C 
ATOM     42  C   UNL     1       9.499  -3.856  -7.684  1.00  0.00     0.029 A 
ATOM     43  C   UNL     1       9.705  -5.293  -7.671  1.00  0.00     0.049 A 
ATOM     44  H   UNL     1       9.164  -6.632  -6.162  1.00  0.00     0.167 HD
ATOM     45  C   UNL     1       8.760  -9.348  -2.817  1.00  0.00     0.034 A 
ATOM     46  C   UNL     1      10.317  -5.954  -8.672  1.00  0.00     0.034 A 
ATOM     47  C   UNL     1       9.324 -10.163  -3.867  1.00  0.00     0.049 A 
ATOM     48  C   UNL     1      10.609  -7.412  -8.521  1.00  0.00     0.074 A 
ATOM     49  C   UNL     1       9.546 -11.531  -3.867  1.00  0.00     0.029 A 
ATOM     50  N   UNL     1       9.740  -9.698  -5.104  1.00  0.00    -0.354 N 
ATOM     51  N   UNL     1      10.324  -8.208  -7.523  1.00  0.00    -0.248 NA
ATOM     52  C   UNL     1      11.306  -8.062  -9.639  1.00  0.00     0.031 C 
ATOM     53  C   UNL     1      10.131 -11.886  -5.087  1.00  0.00     0.029 A 
ATOM     54  C   UNL     1      10.232 -10.747  -5.866  1.00  0.00     0.049 A 
ATOM     55  H   UNL     1       9.694  -8.760  -5.399  1.00  0.00     0.167 HD
ATOM     56  C   UNL     1      10.781  -9.463  -7.903  1.00  0.00     0.074 A 
ATOM     57  C   UNL     1      11.340  -9.323  -9.232  1.00  0.00     0.031 C 
ATOM     58  C   UNL     1      10.751 -10.622  -7.203  1.00  0.00     0.034 A 
BRANCH  45  59
ATOM     59  C   UNL     1       8.418 -10.046  -1.518  1.00  0.00     0.023 A 
ATOM     60  C   UNL     1       7.075 -10.297  -1.172  1.00  0.00     0.012 A 
ATOM     61  C   UNL     1       9.445 -10.556  -0.691  1.00  0.00     0.148 A 
ATOM     62  C   UNL     1       6.760 -11.013  -0.014  1.00  0.00     0.002 A 
ATOM     63  C   UNL     1       9.124 -11.308   0.434  1.00  0.00     0.091 A 
ATOM     64  F   UNL     1      10.718 -10.305  -1.028  1.00  0.00    -0.205 F 
ATOM     65  C   UNL     1       7.782 -11.527   0.781  1.00  0.00     0.022 A 
BRANCH  63  66
ATOM     66  S   UNL     1      10.369 -12.088   1.471  1.00  0.00     0.127 S 
ATOM     67  O   UNL     1      10.283 -11.284   2.689  1.00  0.00    -0.237 OA
ATOM     68  O   UNL     1       9.851 -13.450   1.604  1.00  0.00    -0.237 OA
ATOM     69  O   UNL     1      11.624 -11.984   0.741  1.00  0.00    -0.744 OA
ENDBRANCH  63  66
ENDBRANCH  45  59
BRANCH  46  70
ATOM     70  C   UNL     1      10.751  -5.204  -9.886  1.00  0.00     0.023 A 
ATOM     71  C   UNL     1      10.108  -5.440 -11.114  1.00  0.00     0.012 A 
ATOM     72  C   UNL     1      11.749  -4.210  -9.810  1.00  0.00     0.148 A 
ATOM     73  C   UNL     1      10.462  -4.709 -12.249  1.00  0.00     0.002 A 
ATOM     74  C   UNL     1      12.042  -3.435 -10.924  1.00  0.00     0.091 A 
ATOM     75  F   UNL     1      12.363  -4.014  -8.634  1.00  0.00    -0.205 F 
ATOM     76  C   UNL     1      11.414  -3.696 -12.150  1.00  0.00     0.022 A 
BRANCH  74  77
ATOM     77  S   UNL     1      13.126  -2.005 -10.838  1.00  0.00     0.127 S 
ATOM     78  O   UNL     1      14.298  -2.474 -11.572  1.00  0.00    -0.237 OA
ATOM     79  O   UNL     1      12.335  -0.984 -11.525  1.00  0.00    -0.237 OA
ATOM     80  O   UNL     1      13.328  -1.748  -9.418  1.00  0.00    -0.744 OA
ENDBRANCH  74  77
ENDBRANCH  46  70
BRANCH  58  81
ATOM     81  C   UNL     1      11.289 -11.852  -7.884  1.00  0.00     0.023 A 
ATOM     82  C   UNL     1      12.675 -11.993  -8.097  1.00  0.00     0.012 A 
ATOM     83  C   UNL     1      10.419 -12.882  -8.290  1.00  0.00     0.148 A 
ATOM     84  C   UNL     1      13.181 -13.120  -8.743  1.00  0.00     0.002 A 
ATOM     85  C   UNL     1      10.935 -14.026  -8.886  1.00  0.00     0.091 A 
ATOM     86  F   UNL     1       9.102 -12.719  -8.098  1.00  0.00    -0.205 F 
ATOM     87  C   UNL     1      12.314 -14.140  -9.127  1.00  0.00     0.022 A 
BRANCH  85  88
ATOM     88  S   UNL     1       9.907 -15.429  -9.333  1.00  0.00     0.127 S 
ATOM     89  O   UNL     1       9.946 -15.373 -10.793  1.00  0.00    -0.237 OA
ATOM     90  O   UNL     1      10.643 -16.549  -8.745  1.00  0.00    -0.237 OA
ATOM     91  O   UNL     1       8.603 -15.181  -8.734  1.00  0.00    -0.744 OA
ENDBRANCH  85  88
ENDBRANCH  58  81
ENDBRANCH  32  33
ENDBRANCH  25  27
ENDBRANCH  24  25
ENDBRANCH  23  24
ENDBRANCH   1  23
TORSDOF 19
