REMARK SMILES CC1(C)C(CNC(=O)[C@H]2C[C@H]2C(=O)OCCOC(=O)c2ccc(-c3c4nc(c(-c5cccc(S(=O)(=O)[O-])c5F)c5ccc([nH]5)c(-c5cccc(S(=O)(=O)[O-])c5F)c5nc(c(-c6cccc(S(=O)(=O)[O-])c6F)c6ccc3[nH]6)C=C5)C=C4)cc2)C1(C)C
REMARK SMILES IDX 15 1 14 2 12 3 13 4 11 5 9 6 10 7 7 8 6 9 8 11 5 12 4 13
REMARK SMILES IDX 1 14 2 15 3 16 83 17 84 18 85 19 16 20 17 21 18 22 19 23
REMARK SMILES IDX 20 24 21 25 82 26 22 27 81 28 23 29 24 30 25 31 75 32 26 33
REMARK SMILES IDX 80 34 74 35 76 36 27 37 79 38 73 39 72 40 28 42 60 43 40 44
REMARK SMILES IDX 59 45 41 46 44 47 58 48 77 49 42 50 43 51 57 53 78 54 45 55
REMARK SMILES IDX 29 56 30 57 38 58 31 59 33 60 39 61 32 62 34 63 35 64 36 65
REMARK SMILES IDX 37 66 61 67 62 68 70 69 63 70 65 71 71 72 64 73 66 74 67 75
REMARK SMILES IDX 68 76 69 77 46 78 47 79 55 80 48 81 50 82 56 83 49 84 51 85
REMARK SMILES IDX 52 86 53 87 54 88
REMARK H PARENT 6 10 76 41 44 52
REMARK Flexibility Score: inf
ROOT
ATOM      1  C   UNL     1       3.269   5.264   2.596  1.00  0.00     0.274 C 
ENDROOT
BRANCH   1   2
ATOM      2  O   UNL     1       1.964   4.960   3.129  1.00  0.00    -0.462 OA
BRANCH   2   3
ATOM      3  C   UNL     1       0.978   5.821   2.786  1.00  0.00     0.309 C 
ATOM      4  O   UNL     1       1.128   6.901   2.231  1.00  0.00    -0.252 OA
BRANCH   3   5
ATOM      5  C   UNL     1      -0.383   5.297   3.040  1.00  0.00     0.112 C 
ATOM      6  C   UNL     1      -0.987   4.862   4.349  1.00  0.00     0.093 C 
ATOM      7  C   UNL     1      -1.318   6.214   3.793  1.00  0.00     0.030 C 
BRANCH   6   8
ATOM      8  C   UNL     1      -0.134   4.423   5.469  1.00  0.00     0.224 C 
ATOM      9  N   UNL     1       0.334   5.259   6.434  1.00  0.00    -0.356 N 
ATOM     10  H   UNL     1       0.669   4.805   7.240  1.00  0.00     0.163 HD
ATOM     11  O   UNL     1       0.083   3.220   5.596  1.00  0.00    -0.275 OA
BRANCH   9  12
ATOM     12  C   UNL     1       0.423   6.691   6.477  1.00  0.00     0.120 C 
BRANCH  12  13
ATOM     13  C   UNL     1      -0.850   7.302   6.972  1.00  0.00     0.021 C 
ATOM     14  C   UNL     1      -2.533   7.377   8.925  1.00  0.00     0.012 C 
ATOM     15  C   UNL     1      -1.133   7.678   8.423  1.00  0.00    -0.025 C 
ATOM     16  C   UNL     1      -0.100   7.403   9.492  1.00  0.00     0.012 C 
ATOM     17  C   UNL     1      -0.900   8.775   7.353  1.00  0.00    -0.025 C 
ATOM     18  C   UNL     1      -2.062   9.579   6.807  1.00  0.00     0.012 C 
ATOM     19  C   UNL     1       0.380   9.585   7.343  1.00  0.00     0.012 C 
ENDBRANCH  12  13
ENDBRANCH   9  12
ENDBRANCH   6   8
ENDBRANCH   3   5
ENDBRANCH   2   3
ENDBRANCH   1   2
BRANCH   1  20
ATOM     20  C   UNL     1       3.733   4.136   1.676  1.00  0.00     0.275 C 
BRANCH  20  21
ATOM     21  O   UNL     1       2.843   3.995   0.552  1.00  0.00    -0.458 OA
BRANCH  21  22
ATOM     22  C   UNL     1       1.882   3.059   0.719  1.00  0.00     0.338 C 
ATOM     23  O   UNL     1       1.705   2.339   1.687  1.00  0.00    -0.246 OA
BRANCH  22  24
ATOM     24  C   UNL     1       0.994   3.025  -0.447  1.00  0.00     0.060 A 
ATOM     25  C   UNL     1      -0.139   3.837  -0.457  1.00  0.00     0.016 A 
ATOM     26  C   UNL     1       1.186   2.059  -1.432  1.00  0.00     0.016 A 
ATOM     27  C   UNL     1      -1.143   3.611  -1.392  1.00  0.00     0.010 A 
ATOM     28  C   UNL     1       0.219   1.899  -2.427  1.00  0.00     0.010 A 
ATOM     29  C   UNL     1      -0.975   2.642  -2.390  1.00  0.00    -0.014 A 
BRANCH  29  30
ATOM     30  C   UNL     1      -2.046   2.406  -3.393  1.00  0.00     0.031 A 
ATOM     31  C   UNL     1      -2.709   1.059  -3.498  1.00  0.00     0.074 A 
ATOM     32  C   UNL     1      -2.401   3.401  -4.229  1.00  0.00     0.049 A 
ATOM     33  N   UNL     1      -3.568   0.631  -4.387  1.00  0.00    -0.248 NA
ATOM     34  C   UNL     1      -2.350   0.056  -2.482  1.00  0.00     0.031 C 
ATOM     35  C   UNL     1      -1.823   4.746  -4.232  1.00  0.00     0.029 A 
ATOM     36  N   UNL     1      -3.315   3.429  -5.252  1.00  0.00    -0.354 N 
ATOM     37  C   UNL     1      -3.809  -0.702  -4.074  1.00  0.00     0.074 A 
ATOM     38  C   UNL     1      -3.003  -1.014  -2.913  1.00  0.00     0.031 C 
ATOM     39  C   UNL     1      -2.389   5.466  -5.210  1.00  0.00     0.029 A 
ATOM     40  C   UNL     1      -3.325   4.619  -5.941  1.00  0.00     0.049 A 
ATOM     41  H   UNL     1      -3.905   2.672  -5.471  1.00  0.00     0.167 HD
ATOM     42  C   UNL     1      -4.638  -1.581  -4.687  1.00  0.00     0.034 A 
ATOM     43  C   UNL     1      -3.981   4.981  -7.060  1.00  0.00     0.034 A 
ATOM     44  C   UNL     1      -5.478  -1.249  -5.808  1.00  0.00     0.049 A 
ATOM     45  C   UNL     1      -4.907   3.994  -7.711  1.00  0.00     0.074 A 
ATOM     46  C   UNL     1      -6.391  -2.053  -6.468  1.00  0.00     0.029 A 
ATOM     47  N   UNL     1      -5.511  -0.011  -6.433  1.00  0.00    -0.354 N 
ATOM     48  N   UNL     1      -5.189   2.767  -7.348  1.00  0.00    -0.248 NA
ATOM     49  C   UNL     1      -5.624   4.448  -8.910  1.00  0.00     0.031 C 
ATOM     50  C   UNL     1      -6.967  -1.304  -7.500  1.00  0.00     0.029 A 
ATOM     51  C   UNL     1      -6.425  -0.029  -7.473  1.00  0.00     0.049 A 
ATOM     52  H   UNL     1      -4.964   0.766  -6.175  1.00  0.00     0.167 HD
ATOM     53  C   UNL     1      -6.129   2.306  -8.260  1.00  0.00     0.074 A 
ATOM     54  C   UNL     1      -6.390   3.398  -9.177  1.00  0.00     0.031 C 
ATOM     55  C   UNL     1      -6.708   1.083  -8.345  1.00  0.00     0.034 A 
BRANCH  42  56
ATOM     56  C   UNL     1      -4.704  -2.982  -4.136  1.00  0.00     0.023 A 
ATOM     57  C   UNL     1      -5.372  -3.221  -2.918  1.00  0.00     0.012 A 
ATOM     58  C   UNL     1      -4.147  -4.068  -4.842  1.00  0.00     0.148 A 
ATOM     59  C   UNL     1      -5.455  -4.511  -2.394  1.00  0.00     0.002 A 
ATOM     60  C   UNL     1      -4.269  -5.357  -4.332  1.00  0.00     0.091 A 
ATOM     61  F   UNL     1      -3.494  -3.822  -5.986  1.00  0.00    -0.205 F 
ATOM     62  C   UNL     1      -4.913  -5.579  -3.104  1.00  0.00     0.022 A 
BRANCH  60  63
ATOM     63  S   UNL     1      -3.666  -6.801  -5.216  1.00  0.00     0.127 S 
ATOM     64  O   UNL     1      -2.436  -7.102  -4.486  1.00  0.00    -0.237 OA
ATOM     65  O   UNL     1      -4.747  -7.767  -5.012  1.00  0.00    -0.237 OA
ATOM     66  O   UNL     1      -3.493  -6.375  -6.598  1.00  0.00    -0.744 OA
ENDBRANCH  60  63
ENDBRANCH  42  56
BRANCH  43  67
ATOM     67  C   UNL     1      -3.789   6.352  -7.608  1.00  0.00     0.023 A 
ATOM     68  C   UNL     1      -4.834   7.289  -7.515  1.00  0.00     0.012 A 
ATOM     69  C   UNL     1      -2.551   6.753  -8.151  1.00  0.00     0.148 A 
ATOM     70  C   UNL     1      -4.656   8.598  -7.966  1.00  0.00     0.002 A 
ATOM     71  C   UNL     1      -2.362   8.072  -8.542  1.00  0.00     0.091 A 
ATOM     72  F   UNL     1      -1.574   5.840  -8.247  1.00  0.00    -0.205 F 
ATOM     73  C   UNL     1      -3.417   8.993  -8.465  1.00  0.00     0.022 A 
BRANCH  71  74
ATOM     74  S   UNL     1      -0.756   8.698  -9.051  1.00  0.00     0.127 S 
ATOM     75  O   UNL     1      -0.932   8.837 -10.493  1.00  0.00    -0.237 OA
ATOM     76  O   UNL     1      -0.673   9.960  -8.315  1.00  0.00    -0.237 OA
ATOM     77  O   UNL     1       0.208   7.694  -8.620  1.00  0.00    -0.744 OA
ENDBRANCH  71  74
ENDBRANCH  43  67
BRANCH  55  78
ATOM     78  C   UNL     1      -7.697   0.860  -9.458  1.00  0.00     0.023 A 
ATOM     79  C   UNL     1      -7.232   0.694 -10.777  1.00  0.00     0.012 A 
ATOM     80  C   UNL     1      -9.074   0.744  -9.188  1.00  0.00     0.148 A 
ATOM     81  C   UNL     1      -8.126   0.441 -11.816  1.00  0.00     0.002 A 
ATOM     82  C   UNL     1      -9.955   0.449 -10.221  1.00  0.00     0.091 A 
ATOM     83  F   UNL     1      -9.498   0.928  -7.928  1.00  0.00    -0.205 F 
ATOM     84  C   UNL     1      -9.485   0.306 -11.537  1.00  0.00     0.022 A 
BRANCH  82  85
ATOM     85  S   UNL     1     -11.708   0.173  -9.940  1.00  0.00     0.127 S 
ATOM     86  O   UNL     1     -12.292   1.407 -10.461  1.00  0.00    -0.237 OA
ATOM     87  O   UNL     1     -11.971  -1.016 -10.751  1.00  0.00    -0.237 OA
ATOM     88  O   UNL     1     -11.854  -0.033  -8.505  1.00  0.00    -0.744 OA
ENDBRANCH  82  85
ENDBRANCH  55  78
ENDBRANCH  29  30
ENDBRANCH  22  24
ENDBRANCH  21  22
ENDBRANCH  20  21
ENDBRANCH   1  20
TORSDOF 17
