REMARK SMILES C[C@H]1SC[C@H](C(=O)OCCOC(=O)c2ccc(-c3c4nc(c(-c5cccc(S(=O)(=O)[O-])c5F)c5ccc([nH]5)c(-c5cccc(S(=O)(=O)[O-])c5F)c5nc(c(-c6cccc(S(=O)(=O)[O-])c6F)c6ccc3[nH]6)C=C5)C=C4)cc2)N1C(=O)[C@@H]1CSc2ccccc21
REMARK SMILES IDX 10 1 9 2 8 3 6 4 7 5 5 6 1 7 2 8 3 9 77 10 4 11 78 12 79 13
REMARK SMILES IDX 80 14 81 15 88 16 82 17 83 18 87 19 84 20 86 21 85 22 11 23
REMARK SMILES IDX 12 24 13 25 14 26 15 27 76 28 16 29 75 30 17 31 18 32 19 33
REMARK SMILES IDX 69 34 20 35 74 36 68 37 70 38 21 39 73 40 67 41 66 42 22 44
REMARK SMILES IDX 54 45 34 46 53 47 35 48 38 49 52 50 71 51 36 52 37 53 51 55
REMARK SMILES IDX 72 56 39 57 23 58 24 59 32 60 25 61 27 62 33 63 26 64 28 65
REMARK SMILES IDX 29 66 30 67 31 68 55 69 56 70 64 71 57 72 59 73 65 74 58 75
REMARK SMILES IDX 60 76 61 77 62 78 63 79 40 80 41 81 49 82 42 83 44 84 50 85
REMARK SMILES IDX 43 86 45 87 46 88 47 89 48 90
REMARK H PARENT 70 43 38 54
REMARK Flexibility Score: inf
ROOT
ATOM      1  C   UNL     1       6.900  -7.876   2.740  1.00  0.00     0.275 C 
ENDROOT
BRANCH   1   2
ATOM      2  C   UNL     1       5.520  -7.375   2.322  1.00  0.00     0.274 C 
BRANCH   2   3
ATOM      3  O   UNL     1       5.673  -6.508   1.185  1.00  0.00    -0.461 OA
BRANCH   3   4
ATOM      4  C   UNL     1       4.976  -5.341   1.211  1.00  0.00     0.329 C 
ATOM      5  O   UNL     1       4.095  -5.094   2.026  1.00  0.00    -0.250 OA
BRANCH   4   6
ATOM      6  C   UNL     1       5.516  -4.352   0.157  1.00  0.00     0.206 C 
ATOM      7  C   UNL     1       5.805  -1.458  -1.271  1.00  0.00     0.043 C 
ATOM      8  C   UNL     1       4.909  -2.681  -1.486  1.00  0.00     0.141 C 
ATOM      9  S   UNL     1       5.832  -3.910  -2.458  1.00  0.00    -0.135 SA
ATOM     10  N   UNL     1       4.528  -3.348  -0.247  1.00  0.00    -0.316 N 
ATOM     11  C   UNL     1       5.939  -5.103  -1.103  1.00  0.00     0.109 C 
BRANCH  10  12
ATOM     12  C   UNL     1       3.936  -2.586   0.753  1.00  0.00     0.232 C 
ATOM     13  O   UNL     1       4.588  -2.179   1.715  1.00  0.00    -0.274 OA
BRANCH  12  14
ATOM     14  C   UNL     1       2.438  -2.301   0.619  1.00  0.00     0.120 C 
ATOM     15  C   UNL     1       1.629  -3.528   0.166  1.00  0.00     0.093 C 
ATOM     16  C   UNL     1       2.146  -1.177  -0.336  1.00  0.00    -0.021 A 
ATOM     17  S   UNL     1       1.168  -3.295  -1.585  1.00  0.00    -0.125 SA
ATOM     18  C   UNL     1       1.552  -1.569  -1.537  1.00  0.00     0.011 A 
ATOM     19  C   UNL     1       2.519   0.148  -0.131  1.00  0.00     0.006 A 
ATOM     20  C   UNL     1       1.383  -0.666  -2.574  1.00  0.00     0.015 A 
ATOM     21  C   UNL     1       2.338   1.066  -1.164  1.00  0.00     0.000 A 
ATOM     22  C   UNL     1       1.788   0.658  -2.385  1.00  0.00     0.001 A 
ENDBRANCH  12  14
ENDBRANCH  10  12
ENDBRANCH   4   6
ENDBRANCH   3   4
ENDBRANCH   2   3
ENDBRANCH   1   2
BRANCH   1  23
ATOM     23  O   UNL     1       7.772  -6.761   3.019  1.00  0.00    -0.458 OA
BRANCH  23  24
ATOM     24  C   UNL     1       8.546  -6.379   1.979  1.00  0.00     0.338 C 
ATOM     25  O   UNL     1       8.592  -6.880   0.864  1.00  0.00    -0.246 OA
BRANCH  24  26
ATOM     26  C   UNL     1       9.334  -5.194   2.332  1.00  0.00     0.060 A 
ATOM     27  C   UNL     1       8.758  -3.930   2.216  1.00  0.00     0.016 A 
ATOM     28  C   UNL     1      10.693  -5.329   2.609  1.00  0.00     0.016 A 
ATOM     29  C   UNL     1       9.563  -2.793   2.270  1.00  0.00     0.010 A 
ATOM     30  C   UNL     1      11.477  -4.184   2.762  1.00  0.00     0.010 A 
ATOM     31  C   UNL     1      10.931  -2.905   2.552  1.00  0.00    -0.014 A 
BRANCH  31  32
ATOM     32  C   UNL     1      11.802  -1.697   2.620  1.00  0.00     0.031 A 
ATOM     33  C   UNL     1      13.001  -1.568   1.720  1.00  0.00     0.074 A 
ATOM     34  C   UNL     1      11.540  -0.730   3.525  1.00  0.00     0.049 A 
ATOM     35  N   UNL     1      13.974  -0.695   1.758  1.00  0.00    -0.248 NA
ATOM     36  C   UNL     1      13.138  -2.566   0.643  1.00  0.00     0.031 C 
ATOM     37  C   UNL     1      10.415  -0.726   4.461  1.00  0.00     0.029 A 
ATOM     38  N   UNL     1      12.219   0.430   3.819  1.00  0.00    -0.354 N 
ATOM     39  C   UNL     1      14.873  -1.079   0.771  1.00  0.00     0.074 A 
ATOM     40  C   UNL     1      14.324  -2.258   0.136  1.00  0.00     0.031 C 
ATOM     41  C   UNL     1      10.473   0.381   5.215  1.00  0.00     0.029 A 
ATOM     42  C   UNL     1      11.675   1.132   4.866  1.00  0.00     0.049 A 
ATOM     43  H   UNL     1      13.018   0.728   3.326  1.00  0.00     0.167 HD
ATOM     44  C   UNL     1      16.045  -0.498   0.417  1.00  0.00     0.034 A 
ATOM     45  C   UNL     1      12.106   2.236   5.505  1.00  0.00     0.034 A 
ATOM     46  C   UNL     1      16.548   0.723   0.987  1.00  0.00     0.049 A 
ATOM     47  C   UNL     1      13.385   2.888   5.062  1.00  0.00     0.074 A 
ATOM     48  C   UNL     1      17.698   1.418   0.654  1.00  0.00     0.029 A 
ATOM     49  N   UNL     1      15.923   1.443   1.993  1.00  0.00    -0.354 N 
ATOM     50  N   UNL     1      14.189   2.543   4.086  1.00  0.00    -0.248 NA
ATOM     51  C   UNL     1      13.809   4.088   5.796  1.00  0.00     0.031 C 
ATOM     52  C   UNL     1      17.766   2.562   1.457  1.00  0.00     0.029 A 
ATOM     53  C   UNL     1      16.659   2.578   2.290  1.00  0.00     0.049 A 
ATOM     54  H   UNL     1      15.080   1.186   2.432  1.00  0.00     0.167 HD
ATOM     55  C   UNL     1      15.207   3.487   4.081  1.00  0.00     0.074 A 
ATOM     56  C   UNL     1      14.902   4.439   5.130  1.00  0.00     0.031 C 
ATOM     57  C   UNL     1      16.312   3.545   3.297  1.00  0.00     0.034 A 
BRANCH  44  58
ATOM     58  C   UNL     1      16.854  -1.153  -0.670  1.00  0.00     0.023 A 
ATOM     59  C   UNL     1      16.472  -0.987  -2.016  1.00  0.00     0.012 A 
ATOM     60  C   UNL     1      18.025  -1.875  -0.366  1.00  0.00     0.148 A 
ATOM     61  C   UNL     1      17.232  -1.547  -3.042  1.00  0.00     0.002 A 
ATOM     62  C   UNL     1      18.796  -2.403  -1.397  1.00  0.00     0.091 A 
ATOM     63  F   UNL     1      18.357  -2.046   0.922  1.00  0.00    -0.205 F 
ATOM     64  C   UNL     1      18.398  -2.245  -2.734  1.00  0.00     0.022 A 
BRANCH  62  65
ATOM     65  S   UNL     1      20.346  -3.258  -1.091  1.00  0.00     0.127 S 
ATOM     66  O   UNL     1      19.943  -4.657  -1.220  1.00  0.00    -0.237 OA
ATOM     67  O   UNL     1      21.196  -2.767  -2.178  1.00  0.00    -0.237 OA
ATOM     68  O   UNL     1      20.771  -2.841   0.238  1.00  0.00    -0.744 OA
ENDBRANCH  62  65
ENDBRANCH  44  58
BRANCH  45  69
ATOM     69  C   UNL     1      11.293   2.806   6.616  1.00  0.00     0.023 A 
ATOM     70  C   UNL     1      10.601   4.015   6.412  1.00  0.00     0.012 A 
ATOM     71  C   UNL     1      11.143   2.128   7.841  1.00  0.00     0.148 A 
ATOM     72  C   UNL     1       9.784   4.543   7.412  1.00  0.00     0.002 A 
ATOM     73  C   UNL     1      10.282   2.629   8.810  1.00  0.00     0.091 A 
ATOM     74  F   UNL     1      11.830   0.991   8.030  1.00  0.00    -0.205 F 
ATOM     75  C   UNL     1       9.611   3.843   8.603  1.00  0.00     0.022 A 
BRANCH  73  76
ATOM     76  S   UNL     1       9.898   1.700  10.300  1.00  0.00     0.127 S 
ATOM     77  O   UNL     1      10.787   2.318  11.278  1.00  0.00    -0.237 OA
ATOM     78  O   UNL     1       8.476   1.990  10.491  1.00  0.00    -0.237 OA
ATOM     79  O   UNL     1      10.178   0.310   9.962  1.00  0.00    -0.744 OA
ENDBRANCH  73  76
ENDBRANCH  45  69
BRANCH  57  80
ATOM     80  C   UNL     1      17.272   4.678   3.535  1.00  0.00     0.023 A 
ATOM     81  C   UNL     1      18.148   4.617   4.636  1.00  0.00     0.012 A 
ATOM     82  C   UNL     1      17.359   5.759   2.638  1.00  0.00     0.148 A 
ATOM     83  C   UNL     1      19.085   5.627   4.852  1.00  0.00     0.002 A 
ATOM     84  C   UNL     1      18.319   6.744   2.840  1.00  0.00     0.091 A 
ATOM     85  F   UNL     1      16.498   5.812   1.610  1.00  0.00    -0.205 F 
ATOM     86  C   UNL     1      19.178   6.684   3.949  1.00  0.00     0.022 A 
BRANCH  84  87
ATOM     87  S   UNL     1      18.551   8.093   1.675  1.00  0.00     0.127 S 
ATOM     88  O   UNL     1      17.796   9.171   2.310  1.00  0.00    -0.237 OA
ATOM     89  O   UNL     1      20.003   8.277   1.685  1.00  0.00    -0.237 OA
ATOM     90  O   UNL     1      18.020   7.608   0.407  1.00  0.00    -0.744 OA
ENDBRANCH  84  87
ENDBRANCH  57  80
ENDBRANCH  31  32
ENDBRANCH  24  26
ENDBRANCH  23  24
ENDBRANCH   1  23
TORSDOF 16
