REMARK SMILES O=C(OCCOC(=O)[C@H]1CC[C@@H](C[NH2+][C@H]2CCC[C@H](C3CC3)C2)CC1)c1ccc(-c2c3nc(c(-c4cccc(S(=O)(=O)[O-])c4F)c4ccc([nH]4)c(-c4cccc(S(=O)(=O)[O-])c4F)c4nc(c(-c5cccc(S(=O)(=O)[O-])c5F)c5ccc2[nH]5)C=C4)C=C3)cc1
REMARK SMILES IDX 5 1 4 2 3 3 2 4 1 5 26 6 27 7 88 8 28 9 87 10 29 11 30 12
REMARK SMILES IDX 31 13 81 14 32 15 86 16 80 17 82 18 33 19 85 20 79 21 78 22
REMARK SMILES IDX 34 24 66 25 46 26 65 27 47 28 50 29 64 30 83 31 48 32 49 33
REMARK SMILES IDX 63 35 84 36 51 37 35 38 36 39 44 40 37 41 39 42 45 43 38 44
REMARK SMILES IDX 40 45 41 46 42 47 43 48 67 49 68 50 76 51 69 52 71 53 77 54
REMARK SMILES IDX 70 55 72 56 73 57 74 58 75 59 52 60 53 61 61 62 54 63 56 64
REMARK SMILES IDX 62 65 55 66 57 67 58 68 59 69 60 70 6 71 7 72 8 73 9 74
REMARK SMILES IDX 25 75 10 76 24 77 11 78 12 79 13 80 14 81 15 84 16 85 23 86
REMARK SMILES IDX 17 87 19 88 18 89 20 90 21 91 22 92
REMARK H PARENT 82 23 50 34 14 82 14 83
REMARK Flexibility Score: inf
ROOT
ATOM      1  C   UNL     1       5.378 -12.234   1.579  1.00  0.00     0.274 C 
ENDROOT
BRANCH   1   2
ATOM      2  C   UNL     1       4.902 -12.807   0.241  1.00  0.00     0.275 C 
BRANCH   2   3
ATOM      3  O   UNL     1       5.630 -12.336  -0.901  1.00  0.00    -0.458 OA
BRANCH   3   4
ATOM      4  C   UNL     1       5.467 -11.208  -1.632  1.00  0.00     0.338 C 
ATOM      5  O   UNL     1       6.161 -11.081  -2.641  1.00  0.00    -0.246 OA
BRANCH   4   6
ATOM      6  C   UNL     1       4.586 -10.052  -1.239  1.00  0.00     0.060 A 
ATOM      7  C   UNL     1       3.553 -10.053  -0.295  1.00  0.00     0.016 A 
ATOM      8  C   UNL     1       4.902  -8.818  -1.836  1.00  0.00     0.016 A 
ATOM      9  C   UNL     1       2.942  -8.862   0.133  1.00  0.00     0.010 A 
ATOM     10  C   UNL     1       4.331  -7.624  -1.375  1.00  0.00     0.010 A 
ATOM     11  C   UNL     1       3.352  -7.629  -0.368  1.00  0.00    -0.014 A 
BRANCH  11  12
ATOM     12  C   UNL     1       2.721  -6.354   0.063  1.00  0.00     0.031 A 
ATOM     13  C   UNL     1       1.962  -5.544  -0.943  1.00  0.00     0.074 A 
ATOM     14  C   UNL     1       2.786  -5.868   1.321  1.00  0.00     0.049 A 
ATOM     15  N   UNL     1       1.331  -4.416  -0.760  1.00  0.00    -0.248 NA
ATOM     16  C   UNL     1       1.848  -6.094  -2.303  1.00  0.00     0.031 C 
ATOM     17  C   UNL     1       3.323  -6.548   2.494  1.00  0.00     0.029 A 
ATOM     18  N   UNL     1       2.414  -4.629   1.808  1.00  0.00    -0.354 N 
ATOM     19  C   UNL     1       0.688  -4.158  -1.953  1.00  0.00     0.074 A 
ATOM     20  C   UNL     1       1.113  -5.169  -2.896  1.00  0.00     0.031 C 
ATOM     21  C   UNL     1       3.346  -5.675   3.517  1.00  0.00     0.029 A 
ATOM     22  C   UNL     1       2.907  -4.375   3.067  1.00  0.00     0.049 A 
ATOM     23  H   UNL     1       1.854  -3.994   1.306  1.00  0.00     0.167 HD
ATOM     24  C   UNL     1      -0.256  -3.228  -2.216  1.00  0.00     0.034 A 
ATOM     25  C   UNL     1       3.025  -3.228   3.762  1.00  0.00     0.034 A 
ATOM     26  C   UNL     1      -0.687  -2.205  -1.312  1.00  0.00     0.049 A 
ATOM     27  C   UNL     1       2.199  -2.052   3.341  1.00  0.00     0.074 A 
ATOM     28  C   UNL     1      -1.688  -1.267  -1.487  1.00  0.00     0.029 A 
ATOM     29  N   UNL     1      -0.104  -1.944  -0.086  1.00  0.00    -0.354 N 
ATOM     30  N   UNL     1       1.429  -1.933   2.294  1.00  0.00    -0.248 NA
ATOM     31  C   UNL     1       2.119  -0.928   4.288  1.00  0.00     0.031 C 
ATOM     32  C   UNL     1      -1.672  -0.399  -0.388  1.00  0.00     0.029 A 
ATOM     33  C   UNL     1      -0.691  -0.829   0.486  1.00  0.00     0.049 A 
ATOM     34  H   UNL     1       0.621  -2.473   0.319  1.00  0.00     0.167 HD
ATOM     35  C   UNL     1       0.690  -0.782   2.515  1.00  0.00     0.074 A 
ATOM     36  C   UNL     1       1.122  -0.226   3.777  1.00  0.00     0.031 C 
ATOM     37  C   UNL     1      -0.297  -0.270   1.748  1.00  0.00     0.034 A 
BRANCH  24  38
ATOM     38  C   UNL     1      -0.900  -3.333  -3.558  1.00  0.00     0.023 A 
ATOM     39  C   UNL     1      -1.794  -4.393  -3.819  1.00  0.00     0.012 A 
ATOM     40  C   UNL     1      -0.571  -2.420  -4.569  1.00  0.00     0.148 A 
ATOM     41  C   UNL     1      -2.312  -4.573  -5.097  1.00  0.00     0.002 A 
ATOM     42  C   UNL     1      -1.126  -2.580  -5.827  1.00  0.00     0.091 A 
ATOM     43  F   UNL     1       0.305  -1.445  -4.289  1.00  0.00    -0.205 F 
ATOM     44  C   UNL     1      -1.981  -3.664  -6.098  1.00  0.00     0.022 A 
BRANCH  42  45
ATOM     45  S   UNL     1      -0.801  -1.440  -7.168  1.00  0.00     0.127 S 
ATOM     46  O   UNL     1      -0.084  -2.293  -8.113  1.00  0.00    -0.237 OA
ATOM     47  O   UNL     1      -2.153  -1.067  -7.579  1.00  0.00    -0.237 OA
ATOM     48  O   UNL     1      -0.013  -0.354  -6.594  1.00  0.00    -0.744 OA
ENDBRANCH  42  45
ENDBRANCH  24  38
BRANCH  25  49
ATOM     49  C   UNL     1       3.881  -3.049   4.968  1.00  0.00     0.023 A 
ATOM     50  C   UNL     1       3.303  -3.094   6.250  1.00  0.00     0.012 A 
ATOM     51  C   UNL     1       5.184  -2.526   4.806  1.00  0.00     0.148 A 
ATOM     52  C   UNL     1       3.963  -2.510   7.334  1.00  0.00     0.002 A 
ATOM     53  C   UNL     1       5.849  -1.979   5.900  1.00  0.00     0.091 A 
ATOM     54  F   UNL     1       5.731  -2.538   3.582  1.00  0.00    -0.205 F 
ATOM     55  C   UNL     1       5.214  -1.919   7.151  1.00  0.00     0.022 A 
BRANCH  53  56
ATOM     56  S   UNL     1       7.531  -1.352   5.766  1.00  0.00     0.127 S 
ATOM     57  O   UNL     1       7.569  -0.316   6.799  1.00  0.00    -0.237 OA
ATOM     58  O   UNL     1       8.327  -2.537   6.071  1.00  0.00    -0.237 OA
ATOM     59  O   UNL     1       7.634  -0.843   4.405  1.00  0.00    -0.744 OA
ENDBRANCH  53  56
ENDBRANCH  25  49
BRANCH  37  60
ATOM     60  C   UNL     1      -1.038   0.914   2.291  1.00  0.00     0.023 A 
ATOM     61  C   UNL     1      -0.402   2.164   2.417  1.00  0.00     0.012 A 
ATOM     62  C   UNL     1      -2.383   0.774   2.683  1.00  0.00     0.148 A 
ATOM     63  C   UNL     1      -1.082   3.248   2.968  1.00  0.00     0.002 A 
ATOM     64  C   UNL     1      -3.074   1.874   3.169  1.00  0.00     0.091 A 
ATOM     65  F   UNL     1      -2.955  -0.435   2.589  1.00  0.00    -0.205 F 
ATOM     66  C   UNL     1      -2.420   3.107   3.331  1.00  0.00     0.022 A 
BRANCH  64  67
ATOM     67  S   UNL     1      -4.823   1.813   3.563  1.00  0.00     0.127 S 
ATOM     68  O   UNL     1      -4.814   2.054   5.005  1.00  0.00    -0.237 OA
ATOM     69  O   UNL     1      -5.352   2.916   2.761  1.00  0.00    -0.237 OA
ATOM     70  O   UNL     1      -5.285   0.492   3.160  1.00  0.00    -0.744 OA
ENDBRANCH  64  67
ENDBRANCH  37  60
ENDBRANCH  11  12
ENDBRANCH   4   6
ENDBRANCH   3   4
ENDBRANCH   2   3
ENDBRANCH   1   2
BRANCH   1  71
ATOM     71  O   UNL     1       5.880 -10.889   1.487  1.00  0.00    -0.462 OA
BRANCH  71  72
ATOM     72  C   UNL     1       7.234 -10.752   1.548  1.00  0.00     0.309 C 
ATOM     73  O   UNL     1       8.010 -11.692   1.692  1.00  0.00    -0.252 OA
BRANCH  72  74
ATOM     74  C   UNL     1       7.717  -9.306   1.470  1.00  0.00     0.099 C 
ATOM     75  C   UNL     1       6.683  -8.290   0.989  1.00  0.00     0.016 C 
ATOM     76  C   UNL     1       8.318  -8.892   2.811  1.00  0.00     0.016 C 
ATOM     77  C   UNL     1       7.124  -6.823   1.064  1.00  0.00     0.010 C 
ATOM     78  C   UNL     1       8.851  -7.463   2.736  1.00  0.00     0.010 C 
ATOM     79  C   UNL     1       7.738  -6.455   2.425  1.00  0.00     0.044 C 
BRANCH  79  80
ATOM     80  C   UNL     1       6.629  -6.387   3.495  1.00  0.00     0.264 C 
BRANCH  80  81
ATOM     81  N   UNL     1       7.100  -6.327   4.871  1.00  0.00    -0.344 N 
ATOM     82  H   UNL     1       7.472  -5.393   5.046  1.00  0.00     0.346 HD
ATOM     83  H   UNL     1       7.813  -7.048   4.981  1.00  0.00     0.346 HD
BRANCH  81  84
ATOM     84  C   UNL     1       6.049  -6.599   5.848  1.00  0.00     0.182 C 
ATOM     85  C   UNL     1       6.156  -7.983   6.487  1.00  0.00     0.065 C 
ATOM     86  C   UNL     1       6.054  -5.506   6.907  1.00  0.00     0.069 C 
ATOM     87  C   UNL     1       7.307  -8.086   7.480  1.00  0.00     0.006 C 
ATOM     88  C   UNL     1       7.250  -5.582   7.861  1.00  0.00    -0.002 C 
ATOM     89  C   UNL     1       7.264  -6.965   8.521  1.00  0.00     0.004 C 
BRANCH  88  90
ATOM     90  C   UNL     1       7.205  -4.407   8.806  1.00  0.00    -0.008 C 
ATOM     91  C   UNL     1       6.888  -4.479  10.277  1.00  0.00     0.004 C 
ATOM     92  C   UNL     1       8.291  -4.177   9.820  1.00  0.00     0.004 C 
ENDBRANCH  88  90
ENDBRANCH  81  84
ENDBRANCH  80  81
ENDBRANCH  79  80
ENDBRANCH  72  74
ENDBRANCH  71  72
ENDBRANCH   1  71
TORSDOF 18
