REMARK SMILES [NH3+][C@H](C(=O)OCCOC(=O)c1ccc(-c2c3nc(c(-c4cccc(S(=O)(=O)[O-])c4F)c4ccc([nH]4)c(-c4cccc(S(=O)(=O)[O-])c4F)c4nc(c(-c5cccc(S(=O)(=O)[O-])c5F)c5ccc2[nH]5)C=C4)C=C3)cc1)c1ccc(Cl)c(OC(F)(F)F)c1
REMARK SMILES IDX 6 1 5 2 3 3 4 4 2 5 1 6 74 10 75 11 85 12 76 13 79 14 77 15
REMARK SMILES IDX 78 16 80 17 81 18 82 19 83 20 84 21 7 22 8 23 9 24 10 25
REMARK SMILES IDX 11 26 12 27 73 28 13 29 72 30 14 31 15 32 16 33 66 34 17 35
REMARK SMILES IDX 71 36 65 37 67 38 18 39 70 40 64 41 63 42 19 44 51 45 31 46
REMARK SMILES IDX 50 47 32 48 35 49 49 50 68 51 33 52 34 53 48 55 69 56 36 57
REMARK SMILES IDX 20 58 21 59 29 60 22 61 24 62 30 63 23 64 25 65 26 66 27 67
REMARK SMILES IDX 28 68 52 69 53 70 61 71 54 72 56 73 62 74 55 75 57 76 58 77
REMARK SMILES IDX 59 78 60 79 37 80 38 81 46 82 39 83 41 84 47 85 40 86 42 87
REMARK SMILES IDX 43 88 44 89 45 90
REMARK H PARENT 1 7 1 8 1 9 67 43 35 54
REMARK Flexibility Score: inf
ROOT
ATOM      1  C   UNL     1       1.396   1.835   1.328  1.00  0.00     0.274 C 
ENDROOT
BRANCH   1   2
ATOM      2  O   UNL     1       0.732   1.407   0.123  1.00  0.00    -0.457 OA
BRANCH   2   3
ATOM      3  C   UNL     1       1.313   0.383  -0.564  1.00  0.00     0.369 C 
ATOM      4  O   UNL     1       2.393  -0.124  -0.276  1.00  0.00    -0.245 OA
BRANCH   3   5
ATOM      5  C   UNL     1       0.493  -0.020  -1.814  1.00  0.00     0.323 C 
BRANCH   5   6
ATOM      6  N   UNL     1       1.129  -1.182  -2.487  1.00  0.00    -0.342 N 
ATOM      7  H   UNL     1       0.583  -1.441  -3.308  1.00  0.00     0.345 HD
ATOM      8  H   UNL     1       1.166  -1.971  -1.841  1.00  0.00     0.345 HD
ATOM      9  H   UNL     1       2.076  -0.933  -2.773  1.00  0.00     0.345 HD
ENDBRANCH   5   6
BRANCH   5  10
ATOM     10  C   UNL     1      -0.995  -0.232  -1.543  1.00  0.00     0.025 A 
ATOM     11  C   UNL     1      -1.818   0.901  -1.439  1.00  0.00     0.012 A 
ATOM     12  C   UNL     1      -1.588  -1.505  -1.388  1.00  0.00     0.059 A 
ATOM     13  C   UNL     1      -3.182   0.776  -1.185  1.00  0.00     0.025 A 
ATOM     14  C   UNL     1      -2.963  -1.645  -1.141  1.00  0.00     0.148 A 
ATOM     15  C   UNL     1      -3.750  -0.488  -1.040  1.00  0.00     0.083 A 
ATOM     16  Cl  UNL     1      -5.454  -0.574  -0.749  1.00  0.00    -0.080 Cl
BRANCH  14  17
ATOM     17  O   UNL     1      -3.633  -2.832  -1.010  1.00  0.00    -0.404 OA
BRANCH  17  18
ATOM     18  C   UNL     1      -2.898  -4.039  -0.991  1.00  0.00     0.573 C 
ATOM     19  F   UNL     1      -2.253  -4.229  -2.160  1.00  0.00    -0.132 F 
ATOM     20  F   UNL     1      -2.010  -4.047   0.023  1.00  0.00    -0.132 F 
ATOM     21  F   UNL     1      -3.756  -5.066  -0.809  1.00  0.00    -0.132 F 
ENDBRANCH  17  18
ENDBRANCH  14  17
ENDBRANCH   5  10
ENDBRANCH   3   5
ENDBRANCH   2   3
ENDBRANCH   1   2
BRANCH   1  22
ATOM     22  C   UNL     1       0.706   1.247   2.555  1.00  0.00     0.275 C 
BRANCH  22  23
ATOM     23  O   UNL     1       0.875  -0.179   2.565  1.00  0.00    -0.458 OA
BRANCH  23  24
ATOM     24  C   UNL     1      -0.254  -0.910   2.420  1.00  0.00     0.338 C 
ATOM     25  O   UNL     1      -1.397  -0.504   2.324  1.00  0.00    -0.246 OA
BRANCH  24  26
ATOM     26  C   UNL     1       0.113  -2.331   2.368  1.00  0.00     0.060 A 
ATOM     27  C   UNL     1       0.707  -2.843   1.213  1.00  0.00     0.016 A 
ATOM     28  C   UNL     1      -0.210  -3.170   3.432  1.00  0.00     0.016 A 
ATOM     29  C   UNL     1       0.926  -4.213   1.091  1.00  0.00     0.010 A 
ATOM     30  C   UNL     1       0.071  -4.535   3.333  1.00  0.00     0.010 A 
ATOM     31  C   UNL     1       0.610  -5.074   2.151  1.00  0.00    -0.014 A 
BRANCH  31  32
ATOM     32  C   UNL     1       0.813  -6.541   2.021  1.00  0.00     0.031 A 
ATOM     33  C   UNL     1      -0.366  -7.474   2.083  1.00  0.00     0.074 A 
ATOM     34  C   UNL     1       2.057  -7.039   1.880  1.00  0.00     0.049 A 
ATOM     35  N   UNL     1      -0.383  -8.781   2.127  1.00  0.00    -0.248 NA
ATOM     36  C   UNL     1      -1.702  -6.857   2.112  1.00  0.00     0.031 C 
ATOM     37  C   UNL     1       3.283  -6.243   1.806  1.00  0.00     0.029 A 
ATOM     38  N   UNL     1       2.498  -8.337   1.797  1.00  0.00    -0.354 N 
ATOM     39  C   UNL     1      -1.719  -9.141   2.254  1.00  0.00     0.074 A 
ATOM     40  C   UNL     1      -2.487  -7.914   2.271  1.00  0.00     0.031 C 
ATOM     41  C   UNL     1       4.335  -7.067   1.688  1.00  0.00     0.029 A 
ATOM     42  C   UNL     1       3.867  -8.448   1.733  1.00  0.00     0.049 A 
ATOM     43  H   UNL     1       1.892  -9.113   1.784  1.00  0.00     0.167 HD
ATOM     44  C   UNL     1      -2.260 -10.380   2.336  1.00  0.00     0.034 A 
ATOM     45  C   UNL     1       4.660  -9.538   1.741  1.00  0.00     0.034 A 
ATOM     46  C   UNL     1      -1.504 -11.600   2.249  1.00  0.00     0.049 A 
ATOM     47  C   UNL     1       4.032 -10.902   1.813  1.00  0.00     0.074 A 
ATOM     48  C   UNL     1      -1.969 -12.903   2.263  1.00  0.00     0.029 A 
ATOM     49  N   UNL     1      -0.125 -11.670   2.123  1.00  0.00    -0.354 N 
ATOM     50  N   UNL     1       2.762 -11.224   1.848  1.00  0.00    -0.248 NA
ATOM     51  C   UNL     1       4.945 -12.055   1.828  1.00  0.00     0.031 C 
ATOM     52  C   UNL     1      -0.870 -13.762   2.151  1.00  0.00     0.029 A 
ATOM     53  C   UNL     1       0.279 -12.993   2.061  1.00  0.00     0.049 A 
ATOM     54  H   UNL     1       0.478 -10.893   2.084  1.00  0.00     0.167 HD
ATOM     55  C   UNL     1       2.721 -12.613   1.869  1.00  0.00     0.074 A 
ATOM     56  C   UNL     1       4.094 -13.072   1.815  1.00  0.00     0.031 C 
ATOM     57  C   UNL     1       1.645 -13.434   1.950  1.00  0.00     0.034 A 
BRANCH  44  58
ATOM     58  C   UNL     1      -3.753 -10.482   2.492  1.00  0.00     0.023 A 
ATOM     59  C   UNL     1      -4.587 -10.255   1.379  1.00  0.00     0.012 A 
ATOM     60  C   UNL     1      -4.329 -10.857   3.723  1.00  0.00     0.148 A 
ATOM     61  C   UNL     1      -5.971 -10.376   1.494  1.00  0.00     0.002 A 
ATOM     62  C   UNL     1      -5.707 -11.010   3.820  1.00  0.00     0.091 A 
ATOM     63  F   UNL     1      -3.522 -11.041   4.778  1.00  0.00    -0.205 F 
ATOM     64  C   UNL     1      -6.530 -10.763   2.709  1.00  0.00     0.022 A 
BRANCH  62  65
ATOM     65  S   UNL     1      -6.506 -11.573   5.328  1.00  0.00     0.127 S 
ATOM     66  O   UNL     1      -7.035 -10.322   5.869  1.00  0.00    -0.237 OA
ATOM     67  O   UNL     1      -7.523 -12.495   4.820  1.00  0.00    -0.237 OA
ATOM     68  O   UNL     1      -5.459 -12.209   6.116  1.00  0.00    -0.744 OA
ENDBRANCH  62  65
ENDBRANCH  44  58
BRANCH  45  69
ATOM     69  C   UNL     1       6.138  -9.375   1.639  1.00  0.00     0.023 A 
ATOM     70  C   UNL     1       6.792  -9.760   0.453  1.00  0.00     0.012 A 
ATOM     71  C   UNL     1       6.889  -8.797   2.681  1.00  0.00     0.148 A 
ATOM     72  C   UNL     1       8.169  -9.587   0.313  1.00  0.00     0.002 A 
ATOM     73  C   UNL     1       8.251  -8.574   2.512  1.00  0.00     0.091 A 
ATOM     74  F   UNL     1       6.254  -8.460   3.813  1.00  0.00    -0.205 F 
ATOM     75  C   UNL     1       8.896  -8.981   1.335  1.00  0.00     0.022 A 
BRANCH  73  76
ATOM     76  S   UNL     1       9.223  -7.669   3.722  1.00  0.00     0.127 S 
ATOM     77  O   UNL     1       9.934  -8.747   4.403  1.00  0.00    -0.237 OA
ATOM     78  O   UNL     1      10.060  -6.820   2.872  1.00  0.00    -0.237 OA
ATOM     79  O   UNL     1       8.254  -6.935   4.524  1.00  0.00    -0.744 OA
ENDBRANCH  73  76
ENDBRANCH  45  69
BRANCH  57  80
ATOM     80  C   UNL     1       1.902 -14.917   1.969  1.00  0.00     0.023 A 
ATOM     81  C   UNL     1       2.381 -15.520   3.148  1.00  0.00     0.012 A 
ATOM     82  C   UNL     1       1.600 -15.720   0.852  1.00  0.00     0.148 A 
ATOM     83  C   UNL     1       2.578 -16.899   3.208  1.00  0.00     0.002 A 
ATOM     84  C   UNL     1       1.762 -17.099   0.933  1.00  0.00     0.091 A 
ATOM     85  F   UNL     1       1.167 -15.124  -0.269  1.00  0.00    -0.205 F 
ATOM     86  C   UNL     1       2.258 -17.689   2.107  1.00  0.00     0.022 A 
BRANCH  84  87
ATOM     87  S   UNL     1       1.293 -18.193  -0.413  1.00  0.00     0.127 S 
ATOM     88  O   UNL     1       2.587 -18.483  -1.028  1.00  0.00    -0.237 OA
ATOM     89  O   UNL     1       0.689 -19.323   0.295  1.00  0.00    -0.237 OA
ATOM     90  O   UNL     1       0.360 -17.433  -1.233  1.00  0.00    -0.744 OA
ENDBRANCH  84  87
ENDBRANCH  57  80
ENDBRANCH  31  32
ENDBRANCH  24  26
ENDBRANCH  23  24
ENDBRANCH  22  23
ENDBRANCH   1  22
TORSDOF 18
