REMARK SMILES C[C@@H]1C(=O)NC(=O)CN1C(=O)NC1(CC(=O)OCCOC(=O)c2ccc(-c3c4nc(c(-c5cccc(S(=O)(=O)[O-])c5F)c5ccc([nH]5)c(-c5cccc(S(=O)(=O)[O-])c5F)c5nc(c(-c6cccc(S(=O)(=O)[O-])c6F)c6ccc3[nH]6)C=C5)C=C4)cc2)CCC1
REMARK SMILES IDX 18 1 17 2 15 3 16 4 14 5 13 6 86 7 88 8 87 9 12 10 10 11
REMARK SMILES IDX 11 12 9 14 1 15 2 16 3 17 4 18 5 19 8 20 6 21 7 23 19 24
REMARK SMILES IDX 20 25 21 26 22 27 23 28 24 29 85 30 25 31 84 32 26 33 27 34
REMARK SMILES IDX 28 35 78 36 29 37 83 38 77 39 79 40 30 41 82 42 76 43 75 44
REMARK SMILES IDX 31 46 63 47 43 48 62 49 44 50 47 51 61 52 80 53 45 54 46 55
REMARK SMILES IDX 60 57 81 58 48 59 32 60 33 61 41 62 34 63 36 64 42 65 35 66
REMARK SMILES IDX 37 67 38 68 39 69 40 70 64 71 65 72 73 73 66 74 68 75 74 76
REMARK SMILES IDX 67 77 69 78 70 79 71 80 72 81 49 82 50 83 58 84 51 85 53 86
REMARK SMILES IDX 59 87 52 88 54 89 55 90 56 91 57 92
REMARK H PARENT 12 13 5 22 79 45 47 56
REMARK Flexibility Score: inf
ROOT
ATOM      1  C   UNL     1      -4.801  -0.904  -5.026  1.00  0.00     0.274 C 
ENDROOT
BRANCH   1   2
ATOM      2  O   UNL     1      -3.692  -1.048  -4.112  1.00  0.00    -0.462 OA
BRANCH   2   3
ATOM      3  C   UNL     1      -2.468  -0.672  -4.549  1.00  0.00     0.308 C 
ATOM      4  O   UNL     1      -2.241  -0.231  -5.670  1.00  0.00    -0.252 OA
BRANCH   3   5
ATOM      5  C   UNL     1      -1.352  -0.943  -3.565  1.00  0.00     0.151 C 
BRANCH   5   6
ATOM      6  C   UNL     1      -1.652  -0.979  -2.058  1.00  0.00     0.052 C 
ATOM      7  C   UNL     1      -0.648  -1.810  -1.185  1.00  0.00     0.029 C 
ATOM      8  C   UNL     1      -2.709  -2.059  -1.574  1.00  0.00     0.029 C 
ATOM      9  C   UNL     1      -1.547  -3.037  -1.377  1.00  0.00     0.005 C 
BRANCH   6  10
ATOM     10  N   UNL     1      -2.012   0.358  -1.533  1.00  0.00    -0.332 N 
ATOM     11  C   UNL     1      -1.455   1.490  -1.058  1.00  0.00     0.318 C 
ATOM     12  O   UNL     1      -2.272   2.319  -0.637  1.00  0.00    -0.249 OA
ATOM     13  H   UNL     1      -2.992   0.451  -1.528  1.00  0.00     0.165 HD
BRANCH  11  14
ATOM     14  N   UNL     1      -0.125   1.779  -1.034  1.00  0.00    -0.304 N 
ATOM     15  C   UNL     1       1.594   0.345   0.008  1.00  0.00     0.042 C 
ATOM     16  C   UNL     1       1.012   0.901  -1.299  1.00  0.00     0.174 C 
ATOM     17  C   UNL     1       2.132   1.613  -2.070  1.00  0.00     0.249 C 
ATOM     18  O   UNL     1       3.003   0.984  -2.672  1.00  0.00    -0.272 OA
ATOM     19  N   UNL     1       2.257   2.963  -1.876  1.00  0.00    -0.293 N 
ATOM     20  C   UNL     1       0.230   3.097  -0.476  1.00  0.00     0.222 C 
ATOM     21  C   UNL     1       1.491   3.733  -1.043  1.00  0.00     0.246 C 
ATOM     22  H   UNL     1       2.963   3.423  -2.384  1.00  0.00     0.173 HD
ATOM     23  O   UNL     1       1.868   4.854  -0.710  1.00  0.00    -0.273 OA
ENDBRANCH  11  14
ENDBRANCH   6  10
ENDBRANCH   5   6
ENDBRANCH   3   5
ENDBRANCH   2   3
ENDBRANCH   1   2
BRANCH   1  24
ATOM     24  C   UNL     1      -5.753   0.207  -4.581  1.00  0.00     0.275 C 
BRANCH  24  25
ATOM     25  O   UNL     1      -5.121   1.493  -4.680  1.00  0.00    -0.458 OA
BRANCH  25  26
ATOM     26  C   UNL     1      -4.463   1.881  -3.565  1.00  0.00     0.338 C 
ATOM     27  O   UNL     1      -4.419   1.282  -2.498  1.00  0.00    -0.246 OA
BRANCH  26  28
ATOM     28  C   UNL     1      -3.671   3.079  -3.872  1.00  0.00     0.060 A 
ATOM     29  C   UNL     1      -2.294   2.943  -4.069  1.00  0.00     0.016 A 
ATOM     30  C   UNL     1      -4.277   4.334  -3.918  1.00  0.00     0.016 A 
ATOM     31  C   UNL     1      -1.505   4.071  -4.277  1.00  0.00     0.010 A 
ATOM     32  C   UNL     1      -3.487   5.461  -4.156  1.00  0.00     0.010 A 
ATOM     33  C   UNL     1      -2.094   5.340  -4.316  1.00  0.00    -0.014 A 
BRANCH  33  34
ATOM     34  C   UNL     1      -1.257   6.550  -4.500  1.00  0.00     0.031 A 
ATOM     35  C   UNL     1      -1.088   7.523  -3.368  1.00  0.00     0.074 A 
ATOM     36  C   UNL     1      -0.685   6.794  -5.694  1.00  0.00     0.049 A 
ATOM     37  N   UNL     1      -0.494   8.687  -3.363  1.00  0.00    -0.248 NA
ATOM     38  C   UNL     1      -1.675   7.138  -2.074  1.00  0.00     0.031 C 
ATOM     39  C   UNL     1      -0.780   5.926  -6.868  1.00  0.00     0.029 A 
ATOM     40  N   UNL     1       0.066   7.859  -6.124  1.00  0.00    -0.354 N 
ATOM     41  C   UNL     1      -0.675   9.199  -2.084  1.00  0.00     0.074 A 
ATOM     42  C   UNL     1      -1.439   8.218  -1.342  1.00  0.00     0.031 C 
ATOM     43  C   UNL     1      -0.127   6.501  -7.891  1.00  0.00     0.029 A 
ATOM     44  C   UNL     1       0.397   7.793  -7.457  1.00  0.00     0.049 A 
ATOM     45  H   UNL     1       0.340   8.599  -5.535  1.00  0.00     0.167 HD
ATOM     46  C   UNL     1      -0.234  10.373  -1.571  1.00  0.00     0.034 A 
ATOM     47  C   UNL     1       1.027   8.684  -8.247  1.00  0.00     0.034 A 
ATOM     48  C   UNL     1       0.567  11.322  -2.298  1.00  0.00     0.049 A 
ATOM     49  C   UNL     1       1.508   9.980  -7.653  1.00  0.00     0.074 A 
ATOM     50  C   UNL     1       1.116  12.509  -1.847  1.00  0.00     0.029 A 
ATOM     51  N   UNL     1       0.932  11.194  -3.630  1.00  0.00    -0.354 N 
ATOM     52  N   UNL     1       1.419  10.403  -6.415  1.00  0.00    -0.248 NA
ATOM     53  C   UNL     1       2.198  10.910  -8.557  1.00  0.00     0.031 C 
ATOM     54  C   UNL     1       1.799  13.108  -2.912  1.00  0.00     0.029 A 
ATOM     55  C   UNL     1       1.691  12.285  -4.021  1.00  0.00     0.049 A 
ATOM     56  H   UNL     1       0.689  10.438  -4.212  1.00  0.00     0.167 HD
ATOM     57  C   UNL     1       2.066  11.633  -6.384  1.00  0.00     0.074 A 
ATOM     58  C   UNL     1       2.561  11.877  -7.724  1.00  0.00     0.031 C 
ATOM     59  C   UNL     1       2.223  12.490  -5.345  1.00  0.00     0.034 A 
BRANCH  46  60
ATOM     60  C   UNL     1      -0.585  10.682  -0.139  1.00  0.00     0.023 A 
ATOM     61  C   UNL     1       0.060   9.986   0.903  1.00  0.00     0.012 A 
ATOM     62  C   UNL     1      -1.519  11.688   0.177  1.00  0.00     0.148 A 
ATOM     63  C   UNL     1      -0.245  10.261   2.236  1.00  0.00     0.002 A 
ATOM     64  C   UNL     1      -1.788  11.985   1.508  1.00  0.00     0.091 A 
ATOM     65  F   UNL     1      -2.143  12.323  -0.826  1.00  0.00    -0.205 F 
ATOM     66  C   UNL     1      -1.160  11.266   2.538  1.00  0.00     0.022 A 
BRANCH  64  67
ATOM     67  S   UNL     1      -2.896  13.315   1.991  1.00  0.00     0.127 S 
ATOM     68  O   UNL     1      -4.098  12.576   2.372  1.00  0.00    -0.237 OA
ATOM     69  O   UNL     1      -2.179  13.929   3.110  1.00  0.00    -0.237 OA
ATOM     70  O   UNL     1      -3.025  14.169   0.819  1.00  0.00    -0.744 OA
ENDBRANCH  64  67
ENDBRANCH  46  60
BRANCH  47  71
ATOM     71  C   UNL     1       1.281   8.352  -9.677  1.00  0.00     0.023 A 
ATOM     72  C   UNL     1       2.596   8.077 -10.095  1.00  0.00     0.012 A 
ATOM     73  C   UNL     1       0.228   8.259 -10.608  1.00  0.00     0.148 A 
ATOM     74  C   UNL     1       2.863   7.733 -11.421  1.00  0.00     0.002 A 
ATOM     75  C   UNL     1       0.494   7.864 -11.914  1.00  0.00     0.091 A 
ATOM     76  F   UNL     1      -1.015   8.540 -10.193  1.00  0.00    -0.205 F 
ATOM     77  C   UNL     1       1.812   7.615 -12.326  1.00  0.00     0.022 A 
BRANCH  75  78
ATOM     78  S   UNL     1      -0.807   7.561 -13.116  1.00  0.00     0.127 S 
ATOM     79  O   UNL     1      -0.612   8.665 -14.052  1.00  0.00    -0.237 OA
ATOM     80  O   UNL     1      -0.439   6.242 -13.633  1.00  0.00    -0.237 OA
ATOM     81  O   UNL     1      -2.053   7.584 -12.363  1.00  0.00    -0.744 OA
ENDBRANCH  75  78
ENDBRANCH  47  71
BRANCH  59  82
ATOM     82  C   UNL     1       2.985  13.764  -5.600  1.00  0.00     0.023 A 
ATOM     83  C   UNL     1       2.378  14.805  -6.331  1.00  0.00     0.012 A 
ATOM     84  C   UNL     1       4.269  13.960  -5.054  1.00  0.00     0.148 A 
ATOM     85  C   UNL     1       3.048  16.010  -6.539  1.00  0.00     0.002 A 
ATOM     86  C   UNL     1       4.913  15.180  -5.228  1.00  0.00     0.091 A 
ATOM     87  F   UNL     1       4.840  12.951  -4.380  1.00  0.00    -0.205 F 
ATOM     88  C   UNL     1       4.309  16.202  -5.978  1.00  0.00     0.022 A 
BRANCH  86  89
ATOM     89  S   UNL     1       6.498  15.547  -4.465  1.00  0.00     0.127 S 
ATOM     90  O   UNL     1       7.407  15.458  -5.607  1.00  0.00    -0.237 OA
ATOM     91  O   UNL     1       6.294  16.903  -3.954  1.00  0.00    -0.237 OA
ATOM     92  O   UNL     1       6.688  14.537  -3.432  1.00  0.00    -0.744 OA
ENDBRANCH  86  89
ENDBRANCH  59  82
ENDBRANCH  33  34
ENDBRANCH  26  28
ENDBRANCH  25  26
ENDBRANCH  24  25
ENDBRANCH   1  24
TORSDOF 17
