REMARK SMILES C[C@]([NH2+]Cc1noc(C2CC2)n1)(C(=O)OCCOC(=O)c1ccc(-c2c3nc(c(-c4cccc(S(=O)(=O)[O-])c4F)c4ccc([nH]4)c(-c4cccc(S(=O)(=O)[O-])c4F)c4nc(c(-c5cccc(S(=O)(=O)[O-])c5F)c5ccc2[nH]5)C=C4)C=C3)cc1)C(F)(F)F
REMARK SMILES IDX 16 1 15 2 13 3 14 4 2 5 1 6 84 7 85 8 86 9 87 10 3 11 4 14
REMARK SMILES IDX 5 15 6 16 12 17 7 18 8 19 9 20 10 21 11 22 17 23 18 24 19 25
REMARK SMILES IDX 20 26 21 27 22 28 83 29 23 30 82 31 24 32 25 33 26 34 76 35
REMARK SMILES IDX 27 36 81 37 75 38 77 39 28 40 80 41 74 42 73 43 29 45 61 46
REMARK SMILES IDX 41 47 60 48 42 49 45 50 59 51 78 52 43 53 44 54 58 56 79 57
REMARK SMILES IDX 46 58 30 59 31 60 39 61 32 62 34 63 40 64 33 65 35 66 36 67
REMARK SMILES IDX 37 68 38 69 62 70 63 71 71 72 64 73 66 74 72 75 65 76 67 77
REMARK SMILES IDX 68 78 69 79 70 80 47 81 48 82 56 83 49 84 51 85 57 86 50 87
REMARK SMILES IDX 52 88 53 89 54 90 55 91
REMARK H PARENT 3 12 3 13 77 44 45 55
REMARK Flexibility Score: inf
ROOT
ATOM      1  C   UNL     1      -2.732  -0.469  -1.214  1.00  0.00     0.274 C 
ENDROOT
BRANCH   1   2
ATOM      2  O   UNL     1      -1.302  -0.513  -1.021  1.00  0.00    -0.457 OA
BRANCH   2   3
ATOM      3  C   UNL     1      -0.559   0.401  -1.723  1.00  0.00     0.377 C 
ATOM      4  O   UNL     1      -1.046   1.180  -2.531  1.00  0.00    -0.244 OA
BRANCH   3   5
ATOM      5  C   UNL     1       0.954   0.213  -1.496  1.00  0.00     0.287 C 
ATOM      6  C   UNL     1       1.423  -0.717  -2.629  1.00  0.00     0.103 C 
BRANCH   5   7
ATOM      7  C   UNL     1       1.614   1.603  -1.681  1.00  0.00     0.455 C 
ATOM      8  F   UNL     1       1.343   2.432  -0.651  1.00  0.00    -0.164 F 
ATOM      9  F   UNL     1       2.970   1.467  -1.712  1.00  0.00    -0.164 F 
ATOM     10  F   UNL     1       1.278   2.225  -2.827  1.00  0.00    -0.164 F 
ENDBRANCH   5   7
BRANCH   5  11
ATOM     11  N   UNL     1       1.179  -0.450  -0.161  1.00  0.00    -0.318 N 
ATOM     12  H   UNL     1       0.928  -1.435  -0.247  1.00  0.00     0.347 HD
ATOM     13  H   UNL     1       0.601   0.052   0.513  1.00  0.00     0.347 HD
BRANCH  11  14
ATOM     14  C   UNL     1       2.561  -0.371   0.332  1.00  0.00     0.344 C 
BRANCH  14  15
ATOM     15  C   UNL     1       2.748  -1.226   1.547  1.00  0.00     0.226 A 
ATOM     16  N   UNL     1       2.264  -2.474   1.644  1.00  0.00    -0.056 NA
ATOM     17  N   UNL     1       3.507  -0.818   2.614  1.00  0.00    -0.190 NA
ATOM     18  O   UNL     1       2.706  -2.885   2.904  1.00  0.00    -0.339 OA
ATOM     19  C   UNL     1       3.442  -1.853   3.421  1.00  0.00     0.229 A 
BRANCH  19  20
ATOM     20  C   UNL     1       4.129  -1.925   4.777  1.00  0.00     0.079 C 
ATOM     21  C   UNL     1       5.474  -1.244   4.939  1.00  0.00     0.014 C 
ATOM     22  C   UNL     1       4.272  -0.657   5.593  1.00  0.00     0.014 C 
ENDBRANCH  19  20
ENDBRANCH  14  15
ENDBRANCH  11  14
ENDBRANCH   5  11
ENDBRANCH   3   5
ENDBRANCH   2   3
ENDBRANCH   1   2
BRANCH   1  23
ATOM     23  C   UNL     1      -3.407   0.262  -0.058  1.00  0.00     0.275 C 
BRANCH  23  24
ATOM     24  O   UNL     1      -2.963   1.626  -0.055  1.00  0.00    -0.458 OA
BRANCH  24  25
ATOM     25  C   UNL     1      -2.652   2.146   1.152  1.00  0.00     0.338 C 
ATOM     26  O   UNL     1      -2.794   1.609   2.243  1.00  0.00    -0.246 OA
BRANCH  25  27
ATOM     27  C   UNL     1      -2.102   3.502   0.974  1.00  0.00     0.060 A 
ATOM     28  C   UNL     1      -1.153   3.753  -0.018  1.00  0.00     0.016 A 
ATOM     29  C   UNL     1      -2.468   4.516   1.857  1.00  0.00     0.016 A 
ATOM     30  C   UNL     1      -0.496   4.981  -0.068  1.00  0.00     0.010 A 
ATOM     31  C   UNL     1      -1.882   5.780   1.738  1.00  0.00     0.010 A 
ATOM     32  C   UNL     1      -0.858   6.016   0.803  1.00  0.00    -0.014 A 
BRANCH  32  33
ATOM     33  C   UNL     1      -0.145   7.325   0.776  1.00  0.00     0.031 A 
ATOM     34  C   UNL     1       0.525   7.841   2.025  1.00  0.00     0.074 A 
ATOM     35  C   UNL     1      -0.110   8.067  -0.349  1.00  0.00     0.049 A 
ATOM     36  N   UNL     1       1.014   9.029   2.271  1.00  0.00    -0.248 NA
ATOM     37  C   UNL     1       0.640   6.902   3.154  1.00  0.00     0.031 C 
ATOM     38  C   UNL     1      -0.698   7.687  -1.635  1.00  0.00     0.029 A 
ATOM     39  N   UNL     1       0.435   9.306  -0.589  1.00  0.00    -0.354 N 
ATOM     40  C   UNL     1       1.411   9.008   3.603  1.00  0.00     0.074 A 
ATOM     41  C   UNL     1       1.121   7.684   4.110  1.00  0.00     0.031 C 
ATOM     42  C   UNL     1      -0.464   8.658  -2.531  1.00  0.00     0.029 A 
ATOM     43  C   UNL     1       0.220   9.763  -1.868  1.00  0.00     0.049 A 
ATOM     44  H   UNL     1       0.931   9.817   0.091  1.00  0.00     0.167 HD
ATOM     45  C   UNL     1       1.976   9.997   4.335  1.00  0.00     0.034 A 
ATOM     46  C   UNL     1       0.505  10.950  -2.439  1.00  0.00     0.034 A 
ATOM     47  C   UNL     1       2.356  11.278   3.805  1.00  0.00     0.049 A 
ATOM     48  C   UNL     1       1.168  12.019  -1.616  1.00  0.00     0.074 A 
ATOM     49  C   UNL     1       2.979  12.329   4.456  1.00  0.00     0.029 A 
ATOM     50  N   UNL     1       2.171  11.676   2.490  1.00  0.00    -0.354 N 
ATOM     51  N   UNL     1       1.566  11.970  -0.368  1.00  0.00    -0.248 NA
ATOM     52  C   UNL     1       1.427  13.304  -2.280  1.00  0.00     0.031 C 
ATOM     53  C   UNL     1       3.173  13.362   3.532  1.00  0.00     0.029 A 
ATOM     54  C   UNL     1       2.673  12.953   2.307  1.00  0.00     0.049 A 
ATOM     55  H   UNL     1       1.746  11.130   1.789  1.00  0.00     0.167 HD
ATOM     56  C   UNL     1       2.130  13.211  -0.099  1.00  0.00     0.074 A 
ATOM     57  C   UNL     1       2.054  13.979  -1.325  1.00  0.00     0.031 C 
ATOM     58  C   UNL     1       2.639  13.683   1.066  1.00  0.00     0.034 A 
BRANCH  45  59
ATOM     59  C   UNL     1       2.252   9.721   5.790  1.00  0.00     0.023 A 
ATOM     60  C   UNL     1       3.347   8.911   6.151  1.00  0.00     0.012 A 
ATOM     61  C   UNL     1       1.461  10.305   6.798  1.00  0.00     0.148 A 
ATOM     62  C   UNL     1       3.633   8.665   7.494  1.00  0.00     0.002 A 
ATOM     63  C   UNL     1       1.775  10.085   8.135  1.00  0.00     0.091 A 
ATOM     64  F   UNL     1       0.406  11.050   6.436  1.00  0.00    -0.205 F 
ATOM     65  C   UNL     1       2.855   9.259   8.484  1.00  0.00     0.022 A 
BRANCH  63  66
ATOM     66  S   UNL     1       0.869  10.871   9.473  1.00  0.00     0.127 S 
ATOM     67  O   UNL     1      -0.002   9.786   9.920  1.00  0.00    -0.237 OA
ATOM     68  O   UNL     1       1.937  11.220  10.413  1.00  0.00    -0.237 OA
ATOM     69  O   UNL     1       0.198  12.017   8.876  1.00  0.00    -0.744 OA
ENDBRANCH  63  66
ENDBRANCH  45  59
BRANCH  46  70
ATOM     70  C   UNL     1       0.183  11.172  -3.878  1.00  0.00     0.023 A 
ATOM     71  C   UNL     1       1.233  11.264  -4.812  1.00  0.00     0.012 A 
ATOM     72  C   UNL     1      -1.148  11.230  -4.335  1.00  0.00     0.148 A 
ATOM     73  C   UNL     1       0.963  11.419  -6.172  1.00  0.00     0.002 A 
ATOM     74  C   UNL     1      -1.410  11.323  -5.697  1.00  0.00     0.091 A 
ATOM     75  F   UNL     1      -2.136  11.172  -3.430  1.00  0.00    -0.205 F 
ATOM     76  C   UNL     1      -0.356  11.432  -6.617  1.00  0.00     0.022 A 
BRANCH  74  77
ATOM     77  S   UNL     1      -3.077  11.188  -6.354  1.00  0.00     0.127 S 
ATOM     78  O   UNL     1      -3.405  12.583  -6.633  1.00  0.00    -0.237 OA
ATOM     79  O   UNL     1      -2.877  10.353  -7.539  1.00  0.00    -0.237 OA
ATOM     80  O   UNL     1      -3.854  10.546  -5.301  1.00  0.00    -0.744 OA
ENDBRANCH  74  77
ENDBRANCH  46  70
BRANCH  58  81
ATOM     81  C   UNL     1       3.161  15.094   1.073  1.00  0.00     0.023 A 
ATOM     82  C   UNL     1       2.248  16.166   1.106  1.00  0.00     0.012 A 
ATOM     83  C   UNL     1       4.543  15.358   1.119  1.00  0.00     0.148 A 
ATOM     84  C   UNL     1       2.703  17.482   1.162  1.00  0.00     0.002 A 
ATOM     85  C   UNL     1       4.989  16.671   1.213  1.00  0.00     0.091 A 
ATOM     86  F   UNL     1       5.396  14.324   1.063  1.00  0.00    -0.205 F 
ATOM     87  C   UNL     1       4.072  17.734   1.226  1.00  0.00     0.022 A 
BRANCH  85  88
ATOM     88  S   UNL     1       6.731  17.077   1.382  1.00  0.00     0.127 S 
ATOM     89  O   UNL     1       7.077  17.486   0.022  1.00  0.00    -0.237 OA
ATOM     90  O   UNL     1       6.709  18.166   2.359  1.00  0.00    -0.237 OA
ATOM     91  O   UNL     1       7.375  15.860   1.857  1.00  0.00    -0.744 OA
ENDBRANCH  85  88
ENDBRANCH  58  81
ENDBRANCH  32  33
ENDBRANCH  25  27
ENDBRANCH  24  25
ENDBRANCH  23  24
ENDBRANCH   1  23
TORSDOF 19
