REMARK SMILES NS(=O)(=O)c1ccc(-n2nc(C(F)(F)F)cc2-c2ccc(C(=O)OCCOC(=O)c3ccc(-c4c5nc(c(-c6cccc(S(=O)(=O)[O-])c6F)c6ccc([nH]6)c(-c6cccc(S(=O)(=O)[O-])c6F)c6nc(c(-c7cccc(S(=O)(=O)[O-])c7F)c7ccc4[nH]7)C=C6)C=C5)cc3)cc2)cc1
REMARK SMILES IDX 25 1 24 2 22 3 23 4 21 5 18 6 19 7 94 8 20 9 93 10 17 11
REMARK SMILES IDX 9 12 10 13 11 14 16 15 8 16 5 17 6 18 96 19 7 20 95 21 2 22
REMARK SMILES IDX 3 23 4 24 1 25 12 28 13 29 14 30 15 31 26 32 27 33 28 34
REMARK SMILES IDX 29 35 30 36 31 37 92 38 32 39 91 40 33 41 34 42 35 43 85 44
REMARK SMILES IDX 36 45 90 46 84 47 86 48 37 49 89 50 83 51 82 52 38 54 70 55
REMARK SMILES IDX 50 56 69 57 51 58 54 59 68 60 87 61 52 62 53 63 67 65 88 66
REMARK SMILES IDX 55 67 39 68 40 69 48 70 41 71 43 72 49 73 42 74 44 75 45 76
REMARK SMILES IDX 46 77 47 78 71 79 72 80 80 81 73 82 75 83 81 84 74 85 76 86
REMARK SMILES IDX 77 87 78 88 79 89 56 90 57 91 65 92 58 93 60 94 66 95 59 96
REMARK SMILES IDX 61 97 62 98 63 99 64 100
REMARK H PARENT 1 26 1 27 86 53 54 64
REMARK Flexibility Score: inf
ROOT
ATOM      1  C   UNL     1       8.790  -3.186   3.726  1.00  0.00     0.275 C 
ENDROOT
BRANCH   1   2
ATOM      2  O   UNL     1       7.814  -2.515   4.541  1.00  0.00    -0.458 OA
BRANCH   2   3
ATOM      3  C   UNL     1       7.813  -1.160   4.448  1.00  0.00     0.338 C 
ATOM      4  O   UNL     1       8.654  -0.471   3.892  1.00  0.00    -0.246 OA
BRANCH   3   5
ATOM      5  C   UNL     1       6.585  -0.593   5.059  1.00  0.00     0.060 A 
ATOM      6  C   UNL     1       4.374   0.630   6.271  1.00  0.00     0.000 A 
ATOM      7  C   UNL     1       5.067   1.283   5.242  1.00  0.00     0.011 A 
ATOM      8  C   UNL     1       4.765  -0.659   6.653  1.00  0.00     0.011 A 
ATOM      9  C   UNL     1       6.168   0.675   4.638  1.00  0.00     0.016 A 
ATOM     10  C   UNL     1       5.861  -1.274   6.043  1.00  0.00     0.016 A 
BRANCH   6  11
ATOM     11  C   UNL     1       3.322   1.330   7.005  1.00  0.00     0.075 A 
ATOM     12  N   UNL     1       2.241   1.998   6.446  1.00  0.00    -0.233 N 
ATOM     13  N   UNL     1       1.655   2.843   7.339  1.00  0.00    -0.163 NA
ATOM     14  C   UNL     1       2.238   2.562   8.520  1.00  0.00     0.167 A 
ATOM     15  C   UNL     1       3.292   1.634   8.351  1.00  0.00     0.064 A 
BRANCH  12  16
ATOM     16  C   UNL     1       1.750   1.897   5.120  1.00  0.00     0.065 A 
ATOM     17  C   UNL     1       0.940   1.738   2.463  1.00  0.00     0.082 A 
ATOM     18  C   UNL     1       1.312   0.573   3.135  1.00  0.00     0.024 A 
ATOM     19  C   UNL     1       0.945   2.977   3.117  1.00  0.00     0.024 A 
ATOM     20  C   UNL     1       1.732   0.655   4.464  1.00  0.00     0.030 A 
ATOM     21  C   UNL     1       1.319   3.054   4.460  1.00  0.00     0.030 A 
BRANCH  17  22
ATOM     22  S   UNL     1       0.482   1.704   0.752  1.00  0.00     0.238 S 
ATOM     23  O   UNL     1       1.166   2.793   0.101  1.00  0.00    -0.207 OA
ATOM     24  O   UNL     1      -0.949   1.510   0.699  1.00  0.00    -0.207 OA
BRANCH  22  25
ATOM     25  N   UNL     1       1.181   0.298   0.149  1.00  0.00    -0.225 NA
ATOM     26  H   UNL     1       0.960   0.207  -0.842  1.00  0.00     0.137 HD
ATOM     27  H   UNL     1       0.813  -0.508   0.655  1.00  0.00     0.137 HD
ENDBRANCH  22  25
ENDBRANCH  17  22
ENDBRANCH  12  16
BRANCH  14  28
ATOM     28  C   UNL     1       1.825   3.197   9.819  1.00  0.00     0.435 C 
ATOM     29  F   UNL     1       1.686   4.546   9.741  1.00  0.00    -0.164 F 
ATOM     30  F   UNL     1       0.648   2.698  10.284  1.00  0.00    -0.164 F 
ATOM     31  F   UNL     1       2.743   2.966  10.803  1.00  0.00    -0.164 F 
ENDBRANCH  14  28
ENDBRANCH   6  11
ENDBRANCH   3   5
ENDBRANCH   2   3
ENDBRANCH   1   2
BRANCH   1  32
ATOM     32  C   UNL     1       8.231  -3.503   2.347  1.00  0.00     0.275 C 
BRANCH  32  33
ATOM     33  O   UNL     1       8.044  -2.319   1.577  1.00  0.00    -0.458 OA
BRANCH  33  34
ATOM     34  C   UNL     1       6.794  -1.810   1.613  1.00  0.00     0.338 C 
ATOM     35  O   UNL     1       5.925  -2.026   2.442  1.00  0.00    -0.246 OA
BRANCH  34  36
ATOM     36  C   UNL     1       6.531  -1.118   0.354  1.00  0.00     0.060 A 
ATOM     37  C   UNL     1       5.404  -0.297   0.286  1.00  0.00     0.016 A 
ATOM     38  C   UNL     1       7.230  -1.527  -0.792  1.00  0.00     0.016 A 
ATOM     39  C   UNL     1       4.886  -0.011  -0.958  1.00  0.00     0.010 A 
ATOM     40  C   UNL     1       6.697  -1.260  -2.027  1.00  0.00     0.010 A 
ATOM     41  C   UNL     1       5.489  -0.575  -2.088  1.00  0.00    -0.014 A 
BRANCH  41  42
ATOM     42  C   UNL     1       4.893  -0.312  -3.380  1.00  0.00     0.031 A 
ATOM     43  C   UNL     1       5.017   1.111  -3.776  1.00  0.00     0.074 A 
ATOM     44  C   UNL     1       4.417  -1.300  -4.162  1.00  0.00     0.049 A 
ATOM     45  N   UNL     1       4.061   1.955  -3.976  1.00  0.00    -0.248 NA
ATOM     46  C   UNL     1       6.361   1.714  -3.750  1.00  0.00     0.031 C 
ATOM     47  C   UNL     1       4.533  -2.748  -3.956  1.00  0.00     0.029 A 
ATOM     48  N   UNL     1       3.877  -1.215  -5.407  1.00  0.00    -0.354 N 
ATOM     49  C   UNL     1       4.697   3.136  -4.348  1.00  0.00     0.074 A 
ATOM     50  C   UNL     1       6.079   2.996  -3.978  1.00  0.00     0.031 C 
ATOM     51  C   UNL     1       4.356  -3.374  -5.141  1.00  0.00     0.029 A 
ATOM     52  C   UNL     1       4.005  -2.387  -6.147  1.00  0.00     0.049 A 
ATOM     53  H   UNL     1       3.439  -0.403  -5.751  1.00  0.00     0.167 HD
ATOM     54  C   UNL     1       4.103   4.017  -5.195  1.00  0.00     0.034 A 
ATOM     55  C   UNL     1       3.959  -2.491  -7.501  1.00  0.00     0.034 A 
ATOM     56  C   UNL     1       2.681   3.808  -5.266  1.00  0.00     0.049 A 
ATOM     57  C   UNL     1       3.292  -1.268  -8.014  1.00  0.00     0.074 A 
ATOM     58  C   UNL     1       1.665   3.775  -4.330  1.00  0.00     0.029 A 
ATOM     59  N   UNL     1       2.192   3.166  -6.378  1.00  0.00    -0.354 N 
ATOM     60  N   UNL     1       2.041  -0.982  -7.775  1.00  0.00    -0.248 NA
ATOM     61  C   UNL     1       4.138  -0.138  -8.368  1.00  0.00     0.031 C 
ATOM     62  C   UNL     1       0.834   2.691  -4.737  1.00  0.00     0.029 A 
ATOM     63  C   UNL     1       1.344   2.185  -5.934  1.00  0.00     0.049 A 
ATOM     64  H   UNL     1       2.410   3.371  -7.316  1.00  0.00     0.167 HD
ATOM     65  C   UNL     1       2.051   0.376  -7.485  1.00  0.00     0.074 A 
ATOM     66  C   UNL     1       3.351   0.859  -7.954  1.00  0.00     0.031 C 
ATOM     67  C   UNL     1       1.151   0.926  -6.618  1.00  0.00     0.034 A 
BRANCH  54  68
ATOM     68  C   UNL     1       4.854   4.802  -6.240  1.00  0.00     0.023 A 
ATOM     69  C   UNL     1       4.157   5.824  -6.916  1.00  0.00     0.012 A 
ATOM     70  C   UNL     1       6.107   4.417  -6.774  1.00  0.00     0.148 A 
ATOM     71  C   UNL     1       4.665   6.407  -8.081  1.00  0.00     0.002 A 
ATOM     72  C   UNL     1       6.649   5.060  -7.878  1.00  0.00     0.091 A 
ATOM     73  F   UNL     1       6.727   3.327  -6.312  1.00  0.00    -0.205 F 
ATOM     74  C   UNL     1       5.918   6.035  -8.556  1.00  0.00     0.022 A 
BRANCH  72  75
ATOM     75  S   UNL     1       8.288   4.651  -8.492  1.00  0.00     0.127 S 
ATOM     76  O   UNL     1       7.970   3.933  -9.722  1.00  0.00    -0.237 OA
ATOM     77  O   UNL     1       8.874   5.979  -8.681  1.00  0.00    -0.237 OA
ATOM     78  O   UNL     1       8.918   3.869  -7.435  1.00  0.00    -0.744 OA
ENDBRANCH  72  75
ENDBRANCH  54  68
BRANCH  55  79
ATOM     79  C   UNL     1       4.748  -3.390  -8.383  1.00  0.00     0.023 A 
ATOM     80  C   UNL     1       4.349  -3.603  -9.718  1.00  0.00     0.012 A 
ATOM     81  C   UNL     1       6.034  -3.839  -8.002  1.00  0.00     0.148 A 
ATOM     82  C   UNL     1       5.203  -4.228 -10.639  1.00  0.00     0.002 A 
ATOM     83  C   UNL     1       6.871  -4.477  -8.913  1.00  0.00     0.091 A 
ATOM     84  F   UNL     1       6.482  -3.555  -6.773  1.00  0.00    -0.205 F 
ATOM     85  C   UNL     1       6.464  -4.663 -10.238  1.00  0.00     0.022 A 
BRANCH  83  86
ATOM     86  S   UNL     1       8.509  -5.057  -8.450  1.00  0.00     0.127 S 
ATOM     87  O   UNL     1       8.525  -6.407  -9.016  1.00  0.00    -0.237 OA
ATOM     88  O   UNL     1       9.375  -4.098  -9.129  1.00  0.00    -0.237 OA
ATOM     89  O   UNL     1       8.545  -5.023  -6.993  1.00  0.00    -0.744 OA
ENDBRANCH  83  86
ENDBRANCH  55  79
BRANCH  67  90
ATOM     90  C   UNL     1      -0.000   0.080  -6.135  1.00  0.00     0.023 A 
ATOM     91  C   UNL     1       0.183  -1.095  -5.375  1.00  0.00     0.012 A 
ATOM     92  C   UNL     1      -1.298   0.595  -6.282  1.00  0.00     0.148 A 
ATOM     93  C   UNL     1      -0.906  -1.748  -4.790  1.00  0.00     0.002 A 
ATOM     94  C   UNL     1      -2.372  -0.030  -5.662  1.00  0.00     0.091 A 
ATOM     95  F   UNL     1      -1.456   1.715  -7.004  1.00  0.00    -0.205 F 
ATOM     96  C   UNL     1      -2.183  -1.206  -4.921  1.00  0.00     0.022 A 
BRANCH  94  97
ATOM     97  S   UNL     1      -4.016   0.685  -5.701  1.00  0.00     0.127 S 
ATOM     98  O   UNL     1      -4.700  -0.181  -6.659  1.00  0.00    -0.237 OA
ATOM     99  O   UNL     1      -4.458   0.532  -4.314  1.00  0.00    -0.237 OA
ATOM    100  O   UNL     1      -3.841   2.070  -6.121  1.00  0.00    -0.744 OA
ENDBRANCH  94  97
ENDBRANCH  67  90
ENDBRANCH  41  42
ENDBRANCH  34  36
ENDBRANCH  33  34
ENDBRANCH  32  33
ENDBRANCH   1  32
TORSDOF 19
