REMARK SMILES CC1(C)CCC[C@@H]1[C@H](O)C(=O)OCCOC(=O)c1ccc(-c2c3nc(c(-c4cccc(S(=O)(=O)[O-])c4F)c4ccc([nH]4)c(-c4cccc(S(=O)(=O)[O-])c4F)c4nc(c(-c5cccc(S(=O)(=O)[O-])c5F)c5ccc2[nH]5)C=C4)C=C3)cc1
REMARK SMILES IDX 14 1 13 2 12 3 10 4 11 5 8 6 7 7 1 8 2 9 3 10 4 11 5 12 6 13
REMARK SMILES IDX 9 14 15 16 16 17 17 18 18 19 19 20 80 21 20 22 79 23 21 24
REMARK SMILES IDX 22 25 23 26 73 27 24 28 78 29 72 30 74 31 25 32 77 33 71 34
REMARK SMILES IDX 70 35 26 37 58 38 38 39 57 40 39 41 42 42 56 43 75 44 40 45
REMARK SMILES IDX 41 46 55 48 76 49 43 50 27 51 28 52 36 53 29 54 31 55 37 56
REMARK SMILES IDX 30 57 32 58 33 59 34 60 35 61 59 62 60 63 68 64 61 65 63 66
REMARK SMILES IDX 69 67 62 68 64 69 65 70 66 71 67 72 44 73 45 74 53 75 46 76
REMARK SMILES IDX 48 77 54 78 47 79 49 80 50 81 51 82 52 83
REMARK H PARENT 9 15 74 36 42 47
REMARK Flexibility Score: inf
ROOT
ATOM      1  C   UNL     1       0.671  -3.034   0.584  1.00  0.00     0.275 C 
ENDROOT
BRANCH   1   2
ATOM      2  C   UNL     1      -0.013  -2.157   1.641  1.00  0.00     0.274 C 
BRANCH   2   3
ATOM      3  O   UNL     1       0.119  -0.760   1.326  1.00  0.00    -0.460 OA
BRANCH   3   4
ATOM      4  C   UNL     1       1.117  -0.094   1.975  1.00  0.00     0.335 C 
ATOM      5  O   UNL     1       1.790  -0.570   2.881  1.00  0.00    -0.249 OA
BRANCH   4   6
ATOM      6  C   UNL     1       1.371   1.298   1.356  1.00  0.00     0.227 C 
BRANCH   6   7
ATOM      7  C   UNL     1       1.027   2.446   2.313  1.00  0.00     0.035 C 
ATOM      8  C   UNL     1       0.696   4.502   0.784  1.00  0.00     0.011 C 
ATOM      9  C   UNL     1       1.527   3.865   1.902  1.00  0.00    -0.030 C 
ATOM     10  C   UNL     1       3.014   3.907   1.495  1.00  0.00     0.011 C 
ATOM     11  C   UNL     1       1.322   4.635   3.221  1.00  0.00     0.007 C 
ATOM     12  C   UNL     1       1.740   3.668   4.322  1.00  0.00     0.001 C 
ATOM     13  C   UNL     1       1.615   2.268   3.725  1.00  0.00     0.007 C 
ENDBRANCH   6   7
BRANCH   6  14
ATOM     14  O   UNL     1       0.704   1.485   0.109  1.00  0.00    -0.381 OA
ATOM     15  H   UNL     1      -0.256   1.466   0.250  1.00  0.00     0.211 HD
ENDBRANCH   6  14
ENDBRANCH   4   6
ENDBRANCH   3   4
ENDBRANCH   2   3
ENDBRANCH   1   2
BRANCH   1  16
ATOM     16  O   UNL     1       2.110  -2.961   0.638  1.00  0.00    -0.458 OA
BRANCH  16  17
ATOM     17  C   UNL     1       2.661  -1.934  -0.053  1.00  0.00     0.338 C 
ATOM     18  O   UNL     1       2.059  -1.081  -0.689  1.00  0.00    -0.246 OA
BRANCH  17  19
ATOM     19  C   UNL     1       4.121  -1.872   0.159  1.00  0.00     0.060 A 
ATOM     20  C   UNL     1       4.670  -0.615   0.424  1.00  0.00     0.016 A 
ATOM     21  C   UNL     1       4.958  -2.978  -0.007  1.00  0.00     0.016 A 
ATOM     22  C   UNL     1       6.046  -0.439   0.477  1.00  0.00     0.010 A 
ATOM     23  C   UNL     1       6.349  -2.802   0.048  1.00  0.00     0.010 A 
ATOM     24  C   UNL     1       6.899  -1.524   0.255  1.00  0.00    -0.014 A 
BRANCH  24  25
ATOM     25  C   UNL     1       8.353  -1.259   0.133  1.00  0.00     0.031 A 
ATOM     26  C   UNL     1       8.999  -1.278  -1.226  1.00  0.00     0.074 A 
ATOM     27  C   UNL     1       9.071  -0.916   1.219  1.00  0.00     0.049 A 
ATOM     28  N   UNL     1      10.241  -1.032  -1.553  1.00  0.00    -0.248 NA
ATOM     29  C   UNL     1       8.134  -1.615  -2.369  1.00  0.00     0.031 C 
ATOM     30  C   UNL     1       8.550  -0.841   2.584  1.00  0.00     0.029 A 
ATOM     31  N   UNL     1      10.390  -0.562   1.343  1.00  0.00    -0.354 N 
ATOM     32  C   UNL     1      10.318  -1.224  -2.926  1.00  0.00     0.074 A 
ATOM     33  C   UNL     1       8.997  -1.610  -3.375  1.00  0.00     0.031 C 
ATOM     34  C   UNL     1       9.542  -0.468   3.410  1.00  0.00     0.029 A 
ATOM     35  C   UNL     1      10.770  -0.301   2.638  1.00  0.00     0.049 A 
ATOM     36  H   UNL     1      11.007  -0.501   0.578  1.00  0.00     0.167 HD
ATOM     37  C   UNL     1      11.386  -1.075  -3.745  1.00  0.00     0.034 A 
ATOM     38  C   UNL     1      11.975   0.028   3.145  1.00  0.00     0.034 A 
ATOM     39  C   UNL     1      12.684  -0.638  -3.308  1.00  0.00     0.049 A 
ATOM     40  C   UNL     1      13.139   0.207   2.207  1.00  0.00     0.074 A 
ATOM     41  C   UNL     1      13.821  -0.427  -4.068  1.00  0.00     0.029 A 
ATOM     42  N   UNL     1      13.018  -0.338  -1.997  1.00  0.00    -0.354 N 
ATOM     43  N   UNL     1      13.169   0.111   0.899  1.00  0.00    -0.248 NA
ATOM     44  C   UNL     1      14.429   0.573   2.811  1.00  0.00     0.031 C 
ATOM     45  C   UNL     1      14.845  -0.004  -3.213  1.00  0.00     0.029 A 
ATOM     46  C   UNL     1      14.342   0.058  -1.924  1.00  0.00     0.049 A 
ATOM     47  H   UNL     1      12.403  -0.397  -1.230  1.00  0.00     0.167 HD
ATOM     48  C   UNL     1      14.468   0.431   0.523  1.00  0.00     0.074 A 
ATOM     49  C   UNL     1      15.188   0.753   1.738  1.00  0.00     0.031 C 
ATOM     50  C   UNL     1      15.024   0.436  -0.714  1.00  0.00     0.034 A 
BRANCH  37  51
ATOM     51  C   UNL     1      11.187  -1.356  -5.210  1.00  0.00     0.023 A 
ATOM     52  C   UNL     1      10.516  -0.414  -6.014  1.00  0.00     0.012 A 
ATOM     53  C   UNL     1      11.712  -2.523  -5.799  1.00  0.00     0.148 A 
ATOM     54  C   UNL     1      10.350  -0.640  -7.380  1.00  0.00     0.002 A 
ATOM     55  C   UNL     1      11.574  -2.723  -7.167  1.00  0.00     0.091 A 
ATOM     56  F   UNL     1      12.324  -3.418  -5.010  1.00  0.00    -0.205 F 
ATOM     57  C   UNL     1      10.887  -1.787  -7.958  1.00  0.00     0.022 A 
BRANCH  55  58
ATOM     58  S   UNL     1      12.289  -4.138  -8.013  1.00  0.00     0.127 S 
ATOM     59  O   UNL     1      11.100  -4.935  -8.312  1.00  0.00    -0.237 OA
ATOM     60  O   UNL     1      12.915  -3.516  -9.181  1.00  0.00    -0.237 OA
ATOM     61  O   UNL     1      13.225  -4.737  -7.072  1.00  0.00    -0.744 OA
ENDBRANCH  55  58
ENDBRANCH  37  51
BRANCH  38  62
ATOM     62  C   UNL     1      12.131   0.252   4.610  1.00  0.00     0.023 A 
ATOM     63  C   UNL     1      12.387   1.550   5.092  1.00  0.00     0.012 A 
ATOM     64  C   UNL     1      12.010  -0.809   5.527  1.00  0.00     0.148 A 
ATOM     65  C   UNL     1      12.547   1.781   6.459  1.00  0.00     0.002 A 
ATOM     66  C   UNL     1      12.115  -0.562   6.891  1.00  0.00     0.091 A 
ATOM     67  F   UNL     1      11.793  -2.043   5.050  1.00  0.00    -0.205 F 
ATOM     68  C   UNL     1      12.399   0.729   7.359  1.00  0.00     0.022 A 
BRANCH  66  69
ATOM     69  S   UNL     1      11.803  -1.843   8.112  1.00  0.00     0.127 S 
ATOM     70  O   UNL     1      13.158  -2.239   8.485  1.00  0.00    -0.237 OA
ATOM     71  O   UNL     1      11.069  -1.113   9.146  1.00  0.00    -0.237 OA
ATOM     72  O   UNL     1      11.009  -2.848   7.417  1.00  0.00    -0.744 OA
ENDBRANCH  66  69
ENDBRANCH  38  62
BRANCH  50  73
ATOM     73  C   UNL     1      16.475   0.824  -0.823  1.00  0.00     0.023 A 
ATOM     74  C   UNL     1      17.469  -0.082  -0.402  1.00  0.00     0.012 A 
ATOM     75  C   UNL     1      16.856   2.050  -1.399  1.00  0.00     0.148 A 
ATOM     76  C   UNL     1      18.820   0.241  -0.523  1.00  0.00     0.002 A 
ATOM     77  C   UNL     1      18.206   2.348  -1.556  1.00  0.00     0.091 A 
ATOM     78  F   UNL     1      15.898   2.911  -1.773  1.00  0.00    -0.205 F 
ATOM     79  C   UNL     1      19.188   1.450  -1.110  1.00  0.00     0.022 A 
BRANCH  77  80
ATOM     80  S   UNL     1      18.753   3.845  -2.386  1.00  0.00     0.127 S 
ATOM     81  O   UNL     1      19.030   4.730  -1.257  1.00  0.00    -0.237 OA
ATOM     82  O   UNL     1      19.942   3.391  -3.109  1.00  0.00    -0.237 OA
ATOM     83  O   UNL     1      17.646   4.240  -3.247  1.00  0.00    -0.744 OA
ENDBRANCH  77  80
ENDBRANCH  50  73
ENDBRANCH  24  25
ENDBRANCH  17  19
ENDBRANCH  16  17
ENDBRANCH   1  16
TORSDOF 16
