REMARK SMILES O=C(OCCOC(=O)c1cc(OC[C@@H]2Cc3cc(F)ccc3O2)cs1)c1ccc(-c2c3nc(c(-c4cccc(S(=O)(=O)[O-])c4F)c4ccc([nH]4)c(-c4cccc(S(=O)(=O)[O-])c4F)c4nc(c(-c5cccc(S(=O)(=O)[O-])c5F)c5ccc2[nH]5)C=C4)C=C3)cc1
REMARK SMILES IDX 4 1 3 2 2 3 1 4 26 5 27 6 88 7 28 8 87 9 29 10 30 11 31 12
REMARK SMILES IDX 81 13 32 14 86 15 80 16 82 17 33 18 85 19 79 20 78 21 34 23
REMARK SMILES IDX 66 24 46 25 65 26 47 27 50 28 64 29 83 30 48 31 49 32 63 34
REMARK SMILES IDX 84 35 51 36 35 37 36 38 44 39 37 40 39 41 45 42 38 43 40 44
REMARK SMILES IDX 41 45 42 46 43 47 67 48 68 49 76 50 69 51 71 52 77 53 70 54
REMARK SMILES IDX 72 55 73 56 74 57 75 58 52 59 53 60 61 61 54 62 56 63 62 64
REMARK SMILES IDX 55 65 57 66 58 67 59 68 60 69 5 70 6 71 7 72 8 73 9 74 10 75
REMARK SMILES IDX 25 76 11 77 24 78 12 79 13 80 14 81 15 82 23 83 16 84 22 85
REMARK SMILES IDX 17 86 21 87 18 88 20 89 19 90
REMARK H PARENT 82 22 50 33
REMARK Flexibility Score: inf
ROOT
ATOM      1  C   UNL     1       4.120  -0.828  -1.173  1.00  0.00     0.275 C 
ENDROOT
BRANCH   1   2
ATOM      2  O   UNL     1       2.847  -1.159  -0.588  1.00  0.00    -0.458 OA
BRANCH   2   3
ATOM      3  C   UNL     1       2.338  -0.852   0.634  1.00  0.00     0.338 C 
ATOM      4  O   UNL     1       1.314  -1.424   1.003  1.00  0.00    -0.246 OA
BRANCH   3   5
ATOM      5  C   UNL     1       2.866   0.261   1.485  1.00  0.00     0.060 A 
ATOM      6  C   UNL     1       2.076   0.725   2.549  1.00  0.00     0.016 A 
ATOM      7  C   UNL     1       4.010   0.982   1.205  1.00  0.00     0.016 A 
ATOM      8  C   UNL     1       2.358   1.952   3.183  1.00  0.00     0.010 A 
ATOM      9  C   UNL     1       4.226   2.226   1.768  1.00  0.00     0.010 A 
ATOM     10  C   UNL     1       3.436   2.746   2.768  1.00  0.00    -0.014 A 
BRANCH  10  11
ATOM     11  C   UNL     1       3.830   4.044   3.366  1.00  0.00     0.031 A 
ATOM     12  C   UNL     1       4.269   5.226   2.519  1.00  0.00     0.074 A 
ATOM     13  C   UNL     1       4.023   4.142   4.699  1.00  0.00     0.049 A 
ATOM     14  N   UNL     1       4.494   6.771   3.054  1.00  0.00    -0.248 NA
ATOM     15  C   UNL     1       4.564   5.243   0.509  1.00  0.00     0.031 C 
ATOM     16  C   UNL     1       3.954   3.005   5.616  1.00  0.00     0.029 A 
ATOM     17  N   UNL     1       4.490   5.180   5.487  1.00  0.00    -0.354 N 
ATOM     18  C   UNL     1       4.950   7.880   1.678  1.00  0.00     0.074 A 
ATOM     19  C   UNL     1       4.995   6.779   0.091  1.00  0.00     0.031 C 
ATOM     20  C   UNL     1       4.456   3.366   6.803  1.00  0.00     0.029 A 
ATOM     21  C   UNL     1       4.889   4.760   6.740  1.00  0.00     0.049 A 
ATOM     22  H   UNL     1       4.533   6.116   5.186  1.00  0.00     0.167 HD
ATOM     23  C   UNL     1       5.221   9.200   1.722  1.00  0.00     0.034 A 
ATOM     24  C   UNL     1       5.603   5.356   7.719  1.00  0.00     0.034 A 
ATOM     25  C   UNL     1       5.469   9.916   2.935  1.00  0.00     0.049 A 
ATOM     26  C   UNL     1       6.027   6.795   7.624  1.00  0.00     0.074 A 
ATOM     27  C   UNL     1       5.681  11.274   3.090  1.00  0.00     0.029 A 
ATOM     28  N   UNL     1       5.683   9.323   4.175  1.00  0.00    -0.354 N 
ATOM     29  N   UNL     1       5.935   7.627   6.617  1.00  0.00    -0.248 NA
ATOM     30  C   UNL     1       6.598   7.389   8.844  1.00  0.00     0.031 C 
ATOM     31  C   UNL     1       6.101  11.496   4.402  1.00  0.00     0.029 A 
ATOM     32  C   UNL     1       6.072  10.290   5.087  1.00  0.00     0.049 A 
ATOM     33  H   UNL     1       5.573   8.365   4.374  1.00  0.00     0.167 HD
ATOM     34  C   UNL     1       6.364   8.860   7.102  1.00  0.00     0.074 A 
ATOM     35  C   UNL     1       6.752   8.657   8.482  1.00  0.00     0.031 C 
ATOM     36  C   UNL     1       6.405  10.058   6.472  1.00  0.00     0.034 A 
BRANCH  23  37
ATOM     37  C   UNL     1       5.202   9.908   0.414  1.00  0.00     0.023 A 
ATOM     38  C   UNL     1       3.952  10.141  -0.197  1.00  0.00     0.012 A 
ATOM     39  C   UNL     1       6.368  10.425  -0.171  1.00  0.00     0.148 A 
ATOM     40  C   UNL     1       3.865  10.854  -1.389  1.00  0.00     0.002 A 
ATOM     41  C   UNL     1       6.276  11.136  -1.361  1.00  0.00     0.091 A 
ATOM     42  F   UNL     1       7.538  10.210   0.445  1.00  0.00    -0.205 F 
ATOM     43  C   UNL     1       5.027  11.351  -1.971  1.00  0.00     0.022 A 
BRANCH  41  44
ATOM     44  S   UNL     1       7.713  11.778  -2.221  1.00  0.00     0.127 S 
ATOM     45  O   UNL     1       7.632  11.056  -3.491  1.00  0.00    -0.237 OA
ATOM     46  O   UNL     1       7.407  13.205  -2.306  1.00  0.00    -0.237 OA
ATOM     47  O   UNL     1       8.862  11.435  -1.395  1.00  0.00    -0.744 OA
ENDBRANCH  41  44
ENDBRANCH  23  37
BRANCH  24  48
ATOM     48  C   UNL     1       5.883   4.559   8.950  1.00  0.00     0.023 A 
ATOM     49  C   UNL     1       4.953   4.636  10.003  1.00  0.00     0.012 A 
ATOM     50  C   UNL     1       6.960   3.653   9.039  1.00  0.00     0.148 A 
ATOM     51  C   UNL     1       5.075   3.811  11.118  1.00  0.00     0.002 A 
ATOM     52  C   UNL     1       7.074   2.829  10.156  1.00  0.00     0.091 A 
ATOM     53  F   UNL     1       7.822   3.585   8.015  1.00  0.00    -0.205 F 
ATOM     54  C   UNL     1       6.127   2.903  11.191  1.00  0.00     0.022 A 
BRANCH  52  55
ATOM     55  S   UNL     1       8.385   1.617  10.363  1.00  0.00     0.127 S 
ATOM     56  O   UNL     1       8.993   2.048  11.620  1.00  0.00    -0.237 OA
ATOM     57  O   UNL     1       7.628   0.368  10.443  1.00  0.00    -0.237 OA
ATOM     58  O   UNL     1       9.235   1.748   9.188  1.00  0.00    -0.744 OA
ENDBRANCH  52  55
ENDBRANCH  24  48
BRANCH  36  59
ATOM     59  C   UNL     1       6.800  11.284   7.258  1.00  0.00     0.023 A 
ATOM     60  C   UNL     1       8.159  11.583   7.463  1.00  0.00     0.012 A 
ATOM     61  C   UNL     1       5.817  12.248   7.567  1.00  0.00     0.148 A 
ATOM     62  C   UNL     1       8.536  12.845   7.927  1.00  0.00     0.002 A 
ATOM     63  C   UNL     1       6.201  13.509   8.000  1.00  0.00     0.091 A 
ATOM     64  F   UNL     1       4.530  11.931   7.360  1.00  0.00    -0.205 F 
ATOM     65  C   UNL     1       7.561  13.813   8.171  1.00  0.00     0.022 A 
BRANCH  63  66
ATOM     66  S   UNL     1       5.023  14.836   8.283  1.00  0.00     0.127 S 
ATOM     67  O   UNL     1       5.215  15.104   9.708  1.00  0.00    -0.237 OA
ATOM     68  O   UNL     1       5.518  15.884   7.392  1.00  0.00    -0.237 OA
ATOM     69  O   UNL     1       3.714  14.301   7.932  1.00  0.00    -0.744 OA
ENDBRANCH  63  66
ENDBRANCH  36  59
ENDBRANCH  10  11
ENDBRANCH   3   5
ENDBRANCH   2   3
ENDBRANCH   1   2
BRANCH   1  70
ATOM     70  C   UNL     1       4.112   0.458  -2.039  1.00  0.00     0.275 C 
BRANCH  70  71
ATOM     71  O   UNL     1       3.507   1.642  -1.452  1.00  0.00    -0.458 OA
BRANCH  71  72
ATOM     72  C   UNL     1       2.154   1.827  -1.630  1.00  0.00     0.348 C 
ATOM     73  O   UNL     1       1.464   1.084  -2.317  1.00  0.00    -0.245 OA
BRANCH  72  74
ATOM     74  C   UNL     1       1.673   2.920  -0.785  1.00  0.00     0.116 A 
ATOM     75  C   UNL     1       2.139   4.218  -0.571  1.00  0.00     0.074 A 
ATOM     76  S   UNL     1       0.266   2.665   0.165  1.00  0.00    -0.133 S 
ATOM     77  C   UNL     1       1.752   4.706   0.728  1.00  0.00     0.131 A 
ATOM     78  C   UNL     1       0.643   4.005   1.160  1.00  0.00     0.112 A 
BRANCH  77  79
ATOM     79  O   UNL     1       2.273   5.602   1.631  1.00  0.00    -0.489 OA
BRANCH  79  80
ATOM     80  C   UNL     1       3.551   6.554   1.424  1.00  0.00     0.275 C 
BRANCH  80  81
ATOM     81  C   UNL     1       5.753   6.083   1.777  1.00  0.00     0.215 C 
ATOM     82  C   UNL     1       6.767   4.791   1.106  1.00  0.00     0.088 C 
ATOM     83  O   UNL     1       6.509   6.025   3.242  1.00  0.00    -0.486 OA
ATOM     84  C   UNL     1       7.098   3.985   2.295  1.00  0.00     0.001 A 
ATOM     85  C   UNL     1       7.061   4.777   3.416  1.00  0.00     0.123 A 
ATOM     86  C   UNL     1       7.293   2.612   2.394  1.00  0.00     0.047 A 
ATOM     87  C   UNL     1       7.366   4.253   4.657  1.00  0.00     0.050 A 
ATOM     88  C   UNL     1       7.363   2.053   3.665  1.00  0.00     0.123 A 
ATOM     89  C   UNL     1       7.449   2.863   4.793  1.00  0.00     0.043 A 
ATOM     90  F   UNL     1       7.267   0.722   3.796  1.00  0.00    -0.207 F 
ENDBRANCH  80  81
ENDBRANCH  79  80
ENDBRANCH  77  79
ENDBRANCH  72  74
ENDBRANCH  71  72
ENDBRANCH  70  71
ENDBRANCH   1  70
TORSDOF 17
