REMARK SMILES Cc1cccc2c1[C@H]1c3c(C)cccc3[C@H](CC(=O)OCCOC(=O)c3ccc(-c4c5nc(c(-c6cccc(S(=O)(=O)[O-])c6F)c6ccc([nH]6)c(-c6cccc(S(=O)(=O)[O-])c6F)c6nc(c(-c7cccc(S(=O)(=O)[O-])c7F)c7ccc4[nH]7)C=C6)C=C5)cc3)C[C@H]1CC2
REMARK SMILES IDX 22 1 21 2 20 3 18 4 19 5 17 6 16 7 1 8 2 9 3 10 7 11 4 12
REMARK SMILES IDX 6 13 8 14 5 15 92 16 9 17 90 18 91 19 10 20 15 21 89 22
REMARK SMILES IDX 12 23 11 24 14 25 13 26 23 27 24 28 25 29 26 30 27 31 88 32
REMARK SMILES IDX 28 33 87 34 29 35 30 36 31 37 81 38 32 39 86 40 80 41 82 42
REMARK SMILES IDX 33 43 85 44 79 45 78 46 34 48 66 49 46 50 65 51 47 52 50 53
REMARK SMILES IDX 64 54 83 55 48 56 49 57 63 59 84 60 51 61 35 62 36 63 44 64
REMARK SMILES IDX 37 65 39 66 45 67 38 68 40 69 41 70 42 71 43 72 67 73 68 74
REMARK SMILES IDX 76 75 69 76 71 77 77 78 70 79 72 80 73 81 74 82 75 83 52 84
REMARK SMILES IDX 53 85 61 86 54 87 56 88 62 89 55 90 57 91 58 92 59 93 60 94
REMARK H PARENT 82 47 50 58
REMARK Flexibility Score: inf
ROOT
ATOM      1  C   UNL     1      -8.074   1.184   0.435  1.00  0.00     0.275 C 
ENDROOT
BRANCH   1   2
ATOM      2  C   UNL     1      -7.211   2.114   1.300  1.00  0.00     0.274 C 
BRANCH   2   3
ATOM      3  O   UNL     1      -5.919   1.530   1.572  1.00  0.00    -0.462 OA
BRANCH   3   4
ATOM      4  C   UNL     1      -5.673   0.890   2.731  1.00  0.00     0.306 C 
ATOM      5  O   UNL     1      -6.407   0.952   3.709  1.00  0.00    -0.252 OA
BRANCH   4   6
ATOM      6  C   UNL     1      -4.340   0.139   2.736  1.00  0.00     0.131 C 
BRANCH   6   7
ATOM      7  C   UNL     1      -4.005  -0.833   1.560  1.00  0.00     0.031 C 
ATOM      8  C   UNL     1       1.666  -0.580   0.231  1.00  0.00     0.044 C 
ATOM      9  C   UNL     1       1.012  -1.450  -0.810  1.00  0.00    -0.047 A 
ATOM     10  C   UNL     1       1.739  -1.793  -1.962  1.00  0.00     0.004 A 
ATOM     11  C   UNL     1      -0.327  -1.894  -0.687  1.00  0.00    -0.034 A 
ATOM     12  C   UNL     1       1.184  -2.619  -2.936  1.00  0.00     0.001 A 
ATOM     13  C   UNL     1      -0.818  -2.862  -1.592  1.00  0.00    -0.044 A 
ATOM     14  C   UNL     1      -1.282  -1.280   0.332  1.00  0.00     0.053 C 
ATOM     15  C   UNL     1      -0.067  -3.189  -2.729  1.00  0.00     0.004 A 
ATOM     16  C   UNL     1      -2.073  -3.658  -1.321  1.00  0.00     0.036 C 
ATOM     17  C   UNL     1      -2.196  -0.148  -0.201  1.00  0.00    -0.034 A 
ATOM     18  C   UNL     1      -2.120  -2.449   0.930  1.00  0.00     0.002 C 
ATOM     19  C   UNL     1      -2.932  -3.182  -0.153  1.00  0.00     0.009 C 
ATOM     20  C   UNL     1      -1.862   0.826  -1.194  1.00  0.00    -0.047 A 
ATOM     21  C   UNL     1      -3.509  -0.099   0.315  1.00  0.00    -0.040 A 
ATOM     22  C   UNL     1      -3.005  -1.900   2.050  1.00  0.00     0.013 C 
ATOM     23  C   UNL     1      -2.811   1.791  -1.593  1.00  0.00     0.004 A 
ATOM     24  C   UNL     1      -0.589   0.912  -1.985  1.00  0.00     0.044 C 
ATOM     25  C   UNL     1      -4.466   0.616  -0.405  1.00  0.00     0.004 A 
ATOM     26  C   UNL     1      -4.132   1.641  -1.259  1.00  0.00     0.001 A 
ENDBRANCH   6   7
ENDBRANCH   4   6
ENDBRANCH   3   4
ENDBRANCH   2   3
ENDBRANCH   1   2
BRANCH   1  27
ATOM     27  O   UNL     1      -8.654   0.168   1.258  1.00  0.00    -0.458 OA
BRANCH  27  28
ATOM     28  C   UNL     1      -8.057  -1.045   1.255  1.00  0.00     0.338 C 
ATOM     29  O   UNL     1      -7.174  -1.453   0.525  1.00  0.00    -0.246 OA
BRANCH  28  30
ATOM     30  C   UNL     1      -8.557  -1.728   2.448  1.00  0.00     0.060 A 
ATOM     31  C   UNL     1      -7.715  -1.834   3.558  1.00  0.00     0.016 A 
ATOM     32  C   UNL     1      -9.883  -2.155   2.494  1.00  0.00     0.016 A 
ATOM     33  C   UNL     1      -8.217  -2.313   4.759  1.00  0.00     0.010 A 
ATOM     34  C   UNL     1     -10.376  -2.673   3.684  1.00  0.00     0.010 A 
ATOM     35  C   UNL     1      -9.544  -2.747   4.815  1.00  0.00    -0.014 A 
BRANCH  35  36
ATOM     36  C   UNL     1     -10.032  -3.437   6.016  1.00  0.00     0.031 A 
ATOM     37  C   UNL     1      -9.936  -4.928   6.045  1.00  0.00     0.074 A 
ATOM     38  C   UNL     1     -10.577  -2.740   7.026  1.00  0.00     0.049 A 
ATOM     39  N   UNL     1     -10.427  -5.767   6.913  1.00  0.00    -0.248 NA
ATOM     40  C   UNL     1      -9.186  -5.560   4.943  1.00  0.00     0.031 C 
ATOM     41  C   UNL     1     -10.664  -1.282   7.101  1.00  0.00     0.029 A 
ATOM     42  N   UNL     1     -11.188  -3.177   8.171  1.00  0.00    -0.354 N 
ATOM     43  C   UNL     1     -10.076  -7.026   6.448  1.00  0.00     0.074 A 
ATOM     44  C   UNL     1      -9.322  -6.846   5.229  1.00  0.00     0.031 C 
ATOM     45  C   UNL     1     -11.328  -0.944   8.219  1.00  0.00     0.029 A 
ATOM     46  C   UNL     1     -11.738  -2.162   8.914  1.00  0.00     0.049 A 
ATOM     47  H   UNL     1     -11.228  -4.124   8.435  1.00  0.00     0.167 HD
ATOM     48  C   UNL     1     -10.360  -8.225   7.000  1.00  0.00     0.034 A 
ATOM     49  C   UNL     1     -12.515  -2.223  10.012  1.00  0.00     0.034 A 
ATOM     50  C   UNL     1     -11.109  -8.383   8.212  1.00  0.00     0.049 A 
ATOM     51  C   UNL     1     -12.864  -3.572  10.575  1.00  0.00     0.074 A 
ATOM     52  C   UNL     1     -11.449  -9.551   8.865  1.00  0.00     0.029 A 
ATOM     53  N   UNL     1     -11.643  -7.335   8.947  1.00  0.00    -0.354 N 
ATOM     54  N   UNL     1     -12.492  -4.760  10.158  1.00  0.00    -0.248 NA
ATOM     55  C   UNL     1     -13.729  -3.594  11.762  1.00  0.00     0.031 C 
ATOM     56  C   UNL     1     -12.204  -9.209   9.992  1.00  0.00     0.029 A 
ATOM     57  C   UNL     1     -12.318  -7.828  10.047  1.00  0.00     0.049 A 
ATOM     58  H   UNL     1     -11.554  -6.381   8.719  1.00  0.00     0.167 HD
ATOM     59  C   UNL     1     -13.065  -5.671  11.037  1.00  0.00     0.074 A 
ATOM     60  C   UNL     1     -13.793  -4.895  12.022  1.00  0.00     0.031 C 
ATOM     61  C   UNL     1     -13.009  -7.026  11.024  1.00  0.00     0.034 A 
BRANCH  48  62
ATOM     62  C   UNL     1      -9.844  -9.447   6.302  1.00  0.00     0.023 A 
ATOM     63  C   UNL     1      -8.488  -9.802   6.440  1.00  0.00     0.012 A 
ATOM     64  C   UNL     1     -10.707 -10.265   5.550  1.00  0.00     0.148 A 
ATOM     65  C   UNL     1      -7.994 -10.955   5.833  1.00  0.00     0.002 A 
ATOM     66  C   UNL     1     -10.215 -11.429   4.972  1.00  0.00     0.091 A 
ATOM     67  F   UNL     1     -11.985  -9.886   5.410  1.00  0.00    -0.205 F 
ATOM     68  C   UNL     1      -8.859 -11.773   5.109  1.00  0.00     0.022 A 
BRANCH  66  69
ATOM     69  S   UNL     1     -11.251 -12.573   4.055  1.00  0.00     0.127 S 
ATOM     70  O   UNL     1     -10.650 -12.512   2.723  1.00  0.00    -0.237 OA
ATOM     71  O   UNL     1     -11.024 -13.828   4.770  1.00  0.00    -0.237 OA
ATOM     72  O   UNL     1     -12.607 -12.051   4.143  1.00  0.00    -0.744 OA
ENDBRANCH  66  69
ENDBRANCH  48  62
BRANCH  49  73
ATOM     73  C   UNL     1     -12.983  -0.964  10.650  1.00  0.00     0.023 A 
ATOM     74  C   UNL     1     -12.376  -0.535  11.845  1.00  0.00     0.012 A 
ATOM     75  C   UNL     1     -13.971  -0.160  10.048  1.00  0.00     0.148 A 
ATOM     76  C   UNL     1     -12.747   0.674  12.433  1.00  0.00     0.002 A 
ATOM     77  C   UNL     1     -14.310   1.061  10.621  1.00  0.00     0.091 A 
ATOM     78  F   UNL     1     -14.535  -0.594   8.912  1.00  0.00    -0.205 F 
ATOM     79  C   UNL     1     -13.705   1.476  11.818  1.00  0.00     0.022 A 
BRANCH  77  80
ATOM     80  S   UNL     1     -15.468   2.205   9.861  1.00  0.00     0.127 S 
ATOM     81  O   UNL     1     -16.513   2.295  10.879  1.00  0.00    -0.237 OA
ATOM     82  O   UNL     1     -14.646   3.407   9.715  1.00  0.00    -0.237 OA
ATOM     83  O   UNL     1     -15.874   1.588   8.606  1.00  0.00    -0.744 OA
ENDBRANCH  77  80
ENDBRANCH  49  73
BRANCH  61  84
ATOM     84  C   UNL     1     -13.755  -7.762  12.101  1.00  0.00     0.023 A 
ATOM     85  C   UNL     1     -15.153  -7.895  12.003  1.00  0.00     0.012 A 
ATOM     86  C   UNL     1     -13.063  -8.405  13.145  1.00  0.00     0.148 A 
ATOM     87  C   UNL     1     -15.857  -8.646  12.942  1.00  0.00     0.002 A 
ATOM     88  C   UNL     1     -13.767  -9.182  14.056  1.00  0.00     0.091 A 
ATOM     89  F   UNL     1     -11.733  -8.255  13.218  1.00  0.00    -0.205 F 
ATOM     90  C   UNL     1     -15.164  -9.297  13.960  1.00  0.00     0.022 A 
BRANCH  88  91
ATOM     91  S   UNL     1     -12.954 -10.119  15.355  1.00  0.00     0.127 S 
ATOM     92  O   UNL     1     -13.353  -9.378  16.550  1.00  0.00    -0.237 OA
ATOM     93  O   UNL     1     -13.573 -11.438  15.219  1.00  0.00    -0.237 OA
ATOM     94  O   UNL     1     -11.531 -10.084  15.046  1.00  0.00    -0.744 OA
ENDBRANCH  88  91
ENDBRANCH  61  84
ENDBRANCH  35  36
ENDBRANCH  28  30
ENDBRANCH  27  28
ENDBRANCH   1  27
TORSDOF 15
