REMARK SMILES C[C@H](C(=O)OCCOC(=O)c1ccc(-c2c3nc(c(-c4cccc(S(=O)(=O)[O-])c4F)c4ccc([nH]4)c(-c4cccc(S(=O)(=O)[O-])c4F)c4nc(c(-c5cccc(S(=O)(=O)[O-])c5F)c5ccc2[nH]5)C=C4)C=C3)cc1)N1C(=O)C[C@@H](N2C(=O)/C(=C/c3ccccc3)SC2=S)C1=O
REMARK SMILES IDX 6 1 5 2 3 3 4 4 2 5 1 6 74 7 75 8 93 9 76 10 77 11 78 12
REMARK SMILES IDX 94 13 79 14 80 15 91 16 81 17 82 18 90 19 92 20 83 21 84 22
REMARK SMILES IDX 85 23 89 24 86 25 88 26 87 27 7 28 8 29 9 30 10 31 11 32
REMARK SMILES IDX 12 33 73 34 13 35 72 36 14 37 15 38 16 39 66 40 17 41 71 42
REMARK SMILES IDX 65 43 67 44 18 45 70 46 64 47 63 48 19 50 51 51 31 52 50 53
REMARK SMILES IDX 32 54 35 55 49 56 68 57 33 58 34 59 48 61 69 62 36 63 20 64
REMARK SMILES IDX 21 65 29 66 22 67 24 68 30 69 23 70 25 71 26 72 27 73 28 74
REMARK SMILES IDX 52 75 53 76 61 77 54 78 56 79 62 80 55 81 57 82 58 83 59 84
REMARK SMILES IDX 60 85 37 86 38 87 46 88 39 89 41 90 47 91 40 92 42 93 43 94
REMARK SMILES IDX 44 95 45 96
REMARK H PARENT 67 49 35 60
REMARK Flexibility Score: inf
ROOT
ATOM      1  C   UNL     1       0.850   1.869   1.076  1.00  0.00     0.274 C 
ENDROOT
BRANCH   1   2
ATOM      2  O   UNL     1       0.212   0.880   0.245  1.00  0.00    -0.461 OA
BRANCH   2   3
ATOM      3  C   UNL     1       1.001   0.209  -0.638  1.00  0.00     0.329 C 
ATOM      4  O   UNL     1       2.217   0.353  -0.719  1.00  0.00    -0.250 OA
BRANCH   3   5
ATOM      5  C   UNL     1       0.209  -0.708  -1.587  1.00  0.00     0.200 C 
ATOM      6  C   UNL     1       0.924  -2.053  -1.726  1.00  0.00     0.044 C 
BRANCH   5   7
ATOM      7  N   UNL     1      -1.222  -0.801  -1.280  1.00  0.00    -0.267 N 
ATOM      8  C   UNL     1      -2.045   0.278  -1.485  1.00  0.00     0.232 C 
ATOM      9  C   UNL     1      -1.934  -1.944  -1.017  1.00  0.00     0.253 C 
ATOM     10  O   UNL     1      -1.716   1.398  -1.850  1.00  0.00    -0.274 OA
ATOM     11  C   UNL     1      -3.457  -0.105  -1.163  1.00  0.00     0.136 C 
ATOM     12  C   UNL     1      -3.411  -1.621  -1.139  1.00  0.00     0.191 C 
ATOM     13  O   UNL     1      -1.518  -3.086  -0.890  1.00  0.00    -0.272 OA
BRANCH  12  14
ATOM     14  N   UNL     1      -3.957  -2.276  -2.351  1.00  0.00    -0.280 N 
ATOM     15  C   UNL     1      -3.428  -1.967  -3.594  1.00  0.00     0.266 C 
ATOM     16  C   UNL     1      -4.996  -3.185  -2.355  1.00  0.00     0.149 C 
ATOM     17  O   UNL     1      -2.507  -1.192  -3.812  1.00  0.00    -0.268 OA
ATOM     18  C   UNL     1      -4.154  -2.670  -4.675  1.00  0.00     0.081 C 
ATOM     19  S   UNL     1      -5.366  -3.676  -4.009  1.00  0.00    -0.054 SA
ATOM     20  S   UNL     1      -5.888  -3.741  -1.061  1.00  0.00    -0.052 S 
ATOM     21  C   UNL     1      -3.842  -2.445  -5.958  1.00  0.00     0.029 C 
BRANCH  21  22
ATOM     22  C   UNL     1      -4.529  -2.971  -7.139  1.00  0.00    -0.024 A 
ATOM     23  C   UNL     1      -3.817  -3.727  -8.075  1.00  0.00     0.008 A 
ATOM     24  C   UNL     1      -5.868  -2.649  -7.390  1.00  0.00     0.008 A 
ATOM     25  C   UNL     1      -4.445  -4.173  -9.240  1.00  0.00     0.001 A 
ATOM     26  C   UNL     1      -6.493  -3.094  -8.555  1.00  0.00     0.001 A 
ATOM     27  C   UNL     1      -5.782  -3.857  -9.479  1.00  0.00     0.000 A 
ENDBRANCH  21  22
ENDBRANCH  12  14
ENDBRANCH   5   7
ENDBRANCH   3   5
ENDBRANCH   2   3
ENDBRANCH   1   2
BRANCH   1  28
ATOM     28  C   UNL     1       0.715   1.493   2.550  1.00  0.00     0.275 C 
BRANCH  28  29
ATOM     29  O   UNL     1       1.512   0.334   2.849  1.00  0.00    -0.458 OA
BRANCH  29  30
ATOM     30  C   UNL     1       0.877  -0.849   2.689  1.00  0.00     0.338 C 
ATOM     31  O   UNL     1      -0.291  -1.033   2.391  1.00  0.00    -0.246 OA
BRANCH  30  32
ATOM     32  C   UNL     1       1.861  -1.932   2.796  1.00  0.00     0.060 A 
ATOM     33  C   UNL     1       2.423  -2.422   1.619  1.00  0.00     0.016 A 
ATOM     34  C   UNL     1       2.146  -2.529   4.021  1.00  0.00     0.016 A 
ATOM     35  C   UNL     1       3.198  -3.576   1.643  1.00  0.00     0.010 A 
ATOM     36  C   UNL     1       2.991  -3.643   4.053  1.00  0.00     0.010 A 
ATOM     37  C   UNL     1       3.495  -4.200   2.862  1.00  0.00    -0.014 A 
BRANCH  37  38
ATOM     38  C   UNL     1       4.308  -5.446   2.886  1.00  0.00     0.031 A 
ATOM     39  C   UNL     1       3.722  -6.720   3.434  1.00  0.00     0.074 A 
ATOM     40  C   UNL     1       5.576  -5.433   2.430  1.00  0.00     0.049 A 
ATOM     41  N   UNL     1       4.311  -7.862   3.676  1.00  0.00    -0.248 NA
ATOM     42  C   UNL     1       2.288  -6.704   3.769  1.00  0.00     0.031 C 
ATOM     43  C   UNL     1       6.260  -4.269   1.864  1.00  0.00     0.029 A 
ATOM     44  N   UNL     1       6.521  -6.428   2.381  1.00  0.00    -0.354 N 
ATOM     45  C   UNL     1       3.345  -8.673   4.261  1.00  0.00     0.074 A 
ATOM     46  C   UNL     1       2.126  -7.897   4.325  1.00  0.00     0.031 C 
ATOM     47  C   UNL     1       7.507  -4.618   1.513  1.00  0.00     0.029 A 
ATOM     48  C   UNL     1       7.735  -6.009   1.887  1.00  0.00     0.049 A 
ATOM     49  H   UNL     1       6.347  -7.353   2.671  1.00  0.00     0.167 HD
ATOM     50  C   UNL     1       3.461  -9.951   4.694  1.00  0.00     0.034 A 
ATOM     51  C   UNL     1       8.910  -6.658   1.777  1.00  0.00     0.034 A 
ATOM     52  C   UNL     1       4.650 -10.748   4.549  1.00  0.00     0.049 A 
ATOM     53  C   UNL     1       9.002  -8.086   2.237  1.00  0.00     0.074 A 
ATOM     54  C   UNL     1       4.846 -12.071   4.903  1.00  0.00     0.029 A 
ATOM     55  N   UNL     1       5.839 -10.302   3.994  1.00  0.00    -0.354 N 
ATOM     56  N   UNL     1       8.061  -8.855   2.731  1.00  0.00    -0.248 NA
ATOM     57  C   UNL     1      10.312  -8.741   2.115  1.00  0.00     0.031 C 
ATOM     58  C   UNL     1       6.157 -12.425   4.566  1.00  0.00     0.029 A 
ATOM     59  C   UNL     1       6.774 -11.323   3.995  1.00  0.00     0.049 A 
ATOM     60  H   UNL     1       5.996  -9.393   3.649  1.00  0.00     0.167 HD
ATOM     61  C   UNL     1       8.659 -10.088   2.960  1.00  0.00     0.074 A 
ATOM     62  C   UNL     1      10.036  -9.973   2.524  1.00  0.00     0.031 C 
ATOM     63  C   UNL     1       8.124 -11.208   3.506  1.00  0.00     0.034 A 
BRANCH  50  64
ATOM     64  C   UNL     1       2.259 -10.585   5.341  1.00  0.00     0.023 A 
ATOM     65  C   UNL     1       1.180 -11.014   4.543  1.00  0.00     0.012 A 
ATOM     66  C   UNL     1       2.225 -10.813   6.731  1.00  0.00     0.148 A 
ATOM     67  C   UNL     1       0.074 -11.636   5.122  1.00  0.00     0.002 A 
ATOM     68  C   UNL     1       1.136 -11.469   7.296  1.00  0.00     0.091 A 
ATOM     69  F   UNL     1       3.249 -10.375   7.477  1.00  0.00    -0.205 F 
ATOM     70  C   UNL     1       0.057 -11.874   6.494  1.00  0.00     0.022 A 
BRANCH  68  71
ATOM     71  S   UNL     1       1.063 -11.881   9.043  1.00  0.00     0.127 S 
ATOM     72  O   UNL     1       0.135 -10.870   9.547  1.00  0.00    -0.237 OA
ATOM     73  O   UNL     1       0.526 -13.243   9.021  1.00  0.00    -0.237 OA
ATOM     74  O   UNL     1       2.431 -11.781   9.533  1.00  0.00    -0.744 OA
ENDBRANCH  68  71
ENDBRANCH  50  64
BRANCH  51  75
ATOM     75  C   UNL     1      10.084  -5.965   1.175  1.00  0.00     0.023 A 
ATOM     76  C   UNL     1      10.548  -6.369  -0.091  1.00  0.00     0.012 A 
ATOM     77  C   UNL     1      10.706  -4.877   1.819  1.00  0.00     0.148 A 
ATOM     78  C   UNL     1      11.618  -5.713  -0.699  1.00  0.00     0.002 A 
ATOM     79  C   UNL     1      11.733  -4.190   1.181  1.00  0.00     0.091 A 
ATOM     80  F   UNL     1      10.271  -4.523   3.036  1.00  0.00    -0.205 F 
ATOM     81  C   UNL     1      12.201  -4.614  -0.071  1.00  0.00     0.022 A 
BRANCH  79  82
ATOM     82  S   UNL     1      12.428  -2.678   1.860  1.00  0.00     0.127 S 
ATOM     83  O   UNL     1      13.689  -3.153   2.422  1.00  0.00    -0.237 OA
ATOM     84  O   UNL     1      12.563  -1.838   0.668  1.00  0.00    -0.237 OA
ATOM     85  O   UNL     1      11.441  -2.196   2.817  1.00  0.00    -0.744 OA
ENDBRANCH  79  82
ENDBRANCH  51  75
BRANCH  63  86
ATOM     86  C   UNL     1       9.022 -12.407   3.648  1.00  0.00     0.023 A 
ATOM     87  C   UNL     1       9.989 -12.429   4.671  1.00  0.00     0.012 A 
ATOM     88  C   UNL     1       8.861 -13.535   2.821  1.00  0.00     0.148 A 
ATOM     89  C   UNL     1      10.803 -13.546   4.853  1.00  0.00     0.002 A 
ATOM     90  C   UNL     1       9.648 -14.661   3.033  1.00  0.00     0.091 A 
ATOM     91  F   UNL     1       7.950 -13.485   1.838  1.00  0.00    -0.205 F 
ATOM     92  C   UNL     1      10.625 -14.665   4.042  1.00  0.00     0.022 A 
BRANCH  90  93
ATOM     93  S   UNL     1       9.425 -16.173   2.089  1.00  0.00     0.127 S 
ATOM     94  O   UNL     1      10.535 -16.102   1.142  1.00  0.00    -0.237 OA
ATOM     95  O   UNL     1       9.565 -17.208   3.115  1.00  0.00    -0.237 OA
ATOM     96  O   UNL     1       8.092 -16.083   1.507  1.00  0.00    -0.744 OA
ENDBRANCH  90  93
ENDBRANCH  63  86
ENDBRANCH  37  38
ENDBRANCH  30  32
ENDBRANCH  29  30
ENDBRANCH  28  29
ENDBRANCH   1  28
TORSDOF 17
