REMARK SMILES CS(=O)(=O)c1ccc(C2=NN(c3ccc(C(=O)OCCOC(=O)c4ccc(-c5c6nc(c(-c7cccc(S(=O)(=O)[O-])c7F)c7ccc([nH]7)c(-c7cccc(S(=O)(=O)[O-])c7F)c7nc(c(-c8cccc(S(=O)(=O)[O-])c8F)c8ccc5[nH]8)C=C7)C=C6)cc4)cc3)[C@H](c3cccs3)C2)cc1
REMARK SMILES IDX 19 1 18 2 16 3 17 4 15 5 12 6 13 7 88 8 14 9 87 10 11 11
REMARK SMILES IDX 9 12 10 13 95 14 89 15 8 16 5 17 6 18 97 19 7 20 96 21 2 22
REMARK SMILES IDX 1 23 3 24 4 25 90 26 91 27 94 28 92 29 93 30 20 31 21 32
REMARK SMILES IDX 22 33 23 34 24 35 25 36 86 37 26 38 85 39 27 40 28 41 29 42
REMARK SMILES IDX 79 43 30 44 84 45 78 46 80 47 31 48 83 49 77 50 76 51 32 53
REMARK SMILES IDX 64 54 44 55 63 56 45 57 48 58 62 59 81 60 46 61 47 62 61 64
REMARK SMILES IDX 82 65 49 66 33 67 34 68 42 69 35 70 37 71 43 72 36 73 38 74
REMARK SMILES IDX 39 75 40 76 41 77 65 78 66 79 74 80 67 81 69 82 75 83 68 84
REMARK SMILES IDX 70 85 71 86 72 87 73 88 50 89 51 90 59 91 52 92 54 93 60 94
REMARK SMILES IDX 53 95 55 96 56 97 57 98 58 99
REMARK H PARENT 80 52 48 63
REMARK Flexibility Score: inf
ROOT
ATOM      1  C   UNL     1       9.954  12.538   0.684  1.00  0.00     0.275 C 
ENDROOT
BRANCH   1   2
ATOM      2  O   UNL     1       8.795  11.710   0.902  1.00  0.00    -0.458 OA
BRANCH   2   3
ATOM      3  C   UNL     1       7.827  11.787  -0.048  1.00  0.00     0.338 C 
ATOM      4  O   UNL     1       7.822  12.518  -1.018  1.00  0.00    -0.246 OA
BRANCH   3   5
ATOM      5  C   UNL     1       6.758  10.790   0.211  1.00  0.00     0.060 A 
ATOM      6  C   UNL     1       4.643   8.983   0.610  1.00  0.00     0.060 A 
ATOM      7  C   UNL     1       5.000   9.371  -0.682  1.00  0.00     0.029 A 
ATOM      8  C   UNL     1       5.382   9.476   1.695  1.00  0.00     0.029 A 
ATOM      9  C   UNL     1       6.023  10.298  -0.877  1.00  0.00     0.018 A 
ATOM     10  C   UNL     1       6.442  10.366   1.503  1.00  0.00     0.018 A 
BRANCH   6  11
ATOM     11  N   UNL     1       3.502   8.215   0.839  1.00  0.00    -0.257 N 
ATOM     12  C   UNL     1       2.161   6.706   0.167  1.00  0.00     0.071 C 
ATOM     13  N   UNL     1       3.421   6.962   0.333  1.00  0.00    -0.176 NA
ATOM     14  C   UNL     1       1.216   7.844   0.436  1.00  0.00     0.091 C 
ATOM     15  C   UNL     1       2.209   8.908   0.918  1.00  0.00     0.154 C 
BRANCH  12  16
ATOM     16  C   UNL     1       1.681   5.368  -0.216  1.00  0.00    -0.002 A 
ATOM     17  C   UNL     1       0.860   2.779  -0.836  1.00  0.00     0.067 A 
ATOM     18  C   UNL     1       1.925   2.968   0.045  1.00  0.00     0.021 A 
ATOM     19  C   UNL     1       0.207   3.879  -1.412  1.00  0.00     0.021 A 
ATOM     20  C   UNL     1       2.338   4.266   0.345  1.00  0.00     0.011 A 
ATOM     21  C   UNL     1       0.615   5.180  -1.098  1.00  0.00     0.011 A 
BRANCH  17  22
ATOM     22  S   UNL     1       0.264   1.153  -1.236  1.00  0.00     0.175 S 
ATOM     23  C   UNL     1       0.903   0.048  -0.006  1.00  0.00     0.163 C 
ATOM     24  O   UNL     1       0.855   0.793  -2.508  1.00  0.00    -0.224 OA
ATOM     25  O   UNL     1      -1.177   1.191  -1.056  1.00  0.00    -0.224 OA
ENDBRANCH  17  22
ENDBRANCH  12  16
BRANCH  15  26
ATOM     26  C   UNL     1       1.961   9.524   2.281  1.00  0.00     0.030 A 
ATOM     27  C   UNL     1       2.375  10.784   2.687  1.00  0.00     0.017 A 
ATOM     28  S   UNL     1       1.276   8.657   3.591  1.00  0.00    -0.147 S 
ATOM     29  C   UNL     1       2.175  11.011   4.077  1.00  0.00     0.012 A 
ATOM     30  C   UNL     1       1.567   9.937   4.685  1.00  0.00     0.065 A 
ENDBRANCH  15  26
ENDBRANCH   6  11
ENDBRANCH   3   5
ENDBRANCH   2   3
ENDBRANCH   1   2
BRANCH   1  31
ATOM     31  C   UNL     1      11.132  11.709   0.175  1.00  0.00     0.275 C 
BRANCH  31  32
ATOM     32  O   UNL     1      10.876  11.228  -1.155  1.00  0.00    -0.458 OA
BRANCH  32  33
ATOM     33  C   UNL     1      10.529   9.924  -1.242  1.00  0.00     0.338 C 
ATOM     34  O   UNL     1      10.453   9.112  -0.334  1.00  0.00    -0.246 OA
BRANCH  33  35
ATOM     35  C   UNL     1      10.181   9.604  -2.632  1.00  0.00     0.060 A 
ATOM     36  C   UNL     1       8.904   9.918  -3.085  1.00  0.00     0.016 A 
ATOM     37  C   UNL     1      11.059   8.890  -3.442  1.00  0.00     0.016 A 
ATOM     38  C   UNL     1       8.457   9.448  -4.316  1.00  0.00     0.010 A 
ATOM     39  C   UNL     1      10.643   8.502  -4.720  1.00  0.00     0.010 A 
ATOM     40  C   UNL     1       9.327   8.749  -5.160  1.00  0.00    -0.014 A 
BRANCH  40  41
ATOM     41  C   UNL     1       8.874   8.264  -6.493  1.00  0.00     0.031 A 
ATOM     42  C   UNL     1       8.969   6.799  -6.831  1.00  0.00     0.074 A 
ATOM     43  C   UNL     1       8.421   9.136  -7.417  1.00  0.00     0.049 A 
ATOM     44  N   UNL     1       8.851   6.207  -7.991  1.00  0.00    -0.248 NA
ATOM     45  C   UNL     1       9.253   5.880  -5.716  1.00  0.00     0.031 C 
ATOM     46  C   UNL     1       8.245  10.575  -7.212  1.00  0.00     0.029 A 
ATOM     47  N   UNL     1       8.048   8.943  -8.725  1.00  0.00    -0.354 N 
ATOM     48  C   UNL     1       9.129   4.864  -7.763  1.00  0.00     0.074 A 
ATOM     49  C   UNL     1       9.408   4.726  -6.350  1.00  0.00     0.031 C 
ATOM     50  C   UNL     1       7.794  11.133  -8.344  1.00  0.00     0.029 A 
ATOM     51  C   UNL     1       7.734  10.111  -9.382  1.00  0.00     0.049 A 
ATOM     52  H   UNL     1       8.009   8.056  -9.151  1.00  0.00     0.167 HD
ATOM     53  C   UNL     1       9.147   3.840  -8.651  1.00  0.00     0.034 A 
ATOM     54  C   UNL     1       7.479  10.348 -10.684  1.00  0.00     0.034 A 
ATOM     55  C   UNL     1       8.800   3.979 -10.041  1.00  0.00     0.049 A 
ATOM     56  C   UNL     1       7.524   9.200 -11.652  1.00  0.00     0.074 A 
ATOM     57  C   UNL     1       8.737   2.998 -11.014  1.00  0.00     0.029 A 
ATOM     58  N   UNL     1       8.451   5.173 -10.654  1.00  0.00    -0.354 N 
ATOM     59  N   UNL     1       7.748   7.930 -11.416  1.00  0.00    -0.248 NA
ATOM     60  C   UNL     1       7.273   9.514 -13.066  1.00  0.00     0.031 C 
ATOM     61  C   UNL     1       8.372   3.603 -12.222  1.00  0.00     0.029 A 
ATOM     62  C   UNL     1       8.179   4.957 -11.994  1.00  0.00     0.049 A 
ATOM     63  H   UNL     1       8.403   6.046 -10.202  1.00  0.00     0.167 HD
ATOM     64  C   UNL     1       7.630   7.288 -12.643  1.00  0.00     0.074 A 
ATOM     65  C   UNL     1       7.301   8.308 -13.618  1.00  0.00     0.031 C 
ATOM     66  C   UNL     1       7.793   5.975 -12.938  1.00  0.00     0.034 A 
BRANCH  53  67
ATOM     67  C   UNL     1       9.546   2.477  -8.146  1.00  0.00     0.023 A 
ATOM     68  C   UNL     1       8.673   1.747  -7.314  1.00  0.00     0.012 A 
ATOM     69  C   UNL     1      10.772   1.898  -8.533  1.00  0.00     0.148 A 
ATOM     70  C   UNL     1       9.031   0.484  -6.842  1.00  0.00     0.002 A 
ATOM     71  C   UNL     1      11.102   0.620  -8.095  1.00  0.00     0.091 A 
ATOM     72  F   UNL     1      11.601   2.612  -9.308  1.00  0.00    -0.205 F 
ATOM     73  C   UNL     1      10.239  -0.083  -7.239  1.00  0.00     0.022 A 
BRANCH  71  74
ATOM     74  S   UNL     1      12.599  -0.224  -8.620  1.00  0.00     0.127 S 
ATOM     75  O   UNL     1      13.424  -0.141  -7.415  1.00  0.00    -0.237 OA
ATOM     76  O   UNL     1      12.107  -1.568  -8.928  1.00  0.00    -0.237 OA
ATOM     77  O   UNL     1      13.093   0.517  -9.772  1.00  0.00    -0.744 OA
ENDBRANCH  71  74
ENDBRANCH  53  67
BRANCH  54  78
ATOM     78  C   UNL     1       7.146  11.728 -11.139  1.00  0.00     0.023 A 
ATOM     79  C   UNL     1       5.839  12.008 -11.582  1.00  0.00     0.012 A 
ATOM     80  C   UNL     1       8.093  12.771 -11.094  1.00  0.00     0.148 A 
ATOM     81  C   UNL     1       5.487  13.295 -11.991  1.00  0.00     0.002 A 
ATOM     82  C   UNL     1       7.719  14.063 -11.447  1.00  0.00     0.091 A 
ATOM     83  F   UNL     1       9.337  12.482 -10.687  1.00  0.00    -0.205 F 
ATOM     84  C   UNL     1       6.421  14.324 -11.911  1.00  0.00     0.022 A 
BRANCH  82  85
ATOM     85  S   UNL     1       8.815  15.473 -11.245  1.00  0.00     0.127 S 
ATOM     86  O   UNL     1       9.121  15.814 -12.631  1.00  0.00    -0.237 OA
ATOM     87  O   UNL     1       7.951  16.429 -10.552  1.00  0.00    -0.237 OA
ATOM     88  O   UNL     1       9.935  14.990 -10.449  1.00  0.00    -0.744 OA
ENDBRANCH  82  85
ENDBRANCH  54  78
BRANCH  66  89
ATOM     89  C   UNL     1       7.566   5.547 -14.363  1.00  0.00     0.023 A 
ATOM     90  C   UNL     1       8.527   5.846 -15.348  1.00  0.00     0.012 A 
ATOM     91  C   UNL     1       6.439   4.774 -14.703  1.00  0.00     0.148 A 
ATOM     92  C   UNL     1       8.357   5.401 -16.659  1.00  0.00     0.002 A 
ATOM     93  C   UNL     1       6.301   4.293 -15.999  1.00  0.00     0.091 A 
ATOM     94  F   UNL     1       5.528   4.518 -13.753  1.00  0.00    -0.205 F 
ATOM     95  C   UNL     1       7.252   4.615 -16.980  1.00  0.00     0.022 A 
BRANCH  93  96
ATOM     96  S   UNL     1       4.964   3.195 -16.483  1.00  0.00     0.127 S 
ATOM     97  O   UNL     1       4.170   4.058 -17.356  1.00  0.00    -0.237 OA
ATOM     98  O   UNL     1       5.681   2.122 -17.174  1.00  0.00    -0.237 OA
ATOM     99  O   UNL     1       4.309   2.787 -15.248  1.00  0.00    -0.744 OA
ENDBRANCH  93  96
ENDBRANCH  66  89
ENDBRANCH  40  41
ENDBRANCH  33  35
ENDBRANCH  32  33
ENDBRANCH  31  32
ENDBRANCH   1  31
TORSDOF 18
