REMARK SMILES Cc1c(C[C@@H](C)O)c(=O)oc2cc(OCC(=O)OCCOC(=O)c3ccc(-c4c5nc(c(-c6cccc(S(=O)(=O)[O-])c6F)c6ccc([nH]6)c(-c6cccc(S(=O)(=O)[O-])c6F)c6nc(c(-c7cccc(S(=O)(=O)[O-])c7F)c7ccc4[nH]7)C=C6)C=C5)cc3)ccc12
REMARK SMILES IDX 19 1 18 2 16 3 17 4 15 5 14 6 13 7 1 8 2 9 3 10 89 11 8 12
REMARK SMILES IDX 11 13 88 14 9 15 10 16 12 17 87 18 4 19 5 20 6 21 7 22 20 24
REMARK SMILES IDX 21 25 22 26 23 27 24 28 25 29 86 30 26 31 85 32 27 33 28 34
REMARK SMILES IDX 29 35 79 36 30 37 84 38 78 39 80 40 31 41 83 42 77 43 76 44
REMARK SMILES IDX 32 46 64 47 44 48 63 49 45 50 48 51 62 52 81 53 46 54 47 55
REMARK SMILES IDX 61 57 82 58 49 59 33 60 34 61 42 62 35 63 37 64 43 65 36 66
REMARK SMILES IDX 38 67 39 68 40 69 41 70 65 71 66 72 74 73 67 74 69 75 75 76
REMARK SMILES IDX 68 77 70 78 71 79 72 80 73 81 50 82 51 83 59 84 52 85 54 86
REMARK SMILES IDX 60 87 53 88 55 89 56 90 57 91 58 92
REMARK H PARENT 7 23 80 45 48 56
REMARK Flexibility Score: inf
ROOT
ATOM      1  C   UNL     1       2.892   3.941  -3.450  1.00  0.00     0.274 C 
ENDROOT
BRANCH   1   2
ATOM      2  O   UNL     1       3.382   3.150  -2.348  1.00  0.00    -0.460 OA
BRANCH   2   3
ATOM      3  C   UNL     1       3.645   3.835  -1.202  1.00  0.00     0.344 C 
ATOM      4  O   UNL     1       3.528   5.049  -1.069  1.00  0.00    -0.248 OA
BRANCH   3   5
ATOM      5  C   UNL     1       4.144   2.941  -0.068  1.00  0.00     0.351 C 
BRANCH   5   6
ATOM      6  O   UNL     1       4.245   1.543  -0.285  1.00  0.00    -0.482 OA
BRANCH   6   7
ATOM      7  C   UNL     1       3.151   0.760  -0.051  1.00  0.00     0.123 A 
ATOM      8  C   UNL     1       0.139  -3.456   0.574  1.00  0.00     0.046 C 
ATOM      9  C   UNL     1      -0.140  -1.990   0.378  1.00  0.00    -0.030 A 
ATOM     10  C   UNL     1      -1.375  -1.454   0.252  1.00  0.00     0.044 A 
ATOM     11  C   UNL     1       1.024  -1.093   0.263  1.00  0.00     0.021 A 
ATOM     12  C   UNL     1      -1.565   0.026   0.202  1.00  0.00     0.339 A 
ATOM     13  C   UNL     1       0.824   0.277   0.356  1.00  0.00     0.142 A 
ATOM     14  C   UNL     1       2.329  -1.531   0.010  1.00  0.00     0.016 A 
ATOM     15  O   UNL     1      -2.665   0.528  -0.003  1.00  0.00    -0.246 OA
ATOM     16  O   UNL     1      -0.464   0.809   0.501  1.00  0.00    -0.422 OA
ATOM     17  C   UNL     1       1.868   1.201   0.239  1.00  0.00     0.094 A 
ATOM     18  C   UNL     1       3.374  -0.612  -0.161  1.00  0.00     0.047 A 
BRANCH  10  19
ATOM     19  C   UNL     1      -2.671  -2.236   0.169  1.00  0.00     0.075 C 
BRANCH  19  20
ATOM     20  C   UNL     1      -3.087  -2.579  -1.277  1.00  0.00     0.116 C 
ATOM     21  C   UNL     1      -2.138  -3.549  -1.972  1.00  0.00     0.038 C 
BRANCH  20  22
ATOM     22  O   UNL     1      -4.385  -3.181  -1.292  1.00  0.00    -0.393 OA
ATOM     23  H   UNL     1      -4.357  -4.021  -0.806  1.00  0.00     0.210 HD
ENDBRANCH  20  22
ENDBRANCH  19  20
ENDBRANCH  10  19
ENDBRANCH   6   7
ENDBRANCH   5   6
ENDBRANCH   3   5
ENDBRANCH   2   3
ENDBRANCH   1   2
BRANCH   1  24
ATOM     24  C   UNL     1       1.377   3.814  -3.573  1.00  0.00     0.275 C 
BRANCH  24  25
ATOM     25  O   UNL     1       0.761   4.235  -2.345  1.00  0.00    -0.458 OA
BRANCH  25  26
ATOM     26  C   UNL     1      -0.249   3.451  -1.907  1.00  0.00     0.338 C 
ATOM     27  O   UNL     1      -0.707   2.471  -2.485  1.00  0.00    -0.246 OA
BRANCH  26  28
ATOM     28  C   UNL     1      -0.729   3.912  -0.586  1.00  0.00     0.060 A 
ATOM     29  C   UNL     1       0.152   4.417   0.376  1.00  0.00     0.016 A 
ATOM     30  C   UNL     1      -2.071   3.712  -0.260  1.00  0.00     0.016 A 
ATOM     31  C   UNL     1      -0.288   4.620   1.686  1.00  0.00     0.010 A 
ATOM     32  C   UNL     1      -2.529   4.005   1.026  1.00  0.00     0.010 A 
ATOM     33  C   UNL     1      -1.638   4.428   2.024  1.00  0.00    -0.014 A 
BRANCH  33  34
ATOM     34  C   UNL     1      -2.137   4.700   3.399  1.00  0.00     0.031 A 
ATOM     35  C   UNL     1      -2.794   3.616   4.215  1.00  0.00     0.074 A 
ATOM     36  C   UNL     1      -2.064   5.953   3.890  1.00  0.00     0.049 A 
ATOM     37  N   UNL     1      -3.410   3.711   5.367  1.00  0.00    -0.248 NA
ATOM     38  C   UNL     1      -2.763   2.250   3.666  1.00  0.00     0.031 C 
ATOM     39  C   UNL     1      -1.479   7.099   3.192  1.00  0.00     0.029 A 
ATOM     40  N   UNL     1      -2.514   6.481   5.075  1.00  0.00    -0.354 N 
ATOM     41  C   UNL     1      -3.885   2.436   5.655  1.00  0.00     0.074 A 
ATOM     42  C   UNL     1      -3.478   1.580   4.560  1.00  0.00     0.031 C 
ATOM     43  C   UNL     1      -1.608   8.193   3.955  1.00  0.00     0.029 A 
ATOM     44  C   UNL     1      -2.337   7.842   5.169  1.00  0.00     0.049 A 
ATOM     45  H   UNL     1      -2.924   5.939   5.787  1.00  0.00     0.167 HD
ATOM     46  C   UNL     1      -4.582   2.014   6.737  1.00  0.00     0.034 A 
ATOM     47  C   UNL     1      -2.744   8.722   6.103  1.00  0.00     0.034 A 
ATOM     48  C   UNL     1      -4.944   2.853   7.850  1.00  0.00     0.049 A 
ATOM     49  C   UNL     1      -3.509   8.226   7.296  1.00  0.00     0.074 A 
ATOM     50  C   UNL     1      -5.594   2.498   9.020  1.00  0.00     0.029 A 
ATOM     51  N   UNL     1      -4.691   4.213   7.933  1.00  0.00    -0.354 N 
ATOM     52  N   UNL     1      -3.854   6.999   7.599  1.00  0.00    -0.248 NA
ATOM     53  C   UNL     1      -3.922   9.232   8.284  1.00  0.00     0.031 C 
ATOM     54  C   UNL     1      -5.736   3.645   9.810  1.00  0.00     0.029 A 
ATOM     55  C   UNL     1      -5.173   4.713   9.132  1.00  0.00     0.049 A 
ATOM     56  H   UNL     1      -4.234   4.746   7.242  1.00  0.00     0.167 HD
ATOM     57  C   UNL     1      -4.513   7.081   8.819  1.00  0.00     0.074 A 
ATOM     58  C   UNL     1      -4.491   8.475   9.214  1.00  0.00     0.031 C 
ATOM     59  C   UNL     1      -5.104   6.094   9.536  1.00  0.00     0.034 A 
BRANCH  46  60
ATOM     60  C   UNL     1      -4.957   0.557   6.811  1.00  0.00     0.023 A 
ATOM     61  C   UNL     1      -3.978  -0.386   7.183  1.00  0.00     0.012 A 
ATOM     62  C   UNL     1      -6.284   0.131   6.603  1.00  0.00     0.148 A 
ATOM     63  C   UNL     1      -4.308  -1.732   7.333  1.00  0.00     0.002 A 
ATOM     64  C   UNL     1      -6.612  -1.209   6.784  1.00  0.00     0.091 A 
ATOM     65  F   UNL     1      -7.197   1.037   6.227  1.00  0.00    -0.205 F 
ATOM     66  C   UNL     1      -5.626  -2.142   7.144  1.00  0.00     0.022 A 
BRANCH  64  67
ATOM     67  S   UNL     1      -8.297  -1.815   6.629  1.00  0.00     0.127 S 
ATOM     68  O   UNL     1      -8.270  -2.428   5.302  1.00  0.00    -0.237 OA
ATOM     69  O   UNL     1      -8.392  -2.768   7.736  1.00  0.00    -0.237 OA
ATOM     70  O   UNL     1      -9.152  -0.645   6.770  1.00  0.00    -0.744 OA
ENDBRANCH  64  67
ENDBRANCH  46  60
BRANCH  47  71
ATOM     71  C   UNL     1      -2.394  10.161   5.950  1.00  0.00     0.023 A 
ATOM     72  C   UNL     1      -1.416  10.723   6.791  1.00  0.00     0.012 A 
ATOM     73  C   UNL     1      -2.957  10.948   4.927  1.00  0.00     0.148 A 
ATOM     74  C   UNL     1      -1.011  12.047   6.622  1.00  0.00     0.002 A 
ATOM     75  C   UNL     1      -2.506  12.248   4.726  1.00  0.00     0.091 A 
ATOM     76  F   UNL     1      -3.906  10.405   4.151  1.00  0.00    -0.205 F 
ATOM     77  C   UNL     1      -1.543  12.804   5.580  1.00  0.00     0.022 A 
BRANCH  75  78
ATOM     78  S   UNL     1      -3.032  13.217   3.307  1.00  0.00     0.127 S 
ATOM     79  O   UNL     1      -4.090  14.042   3.881  1.00  0.00    -0.237 OA
ATOM     80  O   UNL     1      -1.810  13.941   2.953  1.00  0.00    -0.237 OA
ATOM     81  O   UNL     1      -3.447  12.236   2.312  1.00  0.00    -0.744 OA
ENDBRANCH  75  78
ENDBRANCH  47  71
BRANCH  59  82
ATOM     82  C   UNL     1      -5.774   6.485  10.824  1.00  0.00     0.023 A 
ATOM     83  C   UNL     1      -7.028   7.126  10.781  1.00  0.00     0.012 A 
ATOM     84  C   UNL     1      -5.196   6.178  12.070  1.00  0.00     0.148 A 
ATOM     85  C   UNL     1      -7.684   7.479  11.959  1.00  0.00     0.002 A 
ATOM     86  C   UNL     1      -5.872   6.502  13.242  1.00  0.00     0.091 A 
ATOM     87  F   UNL     1      -3.990   5.591  12.094  1.00  0.00    -0.205 F 
ATOM     88  C   UNL     1      -7.112   7.159  13.188  1.00  0.00     0.022 A 
BRANCH  86  89
ATOM     89  S   UNL     1      -5.228   6.051  14.857  1.00  0.00     0.127 S 
ATOM     90  O   UNL     1      -4.536   7.274  15.258  1.00  0.00    -0.237 OA
ATOM     91  O   UNL     1      -6.445   5.763  15.619  1.00  0.00    -0.237 OA
ATOM     92  O   UNL     1      -4.382   4.888  14.625  1.00  0.00    -0.744 OA
ENDBRANCH  86  89
ENDBRANCH  59  82
ENDBRANCH  33  34
ENDBRANCH  26  28
ENDBRANCH  25  26
ENDBRANCH  24  25
ENDBRANCH   1  24
TORSDOF 19
