REMARK SMILES Cc1c(CC(=O)OCCOC(=O)c2ccc(-c3c4nc(c(-c5cccc(S(=O)(=O)[O-])c5F)c5ccc([nH]5)c(-c5cccc(S(=O)(=O)[O-])c5F)c5nc(c(-c6cccc(S(=O)(=O)[O-])c6F)c6ccc3[nH]6)C=C5)C=C4)cc2)cc(-c2ccc(S(C)(=O)=O)cc2)n1-c1ccccc1
REMARK SMILES IDX 8 1 7 2 5 3 6 4 4 5 3 6 1 7 2 8 88 9 76 10 77 11 89 12 90 13
REMARK SMILES IDX 94 14 91 15 93 16 92 17 78 18 79 19 87 20 80 21 86 22 81 23
REMARK SMILES IDX 82 24 83 25 84 26 85 27 9 28 10 29 11 30 12 31 13 32 14 33
REMARK SMILES IDX 75 34 15 35 74 36 16 37 17 38 18 39 68 40 19 41 73 42 67 43
REMARK SMILES IDX 69 44 20 45 72 46 66 47 65 48 21 50 53 51 33 52 52 53 34 54
REMARK SMILES IDX 37 55 51 56 70 57 35 58 36 59 50 61 71 62 38 63 22 64 23 65
REMARK SMILES IDX 31 66 24 67 26 68 32 69 25 70 27 71 28 72 29 73 30 74 54 75
REMARK SMILES IDX 55 76 63 77 56 78 58 79 64 80 57 81 59 82 60 83 61 84 62 85
REMARK SMILES IDX 39 86 40 87 48 88 41 89 43 90 49 91 42 92 44 93 45 94 46 95
REMARK SMILES IDX 47 96
REMARK H PARENT 69 49 37 60
REMARK Flexibility Score: inf
ROOT
ATOM      1  C   UNL     1      -2.764  -1.221  -0.727  1.00  0.00     0.274 C 
ENDROOT
BRANCH   1   2
ATOM      2  O   UNL     1      -2.118  -0.205   0.067  1.00  0.00    -0.462 OA
BRANCH   2   3
ATOM      3  C   UNL     1      -2.055  -0.441   1.397  1.00  0.00     0.310 C 
ATOM      4  O   UNL     1      -2.665  -1.346   1.963  1.00  0.00    -0.252 OA
BRANCH   3   5
ATOM      5  C   UNL     1      -1.192   0.541   2.159  1.00  0.00     0.160 C 
BRANCH   5   6
ATOM      6  C   UNL     1      -0.375   1.534   1.373  1.00  0.00    -0.015 A 
ATOM      7  C   UNL     1       1.446   0.017   0.270  1.00  0.00     0.065 C 
ATOM      8  C   UNL     1       0.721   1.290   0.554  1.00  0.00     0.024 A 
ATOM      9  N   UNL     1       1.179   2.496   0.052  1.00  0.00    -0.314 N 
ATOM     10  C   UNL     1      -0.482   2.954   1.465  1.00  0.00     0.033 A 
ATOM     11  C   UNL     1       0.521   3.531   0.703  1.00  0.00     0.053 A 
BRANCH   9  12
ATOM     12  C   UNL     1       2.211   2.631  -0.908  1.00  0.00     0.046 A 
ATOM     13  C   UNL     1       3.391   3.302  -0.576  1.00  0.00     0.026 A 
ATOM     14  C   UNL     1       2.030   2.074  -2.178  1.00  0.00     0.026 A 
ATOM     15  C   UNL     1       4.398   3.420  -1.531  1.00  0.00     0.002 A 
ATOM     16  C   UNL     1       3.034   2.215  -3.133  1.00  0.00     0.002 A 
ATOM     17  C   UNL     1       4.215   2.886  -2.809  1.00  0.00     0.000 A 
ENDBRANCH   9  12
BRANCH  11  18
ATOM     18  C   UNL     1       0.861   4.944   0.536  1.00  0.00    -0.001 A 
ATOM     19  C   UNL     1       0.828   5.547  -0.730  1.00  0.00     0.011 A 
ATOM     20  C   UNL     1       1.299   5.687   1.640  1.00  0.00     0.011 A 
ATOM     21  C   UNL     1       1.247   6.867  -0.899  1.00  0.00     0.021 A 
ATOM     22  C   UNL     1       1.716   7.010   1.480  1.00  0.00     0.021 A 
ATOM     23  C   UNL     1       1.688   7.592   0.209  1.00  0.00     0.067 A 
BRANCH  23  24
ATOM     24  S   UNL     1       2.131   9.299   0.016  1.00  0.00     0.175 S 
ATOM     25  C   UNL     1       3.531   9.299  -1.068  1.00  0.00     0.163 C 
ATOM     26  O   UNL     1       1.015   9.936  -0.696  1.00  0.00    -0.224 OA
ATOM     27  O   UNL     1       2.562   9.801   1.293  1.00  0.00    -0.224 OA
ENDBRANCH  23  24
ENDBRANCH  11  18
ENDBRANCH   5   6
ENDBRANCH   3   5
ENDBRANCH   2   3
ENDBRANCH   1   2
BRANCH   1  28
ATOM     28  C   UNL     1      -1.738  -1.939  -1.676  1.00  0.00     0.275 C 
BRANCH  28  29
ATOM     29  O   UNL     1      -0.981  -3.247  -1.480  1.00  0.00    -0.458 OA
BRANCH  29  30
ATOM     30  C   UNL     1       0.136  -3.479  -0.687  1.00  0.00     0.338 C 
ATOM     31  O   UNL     1       0.348  -2.764   0.286  1.00  0.00    -0.246 OA
BRANCH  30  32
ATOM     32  C   UNL     1       1.117  -4.771  -1.050  1.00  0.00     0.060 A 
ATOM     33  C   UNL     1       2.104  -5.192  -0.174  1.00  0.00     0.016 A 
ATOM     34  C   UNL     1       1.184  -5.631  -2.181  1.00  0.00     0.016 A 
ATOM     35  C   UNL     1       3.010  -6.410  -0.441  1.00  0.00     0.010 A 
ATOM     36  C   UNL     1       2.142  -6.924  -2.425  1.00  0.00     0.010 A 
ATOM     37  C   UNL     1       3.151  -7.424  -1.569  1.00  0.00    -0.014 A 
BRANCH  37  38
ATOM     38  C   UNL     1       4.293  -8.912  -1.535  1.00  0.00     0.031 A 
ATOM     39  C   UNL     1       4.787  -8.599  -0.170  1.00  0.00     0.074 A 
ATOM     40  C   UNL     1       5.210 -10.060  -2.139  1.00  0.00     0.049 A 
ATOM     41  N   UNL     1       5.474  -7.503  -0.201  1.00  0.00    -0.248 NA
ATOM     42  C   UNL     1       4.262  -8.855   1.172  1.00  0.00     0.031 C 
ATOM     43  C   UNL     1       5.670 -10.415  -3.573  1.00  0.00     0.029 A 
ATOM     44  N   UNL     1       6.135 -11.261  -1.506  1.00  0.00    -0.354 N 
ATOM     45  C   UNL     1       5.806  -7.102   1.046  1.00  0.00     0.074 A 
ATOM     46  C   UNL     1       4.927  -7.921   1.891  1.00  0.00     0.031 C 
ATOM     47  C   UNL     1       6.415 -11.595  -3.756  1.00  0.00     0.029 A 
ATOM     48  C   UNL     1       6.763 -12.377  -2.514  1.00  0.00     0.049 A 
ATOM     49  H   UNL     1       6.306 -11.305  -0.537  1.00  0.00     0.167 HD
ATOM     50  C   UNL     1       7.135  -6.861   0.992  1.00  0.00     0.034 A 
ATOM     51  C   UNL     1       7.630 -13.626  -2.301  1.00  0.00     0.034 A 
ATOM     52  C   UNL     1       7.788  -8.123   1.256  1.00  0.00     0.049 A 
ATOM     53  C   UNL     1       8.529 -13.203  -1.253  1.00  0.00     0.074 A 
ATOM     54  C   UNL     1       7.420  -9.268   1.971  1.00  0.00     0.029 A 
ATOM     55  N   UNL     1       8.686  -8.519   0.322  1.00  0.00    -0.354 N 
ATOM     56  N   UNL     1       9.434 -12.357  -1.620  1.00  0.00    -0.248 NA
ATOM     57  C   UNL     1       8.692 -13.787   0.071  1.00  0.00     0.031 C 
ATOM     58  C   UNL     1       7.827 -10.354   1.193  1.00  0.00     0.029 A 
ATOM     59  C   UNL     1       8.837  -9.873   0.390  1.00  0.00     0.049 A 
ATOM     60  H   UNL     1       9.155  -7.924  -0.307  1.00  0.00     0.167 HD
ATOM     61  C   UNL     1       9.791 -11.806  -0.449  1.00  0.00     0.074 A 
ATOM     62  C   UNL     1       9.399 -12.778   0.592  1.00  0.00     0.031 C 
ATOM     63  C   UNL     1       9.736 -10.460  -0.525  1.00  0.00     0.034 A 
BRANCH  50  64
ATOM     64  C   UNL     1       7.405  -5.860  -0.246  1.00  0.00     0.023 A 
ATOM     65  C   UNL     1       7.605  -4.520   0.115  1.00  0.00     0.012 A 
ATOM     66  C   UNL     1       7.117  -6.111  -1.655  1.00  0.00     0.148 A 
ATOM     67  C   UNL     1       7.502  -3.484  -0.830  1.00  0.00     0.002 A 
ATOM     68  C   UNL     1       6.910  -5.058  -2.565  1.00  0.00     0.091 A 
ATOM     69  F   UNL     1       7.006  -7.375  -2.099  1.00  0.00    -0.205 F 
ATOM     70  C   UNL     1       7.129  -3.744  -2.149  1.00  0.00     0.022 A 
BRANCH  68  71
ATOM     71  S   UNL     1       6.160  -5.255  -4.220  1.00  0.00     0.127 S 
ATOM     72  O   UNL     1       5.281  -4.081  -4.322  1.00  0.00    -0.237 OA
ATOM     73  O   UNL     1       7.308  -5.209  -5.119  1.00  0.00    -0.237 OA
ATOM     74  O   UNL     1       5.429  -6.519  -4.198  1.00  0.00    -0.744 OA
ENDBRANCH  68  71
ENDBRANCH  50  64
BRANCH  51  75
ATOM     75  C   UNL     1       8.544 -15.111  -2.677  1.00  0.00     0.023 A 
ATOM     76  C   UNL     1       9.980 -15.422  -2.335  1.00  0.00     0.012 A 
ATOM     77  C   UNL     1       7.817 -16.314  -2.744  1.00  0.00     0.148 A 
ATOM     78  C   UNL     1      10.545 -16.751  -2.087  1.00  0.00     0.002 A 
ATOM     79  C   UNL     1       8.374 -17.622  -2.455  1.00  0.00     0.091 A 
ATOM     80  F   UNL     1       6.517 -16.186  -3.002  1.00  0.00    -0.205 F 
ATOM     81  C   UNL     1       9.720 -17.856  -2.126  1.00  0.00     0.022 A 
BRANCH  79  82
ATOM     82  S   UNL     1       7.307 -19.083  -2.316  1.00  0.00     0.127 S 
ATOM     83  O   UNL     1       7.925 -20.022  -3.252  1.00  0.00    -0.237 OA
ATOM     84  O   UNL     1       7.460 -19.442  -0.906  1.00  0.00    -0.237 OA
ATOM     85  O   UNL     1       5.982 -18.616  -2.694  1.00  0.00    -0.744 OA
ENDBRANCH  79  82
ENDBRANCH  51  75
BRANCH  63  86
ATOM     86  C   UNL     1      10.198  -9.705  -1.772  1.00  0.00     0.023 A 
ATOM     87  C   UNL     1       9.666  -9.835  -3.076  1.00  0.00     0.012 A 
ATOM     88  C   UNL     1      11.113  -8.665  -1.560  1.00  0.00     0.148 A 
ATOM     89  C   UNL     1      10.114  -9.034  -4.141  1.00  0.00     0.002 A 
ATOM     90  C   UNL     1      11.510  -7.829  -2.599  1.00  0.00     0.091 A 
ATOM     91  F   UNL     1      11.509  -8.449  -0.297  1.00  0.00    -0.205 F 
ATOM     92  C   UNL     1      11.053  -8.037  -3.905  1.00  0.00     0.022 A 
BRANCH  90  93
ATOM     93  S   UNL     1      12.516  -6.384  -2.271  1.00  0.00     0.127 S 
ATOM     94  O   UNL     1      13.805  -6.783  -2.835  1.00  0.00    -0.237 OA
ATOM     95  O   UNL     1      11.822  -5.327  -3.002  1.00  0.00    -0.237 OA
ATOM     96  O   UNL     1      12.499  -6.216  -0.822  1.00  0.00    -0.744 OA
ENDBRANCH  90  93
ENDBRANCH  63  86
ENDBRANCH  37  38
ENDBRANCH  30  32
ENDBRANCH  29  30
ENDBRANCH  28  29
ENDBRANCH   1  28
TORSDOF 18
