REMARK SMILES CSc1ccc(C=C2C(C)=C(CC(=O)OCCOC(=O)c3ccc(-c4c5nc(c(-c6cccc(S(=O)(=O)[O-])c6F)c6ccc([nH]6)c(-c6cccc(S(=O)(=O)[O-])c6F)c6nc(c(-c7cccc(S(=O)(=O)[O-])c7F)c7ccc4[nH]7)C=C6)C=C5)cc3)c3cc(F)ccc32)cc1
REMARK SMILES IDX 16 1 15 2 13 3 14 4 12 5 11 6 7 7 8 8 9 9 90 10 10 11 84 12
REMARK SMILES IDX 89 13 85 14 88 15 86 16 87 17 6 18 3 19 4 20 92 21 5 22
REMARK SMILES IDX 91 23 2 24 1 25 17 26 18 27 19 28 20 29 21 30 22 31 83 32
REMARK SMILES IDX 23 33 82 34 24 35 25 36 26 37 76 38 27 39 81 40 75 41 77 42
REMARK SMILES IDX 28 43 80 44 74 45 73 46 29 48 61 49 41 50 60 51 42 52 45 53
REMARK SMILES IDX 59 54 78 55 43 56 44 57 58 59 79 60 46 61 30 62 31 63 39 64
REMARK SMILES IDX 32 65 34 66 40 67 33 68 35 69 36 70 37 71 38 72 62 73 63 74
REMARK SMILES IDX 71 75 64 76 66 77 72 78 65 79 67 80 68 81 69 82 70 83 47 84
REMARK SMILES IDX 48 85 56 86 49 87 51 88 57 89 50 90 52 91 53 92 54 93 55 94
REMARK H PARENT 77 47 45 58
REMARK Flexibility Score: inf
ROOT
ATOM      1  C   UNL     1      -0.731   2.835  10.709  1.00  0.00     0.274 C 
ENDROOT
BRANCH   1   2
ATOM      2  O   UNL     1      -0.186   3.146   9.403  1.00  0.00    -0.462 OA
BRANCH   2   3
ATOM      3  C   UNL     1       1.019   3.784   9.364  1.00  0.00     0.310 C 
ATOM      4  O   UNL     1       1.518   4.391  10.311  1.00  0.00    -0.252 OA
BRANCH   3   5
ATOM      5  C   UNL     1       1.756   3.547   8.035  1.00  0.00     0.159 C 
BRANCH   5   6
ATOM      6  C   UNL     1       1.248   2.363   7.111  1.00  0.00    -0.025 C 
ATOM      7  C   UNL     1       2.572   3.652   4.680  1.00  0.00     0.017 C 
ATOM      8  C   UNL     1       2.894   2.594   5.549  1.00  0.00    -0.014 C 
ATOM      9  C   UNL     1       1.454   2.203   5.770  1.00  0.00    -0.039 C 
ATOM     10  C   UNL     1       3.213   1.321   6.553  1.00  0.00    -0.010 A 
ATOM     11  C   UNL     1       1.295   0.932   4.790  1.00  0.00     0.045 C 
ATOM     12  C   UNL     1       2.057   1.200   7.380  1.00  0.00    -0.011 A 
ATOM     13  C   UNL     1       3.866   0.085   6.377  1.00  0.00     0.012 A 
ATOM     14  C   UNL     1       1.513   0.043   7.951  1.00  0.00     0.048 A 
ATOM     15  C   UNL     1       3.392  -1.102   7.065  1.00  0.00     0.040 A 
ATOM     16  C   UNL     1       2.245  -1.100   7.867  1.00  0.00     0.123 A 
ATOM     17  F   UNL     1       1.787  -2.210   8.464  1.00  0.00    -0.207 F 
BRANCH   7  18
ATOM     18  C   UNL     1       1.379   3.910   3.631  1.00  0.00    -0.025 A 
ATOM     19  C   UNL     1       0.594   2.923   1.119  1.00  0.00     0.007 A 
ATOM     20  C   UNL     1       0.085   2.388   2.279  1.00  0.00     0.015 A 
ATOM     21  C   UNL     1       1.111   4.218   1.236  1.00  0.00     0.015 A 
ATOM     22  C   UNL     1       0.276   3.067   3.489  1.00  0.00     0.009 A 
ATOM     23  C   UNL     1       1.552   4.701   2.498  1.00  0.00     0.009 A 
BRANCH  19  24
ATOM     24  S   UNL     1       0.465   2.073  -0.443  1.00  0.00    -0.130 SA
ATOM     25  C   UNL     1       0.943   0.342  -0.035  1.00  0.00     0.091 C 
ENDBRANCH  19  24
ENDBRANCH   7  18
ENDBRANCH   5   6
ENDBRANCH   3   5
ENDBRANCH   2   3
ENDBRANCH   1   2
BRANCH   1  26
ATOM     26  C   UNL     1      -0.540   1.342  11.112  1.00  0.00     0.275 C 
BRANCH  26  27
ATOM     27  O   UNL     1       0.683   0.999  11.835  1.00  0.00    -0.458 OA
BRANCH  27  28
ATOM     28  C   UNL     1       1.768   1.121  11.056  1.00  0.00     0.338 C 
ATOM     29  O   UNL     1       1.708   1.565   9.930  1.00  0.00    -0.246 OA
BRANCH  28  30
ATOM     30  C   UNL     1       3.114   0.736  11.429  1.00  0.00     0.060 A 
ATOM     31  C   UNL     1       4.123   1.562  10.892  1.00  0.00     0.016 A 
ATOM     32  C   UNL     1       3.422  -0.504  11.967  1.00  0.00     0.016 A 
ATOM     33  C   UNL     1       5.444   1.171  10.923  1.00  0.00     0.010 A 
ATOM     34  C   UNL     1       4.768  -0.845  12.101  1.00  0.00     0.010 A 
ATOM     35  C   UNL     1       5.780   0.011  11.618  1.00  0.00    -0.014 A 
BRANCH  35  36
ATOM     36  C   UNL     1       7.198  -0.225  11.949  1.00  0.00     0.031 A 
ATOM     37  C   UNL     1       7.901  -1.453  11.485  1.00  0.00     0.074 A 
ATOM     38  C   UNL     1       7.825   0.679  12.729  1.00  0.00     0.049 A 
ATOM     39  N   UNL     1       9.111  -1.847  11.771  1.00  0.00    -0.248 NA
ATOM     40  C   UNL     1       7.154  -2.364  10.604  1.00  0.00     0.031 C 
ATOM     41  C   UNL     1       7.223   1.917  13.237  1.00  0.00     0.029 A 
ATOM     42  N   UNL     1       9.094   0.697  13.246  1.00  0.00    -0.354 N 
ATOM     43  C   UNL     1       9.264  -3.069  11.141  1.00  0.00     0.074 A 
ATOM     44  C   UNL     1       8.012  -3.365  10.476  1.00  0.00     0.031 C 
ATOM     45  C   UNL     1       8.124   2.581  13.971  1.00  0.00     0.029 A 
ATOM     46  C   UNL     1       9.334   1.779  14.061  1.00  0.00     0.049 A 
ATOM     47  H   UNL     1       9.766   0.004  13.054  1.00  0.00     0.167 HD
ATOM     48  C   UNL     1      10.356  -3.864  11.123  1.00  0.00     0.034 A 
ATOM     49  C   UNL     1      10.390   2.073  14.839  1.00  0.00     0.034 A 
ATOM     50  C   UNL     1      11.579  -3.566  11.814  1.00  0.00     0.049 A 
ATOM     51  C   UNL     1      11.551   1.126  14.861  1.00  0.00     0.074 A 
ATOM     52  C   UNL     1      12.750  -4.300  11.827  1.00  0.00     0.029 A 
ATOM     53  N   UNL     1      11.778  -2.479  12.650  1.00  0.00    -0.354 N 
ATOM     54  N   UNL     1      11.708   0.007  14.200  1.00  0.00    -0.248 NA
ATOM     55  C   UNL     1      12.688   1.489  15.716  1.00  0.00     0.031 C 
ATOM     56  C   UNL     1      13.622  -3.711  12.742  1.00  0.00     0.029 A 
ATOM     57  C   UNL     1      13.040  -2.546  13.213  1.00  0.00     0.049 A 
ATOM     58  H   UNL     1      11.120  -1.766  12.819  1.00  0.00     0.167 HD
ATOM     59  C   UNL     1      12.979  -0.445  14.521  1.00  0.00     0.074 A 
ATOM     60  C   UNL     1      13.555   0.530  15.424  1.00  0.00     0.031 C 
ATOM     61  C   UNL     1      13.611  -1.566  14.098  1.00  0.00     0.034 A 
BRANCH  48  62
ATOM     62  C   UNL     1      10.260  -5.158  10.368  1.00  0.00     0.023 A 
ATOM     63  C   UNL     1      10.109  -5.162   8.967  1.00  0.00     0.012 A 
ATOM     64  C   UNL     1      10.357  -6.379  11.061  1.00  0.00     0.148 A 
ATOM     65  C   UNL     1      10.000  -6.365   8.274  1.00  0.00     0.002 A 
ATOM     66  C   UNL     1      10.305  -7.572  10.358  1.00  0.00     0.091 A 
ATOM     67  F   UNL     1      10.497  -6.350  12.393  1.00  0.00    -0.205 F 
ATOM     68  C   UNL     1      10.109  -7.568   8.967  1.00  0.00     0.022 A 
BRANCH  66  69
ATOM     69  S   UNL     1      10.490  -9.166  11.158  1.00  0.00     0.127 S 
ATOM     70  O   UNL     1       9.186  -9.776  10.895  1.00  0.00    -0.237 OA
ATOM     71  O   UNL     1      11.601  -9.753  10.410  1.00  0.00    -0.237 OA
ATOM     72  O   UNL     1      10.769  -8.890  12.560  1.00  0.00    -0.744 OA
ENDBRANCH  66  69
ENDBRANCH  48  62
BRANCH  49  73
ATOM     73  C   UNL     1      10.384   3.297  15.685  1.00  0.00     0.023 A 
ATOM     74  C   UNL     1      11.322   4.321  15.454  1.00  0.00     0.012 A 
ATOM     75  C   UNL     1       9.462   3.431  16.740  1.00  0.00     0.148 A 
ATOM     76  C   UNL     1      11.374   5.434  16.293  1.00  0.00     0.002 A 
ATOM     77  C   UNL     1       9.480   4.567  17.535  1.00  0.00     0.091 A 
ATOM     78  F   UNL     1       8.576   2.445  16.937  1.00  0.00    -0.205 F 
ATOM     79  C   UNL     1      10.449   5.560  17.328  1.00  0.00     0.022 A 
BRANCH  77  80
ATOM     80  S   UNL     1       8.282   4.843  18.841  1.00  0.00     0.127 S 
ATOM     81  O   UNL     1       9.139   4.889  20.024  1.00  0.00    -0.237 OA
ATOM     82  O   UNL     1       7.703   6.126  18.447  1.00  0.00    -0.237 OA
ATOM     83  O   UNL     1       7.361   3.716  18.784  1.00  0.00    -0.744 OA
ENDBRANCH  77  80
ENDBRANCH  49  73
BRANCH  61  84
ATOM     84  C   UNL     1      15.036  -1.769  14.536  1.00  0.00     0.023 A 
ATOM     85  C   UNL     1      15.355  -2.006  15.887  1.00  0.00     0.012 A 
ATOM     86  C   UNL     1      16.064  -1.766  13.571  1.00  0.00     0.148 A 
ATOM     87  C   UNL     1      16.683  -2.177  16.277  1.00  0.00     0.002 A 
ATOM     88  C   UNL     1      17.373  -2.000  13.957  1.00  0.00     0.091 A 
ATOM     89  F   UNL     1      15.736  -1.544  12.290  1.00  0.00    -0.205 F 
ATOM     90  C   UNL     1      17.689  -2.184  15.312  1.00  0.00     0.022 A 
BRANCH  88  91
ATOM     91  S   UNL     1      18.719  -2.093  12.774  1.00  0.00     0.127 S 
ATOM     92  O   UNL     1      19.541  -0.951  13.173  1.00  0.00    -0.237 OA
ATOM     93  O   UNL     1      19.301  -3.401  13.076  1.00  0.00    -0.237 OA
ATOM     94  O   UNL     1      18.113  -1.984  11.454  1.00  0.00    -0.744 OA
ENDBRANCH  88  91
ENDBRANCH  61  84
ENDBRANCH  35  36
ENDBRANCH  28  30
ENDBRANCH  27  28
ENDBRANCH  26  27
ENDBRANCH   1  26
TORSDOF 17
