REMARK SMILES O=C(OCCOC(=O)[C@@H]1C[NH2+]CCN1C(=O)N[C@@H]1CCOC1)c1ccc(-c2c3nc(c(-c4cccc(S(=O)(=O)[O-])c4F)c4ccc([nH]4)c(-c4cccc(S(=O)(=O)[O-])c4F)c4nc(c(-c5cccc(S(=O)(=O)[O-])c5F)c5ccc2[nH]5)C=C4)C=C3)cc1
REMARK SMILES IDX 4 1 3 2 2 3 1 4 23 5 24 6 85 7 25 8 84 9 26 10 27 11 28 12
REMARK SMILES IDX 78 13 29 14 83 15 77 16 79 17 30 18 82 19 76 20 75 21 31 23
REMARK SMILES IDX 63 24 43 25 62 26 44 27 47 28 61 29 80 30 45 31 46 32 60 34
REMARK SMILES IDX 81 35 48 36 32 37 33 38 41 39 34 40 36 41 42 42 35 43 37 44
REMARK SMILES IDX 38 45 39 46 40 47 64 48 65 49 73 50 66 51 68 52 74 53 67 54
REMARK SMILES IDX 69 55 70 56 71 57 72 58 49 59 50 60 58 61 51 62 53 63 59 64
REMARK SMILES IDX 52 65 54 66 55 67 56 68 57 69 5 70 6 71 7 72 8 73 9 74 10 75
REMARK SMILES IDX 14 76 11 77 13 78 12 79 15 82 16 83 17 84 18 86 19 87 22 88
REMARK SMILES IDX 20 89 21 90
REMARK H PARENT 79 22 47 33 11 80 11 81 17 85
REMARK Flexibility Score: inf
ROOT
ATOM      1  C   UNL     1       4.731   0.011  -1.181  1.00  0.00     0.275 C 
ENDROOT
BRANCH   1   2
ATOM      2  O   UNL     1       3.852  -1.081  -1.454  1.00  0.00    -0.458 OA
BRANCH   2   3
ATOM      3  C   UNL     1       3.918  -2.304  -0.875  1.00  0.00     0.338 C 
ATOM      4  O   UNL     1       3.366  -3.276  -1.384  1.00  0.00    -0.246 OA
BRANCH   3   5
ATOM      5  C   UNL     1       4.468  -2.406   0.497  1.00  0.00     0.060 A 
ATOM      6  C   UNL     1       5.690  -1.857   0.896  1.00  0.00     0.016 A 
ATOM      7  C   UNL     1       3.663  -3.037   1.446  1.00  0.00     0.016 A 
ATOM      8  C   UNL     1       6.007  -1.748   2.245  1.00  0.00     0.010 A 
ATOM      9  C   UNL     1       3.993  -2.962   2.802  1.00  0.00     0.010 A 
ATOM     10  C   UNL     1       5.156  -2.294   3.207  1.00  0.00    -0.014 A 
BRANCH  10  11
ATOM     11  C   UNL     1       5.707  -2.508   4.557  1.00  0.00     0.031 A 
ATOM     12  C   UNL     1       6.299  -3.868   4.789  1.00  0.00     0.074 A 
ATOM     13  C   UNL     1       5.791  -1.527   5.475  1.00  0.00     0.049 A 
ATOM     14  N   UNL     1       6.983  -4.311   5.804  1.00  0.00    -0.248 NA
ATOM     15  C   UNL     1       6.096  -4.864   3.717  1.00  0.00     0.031 C 
ATOM     16  C   UNL     1       5.255  -0.171   5.341  1.00  0.00     0.029 A 
ATOM     17  N   UNL     1       6.382  -1.526   6.712  1.00  0.00    -0.354 N 
ATOM     18  C   UNL     1       7.296  -5.623   5.479  1.00  0.00     0.074 A 
ATOM     19  C   UNL     1       6.642  -5.943   4.238  1.00  0.00     0.031 C 
ATOM     20  C   UNL     1       5.533   0.526   6.461  1.00  0.00     0.029 A 
ATOM     21  C   UNL     1       6.283  -0.326   7.381  1.00  0.00     0.049 A 
ATOM     22  H   UNL     1       6.837  -2.313   7.089  1.00  0.00     0.167 HD
ATOM     23  C   UNL     1       8.132  -6.472   6.110  1.00  0.00     0.034 A 
ATOM     24  C   UNL     1       6.771   0.027   8.588  1.00  0.00     0.034 A 
ATOM     25  C   UNL     1       8.787  -6.149   7.334  1.00  0.00     0.049 A 
ATOM     26  C   UNL     1       7.633  -0.976   9.326  1.00  0.00     0.074 A 
ATOM     27  C   UNL     1       9.620  -6.934   8.101  1.00  0.00     0.029 A 
ATOM     28  N   UNL     1       8.664  -4.926   7.975  1.00  0.00    -0.354 N 
ATOM     29  N   UNL     1       8.017  -2.174   8.948  1.00  0.00    -0.248 NA
ATOM     30  C   UNL     1       8.176  -0.561  10.628  1.00  0.00     0.031 C 
ATOM     31  C   UNL     1       9.988  -6.187   9.224  1.00  0.00     0.029 A 
ATOM     32  C   UNL     1       9.411  -4.928   9.132  1.00  0.00     0.049 A 
ATOM     33  H   UNL     1       8.123  -4.169   7.651  1.00  0.00     0.167 HD
ATOM     34  C   UNL     1       8.884  -2.630   9.937  1.00  0.00     0.074 A 
ATOM     35  C   UNL     1       8.983  -1.571  10.920  1.00  0.00     0.031 C 
ATOM     36  C   UNL     1       9.534  -3.817  10.039  1.00  0.00     0.034 A 
BRANCH  23  37
ATOM     37  C   UNL     1       8.366  -7.787   5.430  1.00  0.00     0.023 A 
ATOM     38  C   UNL     1       9.107  -7.822   4.227  1.00  0.00     0.012 A 
ATOM     39  C   UNL     1       7.753  -8.958   5.904  1.00  0.00     0.148 A 
ATOM     40  C   UNL     1       9.179  -8.991   3.473  1.00  0.00     0.002 A 
ATOM     41  C   UNL     1       7.870 -10.131   5.172  1.00  0.00     0.091 A 
ATOM     42  F   UNL     1       7.027  -8.887   7.028  1.00  0.00    -0.205 F 
ATOM     43  C   UNL     1       8.562 -10.145   3.947  1.00  0.00     0.022 A 
BRANCH  41  44
ATOM     44  S   UNL     1       7.152 -11.683   5.713  1.00  0.00     0.127 S 
ATOM     45  O   UNL     1       6.196 -11.957   4.640  1.00  0.00    -0.237 OA
ATOM     46  O   UNL     1       8.321 -12.562   5.731  1.00  0.00    -0.237 OA
ATOM     47  O   UNL     1       6.559 -11.421   7.016  1.00  0.00    -0.744 OA
ENDBRANCH  41  44
ENDBRANCH  23  37
BRANCH  24  48
ATOM     48  C   UNL     1       6.526   1.382   9.173  1.00  0.00     0.023 A 
ATOM     49  C   UNL     1       7.605   2.264   9.388  1.00  0.00     0.012 A 
ATOM     50  C   UNL     1       5.240   1.770   9.598  1.00  0.00     0.148 A 
ATOM     51  C   UNL     1       7.422   3.471  10.069  1.00  0.00     0.002 A 
ATOM     52  C   UNL     1       5.056   2.994  10.237  1.00  0.00     0.091 A 
ATOM     53  F   UNL     1       4.222   0.921   9.395  1.00  0.00    -0.205 F 
ATOM     54  C   UNL     1       6.148   3.836  10.493  1.00  0.00     0.022 A 
BRANCH  52  55
ATOM     55  S   UNL     1       3.433   3.582  10.738  1.00  0.00     0.127 S 
ATOM     56  O   UNL     1       3.509   3.457  12.195  1.00  0.00    -0.237 OA
ATOM     57  O   UNL     1       3.448   4.962  10.241  1.00  0.00    -0.237 OA
ATOM     58  O   UNL     1       2.481   2.714  10.074  1.00  0.00    -0.744 OA
ENDBRANCH  52  55
ENDBRANCH  24  48
BRANCH  36  59
ATOM     59  C   UNL     1      10.454  -4.016  11.210  1.00  0.00     0.023 A 
ATOM     60  C   UNL     1       9.923  -4.226  12.496  1.00  0.00     0.012 A 
ATOM     61  C   UNL     1      11.843  -4.132  11.000  1.00  0.00     0.148 A 
ATOM     62  C   UNL     1      10.765  -4.527  13.564  1.00  0.00     0.002 A 
ATOM     63  C   UNL     1      12.668  -4.493  12.055  1.00  0.00     0.091 A 
ATOM     64  F   UNL     1      12.325  -3.910   9.768  1.00  0.00    -0.205 F 
ATOM     65  C   UNL     1      12.133  -4.678  13.341  1.00  0.00     0.022 A 
BRANCH  63  66
ATOM     66  S   UNL     1      14.415  -4.836  11.827  1.00  0.00     0.127 S 
ATOM     67  O   UNL     1      15.031  -3.662  12.442  1.00  0.00    -0.237 OA
ATOM     68  O   UNL     1      14.587  -6.080  12.576  1.00  0.00    -0.237 OA
ATOM     69  O   UNL     1      14.613  -4.966  10.389  1.00  0.00    -0.744 OA
ENDBRANCH  63  66
ENDBRANCH  36  59
ENDBRANCH  10  11
ENDBRANCH   3   5
ENDBRANCH   2   3
ENDBRANCH   1   2
BRANCH   1  70
ATOM     70  C   UNL     1       4.389   0.935  -0.007  1.00  0.00     0.274 C 
BRANCH  70  71
ATOM     71  O   UNL     1       3.741   0.463   1.200  1.00  0.00    -0.460 OA
BRANCH  71  72
ATOM     72  C   UNL     1       2.376   0.268   1.217  1.00  0.00     0.334 C 
ATOM     73  O   UNL     1       1.716   0.035   0.213  1.00  0.00    -0.250 OA
BRANCH  72  74
ATOM     74  C   UNL     1       1.803   0.452   2.671  1.00  0.00     0.252 C 
ATOM     75  C   UNL     1       1.309  -1.013   2.910  1.00  0.00     0.298 C 
ATOM     76  N   UNL     1       0.717   1.345   3.295  1.00  0.00    -0.300 N 
ATOM     77  N   UNL     1       1.145  -1.425   4.308  1.00  0.00    -0.343 N 
ATOM     78  C   UNL     1       0.490   0.928   4.721  1.00  0.00     0.183 C 
ATOM     79  C   UNL     1       0.124  -0.554   4.894  1.00  0.00     0.282 C 
ATOM     80  H   UNL     1       2.026  -1.318   4.811  1.00  0.00     0.346 HD
ATOM     81  H   UNL     1       0.866  -2.404   4.369  1.00  0.00     0.346 HD
BRANCH  76  82
ATOM     82  C   UNL     1      -0.037   2.431   2.978  1.00  0.00     0.318 C 
ATOM     83  O   UNL     1      -1.085   2.661   3.611  1.00  0.00    -0.249 OA
ATOM     84  N   UNL     1       0.140   3.397   2.086  1.00  0.00    -0.333 N 
ATOM     85  H   UNL     1      -0.624   4.009   2.186  1.00  0.00     0.165 HD
BRANCH  84  86
ATOM     86  C   UNL     1       0.974   3.953   1.019  1.00  0.00     0.112 C 
ATOM     87  C   UNL     1       2.194   3.179   0.752  1.00  0.00     0.056 C 
ATOM     88  C   UNL     1       1.642   5.295   1.321  1.00  0.00     0.185 C 
ATOM     89  C   UNL     1       3.088   3.590   1.895  1.00  0.00     0.162 C 
ATOM     90  O   UNL     1       2.901   5.010   1.971  1.00  0.00    -0.379 OA
ENDBRANCH  84  86
ENDBRANCH  76  82
ENDBRANCH  72  74
ENDBRANCH  71  72
ENDBRANCH  70  71
ENDBRANCH   1  70
TORSDOF 16
