REMARK SMILES COc1ccc(NC(=O)N[C@@H]2C=C[C@H](C(=O)OCCOC(=O)c3ccc(-c4c5nc(c(-c6cccc(S(=O)(=O)[O-])c6F)c6ccc([nH]6)c(-c6cccc(S(=O)(=O)[O-])c6F)c6nc(c(-c7cccc(S(=O)(=O)[O-])c7F)c7ccc4[nH]7)C=C6)C=C5)cc3)C2)c(C)c1
REMARK SMILES IDX 18 1 17 2 15 3 16 4 14 5 11 6 12 7 86 8 13 9 10 10 7 11 8 12
REMARK SMILES IDX 9 14 6 16 3 17 4 18 89 19 5 20 87 21 88 22 2 23 1 24 19 25
REMARK SMILES IDX 20 26 21 27 22 28 23 29 24 30 85 31 25 32 84 33 26 34 27 35
REMARK SMILES IDX 28 36 78 37 29 38 83 39 77 40 79 41 30 42 82 43 76 44 75 45
REMARK SMILES IDX 31 47 63 48 43 49 62 50 44 51 47 52 61 53 80 54 45 55 46 56
REMARK SMILES IDX 60 58 81 59 48 60 32 61 33 62 41 63 34 64 36 65 42 66 35 67
REMARK SMILES IDX 37 68 38 69 39 70 40 71 64 72 65 73 73 74 66 75 68 76 74 77
REMARK SMILES IDX 67 78 69 79 70 80 71 81 72 82 49 83 50 84 58 85 51 86 53 87
REMARK SMILES IDX 59 88 52 89 54 90 55 91 56 92 57 93
REMARK H PARENT 7 13 10 15 79 46 47 57
REMARK Flexibility Score: inf
ROOT
ATOM      1  C   UNL     1       0.921   0.555  -1.086  1.00  0.00     0.274 C 
ENDROOT
BRANCH   1   2
ATOM      2  O   UNL     1       2.253   0.628  -1.624  1.00  0.00    -0.462 OA
BRANCH   2   3
ATOM      3  C   UNL     1       2.889  -0.530  -1.928  1.00  0.00     0.312 C 
ATOM      4  O   UNL     1       2.447  -1.615  -1.556  1.00  0.00    -0.252 OA
BRANCH   3   5
ATOM      5  C   UNL     1       4.203  -0.329  -3.030  1.00  0.00     0.124 C 
ATOM      6  C   UNL     1       4.112  -2.254  -5.687  1.00  0.00     0.107 C 
ATOM      7  C   UNL     1       4.675  -3.151  -4.045  1.00  0.00    -0.006 C 
ATOM      8  C   UNL     1       4.078  -0.281  -5.278  1.00  0.00     0.048 C 
ATOM      9  C   UNL     1       4.724  -2.270  -2.741  1.00  0.00    -0.014 C 
BRANCH   6  10
ATOM     10  N   UNL     1       2.520  -2.626  -5.959  1.00  0.00    -0.332 N 
ATOM     11  N   UNL     1       1.186  -0.801  -4.935  1.00  0.00    -0.308 N 
ATOM     12  C   UNL     1       1.276  -2.034  -5.605  1.00  0.00     0.319 C 
ATOM     13  H   UNL     1       0.336  -0.305  -4.965  1.00  0.00     0.171 HD
ATOM     14  O   UNL     1       0.230  -2.620  -5.900  1.00  0.00    -0.248 OA
ATOM     15  H   UNL     1       2.409  -3.449  -6.489  1.00  0.00     0.165 HD
BRANCH  11  16
ATOM     16  C   UNL     1       2.259  -0.260  -4.231  1.00  0.00     0.046 A 
ATOM     17  C   UNL     1       5.772   0.636  -4.265  1.00  0.00     0.119 A 
ATOM     18  C   UNL     1       5.353  -1.030  -4.271  1.00  0.00     0.048 A 
ATOM     19  C   UNL     1       4.508   1.706  -4.193  1.00  0.00     0.052 A 
ATOM     20  C   UNL     1       3.375  -1.443  -4.104  1.00  0.00     0.030 A 
ATOM     21  C   UNL     1       2.844   1.308  -4.206  1.00  0.00    -0.024 A 
ATOM     22  C   UNL     1       1.916   2.487  -4.118  1.00  0.00     0.047 C 
BRANCH  17  23
ATOM     23  O   UNL     1       7.014   1.123  -4.028  1.00  0.00    -0.497 OA
ATOM     24  C   UNL     1       7.985   0.797  -5.005  1.00  0.00     0.278 C 
ENDBRANCH  17  23
ENDBRANCH  11  16
ENDBRANCH   6  10
ENDBRANCH   3   5
ENDBRANCH   2   3
ENDBRANCH   1   2
BRANCH   1  25
ATOM     25  C   UNL     1       0.400  -0.585  -0.158  1.00  0.00     0.275 C 
BRANCH  25  26
ATOM     26  O   UNL     1       1.132  -1.376   0.836  1.00  0.00    -0.458 OA
BRANCH  26  27
ATOM     27  C   UNL     1       2.438  -1.385   1.194  1.00  0.00     0.338 C 
ATOM     28  O   UNL     1       2.995  -2.353   1.691  1.00  0.00    -0.246 OA
BRANCH  27  29
ATOM     29  C   UNL     1       3.093  -0.090   1.061  1.00  0.00     0.060 A 
ATOM     30  C   UNL     1       4.336   0.013   0.417  1.00  0.00     0.016 A 
ATOM     31  C   UNL     1       2.326   1.024   1.401  1.00  0.00     0.016 A 
ATOM     32  C   UNL     1       4.808   1.263   0.062  1.00  0.00     0.010 A 
ATOM     33  C   UNL     1       2.700   2.241   0.898  1.00  0.00     0.010 A 
ATOM     34  C   UNL     1       3.986   2.355   0.338  1.00  0.00    -0.014 A 
BRANCH  34  35
ATOM     35  C   UNL     1       4.595   3.634   0.641  1.00  0.00     0.031 A 
ATOM     36  C   UNL     1       4.945   4.525  -0.475  1.00  0.00     0.074 A 
ATOM     37  C   UNL     1       4.707   3.728   1.992  1.00  0.00     0.049 A 
ATOM     38  N   UNL     1       6.003   5.250  -0.534  1.00  0.00    -0.248 NA
ATOM     39  C   UNL     1       4.181   4.568  -1.730  1.00  0.00     0.031 C 
ATOM     40  C   UNL     1       4.981   4.797   2.924  1.00  0.00     0.029 A 
ATOM     41  N   UNL     1       4.670   2.581   2.840  1.00  0.00    -0.354 N 
ATOM     42  C   UNL     1       5.805   6.138  -1.580  1.00  0.00     0.074 A 
ATOM     43  C   UNL     1       4.814   5.526  -2.421  1.00  0.00     0.031 C 
ATOM     44  C   UNL     1       5.405   4.237   4.085  1.00  0.00     0.029 A 
ATOM     45  C   UNL     1       5.571   2.791   3.859  1.00  0.00     0.049 A 
ATOM     46  H   UNL     1       4.105   1.784   2.718  1.00  0.00     0.167 HD
ATOM     47  C   UNL     1       6.233   7.424  -1.424  1.00  0.00     0.034 A 
ATOM     48  C   UNL     1       6.754   2.107   3.795  1.00  0.00     0.034 A 
ATOM     49  C   UNL     1       6.832   7.541  -0.085  1.00  0.00     0.049 A 
ATOM     50  C   UNL     1       7.882   3.068   3.578  1.00  0.00     0.074 A 
ATOM     51  C   UNL     1       6.233   7.835   1.132  1.00  0.00     0.029 A 
ATOM     52  N   UNL     1       8.023   6.888   0.207  1.00  0.00    -0.354 N 
ATOM     53  N   UNL     1       7.780   4.169   2.893  1.00  0.00    -0.248 NA
ATOM     54  C   UNL     1       9.208   2.829   4.120  1.00  0.00     0.031 C 
ATOM     55  C   UNL     1       7.031   7.264   2.157  1.00  0.00     0.029 A 
ATOM     56  C   UNL     1       8.107   6.621   1.568  1.00  0.00     0.049 A 
ATOM     57  H   UNL     1       8.710   6.649  -0.456  1.00  0.00     0.167 HD
ATOM     58  C   UNL     1       8.999   4.769   2.847  1.00  0.00     0.074 A 
ATOM     59  C   UNL     1       9.847   3.919   3.675  1.00  0.00     0.031 C 
ATOM     60  C   UNL     1       9.242   5.881   2.098  1.00  0.00     0.034 A 
BRANCH  47  61
ATOM     61  C   UNL     1       5.726   8.637  -2.198  1.00  0.00     0.023 A 
ATOM     62  C   UNL     1       5.742   9.869  -1.498  1.00  0.00     0.012 A 
ATOM     63  C   UNL     1       5.214   8.683  -3.518  1.00  0.00     0.148 A 
ATOM     64  C   UNL     1       5.212  11.052  -2.018  1.00  0.00     0.002 A 
ATOM     65  C   UNL     1       4.666   9.870  -4.038  1.00  0.00     0.091 A 
ATOM     66  F   UNL     1       5.287   7.593  -4.292  1.00  0.00    -0.205 F 
ATOM     67  C   UNL     1       4.656  11.049  -3.283  1.00  0.00     0.022 A 
BRANCH  65  68
ATOM     68  S   UNL     1       3.905   9.998  -5.670  1.00  0.00     0.127 S 
ATOM     69  O   UNL     1       2.564  10.489  -5.345  1.00  0.00    -0.237 OA
ATOM     70  O   UNL     1       4.760  10.978  -6.339  1.00  0.00    -0.237 OA
ATOM     71  O   UNL     1       3.932   8.657  -6.238  1.00  0.00    -0.744 OA
ENDBRANCH  65  68
ENDBRANCH  47  61
BRANCH  48  72
ATOM     72  C   UNL     1       6.804   0.720   3.183  1.00  0.00     0.023 A 
ATOM     73  C   UNL     1       5.957  -0.307   3.659  1.00  0.00     0.012 A 
ATOM     74  C   UNL     1       7.603   0.424   2.056  1.00  0.00     0.148 A 
ATOM     75  C   UNL     1       5.897  -1.563   3.029  1.00  0.00     0.002 A 
ATOM     76  C   UNL     1       7.531  -0.825   1.427  1.00  0.00     0.091 A 
ATOM     77  F   UNL     1       8.409   1.369   1.555  1.00  0.00    -0.205 F 
ATOM     78  C   UNL     1       6.684  -1.825   1.911  1.00  0.00     0.022 A 
BRANCH  76  79
ATOM     79  S   UNL     1       8.438  -1.097  -0.104  1.00  0.00     0.127 S 
ATOM     80  O   UNL     1       8.065  -2.460  -0.485  1.00  0.00    -0.237 OA
ATOM     81  O   UNL     1       7.899  -0.070  -0.986  1.00  0.00    -0.237 OA
ATOM     82  O   UNL     1       9.827  -0.951   0.317  1.00  0.00    -0.744 OA
ENDBRANCH  76  79
ENDBRANCH  48  72
BRANCH  60  83
ATOM     83  C   UNL     1      10.629   6.377   1.831  1.00  0.00     0.023 A 
ATOM     84  C   UNL     1      11.733   5.505   1.814  1.00  0.00     0.012 A 
ATOM     85  C   UNL     1      10.847   7.717   1.451  1.00  0.00     0.148 A 
ATOM     86  C   UNL     1      13.024   5.972   1.585  1.00  0.00     0.002 A 
ATOM     87  C   UNL     1      12.108   8.138   1.067  1.00  0.00     0.091 A 
ATOM     88  F   UNL     1       9.836   8.598   1.474  1.00  0.00    -0.205 F 
ATOM     89  C   UNL     1      13.210   7.289   1.193  1.00  0.00     0.022 A 
BRANCH  87  90
ATOM     90  S   UNL     1      12.324   9.711   0.234  1.00  0.00     0.127 S 
ATOM     91  O   UNL     1      12.688  10.592   1.340  1.00  0.00    -0.237 OA
ATOM     92  O   UNL     1      13.412   9.421  -0.702  1.00  0.00    -0.237 OA
ATOM     93  O   UNL     1      11.044   9.981  -0.410  1.00  0.00    -0.744 OA
ENDBRANCH  87  90
ENDBRANCH  60  83
ENDBRANCH  34  35
ENDBRANCH  27  29
ENDBRANCH  26  27
ENDBRANCH  25  26
ENDBRANCH   1  25
TORSDOF 17
