REMARK SMILES O=C(OCCOC(=O)[C@H]1CCCN(C(=O)c2cc(Br)ccc2Cl)C1)c1ccc(-c2c3nc(c(-c4cccc(S(=O)(=O)[O-])c4F)c4ccc([nH]4)c(-c4cccc(S(=O)(=O)[O-])c4F)c4nc(c(-c5cccc(S(=O)(=O)[O-])c5F)c5ccc2[nH]5)C=C4)C=C3)cc1
REMARK SMILES IDX 4 1 3 2 2 3 1 4 25 5 26 6 87 7 27 8 86 9 28 10 29 11 30 12
REMARK SMILES IDX 80 13 31 14 85 15 79 16 81 17 32 18 84 19 78 20 77 21 33 23
REMARK SMILES IDX 65 24 45 25 64 26 46 27 49 28 63 29 82 30 47 31 48 32 62 34
REMARK SMILES IDX 83 35 50 36 34 37 35 38 43 39 36 40 38 41 44 42 37 43 39 44
REMARK SMILES IDX 40 45 41 46 42 47 66 48 67 49 75 50 68 51 70 52 76 53 69 54
REMARK SMILES IDX 71 55 72 56 73 57 74 58 51 59 52 60 60 61 53 62 55 63 61 64
REMARK SMILES IDX 54 65 56 66 57 67 58 68 59 69 5 70 6 71 7 72 8 73 9 74 10 75
REMARK SMILES IDX 24 76 11 77 13 78 12 79 14 80 15 81 16 82 17 83 22 84 18 85
REMARK SMILES IDX 21 86 23 87 19 88 20 89
REMARK H PARENT 81 22 49 33
REMARK Flexibility Score: inf
ROOT
ATOM      1  C   UNL     1      -1.311   0.970   2.737  1.00  0.00     0.275 C 
ENDROOT
BRANCH   1   2
ATOM      2  O   UNL     1      -0.799   1.879   3.719  1.00  0.00    -0.458 OA
BRANCH   2   3
ATOM      3  C   UNL     1       0.081   1.567   4.703  1.00  0.00     0.338 C 
ATOM      4  O   UNL     1       0.081   2.206   5.751  1.00  0.00    -0.246 OA
BRANCH   3   5
ATOM      5  C   UNL     1       1.210   0.636   4.432  1.00  0.00     0.060 A 
ATOM      6  C   UNL     1       1.091  -0.654   3.904  1.00  0.00     0.016 A 
ATOM      7  C   UNL     1       2.483   1.104   4.778  1.00  0.00     0.016 A 
ATOM      8  C   UNL     1       2.231  -1.421   3.624  1.00  0.00     0.010 A 
ATOM      9  C   UNL     1       3.618   0.346   4.490  1.00  0.00     0.010 A 
ATOM     10  C   UNL     1       3.506  -0.921   3.900  1.00  0.00    -0.014 A 
BRANCH  10  11
ATOM     11  C   UNL     1       4.722  -1.746   3.669  1.00  0.00     0.031 A 
ATOM     12  C   UNL     1       5.499  -2.236   4.860  1.00  0.00     0.074 A 
ATOM     13  C   UNL     1       5.178  -1.987   2.422  1.00  0.00     0.049 A 
ATOM     14  N   UNL     1       6.573  -2.981   4.902  1.00  0.00    -0.248 NA
ATOM     15  C   UNL     1       5.006  -1.824   6.186  1.00  0.00     0.031 C 
ATOM     16  C   UNL     1       4.580  -1.481   1.183  1.00  0.00     0.029 A 
ATOM     17  N   UNL     1       6.294  -2.665   1.993  1.00  0.00    -0.354 N 
ATOM     18  C   UNL     1       6.885  -3.116   6.248  1.00  0.00     0.074 A 
ATOM     19  C   UNL     1       5.932  -2.322   6.989  1.00  0.00     0.031 C 
ATOM     20  C   UNL     1       5.369  -1.810   0.144  1.00  0.00     0.029 A 
ATOM     21  C   UNL     1       6.510  -2.576   0.636  1.00  0.00     0.049 A 
ATOM     22  H   UNL     1       6.884  -3.168   2.600  1.00  0.00     0.167 HD
ATOM     23  C   UNL     1       7.837  -3.884   6.827  1.00  0.00     0.034 A 
ATOM     24  C   UNL     1       7.513  -3.066  -0.120  1.00  0.00     0.034 A 
ATOM     25  C   UNL     1       8.753  -4.703   6.089  1.00  0.00     0.049 A 
ATOM     26  C   UNL     1       8.553  -3.939   0.538  1.00  0.00     0.074 A 
ATOM     27  C   UNL     1       9.680  -5.612   6.563  1.00  0.00     0.029 A 
ATOM     28  N   UNL     1       8.858  -4.702   4.706  1.00  0.00    -0.354 N 
ATOM     29  N   UNL     1       8.683  -4.257   1.803  1.00  0.00    -0.248 NA
ATOM     30  C   UNL     1       9.537  -4.583  -0.345  1.00  0.00     0.031 C 
ATOM     31  C   UNL     1      10.347  -6.163   5.462  1.00  0.00     0.029 A 
ATOM     32  C   UNL     1       9.832  -5.596   4.305  1.00  0.00     0.049 A 
ATOM     33  H   UNL     1       8.317  -4.146   4.100  1.00  0.00     0.167 HD
ATOM     34  C   UNL     1       9.709  -5.193   1.859  1.00  0.00     0.074 A 
ATOM     35  C   UNL     1      10.176  -5.382   0.501  1.00  0.00     0.031 C 
ATOM     36  C   UNL     1      10.218  -5.838   2.938  1.00  0.00     0.034 A 
BRANCH  23  37
ATOM     37  C   UNL     1       7.841  -3.931   8.331  1.00  0.00     0.023 A 
ATOM     38  C   UNL     1       6.796  -4.615   8.990  1.00  0.00     0.012 A 
ATOM     39  C   UNL     1       8.828  -3.279   9.092  1.00  0.00     0.148 A 
ATOM     40  C   UNL     1       6.699  -4.600  10.380  1.00  0.00     0.002 A 
ATOM     41  C   UNL     1       8.745  -3.300  10.481  1.00  0.00     0.091 A 
ATOM     42  F   UNL     1       9.800  -2.616   8.451  1.00  0.00    -0.205 F 
ATOM     43  C   UNL     1       7.675  -3.946  11.124  1.00  0.00     0.022 A 
BRANCH  41  44
ATOM     44  S   UNL     1       9.981  -2.530  11.532  1.00  0.00     0.127 S 
ATOM     45  O   UNL     1       9.291  -1.315  11.961  1.00  0.00    -0.237 OA
ATOM     46  O   UNL     1      10.161  -3.531  12.585  1.00  0.00    -0.237 OA
ATOM     47  O   UNL     1      11.150  -2.328  10.688  1.00  0.00    -0.744 OA
ENDBRANCH  41  44
ENDBRANCH  23  37
BRANCH  24  48
ATOM     48  C   UNL     1       7.506  -2.878  -1.599  1.00  0.00     0.023 A 
ATOM     49  C   UNL     1       7.146  -3.967  -2.418  1.00  0.00     0.012 A 
ATOM     50  C   UNL     1       7.850  -1.652  -2.200  1.00  0.00     0.148 A 
ATOM     51  C   UNL     1       7.167  -3.854  -3.808  1.00  0.00     0.002 A 
ATOM     52  C   UNL     1       7.835  -1.536  -3.589  1.00  0.00     0.091 A 
ATOM     53  F   UNL     1       8.195  -0.627  -1.409  1.00  0.00    -0.205 F 
ATOM     54  C   UNL     1       7.508  -2.639  -4.394  1.00  0.00     0.022 A 
BRANCH  52  55
ATOM     55  S   UNL     1       8.166   0.018  -4.430  1.00  0.00     0.127 S 
ATOM     56  O   UNL     1       9.515  -0.201  -4.945  1.00  0.00    -0.237 OA
ATOM     57  O   UNL     1       7.117   0.044  -5.451  1.00  0.00    -0.237 OA
ATOM     58  O   UNL     1       8.030   1.049  -3.411  1.00  0.00    -0.744 OA
ENDBRANCH  52  55
ENDBRANCH  24  48
BRANCH  36  59
ATOM     59  C   UNL     1      11.287  -6.868   2.703  1.00  0.00     0.023 A 
ATOM     60  C   UNL     1      12.604  -6.459   2.421  1.00  0.00     0.012 A 
ATOM     61  C   UNL     1      11.005  -8.238   2.872  1.00  0.00     0.148 A 
ATOM     62  C   UNL     1      13.623  -7.402   2.297  1.00  0.00     0.002 A 
ATOM     63  C   UNL     1      12.035  -9.168   2.792  1.00  0.00     0.091 A 
ATOM     64  F   UNL     1       9.739  -8.609   3.112  1.00  0.00    -0.205 F 
ATOM     65  C   UNL     1      13.343  -8.752   2.498  1.00  0.00     0.022 A 
BRANCH  63  66
ATOM     66  S   UNL     1      11.768 -10.909   3.146  1.00  0.00     0.127 S 
ATOM     67  O   UNL     1      11.660 -11.475   1.804  1.00  0.00    -0.237 OA
ATOM     68  O   UNL     1      12.988 -11.277   3.867  1.00  0.00    -0.237 OA
ATOM     69  O   UNL     1      10.558 -10.964   3.956  1.00  0.00    -0.744 OA
ENDBRANCH  63  66
ENDBRANCH  36  59
ENDBRANCH  10  11
ENDBRANCH   3   5
ENDBRANCH   2   3
ENDBRANCH   1   2
BRANCH   1  70
ATOM     70  C   UNL     1      -0.608   1.013   1.379  1.00  0.00     0.274 C 
BRANCH  70  71
ATOM     71  O   UNL     1       0.747   1.488   1.407  1.00  0.00    -0.462 OA
BRANCH  71  72
ATOM     72  C   UNL     1       0.891   2.822   1.157  1.00  0.00     0.310 C 
ATOM     73  O   UNL     1      -0.053   3.599   1.054  1.00  0.00    -0.252 OA
BRANCH  72  74
ATOM     74  C   UNL     1       2.340   3.209   0.886  1.00  0.00     0.119 C 
ATOM     75  C   UNL     1       2.461   4.739   0.833  1.00  0.00     0.019 C 
ATOM     76  C   UNL     1       3.295   2.651   1.936  1.00  0.00     0.135 C 
ATOM     77  C   UNL     1       3.908   5.173   0.629  1.00  0.00     0.022 C 
ATOM     78  N   UNL     1       4.665   3.167   1.833  1.00  0.00    -0.338 N 
ATOM     79  C   UNL     1       4.812   4.611   1.715  1.00  0.00     0.120 C 
BRANCH  78  80
ATOM     80  C   UNL     1       5.718   2.296   2.104  1.00  0.00     0.255 C 
ATOM     81  O   UNL     1       5.559   1.102   2.343  1.00  0.00    -0.269 OA
BRANCH  80  82
ATOM     82  C   UNL     1       7.107   2.767   2.129  1.00  0.00     0.059 A 
ATOM     83  C   UNL     1       7.927   2.426   1.044  1.00  0.00     0.031 A 
ATOM     84  C   UNL     1       7.645   3.394   3.259  1.00  0.00     0.053 A 
ATOM     85  C   UNL     1       9.278   2.759   1.082  1.00  0.00     0.018 A 
ATOM     86  C   UNL     1       9.002   3.728   3.281  1.00  0.00     0.022 A 
ATOM     87  Cl  UNL     1       6.697   3.765   4.654  1.00  0.00    -0.083 Cl
ATOM     88  Br  UNL     1      10.406   2.304  -0.364  1.00  0.00    -0.051 Br
ATOM     89  C   UNL     1       9.818   3.413   2.191  1.00  0.00     0.017 A 
ENDBRANCH  80  82
ENDBRANCH  78  80
ENDBRANCH  72  74
ENDBRANCH  71  72
ENDBRANCH  70  71
ENDBRANCH   1  70
TORSDOF 16
