REMARK SMILES O=C(OCCOC(=O)c1ccccc1/C=C1/SC(=S)N(C2CCCC2)C1=O)c1ccc(-c2c3nc(c(-c4cccc(S(=O)(=O)[O-])c4F)c4ccc([nH]4)c(-c4cccc(S(=O)(=O)[O-])c4F)c4nc(c(-c5cccc(S(=O)(=O)[O-])c5F)c5ccc2[nH]5)C=C4)C=C3)cc1
REMARK SMILES IDX 4 1 3 2 2 3 1 4 28 5 29 6 90 7 30 8 89 9 31 10 32 11 33 12
REMARK SMILES IDX 83 13 34 14 88 15 82 16 84 17 35 18 87 19 81 20 80 21 36 23
REMARK SMILES IDX 68 24 48 25 67 26 49 27 52 28 66 29 85 30 50 31 51 32 65 34
REMARK SMILES IDX 86 35 53 36 37 37 38 38 46 39 39 40 41 41 47 42 40 43 42 44
REMARK SMILES IDX 43 45 44 46 45 47 69 48 70 49 78 50 71 51 73 52 79 53 72 54
REMARK SMILES IDX 74 55 75 56 76 57 77 58 54 59 55 60 63 61 56 62 58 63 64 64
REMARK SMILES IDX 57 65 59 66 60 67 61 68 62 69 5 70 6 71 7 72 8 73 9 74 10 75
REMARK SMILES IDX 14 76 11 77 13 78 12 79 15 80 16 81 17 82 26 83 18 84 20 85
REMARK SMILES IDX 27 86 19 87 21 88 22 89 25 90 23 91 24 92
REMARK H PARENT 84 22 52 33
REMARK Flexibility Score: inf
ROOT
ATOM      1  C   UNL     1       4.324  -0.422  -1.406  1.00  0.00     0.275 C 
ENDROOT
BRANCH   1   2
ATOM      2  O   UNL     1       3.200  -1.003  -0.722  1.00  0.00    -0.458 OA
BRANCH   2   3
ATOM      3  C   UNL     1       2.896  -1.051   0.597  1.00  0.00     0.338 C 
ATOM      4  O   UNL     1       1.929  -1.729   0.945  1.00  0.00    -0.246 OA
BRANCH   3   5
ATOM      5  C   UNL     1       3.606  -0.266   1.658  1.00  0.00     0.060 A 
ATOM      6  C   UNL     1       4.936   0.156   1.612  1.00  0.00     0.016 A 
ATOM      7  C   UNL     1       2.863   0.036   2.819  1.00  0.00     0.016 A 
ATOM      8  C   UNL     1       5.498   0.884   2.662  1.00  0.00     0.010 A 
ATOM      9  C   UNL     1       3.424   0.755   3.881  1.00  0.00     0.010 A 
ATOM     10  C   UNL     1       4.756   1.164   3.812  1.00  0.00    -0.014 A 
BRANCH  10  11
ATOM     11  C   UNL     1       5.471   1.730   4.978  1.00  0.00     0.031 A 
ATOM     12  C   UNL     1       6.050   0.783   5.972  1.00  0.00     0.074 A 
ATOM     13  C   UNL     1       5.696   3.051   5.076  1.00  0.00     0.049 A 
ATOM     14  N   UNL     1       6.881   1.030   6.943  1.00  0.00    -0.248 NA
ATOM     15  C   UNL     1       5.648  -0.628   5.851  1.00  0.00     0.031 C 
ATOM     16  C   UNL     1       5.144   4.027   4.158  1.00  0.00     0.029 A 
ATOM     17  N   UNL     1       6.437   3.806   5.944  1.00  0.00    -0.354 N 
ATOM     18  C   UNL     1       7.088  -0.188   7.568  1.00  0.00     0.074 A 
ATOM     19  C   UNL     1       6.297  -1.175   6.866  1.00  0.00     0.031 C 
ATOM     20  C   UNL     1       5.594   5.253   4.458  1.00  0.00     0.029 A 
ATOM     21  C   UNL     1       6.450   5.150   5.631  1.00  0.00     0.049 A 
ATOM     22  H   UNL     1       6.914   3.428   6.717  1.00  0.00     0.167 HD
ATOM     23  C   UNL     1       7.871  -0.451   8.636  1.00  0.00     0.034 A 
ATOM     24  C   UNL     1       7.091   6.175   6.226  1.00  0.00     0.034 A 
ATOM     25  C   UNL     1       8.620   0.555   9.334  1.00  0.00     0.049 A 
ATOM     26  C   UNL     1       7.958   5.849   7.410  1.00  0.00     0.074 A 
ATOM     27  C   UNL     1       9.435   0.412  10.440  1.00  0.00     0.029 A 
ATOM     28  N   UNL     1       8.622   1.904   9.001  1.00  0.00    -0.354 N 
ATOM     29  N   UNL     1       8.230   4.673   7.926  1.00  0.00    -0.248 NA
ATOM     30  C   UNL     1       8.619   6.973   8.084  1.00  0.00     0.031 C 
ATOM     31  C   UNL     1       9.909   1.681  10.792  1.00  0.00     0.029 A 
ATOM     32  C   UNL     1       9.415   2.610   9.887  1.00  0.00     0.049 A 
ATOM     33  H   UNL     1       8.131   2.300   8.245  1.00  0.00     0.167 HD
ATOM     34  C   UNL     1       9.109   4.910   8.972  1.00  0.00     0.074 A 
ATOM     35  C   UNL     1       9.347   6.342   8.995  1.00  0.00     0.031 C 
ATOM     36  C   UNL     1       9.655   4.032   9.848  1.00  0.00     0.034 A 
BRANCH  23  37
ATOM     37  C   UNL     1       7.904  -1.876   9.106  1.00  0.00     0.023 A 
ATOM     38  C   UNL     1       8.592  -2.848   8.351  1.00  0.00     0.012 A 
ATOM     39  C   UNL     1       7.203  -2.262  10.263  1.00  0.00     0.148 A 
ATOM     40  C   UNL     1       8.546  -4.192   8.719  1.00  0.00     0.002 A 
ATOM     41  C   UNL     1       7.194  -3.597  10.645  1.00  0.00     0.091 A 
ATOM     42  F   UNL     1       6.524  -1.326  10.941  1.00  0.00    -0.205 F 
ATOM     43  C   UNL     1       7.853  -4.565   9.868  1.00  0.00     0.022 A 
BRANCH  41  44
ATOM     44  S   UNL     1       6.369  -4.167  12.133  1.00  0.00     0.127 S 
ATOM     45  O   UNL     1       5.228  -4.893  11.578  1.00  0.00    -0.237 OA
ATOM     46  O   UNL     1       7.393  -5.014  12.745  1.00  0.00    -0.237 OA
ATOM     47  O   UNL     1       6.039  -2.969  12.892  1.00  0.00    -0.744 OA
ENDBRANCH  41  44
ENDBRANCH  23  37
BRANCH  24  48
ATOM     48  C   UNL     1       6.989   7.564   5.687  1.00  0.00     0.023 A 
ATOM     49  C   UNL     1       8.130   8.187   5.144  1.00  0.00     0.012 A 
ATOM     50  C   UNL     1       5.767   8.267   5.686  1.00  0.00     0.148 A 
ATOM     51  C   UNL     1       8.064   9.489   4.639  1.00  0.00     0.002 A 
ATOM     52  C   UNL     1       5.695   9.541   5.131  1.00  0.00     0.091 A 
ATOM     53  F   UNL     1       4.692   7.673   6.223  1.00  0.00    -0.205 F 
ATOM     54  C   UNL     1       6.845  10.161   4.622  1.00  0.00     0.022 A 
BRANCH  52  55
ATOM     55  S   UNL     1       4.135  10.414   4.946  1.00  0.00     0.127 S 
ATOM     56  O   UNL     1       4.218  11.405   6.016  1.00  0.00    -0.237 OA
ATOM     57  O   UNL     1       4.247  10.957   3.592  1.00  0.00    -0.237 OA
ATOM     58  O   UNL     1       3.105   9.395   5.096  1.00  0.00    -0.744 OA
ENDBRANCH  52  55
ENDBRANCH  24  48
BRANCH  36  59
ATOM     59  C   UNL     1      10.580   4.596  10.888  1.00  0.00     0.023 A 
ATOM     60  C   UNL     1      10.054   5.321  11.975  1.00  0.00     0.012 A 
ATOM     61  C   UNL     1      11.962   4.339  10.824  1.00  0.00     0.148 A 
ATOM     62  C   UNL     1      10.897   5.806  12.972  1.00  0.00     0.002 A 
ATOM     63  C   UNL     1      12.789   4.781  11.847  1.00  0.00     0.091 A 
ATOM     64  F   UNL     1      12.441   3.671   9.764  1.00  0.00    -0.205 F 
ATOM     65  C   UNL     1      12.261   5.524  12.915  1.00  0.00     0.022 A 
BRANCH  63  66
ATOM     66  S   UNL     1      14.535   4.369  11.901  1.00  0.00     0.127 S 
ATOM     67  O   UNL     1      15.150   5.625  11.477  1.00  0.00    -0.237 OA
ATOM     68  O   UNL     1      14.734   4.036  13.312  1.00  0.00    -0.237 OA
ATOM     69  O   UNL     1      14.705   3.245  10.990  1.00  0.00    -0.744 OA
ENDBRANCH  63  66
ENDBRANCH  36  59
ENDBRANCH  10  11
ENDBRANCH   3   5
ENDBRANCH   2   3
ENDBRANCH   1   2
BRANCH   1  70
ATOM     70  C   UNL     1       4.193   1.072  -1.692  1.00  0.00     0.275 C 
BRANCH  70  71
ATOM     71  O   UNL     1       3.742   1.834  -0.564  1.00  0.00    -0.458 OA
BRANCH  71  72
ATOM     72  C   UNL     1       2.412   2.112  -0.548  1.00  0.00     0.338 C 
ATOM     73  O   UNL     1       1.609   1.768  -1.403  1.00  0.00    -0.246 OA
BRANCH  72  74
ATOM     74  C   UNL     1       2.019   2.823   0.695  1.00  0.00     0.067 A 
ATOM     75  C   UNL     1       0.844   2.350   1.306  1.00  0.00     0.016 A 
ATOM     76  C   UNL     1       2.716   3.919   1.249  1.00  0.00    -0.010 A 
ATOM     77  C   UNL     1       0.371   2.934   2.479  1.00  0.00     0.001 A 
ATOM     78  C   UNL     1       2.187   4.526   2.401  1.00  0.00     0.009 A 
ATOM     79  C   UNL     1       1.039   4.026   3.022  1.00  0.00     0.001 A 
BRANCH  76  80
ATOM     80  C   UNL     1       3.998   4.447   0.744  1.00  0.00     0.030 C 
ATOM     81  C   UNL     1       4.224   4.909  -0.487  1.00  0.00     0.081 C 
ATOM     82  S   UNL     1       5.778   5.183  -1.157  1.00  0.00    -0.054 SA
ATOM     83  C   UNL     1       3.207   5.002  -1.544  1.00  0.00     0.266 C 
ATOM     84  C   UNL     1       5.175   4.928  -2.800  1.00  0.00     0.148 C 
ATOM     85  N   UNL     1       3.802   4.777  -2.773  1.00  0.00    -0.290 N 
ATOM     86  O   UNL     1       2.023   5.233  -1.340  1.00  0.00    -0.268 OA
ATOM     87  S   UNL     1       6.228   4.876  -4.094  1.00  0.00    -0.052 S 
BRANCH  85  88
ATOM     88  C   UNL     1       2.883   4.515  -3.873  1.00  0.00     0.092 C 
ATOM     89  C   UNL     1       2.703   5.676  -4.837  1.00  0.00     0.025 C 
ATOM     90  C   UNL     1       3.153   3.289  -4.746  1.00  0.00     0.025 C 
ATOM     91  C   UNL     1       1.924   5.023  -5.966  1.00  0.00     0.002 C 
ATOM     92  C   UNL     1       2.529   3.627  -6.101  1.00  0.00     0.002 C 
ENDBRANCH  85  88
ENDBRANCH  76  80
ENDBRANCH  72  74
ENDBRANCH  71  72
ENDBRANCH  70  71
ENDBRANCH   1  70
TORSDOF 16
