REMARK SMILES C=CCn1nc(C(=O)OCCOC(=O)c2ccc(-c3c4nc(c(-c5cccc(S(=O)(=O)[O-])c5F)c5ccc([nH]5)c(-c5cccc(S(=O)(=O)[O-])c5F)c5nc(c(-c6cccc(S(=O)(=O)[O-])c6F)c6ccc3[nH]6)C=C5)C=C4)cc2)c2c1CC[C@@H]([NH+]1CCC(C(C)(C)O)CC1)C2
REMARK SMILES IDX 10 1 9 2 7 3 8 4 6 5 4 6 5 7 79 8 78 9 80 10 93 11 81 12
REMARK SMILES IDX 82 13 3 14 2 15 1 16 83 17 84 18 92 19 85 21 91 22 86 23
REMARK SMILES IDX 87 24 88 25 89 26 90 27 11 29 12 30 13 31 14 32 15 33 16 34
REMARK SMILES IDX 77 35 17 36 76 37 18 38 19 39 20 40 70 41 21 42 75 43 69 44
REMARK SMILES IDX 71 45 22 46 74 47 68 48 67 49 23 51 55 52 35 53 54 54 36 55
REMARK SMILES IDX 39 56 53 57 72 58 37 59 38 60 52 62 73 63 40 64 24 65 25 66
REMARK SMILES IDX 33 67 26 68 28 69 34 70 27 71 29 72 30 73 31 74 32 75 56 76
REMARK SMILES IDX 57 77 65 78 58 79 60 80 66 81 59 82 61 83 62 84 63 85 64 86
REMARK SMILES IDX 41 87 42 88 50 89 43 90 45 91 51 92 44 93 46 94 47 95 48 96
REMARK SMILES IDX 49 97
REMARK H PARENT 83 20 90 28 71 50 39 61
REMARK Flexibility Score: inf
ROOT
ATOM      1  C   UNL     1      -3.897  -4.240  -6.875  1.00  0.00     0.275 C 
ENDROOT
BRANCH   1   2
ATOM      2  O   UNL     1      -3.770  -3.325  -5.777  1.00  0.00    -0.457 OA
BRANCH   2   3
ATOM      3  C   UNL     1      -3.450  -3.806  -4.532  1.00  0.00     0.359 C 
ATOM      4  O   UNL     1      -3.526  -4.993  -4.218  1.00  0.00    -0.244 OA
BRANCH   3   5
ATOM      5  C   UNL     1      -3.006  -2.716  -3.645  1.00  0.00     0.174 A 
ATOM      6  N   UNL     1      -2.420  -1.598  -1.917  1.00  0.00    -0.265 N 
ATOM      7  N   UNL     1      -2.646  -2.868  -2.347  1.00  0.00    -0.165 NA
ATOM      8  C   UNL     1      -2.901  -0.685  -2.811  1.00  0.00     0.043 A 
ATOM      9  C   UNL     1      -2.922  -1.350  -4.011  1.00  0.00     0.014 A 
ATOM     10  C   UNL     1      -3.251   0.733  -2.619  1.00  0.00     0.062 C 
ATOM     11  C   UNL     1      -3.017  -0.667  -5.331  1.00  0.00     0.105 C 
ATOM     12  C   UNL     1      -3.531   1.395  -3.985  1.00  0.00     0.072 C 
ATOM     13  C   UNL     1      -2.732   0.861  -5.209  1.00  0.00     0.189 C 
BRANCH   6  14
ATOM     14  C   UNL     1      -1.766  -1.346  -0.631  1.00  0.00     0.171 C 
BRANCH  14  15
ATOM     15  C   UNL     1      -0.256  -1.345  -0.716  1.00  0.00    -0.011 C 
ATOM     16  C   UNL     1       0.557  -0.431  -0.162  1.00  0.00     0.006 C 
ENDBRANCH  14  15
ENDBRANCH   6  14
BRANCH  13  17
ATOM     17  N   UNL     1      -1.310   1.200  -5.421  1.00  0.00    -0.332 N 
ATOM     18  C   UNL     1      -0.287   0.748  -4.494  1.00  0.00     0.262 C 
ATOM     19  C   UNL     1      -1.013   2.555  -5.856  1.00  0.00     0.262 C 
ATOM     20  H   UNL     1      -1.221   0.561  -6.211  1.00  0.00     0.348 HD
ATOM     21  C   UNL     1      -0.091   1.635  -3.265  1.00  0.00     0.068 C 
ATOM     22  C   UNL     1      -1.057   3.572  -4.729  1.00  0.00     0.068 C 
ATOM     23  C   UNL     1      -0.328   3.160  -3.426  1.00  0.00     0.031 C 
BRANCH  23  24
ATOM     24  C   UNL     1      -0.983   3.852  -2.167  1.00  0.00     0.062 C 
ATOM     25  C   UNL     1      -0.449   3.338  -0.826  1.00  0.00     0.042 C 
ATOM     26  C   UNL     1      -0.808   5.374  -2.238  1.00  0.00     0.042 C 
BRANCH  24  27
ATOM     27  O   UNL     1      -2.397   3.627  -2.153  1.00  0.00    -0.390 OA
ATOM     28  H   UNL     1      -2.573   2.674  -2.109  1.00  0.00     0.211 HD
ENDBRANCH  24  27
ENDBRANCH  23  24
ENDBRANCH  13  17
ENDBRANCH   3   5
ENDBRANCH   2   3
ENDBRANCH   1   2
BRANCH   1  29
ATOM     29  C   UNL     1      -2.543  -4.498  -7.518  1.00  0.00     0.275 C 
BRANCH  29  30
ATOM     30  O   UNL     1      -1.767  -5.279  -6.625  1.00  0.00    -0.458 OA
BRANCH  30  31
ATOM     31  C   UNL     1      -0.963  -4.602  -5.777  1.00  0.00     0.338 C 
ATOM     32  O   UNL     1      -0.841  -3.394  -5.683  1.00  0.00    -0.246 OA
BRANCH  31  33
ATOM     33  C   UNL     1      -0.129  -5.581  -5.077  1.00  0.00     0.060 A 
ATOM     34  C   UNL     1       0.886  -5.063  -4.267  1.00  0.00     0.016 A 
ATOM     35  C   UNL     1      -0.106  -6.886  -5.585  1.00  0.00     0.016 A 
ATOM     36  C   UNL     1       2.073  -5.750  -4.226  1.00  0.00     0.010 A 
ATOM     37  C   UNL     1       1.091  -7.535  -5.598  1.00  0.00     0.010 A 
ATOM     38  C   UNL     1       2.178  -6.908  -4.997  1.00  0.00    -0.014 A 
BRANCH  38  39
ATOM     39  C   UNL     1       3.462  -7.544  -5.127  1.00  0.00     0.031 A 
ATOM     40  C   UNL     1       3.772  -8.393  -3.958  1.00  0.00     0.074 A 
ATOM     41  C   UNL     1       4.146  -7.451  -6.283  1.00  0.00     0.049 A 
ATOM     42  N   UNL     1       4.731  -8.233  -3.110  1.00  0.00    -0.248 NA
ATOM     43  C   UNL     1       2.776  -9.402  -3.551  1.00  0.00     0.031 C 
ATOM     44  C   UNL     1       3.710  -6.857  -7.553  1.00  0.00     0.029 A 
ATOM     45  N   UNL     1       5.320  -8.041  -6.615  1.00  0.00    -0.354 N 
ATOM     46  C   UNL     1       4.583  -9.274  -2.198  1.00  0.00     0.074 A 
ATOM     47  C   UNL     1       3.253  -9.783  -2.368  1.00  0.00     0.031 C 
ATOM     48  C   UNL     1       4.463  -7.367  -8.555  1.00  0.00     0.029 A 
ATOM     49  C   UNL     1       5.479  -8.233  -7.983  1.00  0.00     0.049 A 
ATOM     50  H   UNL     1       5.996  -8.308  -5.951  1.00  0.00     0.167 HD
ATOM     51  C   UNL     1       5.662  -9.819  -1.578  1.00  0.00     0.034 A 
ATOM     52  C   UNL     1       6.288  -9.157  -8.566  1.00  0.00     0.034 A 
ATOM     53  C   UNL     1       6.814  -8.963  -1.703  1.00  0.00     0.049 A 
ATOM     54  C   UNL     1       7.279  -9.577  -7.539  1.00  0.00     0.074 A 
ATOM     55  C   UNL     1       7.099  -7.670  -1.312  1.00  0.00     0.029 A 
ATOM     56  N   UNL     1       7.714  -9.274  -2.696  1.00  0.00    -0.354 N 
ATOM     57  N   UNL     1       8.171  -8.768  -7.037  1.00  0.00    -0.248 NA
ATOM     58  C   UNL     1       6.947 -10.730  -6.712  1.00  0.00     0.031 C 
ATOM     59  C   UNL     1       7.831  -7.114  -2.400  1.00  0.00     0.029 A 
ATOM     60  C   UNL     1       8.026  -8.114  -3.355  1.00  0.00     0.049 A 
ATOM     61  H   UNL     1       8.070 -10.170  -2.896  1.00  0.00     0.167 HD
ATOM     62  C   UNL     1       8.152  -9.036  -5.672  1.00  0.00     0.074 A 
ATOM     63  C   UNL     1       7.456 -10.318  -5.545  1.00  0.00     0.031 C 
ATOM     64  C   UNL     1       8.403  -8.057  -4.752  1.00  0.00     0.034 A 
BRANCH  51  65
ATOM     65  C   UNL     1       5.788 -11.272  -1.192  1.00  0.00     0.023 A 
ATOM     66  C   UNL     1       6.925 -11.628  -0.435  1.00  0.00     0.012 A 
ATOM     67  C   UNL     1       5.024 -12.332  -1.739  1.00  0.00     0.148 A 
ATOM     68  C   UNL     1       7.318 -12.961  -0.286  1.00  0.00     0.002 A 
ATOM     69  C   UNL     1       5.378 -13.658  -1.527  1.00  0.00     0.091 A 
ATOM     70  F   UNL     1       4.022 -12.079  -2.583  1.00  0.00    -0.205 F 
ATOM     71  C   UNL     1       6.543 -13.977  -0.829  1.00  0.00     0.022 A 
BRANCH  69  72
ATOM     72  S   UNL     1       4.392 -15.015  -2.176  1.00  0.00     0.127 S 
ATOM     73  O   UNL     1       5.241 -15.502  -3.259  1.00  0.00    -0.237 OA
ATOM     74  O   UNL     1       4.301 -15.900  -1.014  1.00  0.00    -0.237 OA
ATOM     75  O   UNL     1       3.121 -14.425  -2.576  1.00  0.00    -0.744 OA
ENDBRANCH  69  72
ENDBRANCH  51  65
BRANCH  52  76
ATOM     76  C   UNL     1       6.020  -9.959  -9.789  1.00  0.00     0.023 A 
ATOM     77  C   UNL     1       7.071 -10.640 -10.436  1.00  0.00     0.012 A 
ATOM     78  C   UNL     1       4.697 -10.270 -10.182  1.00  0.00     0.148 A 
ATOM     79  C   UNL     1       6.811 -11.601 -11.426  1.00  0.00     0.002 A 
ATOM     80  C   UNL     1       4.444 -11.207 -11.179  1.00  0.00     0.091 A 
ATOM     81  F   UNL     1       3.675  -9.728  -9.510  1.00  0.00    -0.205 F 
ATOM     82  C   UNL     1       5.499 -11.885 -11.798  1.00  0.00     0.022 A 
BRANCH  80  83
ATOM     83  S   UNL     1       2.766 -11.615 -11.683  1.00  0.00     0.127 S 
ATOM     84  O   UNL     1       2.886 -11.657 -13.141  1.00  0.00    -0.237 OA
ATOM     85  O   UNL     1       2.566 -12.912 -11.046  1.00  0.00    -0.237 OA
ATOM     86  O   UNL     1       1.931 -10.527 -11.188  1.00  0.00    -0.744 OA
ENDBRANCH  80  83
ENDBRANCH  52  76
BRANCH  64  87
ATOM     87  C   UNL     1       8.877  -6.711  -5.252  1.00  0.00     0.023 A 
ATOM     88  C   UNL     1       8.077  -5.877  -6.063  1.00  0.00     0.012 A 
ATOM     89  C   UNL     1      10.065  -6.189  -4.717  1.00  0.00     0.148 A 
ATOM     90  C   UNL     1       8.462  -4.563  -6.349  1.00  0.00     0.002 A 
ATOM     91  C   UNL     1      10.419  -4.868  -4.960  1.00  0.00     0.091 A 
ATOM     92  F   UNL     1      10.812  -6.988  -3.940  1.00  0.00    -0.205 F 
ATOM     93  C   UNL     1       9.626  -4.053  -5.784  1.00  0.00     0.022 A 
BRANCH  91  94
ATOM     94  S   UNL     1      11.828  -4.116  -4.146  1.00  0.00     0.127 S 
ATOM     95  O   UNL     1      12.810  -4.061  -5.226  1.00  0.00    -0.237 OA
ATOM     96  O   UNL     1      11.298  -2.816  -3.733  1.00  0.00    -0.237 OA
ATOM     97  O   UNL     1      12.165  -4.998  -3.034  1.00  0.00    -0.744 OA
ENDBRANCH  91  94
ENDBRANCH  64  87
ENDBRANCH  38  39
ENDBRANCH  31  33
ENDBRANCH  30  31
ENDBRANCH  29  30
ENDBRANCH   1  29
TORSDOF 19
