REMARK SMILES CC[N@@H+](C[C@@H](C)C(=O)OCCOC(=O)c1ccc(-c2c3nc(c(-c4cccc(S(=O)(=O)[O-])c4F)c4ccc([nH]4)c(-c4cccc(S(=O)(=O)[O-])c4F)c4nc(c(-c5cccc(S(=O)(=O)[O-])c5F)c5ccc2[nH]5)C=C4)C=C3)cc1)[C@@H]1CCC[C@H](S(C)(=O)=O)C1
REMARK SMILES IDX 10 1 9 2 7 3 8 4 5 5 6 6 4 7 3 8 2 10 1 11 78 12 79 13 87 14
REMARK SMILES IDX 80 15 82 16 81 17 83 18 84 19 85 20 86 21 11 22 12 23 13 24
REMARK SMILES IDX 14 25 15 26 16 27 77 28 17 29 76 30 18 31 19 32 20 33 70 34
REMARK SMILES IDX 21 35 75 36 69 37 71 38 22 39 74 40 68 41 67 42 23 44 55 45
REMARK SMILES IDX 35 46 54 47 36 48 39 49 53 50 72 51 37 52 38 53 52 55 73 56
REMARK SMILES IDX 40 57 24 58 25 59 33 60 26 61 28 62 34 63 27 64 29 65 30 66
REMARK SMILES IDX 31 67 32 68 56 69 57 70 65 71 58 72 60 73 66 74 59 75 61 76
REMARK SMILES IDX 62 77 63 78 64 79 41 80 42 81 50 82 43 83 45 84 51 85 44 86
REMARK SMILES IDX 46 87 47 88 48 89 49 90
REMARK H PARENT 3 9 71 43 39 54
REMARK Flexibility Score: inf
ROOT
ATOM      1  C   UNL     1      -0.077  -0.760   7.872  1.00  0.00     0.274 C 
ENDROOT
BRANCH   1   2
ATOM      2  O   UNL     1       0.557  -0.522   6.601  1.00  0.00    -0.462 OA
BRANCH   2   3
ATOM      3  C   UNL     1       0.793  -1.631   5.856  1.00  0.00     0.314 C 
ATOM      4  O   UNL     1       0.518  -2.772   6.211  1.00  0.00    -0.252 OA
BRANCH   3   5
ATOM      5  C   UNL     1       1.545  -1.357   4.562  1.00  0.00     0.151 C 
ATOM      6  C   UNL     1       2.976  -1.817   4.835  1.00  0.00     0.026 C 
BRANCH   5   7
ATOM      7  C   UNL     1       1.336   0.090   4.036  1.00  0.00     0.277 C 
BRANCH   7   8
ATOM      8  N   UNL     1       1.609   0.477   2.624  1.00  0.00    -0.332 N 
ATOM      9  H   UNL     1       1.152   1.387   2.564  1.00  0.00     0.348 HD
BRANCH   8  10
ATOM     10  C   UNL     1       0.923  -0.390   1.656  1.00  0.00     0.259 C 
ATOM     11  C   UNL     1       0.907   0.117   0.215  1.00  0.00     0.071 C 
ENDBRANCH   8  10
BRANCH   8  12
ATOM     12  C   UNL     1       2.941   0.987   2.247  1.00  0.00     0.185 C 
ATOM     13  C   UNL     1       3.981  -0.130   2.092  1.00  0.00     0.065 C 
ATOM     14  C   UNL     1       3.361   2.208   3.098  1.00  0.00     0.084 C 
ATOM     15  C   UNL     1       5.438   0.286   2.185  1.00  0.00     0.007 C 
ATOM     16  C   UNL     1       4.856   2.537   3.043  1.00  0.00     0.114 C 
ATOM     17  C   UNL     1       5.668   1.276   3.315  1.00  0.00     0.020 C 
BRANCH  16  18
ATOM     18  S   UNL     1       5.228   3.869   4.205  1.00  0.00     0.150 S 
ATOM     19  C   UNL     1       7.001   3.933   4.288  1.00  0.00     0.158 C 
ATOM     20  O   UNL     1       4.798   5.113   3.592  1.00  0.00    -0.229 OA
ATOM     21  O   UNL     1       4.761   3.495   5.526  1.00  0.00    -0.229 OA
ENDBRANCH  16  18
ENDBRANCH   8  12
ENDBRANCH   7   8
ENDBRANCH   5   7
ENDBRANCH   3   5
ENDBRANCH   2   3
ENDBRANCH   1   2
BRANCH   1  22
ATOM     22  C   UNL     1      -1.608  -0.705   7.800  1.00  0.00     0.275 C 
BRANCH  22  23
ATOM     23  O   UNL     1      -2.169  -1.763   7.001  1.00  0.00    -0.458 OA
BRANCH  23  24
ATOM     24  C   UNL     1      -2.320  -1.472   5.691  1.00  0.00     0.338 C 
ATOM     25  O   UNL     1      -2.074  -0.400   5.143  1.00  0.00    -0.246 OA
BRANCH  24  26
ATOM     26  C   UNL     1      -2.674  -2.678   4.931  1.00  0.00     0.060 A 
ATOM     27  C   UNL     1      -1.818  -3.074   3.896  1.00  0.00     0.016 A 
ATOM     28  C   UNL     1      -3.864  -3.364   5.164  1.00  0.00     0.016 A 
ATOM     29  C   UNL     1      -2.134  -4.159   3.090  1.00  0.00     0.010 A 
ATOM     30  C   UNL     1      -4.196  -4.441   4.338  1.00  0.00     0.010 A 
ATOM     31  C   UNL     1      -3.339  -4.834   3.292  1.00  0.00    -0.014 A 
BRANCH  31  32
ATOM     32  C   UNL     1      -3.772  -5.878   2.341  1.00  0.00     0.031 A 
ATOM     33  C   UNL     1      -4.855  -5.545   1.359  1.00  0.00     0.074 A 
ATOM     34  C   UNL     1      -3.223  -7.105   2.377  1.00  0.00     0.049 A 
ATOM     35  N   UNL     1      -5.559  -6.342   0.603  1.00  0.00    -0.248 NA
ATOM     36  C   UNL     1      -5.191  -4.118   1.213  1.00  0.00     0.031 C 
ATOM     37  C   UNL     1      -2.112  -7.510   3.237  1.00  0.00     0.029 A 
ATOM     38  N   UNL     1      -3.554  -8.247   1.692  1.00  0.00    -0.354 N 
ATOM     39  C   UNL     1      -6.465  -5.525  -0.061  1.00  0.00     0.074 A 
ATOM     40  C   UNL     1      -6.207  -4.166   0.362  1.00  0.00     0.031 C 
ATOM     41  C   UNL     1      -1.878  -8.821   3.058  1.00  0.00     0.029 A 
ATOM     42  C   UNL     1      -2.859  -9.355   2.118  1.00  0.00     0.049 A 
ATOM     43  H   UNL     1      -4.222  -8.271   0.969  1.00  0.00     0.167 HD
ATOM     44  C   UNL     1      -7.427  -5.883  -0.942  1.00  0.00     0.034 A 
ATOM     45  C   UNL     1      -3.037 -10.657   1.820  1.00  0.00     0.034 A 
ATOM     46  C   UNL     1      -7.644  -7.236  -1.374  1.00  0.00     0.049 A 
ATOM     47  C   UNL     1      -4.142 -11.035   0.868  1.00  0.00     0.074 A 
ATOM     48  C   UNL     1      -8.598  -7.720  -2.250  1.00  0.00     0.029 A 
ATOM     49  N   UNL     1      -6.885  -8.322  -0.965  1.00  0.00    -0.354 N 
ATOM     50  N   UNL     1      -4.986 -10.257   0.232  1.00  0.00    -0.248 NA
ATOM     51  C   UNL     1      -4.312 -12.466   0.579  1.00  0.00     0.031 C 
ATOM     52  C   UNL     1      -8.417  -9.101  -2.369  1.00  0.00     0.029 A 
ATOM     53  C   UNL     1      -7.340  -9.474  -1.579  1.00  0.00     0.049 A 
ATOM     54  H   UNL     1      -6.133  -8.280  -0.330  1.00  0.00     0.167 HD
ATOM     55  C   UNL     1      -5.757 -11.098  -0.562  1.00  0.00     0.074 A 
ATOM     56  C   UNL     1      -5.274 -12.445  -0.334  1.00  0.00     0.031 C 
ATOM     57  C   UNL     1      -6.782 -10.789  -1.393  1.00  0.00     0.034 A 
BRANCH  44  58
ATOM     58  C   UNL     1      -8.303  -4.797  -1.503  1.00  0.00     0.023 A 
ATOM     59  C   UNL     1      -7.792  -3.925  -2.483  1.00  0.00     0.012 A 
ATOM     60  C   UNL     1      -9.644  -4.668  -1.092  1.00  0.00     0.148 A 
ATOM     61  C   UNL     1      -8.594  -2.923  -3.029  1.00  0.00     0.002 A 
ATOM     62  C   UNL     1     -10.449  -3.691  -1.668  1.00  0.00     0.091 A 
ATOM     63  F   UNL     1     -10.103  -5.490  -0.137  1.00  0.00    -0.205 F 
ATOM     64  C   UNL     1      -9.923  -2.813  -2.629  1.00  0.00     0.022 A 
BRANCH  62  65
ATOM     65  S   UNL     1     -12.192  -3.516  -1.268  1.00  0.00     0.127 S 
ATOM     66  O   UNL     1     -12.191  -2.287  -0.476  1.00  0.00    -0.237 OA
ATOM     67  O   UNL     1     -12.802  -3.387  -2.591  1.00  0.00    -0.237 OA
ATOM     68  O   UNL     1     -12.561  -4.726  -0.546  1.00  0.00    -0.744 OA
ENDBRANCH  62  65
ENDBRANCH  44  58
BRANCH  45  69
ATOM     69  C   UNL     1      -2.146 -11.693   2.416  1.00  0.00     0.023 A 
ATOM     70  C   UNL     1      -1.247 -12.388   1.585  1.00  0.00     0.012 A 
ATOM     71  C   UNL     1      -2.167 -11.982   3.795  1.00  0.00     0.148 A 
ATOM     72  C   UNL     1      -0.404 -13.369   2.110  1.00  0.00     0.002 A 
ATOM     73  C   UNL     1      -1.287 -12.921   4.321  1.00  0.00     0.091 A 
ATOM     74  F   UNL     1      -3.046 -11.330   4.570  1.00  0.00    -0.205 F 
ATOM     75  C   UNL     1      -0.415 -13.627   3.478  1.00  0.00     0.022 A 
BRANCH  73  76
ATOM     76  S   UNL     1      -1.150 -13.220   6.087  1.00  0.00     0.127 S 
ATOM     77  O   UNL     1      -1.868 -14.483   6.234  1.00  0.00    -0.237 OA
ATOM     78  O   UNL     1       0.299 -13.310   6.273  1.00  0.00    -0.237 OA
ATOM     79  O   UNL     1      -1.761 -12.060   6.723  1.00  0.00    -0.744 OA
ENDBRANCH  73  76
ENDBRANCH  45  69
BRANCH  57  80
ATOM     80  C   UNL     1      -7.411 -11.909  -2.176  1.00  0.00     0.023 A 
ATOM     81  C   UNL     1      -8.309 -12.788  -1.542  1.00  0.00     0.012 A 
ATOM     82  C   UNL     1      -7.194 -12.014  -3.564  1.00  0.00     0.148 A 
ATOM     83  C   UNL     1      -8.970 -13.770  -2.278  1.00  0.00     0.002 A 
ATOM     84  C   UNL     1      -7.889 -12.966  -4.297  1.00  0.00     0.091 A 
ATOM     85  F   UNL     1      -6.320 -11.175  -4.139  1.00  0.00    -0.205 F 
ATOM     86  C   UNL     1      -8.772 -13.850  -3.655  1.00  0.00     0.022 A 
BRANCH  84  87
ATOM     87  S   UNL     1      -7.768 -13.078  -6.086  1.00  0.00     0.127 S 
ATOM     88  O   UNL     1      -6.992 -14.305  -6.255  1.00  0.00    -0.237 OA
ATOM     89  O   UNL     1      -9.172 -13.183  -6.487  1.00  0.00    -0.237 OA
ATOM     90  O   UNL     1      -7.107 -11.855  -6.521  1.00  0.00    -0.744 OA
ENDBRANCH  84  87
ENDBRANCH  57  80
ENDBRANCH  31  32
ENDBRANCH  24  26
ENDBRANCH  23  24
ENDBRANCH  22  23
ENDBRANCH   1  22
TORSDOF 19
