REMARK SMILES C[C@@H](C(=O)[C@H](C)[C@@H](C)C(=O)OCCOC(=O)c1ccc(-c2c3nc(c(-c4cccc(S(=O)(=O)[O-])c4F)c4ccc([nH]4)c(-c4cccc(S(=O)(=O)[O-])c4F)c4nc(c(-c5cccc(S(=O)(=O)[O-])c5F)c5ccc2[nH]5)C=C4)C=C3)cc1)c1ccccc1
REMARK SMILES IDX 12 1 11 2 9 3 10 4 7 5 8 6 5 7 6 8 3 9 4 10 2 11 1 12 80 13
REMARK SMILES IDX 81 14 85 15 82 16 84 17 83 18 13 19 14 20 15 21 16 22 17 23
REMARK SMILES IDX 18 24 79 25 19 26 78 27 20 28 21 29 22 30 72 31 23 32 77 33
REMARK SMILES IDX 71 34 73 35 24 36 76 37 70 38 69 39 25 41 57 42 37 43 56 44
REMARK SMILES IDX 38 45 41 46 55 47 74 48 39 49 40 50 54 52 75 53 42 54 26 55
REMARK SMILES IDX 27 56 35 57 28 58 30 59 36 60 29 61 31 62 32 63 33 64 34 65
REMARK SMILES IDX 58 66 59 67 67 68 60 69 62 70 68 71 61 72 63 73 64 74 65 75
REMARK SMILES IDX 66 76 43 77 44 78 52 79 45 80 47 81 53 82 46 83 48 84 49 85
REMARK SMILES IDX 50 86 51 87
REMARK H PARENT 73 40 41 51
REMARK Flexibility Score: inf
ROOT
ATOM      1  C   UNL     1       6.445   3.449   0.921  1.00  0.00     0.274 C 
ENDROOT
BRANCH   1   2
ATOM      2  O   UNL     1       5.090   3.153   1.326  1.00  0.00    -0.462 OA
BRANCH   2   3
ATOM      3  C   UNL     1       4.334   2.514   0.396  1.00  0.00     0.309 C 
ATOM      4  O   UNL     1       4.737   2.208  -0.722  1.00  0.00    -0.252 OA
BRANCH   3   5
ATOM      5  C   UNL     1       2.885   2.290   0.814  1.00  0.00     0.106 C 
ATOM      6  C   UNL     1       2.040   3.275  -0.002  1.00  0.00     0.021 C 
BRANCH   5   7
ATOM      7  C   UNL     1       2.606   2.340   2.344  1.00  0.00     0.067 C 
ATOM      8  C   UNL     1       1.105   2.451   2.652  1.00  0.00     0.017 C 
BRANCH   7   9
ATOM      9  C   UNL     1       3.080   1.040   3.028  1.00  0.00     0.143 C 
ATOM     10  O   UNL     1       2.857  -0.017   2.429  1.00  0.00    -0.299 OA
BRANCH   9  11
ATOM     11  C   UNL     1       3.570   1.110   4.505  1.00  0.00     0.083 C 
ATOM     12  C   UNL     1       4.665   2.173   4.725  1.00  0.00     0.021 C 
BRANCH  11  13
ATOM     13  C   UNL     1       3.970  -0.197   5.224  1.00  0.00    -0.038 A 
ATOM     14  C   UNL     1       3.998  -1.466   4.626  1.00  0.00     0.004 A 
ATOM     15  C   UNL     1       4.354  -0.129   6.582  1.00  0.00     0.004 A 
ATOM     16  C   UNL     1       4.390  -2.606   5.340  1.00  0.00     0.000 A 
ATOM     17  C   UNL     1       4.769  -1.262   7.290  1.00  0.00     0.000 A 
ATOM     18  C   UNL     1       4.783  -2.504   6.669  1.00  0.00     0.000 A 
ENDBRANCH  11  13
ENDBRANCH   9  11
ENDBRANCH   7   9
ENDBRANCH   5   7
ENDBRANCH   3   5
ENDBRANCH   2   3
ENDBRANCH   1   2
BRANCH   1  19
ATOM     19  C   UNL     1       7.455   2.391   1.375  1.00  0.00     0.275 C 
BRANCH  19  20
ATOM     20  O   UNL     1       7.192   1.098   0.802  1.00  0.00    -0.458 OA
BRANCH  20  21
ATOM     21  C   UNL     1       6.400   0.321   1.575  1.00  0.00     0.338 C 
ATOM     22  O   UNL     1       5.924   0.628   2.651  1.00  0.00    -0.246 OA
BRANCH  21  23
ATOM     23  C   UNL     1       6.128  -0.974   0.958  1.00  0.00     0.060 A 
ATOM     24  C   UNL     1       4.932  -1.157   0.260  1.00  0.00     0.016 A 
ATOM     25  C   UNL     1       6.973  -2.047   1.234  1.00  0.00     0.016 A 
ATOM     26  C   UNL     1       4.570  -2.430  -0.165  1.00  0.00     0.010 A 
ATOM     27  C   UNL     1       6.626  -3.316   0.778  1.00  0.00     0.010 A 
ATOM     28  C   UNL     1       5.422  -3.514   0.082  1.00  0.00    -0.014 A 
BRANCH  28  29
ATOM     29  C   UNL     1       5.114  -4.850  -0.466  1.00  0.00     0.031 A 
ATOM     30  C   UNL     1       4.724  -5.978   0.438  1.00  0.00     0.074 A 
ATOM     31  C   UNL     1       5.298  -5.045  -1.784  1.00  0.00     0.049 A 
ATOM     32  N   UNL     1       4.587  -7.245   0.155  1.00  0.00    -0.248 NA
ATOM     33  C   UNL     1       4.467  -5.640   1.847  1.00  0.00     0.031 C 
ATOM     34  C   UNL     1       5.701  -4.007  -2.735  1.00  0.00     0.029 A 
ATOM     35  N   UNL     1       5.221  -6.184  -2.540  1.00  0.00    -0.354 N 
ATOM     36  C   UNL     1       4.270  -7.869   1.354  1.00  0.00     0.074 A 
ATOM     37  C   UNL     1       4.227  -6.836   2.369  1.00  0.00     0.031 C 
ATOM     38  C   UNL     1       5.875  -4.564  -3.942  1.00  0.00     0.029 A 
ATOM     39  C   UNL     1       5.634  -5.998  -3.838  1.00  0.00     0.049 A 
ATOM     40  H   UNL     1       4.902  -7.048  -2.191  1.00  0.00     0.167 HD
ATOM     41  C   UNL     1       4.028  -9.183   1.578  1.00  0.00     0.034 A 
ATOM     42  C   UNL     1       5.834  -6.891  -4.825  1.00  0.00     0.034 A 
ATOM     43  C   UNL     1       4.042 -10.187   0.545  1.00  0.00     0.049 A 
ATOM     44  C   UNL     1       5.537  -8.336  -4.558  1.00  0.00     0.074 A 
ATOM     45  C   UNL     1       3.750 -11.535   0.649  1.00  0.00     0.029 A 
ATOM     46  N   UNL     1       4.370  -9.950  -0.783  1.00  0.00    -0.354 N 
ATOM     47  N   UNL     1       5.128  -8.898  -3.445  1.00  0.00    -0.248 NA
ATOM     48  C   UNL     1       5.697  -9.266  -5.682  1.00  0.00     0.031 C 
ATOM     49  C   UNL     1       3.909 -12.114  -0.617  1.00  0.00     0.029 A 
ATOM     50  C   UNL     1       4.294 -11.126  -1.509  1.00  0.00     0.049 A 
ATOM     51  H   UNL     1       4.620  -9.073  -1.154  1.00  0.00     0.167 HD
ATOM     52  C   UNL     1       4.962 -10.244  -3.736  1.00  0.00     0.074 A 
ATOM     53  C   UNL     1       5.294 -10.409  -5.139  1.00  0.00     0.031 C 
ATOM     54  C   UNL     1       4.587 -11.256  -2.915  1.00  0.00     0.034 A 
BRANCH  41  55
ATOM     55  C   UNL     1       3.688  -9.602   2.983  1.00  0.00     0.023 A 
ATOM     56  C   UNL     1       2.404  -9.329   3.495  1.00  0.00     0.012 A 
ATOM     57  C   UNL     1       4.614 -10.304   3.780  1.00  0.00     0.148 A 
ATOM     58  C   UNL     1       2.054  -9.726   4.786  1.00  0.00     0.002 A 
ATOM     59  C   UNL     1       4.247 -10.724   5.056  1.00  0.00     0.091 A 
ATOM     60  F   UNL     1       5.842 -10.530   3.292  1.00  0.00    -0.205 F 
ATOM     61  C   UNL     1       2.970 -10.431   5.562  1.00  0.00     0.022 A 
BRANCH  59  62
ATOM     62  S   UNL     1       5.352 -11.690   6.093  1.00  0.00     0.127 S 
ATOM     63  O   UNL     1       5.943 -10.657   6.941  1.00  0.00    -0.237 OA
ATOM     64  O   UNL     1       4.431 -12.593   6.786  1.00  0.00    -0.237 OA
ATOM     65  O   UNL     1       6.264 -12.357   5.173  1.00  0.00    -0.744 OA
ENDBRANCH  59  62
ENDBRANCH  41  55
BRANCH  42  66
ATOM     66  C   UNL     1       6.289  -6.402  -6.154  1.00  0.00     0.023 A 
ATOM     67  C   UNL     1       5.368  -6.343  -7.216  1.00  0.00     0.012 A 
ATOM     68  C   UNL     1       7.586  -5.881  -6.337  1.00  0.00     0.148 A 
ATOM     69  C   UNL     1       5.730  -5.778  -8.438  1.00  0.00     0.002 A 
ATOM     70  C   UNL     1       7.924  -5.271  -7.539  1.00  0.00     0.091 A 
ATOM     71  F   UNL     1       8.453  -5.959  -5.316  1.00  0.00    -0.205 F 
ATOM     72  C   UNL     1       7.000  -5.228  -8.595  1.00  0.00     0.022 A 
BRANCH  70  73
ATOM     73  S   UNL     1       9.482  -4.405  -7.771  1.00  0.00     0.127 S 
ATOM     74  O   UNL     1      10.220  -5.338  -8.618  1.00  0.00    -0.237 OA
ATOM     75  O   UNL     1       9.054  -3.175  -8.438  1.00  0.00    -0.237 OA
ATOM     76  O   UNL     1      10.018  -4.201  -6.432  1.00  0.00    -0.744 OA
ENDBRANCH  70  73
ENDBRANCH  42  66
BRANCH  54  77
ATOM     77  C   UNL     1       4.513 -12.632  -3.515  1.00  0.00     0.023 A 
ATOM     78  C   UNL     1       5.704 -13.348  -3.747  1.00  0.00     0.012 A 
ATOM     79  C   UNL     1       3.273 -13.239  -3.789  1.00  0.00     0.148 A 
ATOM     80  C   UNL     1       5.662 -14.642  -4.263  1.00  0.00     0.002 A 
ATOM     81  C   UNL     1       3.237 -14.543  -4.269  1.00  0.00     0.091 A 
ATOM     82  F   UNL     1       2.152 -12.530  -3.586  1.00  0.00    -0.205 F 
ATOM     83  C   UNL     1       4.430 -15.243  -4.513  1.00  0.00     0.022 A 
BRANCH  81  84
ATOM     84  S   UNL     1       1.689 -15.413  -4.540  1.00  0.00     0.127 S 
ATOM     85  O   UNL     1       1.518 -15.275  -5.985  1.00  0.00    -0.237 OA
ATOM     86  O   UNL     1       2.005 -16.770  -4.091  1.00  0.00    -0.237 OA
ATOM     87  O   UNL     1       0.703 -14.726  -3.717  1.00  0.00    -0.744 OA
ENDBRANCH  81  84
ENDBRANCH  54  77
ENDBRANCH  28  29
ENDBRANCH  21  23
ENDBRANCH  20  21
ENDBRANCH  19  20
ENDBRANCH   1  19
TORSDOF 18
