REMARK SMILES O=C(OCCOC(=O)c1ccccc1C(=O)N1CCS[C@H]1c1ccccc1)c1ccc(-c2c3nc(c(-c4cccc(S(=O)(=O)[O-])c4F)c4ccc([nH]4)c(-c4cccc(S(=O)(=O)[O-])c4F)c4nc(c(-c5cccc(S(=O)(=O)[O-])c5F)c5ccc2[nH]5)C=C4)C=C3)cc1
REMARK SMILES IDX 4 1 3 2 2 3 1 4 28 5 29 6 90 7 30 8 89 9 31 10 32 11 33 12
REMARK SMILES IDX 83 13 34 14 88 15 82 16 84 17 35 18 87 19 81 20 80 21 36 23
REMARK SMILES IDX 68 24 48 25 67 26 49 27 52 28 66 29 85 30 50 31 51 32 65 34
REMARK SMILES IDX 86 35 53 36 37 37 38 38 46 39 39 40 41 41 47 42 40 43 42 44
REMARK SMILES IDX 43 45 44 46 45 47 69 48 70 49 78 50 71 51 73 52 79 53 72 54
REMARK SMILES IDX 74 55 75 56 76 57 77 58 54 59 55 60 63 61 56 62 58 63 64 64
REMARK SMILES IDX 57 65 59 66 60 67 61 68 62 69 5 70 6 71 7 72 8 73 9 74 10 75
REMARK SMILES IDX 14 76 11 77 13 78 12 79 15 80 16 81 17 82 18 83 21 84 19 85
REMARK SMILES IDX 20 86 22 87 23 88 27 89 24 90 26 91 25 92
REMARK H PARENT 84 22 52 33
REMARK Flexibility Score: inf
ROOT
ATOM      1  C   UNL     1       4.240  -0.862   1.066  1.00  0.00     0.275 C 
ENDROOT
BRANCH   1   2
ATOM      2  O   UNL     1       3.279  -0.020   1.723  1.00  0.00    -0.458 OA
BRANCH   2   3
ATOM      3  C   UNL     1       3.080   1.313   1.622  1.00  0.00     0.338 C 
ATOM      4  O   UNL     1       2.321   1.862   2.419  1.00  0.00    -0.246 OA
BRANCH   3   5
ATOM      5  C   UNL     1       3.654   2.145   0.524  1.00  0.00     0.060 A 
ATOM      6  C   UNL     1       4.936   2.006  -0.021  1.00  0.00     0.016 A 
ATOM      7  C   UNL     1       2.845   3.194   0.056  1.00  0.00     0.016 A 
ATOM      8  C   UNL     1       5.387   2.855  -1.038  1.00  0.00     0.010 A 
ATOM      9  C   UNL     1       3.292   4.055  -0.947  1.00  0.00     0.010 A 
ATOM     10  C   UNL     1       4.581   3.906  -1.475  1.00  0.00    -0.014 A 
BRANCH  10  11
ATOM     11  C   UNL     1       5.183   5.042  -2.208  1.00  0.00     0.031 A 
ATOM     12  C   UNL     1       5.656   6.197  -1.383  1.00  0.00     0.074 A 
ATOM     13  C   UNL     1       5.282   5.075  -3.546  1.00  0.00     0.049 A 
ATOM     14  N   UNL     1       6.181   7.323  -1.773  1.00  0.00    -0.248 NA
ATOM     15  C   UNL     1       5.549   6.047   0.080  1.00  0.00     0.031 C 
ATOM     16  C   UNL     1       4.947   3.972  -4.426  1.00  0.00     0.029 A 
ATOM     17  N   UNL     1       5.643   6.080  -4.405  1.00  0.00    -0.354 N 
ATOM     18  C   UNL     1       6.481   8.009  -0.608  1.00  0.00     0.074 A 
ATOM     19  C   UNL     1       6.038   7.199   0.503  1.00  0.00     0.031 C 
ATOM     20  C   UNL     1       4.982   4.384  -5.704  1.00  0.00     0.029 A 
ATOM     21  C   UNL     1       5.384   5.783  -5.726  1.00  0.00     0.049 A 
ATOM     22  H   UNL     1       6.046   6.928  -4.109  1.00  0.00     0.167 HD
ATOM     23  C   UNL     1       7.105   9.198  -0.477  1.00  0.00     0.034 A 
ATOM     24  C   UNL     1       5.457   6.564  -6.821  1.00  0.00     0.034 A 
ATOM     25  C   UNL     1       7.497  10.006  -1.592  1.00  0.00     0.049 A 
ATOM     26  C   UNL     1       6.038   7.941  -6.654  1.00  0.00     0.074 A 
ATOM     27  C   UNL     1       8.132  11.231  -1.591  1.00  0.00     0.029 A 
ATOM     28  N   UNL     1       7.253   9.673  -2.918  1.00  0.00    -0.354 N 
ATOM     29  N   UNL     1       6.440   8.531  -5.553  1.00  0.00    -0.248 NA
ATOM     30  C   UNL     1       6.251   8.733  -7.873  1.00  0.00     0.031 C 
ATOM     31  C   UNL     1       8.246  11.653  -2.920  1.00  0.00     0.029 A 
ATOM     32  C   UNL     1       7.711  10.677  -3.749  1.00  0.00     0.049 A 
ATOM     33  H   UNL     1       6.819   8.844  -3.222  1.00  0.00     0.167 HD
ATOM     34  C   UNL     1       7.024   9.725  -5.949  1.00  0.00     0.074 A 
ATOM     35  C   UNL     1       6.899   9.788  -7.393  1.00  0.00     0.031 C 
ATOM     36  C   UNL     1       7.624  10.675  -5.189  1.00  0.00     0.034 A 
BRANCH  23  37
ATOM     37  C   UNL     1       7.379   9.648   0.927  1.00  0.00     0.023 A 
ATOM     38  C   UNL     1       8.373   8.989   1.684  1.00  0.00     0.012 A 
ATOM     39  C   UNL     1       6.597  10.647   1.529  1.00  0.00     0.148 A 
ATOM     40  C   UNL     1       8.547   9.284   3.034  1.00  0.00     0.002 A 
ATOM     41  C   UNL     1       6.802  10.963   2.866  1.00  0.00     0.091 A 
ATOM     42  F   UNL     1       5.631  11.228   0.804  1.00  0.00    -0.205 F 
ATOM     43  C   UNL     1       7.764  10.273   3.624  1.00  0.00     0.022 A 
BRANCH  41  44
ATOM     44  S   UNL     1       5.872  12.249   3.701  1.00  0.00     0.127 S 
ATOM     45  O   UNL     1       4.967  11.463   4.538  1.00  0.00    -0.237 OA
ATOM     46  O   UNL     1       6.920  12.959   4.435  1.00  0.00    -0.237 OA
ATOM     47  O   UNL     1       5.237  13.029   2.648  1.00  0.00    -0.744 OA
ENDBRANCH  41  44
ENDBRANCH  23  37
BRANCH  24  48
ATOM     48  C   UNL     1       5.051   6.034  -8.153  1.00  0.00     0.023 A 
ATOM     49  C   UNL     1       6.036   5.707  -9.104  1.00  0.00     0.012 A 
ATOM     50  C   UNL     1       3.694   5.823  -8.473  1.00  0.00     0.148 A 
ATOM     51  C   UNL     1       5.679   5.207 -10.358  1.00  0.00     0.002 A 
ATOM     52  C   UNL     1       3.345   5.295  -9.713  1.00  0.00     0.091 A 
ATOM     53  F   UNL     1       2.769   6.143  -7.557  1.00  0.00    -0.205 F 
ATOM     54  C   UNL     1       4.336   4.997 -10.661  1.00  0.00     0.022 A 
BRANCH  52  55
ATOM     55  S   UNL     1       1.647   4.919 -10.170  1.00  0.00     0.127 S 
ATOM     56  O   UNL     1       1.393   5.906 -11.217  1.00  0.00    -0.237 OA
ATOM     57  O   UNL     1       1.758   3.538 -10.643  1.00  0.00    -0.237 OA
ATOM     58  O   UNL     1       0.864   5.078  -8.952  1.00  0.00    -0.744 OA
ENDBRANCH  52  55
ENDBRANCH  24  48
BRANCH  36  59
ATOM     59  C   UNL     1       8.258  11.838  -5.896  1.00  0.00     0.023 A 
ATOM     60  C   UNL     1       7.455  12.874  -6.406  1.00  0.00     0.012 A 
ATOM     61  C   UNL     1       9.661  11.960  -5.922  1.00  0.00     0.148 A 
ATOM     62  C   UNL     1       8.044  14.018  -6.942  1.00  0.00     0.002 A 
ATOM     63  C   UNL     1      10.238  13.123  -6.409  1.00  0.00     0.091 A 
ATOM     64  F   UNL     1      10.400  10.945  -5.449  1.00  0.00    -0.205 F 
ATOM     65  C   UNL     1       9.432  14.150  -6.928  1.00  0.00     0.022 A 
BRANCH  63  66
ATOM     66  S   UNL     1      12.006  13.424  -6.321  1.00  0.00     0.127 S 
ATOM     67  O   UNL     1      12.399  13.303  -7.723  1.00  0.00    -0.237 OA
ATOM     68  O   UNL     1      12.062  14.785  -5.786  1.00  0.00    -0.237 OA
ATOM     69  O   UNL     1      12.544  12.404  -5.431  1.00  0.00    -0.744 OA
ENDBRANCH  63  66
ENDBRANCH  36  59
ENDBRANCH  10  11
ENDBRANCH   3   5
ENDBRANCH   2   3
ENDBRANCH   1   2
BRANCH   1  70
ATOM     70  C   UNL     1       3.813  -1.370  -0.305  1.00  0.00     0.275 C 
BRANCH  70  71
ATOM     71  O   UNL     1       3.547  -0.325  -1.257  1.00  0.00    -0.458 OA
BRANCH  71  72
ATOM     72  C   UNL     1       2.228  -0.099  -1.473  1.00  0.00     0.339 C 
ATOM     73  O   UNL     1       1.334  -0.626  -0.817  1.00  0.00    -0.246 OA
BRANCH  72  74
ATOM     74  C   UNL     1       1.920   0.977  -2.450  1.00  0.00     0.072 A 
ATOM     75  C   UNL     1       0.814   1.766  -2.034  1.00  0.00     0.016 A 
ATOM     76  C   UNL     1       2.534   1.268  -3.680  1.00  0.00     0.054 A 
ATOM     77  C   UNL     1       0.348   2.849  -2.777  1.00  0.00     0.001 A 
ATOM     78  C   UNL     1       2.006   2.351  -4.433  1.00  0.00     0.015 A 
ATOM     79  C   UNL     1       0.951   3.144  -3.983  1.00  0.00     0.001 A 
BRANCH  76  80
ATOM     80  C   UNL     1       3.684   0.583  -4.370  1.00  0.00     0.255 C 
ATOM     81  O   UNL     1       4.132   1.024  -5.429  1.00  0.00    -0.269 OA
BRANCH  80  82
ATOM     82  N   UNL     1       4.247  -0.570  -3.849  1.00  0.00    -0.322 N 
ATOM     83  C   UNL     1       5.698  -0.544  -3.738  1.00  0.00     0.132 C 
ATOM     84  C   UNL     1       3.828  -1.815  -4.478  1.00  0.00     0.174 C 
ATOM     85  C   UNL     1       6.179  -1.887  -3.226  1.00  0.00     0.093 C 
ATOM     86  S   UNL     1       4.914  -3.085  -3.752  1.00  0.00    -0.130 SA
BRANCH  84  87
ATOM     87  C   UNL     1       2.331  -2.031  -4.380  1.00  0.00    -0.015 A 
ATOM     88  C   UNL     1       1.704  -2.623  -3.278  1.00  0.00     0.007 A 
ATOM     89  C   UNL     1       1.518  -1.402  -5.349  1.00  0.00     0.007 A 
ATOM     90  C   UNL     1       0.321  -2.502  -3.102  1.00  0.00     0.000 A 
ATOM     91  C   UNL     1       0.145  -1.267  -5.162  1.00  0.00     0.000 A 
ATOM     92  C   UNL     1      -0.451  -1.800  -4.025  1.00  0.00     0.000 A 
ENDBRANCH  84  87
ENDBRANCH  80  82
ENDBRANCH  76  80
ENDBRANCH  72  74
ENDBRANCH  71  72
ENDBRANCH  70  71
ENDBRANCH   1  70
TORSDOF 17
