REMARK SMILES O=C(C[C@@H]([NH2+][C@@H]1CC[NH2+]C1)c1cccs1)OCCOC(=O)c1ccc(-c2c3nc(c(-c4cccc(S(=O)(=O)[O-])c4F)c4ccc([nH]4)c(-c4cccc(S(=O)(=O)[O-])c4F)c4nc(c(-c5cccc(S(=O)(=O)[O-])c5F)c5ccc2[nH]5)C=C4)C=C3)cc1
REMARK SMILES IDX 17 1 16 2 2 3 1 4 3 5 4 6 5 7 6 10 7 11 10 12 8 13 9 14
REMARK SMILES IDX 11 17 12 18 15 19 13 20 14 21 18 22 19 23 20 24 21 25 22 26
REMARK SMILES IDX 23 27 84 28 24 29 83 30 25 31 26 32 27 33 77 34 28 35 82 36
REMARK SMILES IDX 76 37 78 38 29 39 81 40 75 41 74 42 30 44 62 45 42 46 61 47
REMARK SMILES IDX 43 48 46 49 60 50 79 51 44 52 45 53 59 55 80 56 47 57 31 58
REMARK SMILES IDX 32 59 40 60 33 61 35 62 41 63 34 64 36 65 37 66 38 67 39 68
REMARK SMILES IDX 63 69 64 70 72 71 65 72 67 73 73 74 66 75 68 76 69 77 70 78
REMARK SMILES IDX 71 79 48 80 49 81 57 82 50 83 52 84 58 85 51 86 53 87 54 88
REMARK SMILES IDX 55 89 56 90
REMARK H PARENT 5 8 5 9 9 15 9 16 78 43 46 54
REMARK Flexibility Score: inf
ROOT
ATOM      1  C   UNL     1       4.187  -1.147  -0.621  1.00  0.00     0.274 C 
ENDROOT
BRANCH   1   2
ATOM      2  O   UNL     1       2.899  -1.158   0.040  1.00  0.00    -0.462 OA
BRANCH   2   3
ATOM      3  C   UNL     1       2.539  -0.227   0.964  1.00  0.00     0.312 C 
ATOM      4  O   UNL     1       1.856  -0.538   1.935  1.00  0.00    -0.252 OA
BRANCH   3   5
ATOM      5  C   UNL     1       2.954   1.194   0.713  1.00  0.00     0.193 C 
BRANCH   5   6
ATOM      6  C   UNL     1       3.980   1.778   1.708  1.00  0.00     0.235 C 
BRANCH   6   7
ATOM      7  N   UNL     1       5.100   0.849   1.923  1.00  0.00    -0.332 N 
ATOM      8  H   UNL     1       5.654   0.848   1.067  1.00  0.00     0.347 HD
ATOM      9  H   UNL     1       4.641  -0.026   2.177  1.00  0.00     0.347 HD
BRANCH   7  10
ATOM     10  C   UNL     1       6.031   1.087   3.035  1.00  0.00     0.244 C 
ATOM     11  C   UNL     1       6.629   2.464   3.309  1.00  0.00     0.132 C 
ATOM     12  C   UNL     1       7.300   0.238   2.732  1.00  0.00     0.326 C 
ATOM     13  C   UNL     1       7.950   2.455   2.571  1.00  0.00     0.267 C 
ATOM     14  N   UNL     1       8.476   1.114   2.875  1.00  0.00    -0.341 N 
ATOM     15  H   UNL     1       8.845   1.075   3.825  1.00  0.00     0.346 HD
ATOM     16  H   UNL     1       9.248   0.844   2.265  1.00  0.00     0.346 HD
ENDBRANCH   7  10
ENDBRANCH   6   7
BRANCH   6  17
ATOM     17  C   UNL     1       4.430   3.113   1.125  1.00  0.00     0.062 A 
ATOM     18  C   UNL     1       4.094   4.386   1.553  1.00  0.00     0.021 A 
ATOM     19  S   UNL     1       5.452   3.189  -0.265  1.00  0.00    -0.143 S 
ATOM     20  C   UNL     1       4.725   5.409   0.785  1.00  0.00     0.012 A 
ATOM     21  C   UNL     1       5.489   4.894  -0.235  1.00  0.00     0.065 A 
ENDBRANCH   6  17
ENDBRANCH   5   6
ENDBRANCH   3   5
ENDBRANCH   2   3
ENDBRANCH   1   2
BRANCH   1  22
ATOM     22  C   UNL     1       4.073  -1.028  -2.141  1.00  0.00     0.275 C 
BRANCH  22  23
ATOM     23  O   UNL     1       3.676   0.303  -2.506  1.00  0.00    -0.458 OA
BRANCH  23  24
ATOM     24  C   UNL     1       2.344   0.479  -2.709  1.00  0.00     0.338 C 
ATOM     25  O   UNL     1       1.504  -0.391  -2.768  1.00  0.00    -0.246 OA
BRANCH  24  26
ATOM     26  C   UNL     1       2.026   1.931  -2.656  1.00  0.00     0.060 A 
ATOM     27  C   UNL     1       0.778   2.297  -2.137  1.00  0.00     0.016 A 
ATOM     28  C   UNL     1       2.934   2.918  -3.054  1.00  0.00     0.016 A 
ATOM     29  C   UNL     1       0.423   3.643  -2.043  1.00  0.00     0.010 A 
ATOM     30  C   UNL     1       2.578   4.267  -2.957  1.00  0.00     0.010 A 
ATOM     31  C   UNL     1       1.311   4.636  -2.477  1.00  0.00    -0.014 A 
BRANCH  31  32
ATOM     32  C   UNL     1       0.862   6.046  -2.558  1.00  0.00     0.031 A 
ATOM     33  C   UNL     1       0.377   6.578  -3.877  1.00  0.00     0.074 A 
ATOM     34  C   UNL     1       0.893   6.851  -1.480  1.00  0.00     0.049 A 
ATOM     35  N   UNL     1      -0.092   7.762  -4.167  1.00  0.00    -0.248 NA
ATOM     36  C   UNL     1       0.425   5.651  -5.021  1.00  0.00     0.031 C 
ATOM     37  C   UNL     1       1.353   6.464  -0.150  1.00  0.00     0.029 A 
ATOM     38  N   UNL     1       0.555   8.175  -1.347  1.00  0.00    -0.354 N 
ATOM     39  C   UNL     1      -0.394   7.727  -5.522  1.00  0.00     0.074 A 
ATOM     40  C   UNL     1      -0.028   6.413  -6.005  1.00  0.00     0.031 C 
ATOM     41  C   UNL     1       1.311   7.539   0.657  1.00  0.00     0.029 A 
ATOM     42  C   UNL     1       0.816   8.688  -0.099  1.00  0.00     0.049 A 
ATOM     43  H   UNL     1       0.162   8.707  -2.077  1.00  0.00     0.167 HD
ATOM     44  C   UNL     1      -0.954   8.689  -6.290  1.00  0.00     0.034 A 
ATOM     45  C   UNL     1       0.677   9.943   0.375  1.00  0.00     0.034 A 
ATOM     46  C   UNL     1      -1.331   9.991  -5.814  1.00  0.00     0.049 A 
ATOM     47  C   UNL     1       0.085  11.008  -0.514  1.00  0.00     0.074 A 
ATOM     48  C   UNL     1      -1.962  11.009  -6.506  1.00  0.00     0.029 A 
ATOM     49  N   UNL     1      -1.097  10.461  -4.532  1.00  0.00    -0.354 N 
ATOM     50  N   UNL     1      -0.361  10.905  -1.742  1.00  0.00    -0.248 NA
ATOM     51  C   UNL     1      -0.065  12.353   0.065  1.00  0.00     0.031 C 
ATOM     52  C   UNL     1      -2.092  12.105  -5.646  1.00  0.00     0.029 A 
ATOM     53  C   UNL     1      -1.555  11.762  -4.416  1.00  0.00     0.049 A 
ATOM     54  H   UNL     1      -0.669   9.946  -3.811  1.00  0.00     0.167 HD
ATOM     55  C   UNL     1      -0.883  12.154  -2.066  1.00  0.00     0.074 A 
ATOM     56  C   UNL     1      -0.711  12.995  -0.900  1.00  0.00     0.031 C 
ATOM     57  C   UNL     1      -1.442  12.570  -3.229  1.00  0.00     0.034 A 
BRANCH  44  58
ATOM     58  C   UNL     1      -1.243   8.348  -7.725  1.00  0.00     0.023 A 
ATOM     59  C   UNL     1      -2.346   7.524  -8.025  1.00  0.00     0.012 A 
ATOM     60  C   UNL     1      -0.469   8.884  -8.771  1.00  0.00     0.148 A 
ATOM     61  C   UNL     1      -2.663   7.220  -9.348  1.00  0.00     0.002 A 
ATOM     62  C   UNL     1      -0.813   8.605 -10.088  1.00  0.00     0.091 A 
ATOM     63  F   UNL     1       0.591   9.643  -8.459  1.00  0.00    -0.205 F 
ATOM     64  C   UNL     1      -1.904   7.768 -10.378  1.00  0.00     0.022 A 
BRANCH  62  65
ATOM     65  S   UNL     1       0.064   9.314 -11.486  1.00  0.00     0.127 S 
ATOM     66  O   UNL     1       0.787   8.152 -11.999  1.00  0.00    -0.237 OA
ATOM     67  O   UNL     1      -1.033   9.775 -12.337  1.00  0.00    -0.237 OA
ATOM     68  O   UNL     1       0.896  10.377 -10.939  1.00  0.00    -0.744 OA
ENDBRANCH  62  65
ENDBRANCH  44  58
BRANCH  45  69
ATOM     69  C   UNL     1       1.055  10.259   1.781  1.00  0.00     0.023 A 
ATOM     70  C   UNL     1       0.050  10.564   2.719  1.00  0.00     0.012 A 
ATOM     71  C   UNL     1       2.401  10.265   2.191  1.00  0.00     0.148 A 
ATOM     72  C   UNL     1       0.381  10.905   4.031  1.00  0.00     0.002 A 
ATOM     73  C   UNL     1       2.721  10.556   3.513  1.00  0.00     0.091 A 
ATOM     74  F   UNL     1       3.347   9.993   1.280  1.00  0.00    -0.205 F 
ATOM     75  C   UNL     1       1.715  10.893   4.431  1.00  0.00     0.022 A 
BRANCH  73  76
ATOM     76  S   UNL     1       4.404  10.435   4.130  1.00  0.00     0.127 S 
ATOM     77  O   UNL     1       4.811  11.836   4.172  1.00  0.00    -0.237 OA
ATOM     78  O   UNL     1       4.208   9.809   5.439  1.00  0.00    -0.237 OA
ATOM     79  O   UNL     1       5.103   9.592   3.169  1.00  0.00    -0.744 OA
ENDBRANCH  73  76
ENDBRANCH  45  69
BRANCH  57  80
ATOM     80  C   UNL     1      -1.947  13.987  -3.304  1.00  0.00     0.023 A 
ATOM     81  C   UNL     1      -1.028  15.050  -3.403  1.00  0.00     0.012 A 
ATOM     82  C   UNL     1      -3.328  14.259  -3.369  1.00  0.00     0.148 A 
ATOM     83  C   UNL     1      -1.475  16.364  -3.541  1.00  0.00     0.002 A 
ATOM     84  C   UNL     1      -3.766  15.566  -3.551  1.00  0.00     0.091 A 
ATOM     85  F   UNL     1      -4.189  13.238  -3.252  1.00  0.00    -0.205 F 
ATOM     86  C   UNL     1      -2.841  16.620  -3.628  1.00  0.00     0.022 A 
BRANCH  84  87
ATOM     87  S   UNL     1      -5.503  15.974  -3.769  1.00  0.00     0.127 S 
ATOM     88  O   UNL     1      -5.846  16.526  -2.460  1.00  0.00    -0.237 OA
ATOM     89  O   UNL     1      -5.462  16.956  -4.853  1.00  0.00    -0.237 OA
ATOM     90  O   UNL     1      -6.163  14.723  -4.117  1.00  0.00    -0.744 OA
ENDBRANCH  84  87
ENDBRANCH  57  80
ENDBRANCH  31  32
ENDBRANCH  24  26
ENDBRANCH  23  24
ENDBRANCH  22  23
ENDBRANCH   1  22
TORSDOF 18
