REMARK SMILES COc1cccc(-c2c(C(=O)OCCOC(=O)c3ccc(-c4c5nc(c(-c6cccc(S(=O)(=O)[O-])c6F)c6ccc([nH]6)c(-c6cccc(S(=O)(=O)[O-])c6F)c6nc(c(-c7cccc(S(=O)(=O)[O-])c7F)c7ccc4[nH]7)C=C6)C=C5)cc3)nnn2-c2ccc(OC(F)(F)F)cc2)c1
REMARK SMILES IDX 13 1 12 2 10 3 11 4 9 5 8 6 83 7 81 8 82 9 7 10 3 11 4 12
REMARK SMILES IDX 95 13 5 14 6 15 2 16 1 17 84 18 85 19 94 20 86 21 93 22
REMARK SMILES IDX 87 23 88 24 89 25 90 26 91 27 92 28 14 29 15 30 16 31 17 32
REMARK SMILES IDX 18 33 19 34 80 35 20 36 79 37 21 38 22 39 23 40 73 41 24 42
REMARK SMILES IDX 78 43 72 44 74 45 25 46 77 47 71 48 70 49 26 51 58 52 38 53
REMARK SMILES IDX 57 54 39 55 42 56 56 57 75 58 40 59 41 60 55 62 76 63 43 64
REMARK SMILES IDX 27 65 28 66 36 67 29 68 31 69 37 70 30 71 32 72 33 73 34 74
REMARK SMILES IDX 35 75 59 76 60 77 68 78 61 79 63 80 69 81 62 82 64 83 65 84
REMARK SMILES IDX 66 85 67 86 44 87 45 88 53 89 46 90 48 91 54 92 47 93 49 94
REMARK SMILES IDX 50 95 51 96 52 97
REMARK H PARENT 74 50 42 61
REMARK Flexibility Score: inf
ROOT
ATOM      1  C   UNL     1       1.925  -3.879   6.471  1.00  0.00     0.275 C 
ENDROOT
BRANCH   1   2
ATOM      2  O   UNL     1       2.496  -2.702   5.876  1.00  0.00    -0.457 OA
BRANCH   2   3
ATOM      3  C   UNL     1       3.781  -2.401   6.223  1.00  0.00     0.361 C 
ATOM      4  O   UNL     1       4.373  -2.921   7.165  1.00  0.00    -0.244 OA
BRANCH   3   5
ATOM      5  C   UNL     1       4.401  -1.424   5.334  1.00  0.00     0.198 A 
ATOM      6  C   UNL     1       3.805  -0.504   4.477  1.00  0.00     0.109 A 
ATOM      7  N   UNL     1       4.897   0.167   3.936  1.00  0.00    -0.212 N 
ATOM      8  N   UNL     1       5.768  -1.359   5.184  1.00  0.00    -0.122 NA
ATOM      9  N   UNL     1       6.047  -0.463   4.251  1.00  0.00    -0.061 NA
BRANCH   6  10
ATOM     10  C   UNL     1       2.408  -0.232   4.125  1.00  0.00     0.007 A 
ATOM     11  C   UNL     1       0.710   0.213   2.434  1.00  0.00     0.119 A 
ATOM     12  C   UNL     1      -0.222   0.438   3.449  1.00  0.00     0.046 A 
ATOM     13  C   UNL     1       2.018  -0.139   2.774  1.00  0.00     0.056 A 
ATOM     14  C   UNL     1       0.140   0.305   4.788  1.00  0.00     0.005 A 
ATOM     15  C   UNL     1       1.453  -0.018   5.125  1.00  0.00     0.011 A 
BRANCH  11  16
ATOM     16  O   UNL     1       0.233   0.412   1.168  1.00  0.00    -0.497 OA
ATOM     17  C   UNL     1       0.981  -0.162   0.102  1.00  0.00     0.278 C 
ENDBRANCH  11  16
ENDBRANCH   6  10
BRANCH   7  18
ATOM     18  C   UNL     1       4.920   1.416   3.272  1.00  0.00     0.067 A 
ATOM     19  C   UNL     1       5.802   1.636   2.213  1.00  0.00     0.032 A 
ATOM     20  C   UNL     1       4.065   2.437   3.700  1.00  0.00     0.032 A 
ATOM     21  C   UNL     1       5.764   2.862   1.541  1.00  0.00     0.049 A 
ATOM     22  C   UNL     1       4.066   3.671   3.051  1.00  0.00     0.049 A 
ATOM     23  C   UNL     1       4.898   3.885   1.952  1.00  0.00     0.129 A 
BRANCH  23  24
ATOM     24  O   UNL     1       4.960   5.027   1.206  1.00  0.00    -0.406 OA
BRANCH  24  25
ATOM     25  C   UNL     1       4.121   6.103   1.590  1.00  0.00     0.573 C 
ATOM     26  F   UNL     1       2.817   5.750   1.564  1.00  0.00    -0.132 F 
ATOM     27  F   UNL     1       4.439   6.553   2.823  1.00  0.00    -0.132 F 
ATOM     28  F   UNL     1       4.291   7.122   0.718  1.00  0.00    -0.132 F 
ENDBRANCH  24  25
ENDBRANCH  23  24
ENDBRANCH   7  18
ENDBRANCH   3   5
ENDBRANCH   2   3
ENDBRANCH   1   2
BRANCH   1  29
ATOM     29  C   UNL     1       2.205  -5.105   5.616  1.00  0.00     0.275 C 
BRANCH  29  30
ATOM     30  O   UNL     1       3.586  -5.457   5.663  1.00  0.00    -0.458 OA
BRANCH  30  31
ATOM     31  C   UNL     1       4.333  -4.973   4.644  1.00  0.00     0.338 C 
ATOM     32  O   UNL     1       4.048  -4.044   3.905  1.00  0.00    -0.246 OA
BRANCH  31  33
ATOM     33  C   UNL     1       5.455  -5.881   4.402  1.00  0.00     0.060 A 
ATOM     34  C   UNL     1       6.423  -5.481   3.474  1.00  0.00     0.016 A 
ATOM     35  C   UNL     1       5.374  -7.200   4.870  1.00  0.00     0.016 A 
ATOM     36  C   UNL     1       7.221  -6.447   2.898  1.00  0.00     0.010 A 
ATOM     37  C   UNL     1       6.155  -8.163   4.280  1.00  0.00     0.010 A 
ATOM     38  C   UNL     1       7.023  -7.783   3.259  1.00  0.00    -0.014 A 
BRANCH  38  39
ATOM     39  C   UNL     1       7.801  -8.803   2.590  1.00  0.00     0.031 A 
ATOM     40  C   UNL     1       9.196  -8.905   3.068  1.00  0.00     0.074 A 
ATOM     41  C   UNL     1       7.235  -9.675   1.736  1.00  0.00     0.049 A 
ATOM     42  N   UNL     1      10.279  -8.694   2.398  1.00  0.00    -0.248 NA
ATOM     43  C   UNL     1       9.406  -9.133   4.506  1.00  0.00     0.031 C 
ATOM     44  C   UNL     1       5.805  -9.845   1.456  1.00  0.00     0.029 A 
ATOM     45  N   UNL     1       7.815 -10.701   1.056  1.00  0.00    -0.354 N 
ATOM     46  C   UNL     1      11.314  -8.988   3.281  1.00  0.00     0.074 A 
ATOM     47  C   UNL     1      10.732  -9.048   4.594  1.00  0.00     0.031 C 
ATOM     48  C   UNL     1       5.614 -11.047   0.868  1.00  0.00     0.029 A 
ATOM     49  C   UNL     1       6.908 -11.659   0.623  1.00  0.00     0.049 A 
ATOM     50  H   UNL     1       8.783 -10.759   0.888  1.00  0.00     0.167 HD
ATOM     51  C   UNL     1      12.520  -9.427   2.835  1.00  0.00     0.034 A 
ATOM     52  C   UNL     1       7.204 -12.902   0.175  1.00  0.00     0.034 A 
ATOM     53  C   UNL     1      12.691  -9.175   1.429  1.00  0.00     0.049 A 
ATOM     54  C   UNL     1       8.631 -12.909  -0.217  1.00  0.00     0.074 A 
ATOM     55  C   UNL     1      12.733  -8.054   0.627  1.00  0.00     0.029 A 
ATOM     56  N   UNL     1      12.499 -10.247   0.594  1.00  0.00    -0.354 N 
ATOM     57  N   UNL     1       9.105 -12.242  -1.231  1.00  0.00    -0.248 NA
ATOM     58  C   UNL     1       9.621 -13.362   0.747  1.00  0.00     0.031 C 
ATOM     59  C   UNL     1      12.163  -8.461  -0.614  1.00  0.00     0.029 A 
ATOM     60  C   UNL     1      11.825  -9.813  -0.514  1.00  0.00     0.049 A 
ATOM     61  H   UNL     1      12.795 -11.170   0.764  1.00  0.00     0.167 HD
ATOM     62  C   UNL     1      10.356 -11.811  -0.810  1.00  0.00     0.074 A 
ATOM     63  C   UNL     1      10.677 -12.655   0.336  1.00  0.00     0.031 C 
ATOM     64  C   UNL     1      10.870 -10.622  -1.244  1.00  0.00     0.034 A 
BRANCH  51  65
ATOM     65  C   UNL     1      13.386 -10.431   3.562  1.00  0.00     0.023 A 
ATOM     66  C   UNL     1      14.676 -10.664   3.035  1.00  0.00     0.012 A 
ATOM     67  C   UNL     1      12.916 -11.347   4.531  1.00  0.00     0.148 A 
ATOM     68  C   UNL     1      15.432 -11.779   3.410  1.00  0.00     0.002 A 
ATOM     69  C   UNL     1      13.706 -12.406   4.963  1.00  0.00     0.091 A 
ATOM     70  F   UNL     1      11.648 -11.299   4.947  1.00  0.00    -0.205 F 
ATOM     71  C   UNL     1      14.951 -12.647   4.381  1.00  0.00     0.022 A 
BRANCH  69  72
ATOM     72  S   UNL     1      13.144 -13.520   6.256  1.00  0.00     0.127 S 
ATOM     73  O   UNL     1      12.720 -14.680   5.480  1.00  0.00    -0.237 OA
ATOM     74  O   UNL     1      14.364 -13.711   7.041  1.00  0.00    -0.237 OA
ATOM     75  O   UNL     1      12.094 -12.794   6.960  1.00  0.00    -0.744 OA
ENDBRANCH  69  72
ENDBRANCH  51  65
BRANCH  52  76
ATOM     76  C   UNL     1       6.397 -14.138   0.257  1.00  0.00     0.023 A 
ATOM     77  C   UNL     1       6.618 -15.182  -0.660  1.00  0.00     0.012 A 
ATOM     78  C   UNL     1       5.578 -14.395   1.380  1.00  0.00     0.148 A 
ATOM     79  C   UNL     1       6.056 -16.448  -0.457  1.00  0.00     0.002 A 
ATOM     80  C   UNL     1       5.012 -15.651   1.572  1.00  0.00     0.091 A 
ATOM     81  F   UNL     1       5.424 -13.432   2.299  1.00  0.00    -0.205 F 
ATOM     82  C   UNL     1       5.259 -16.684   0.661  1.00  0.00     0.022 A 
BRANCH  80  83
ATOM     83  S   UNL     1       3.984 -16.035   2.997  1.00  0.00     0.127 S 
ATOM     84  O   UNL     1       2.800 -16.620   2.365  1.00  0.00    -0.237 OA
ATOM     85  O   UNL     1       4.820 -16.983   3.727  1.00  0.00    -0.237 OA
ATOM     86  O   UNL     1       3.738 -14.765   3.668  1.00  0.00    -0.744 OA
ENDBRANCH  80  83
ENDBRANCH  52  76
BRANCH  64  87
ATOM     87  C   UNL     1      10.191  -9.950  -2.413  1.00  0.00     0.023 A 
ATOM     88  C   UNL     1       8.868  -9.466  -2.326  1.00  0.00     0.012 A 
ATOM     89  C   UNL     1      10.955  -9.638  -3.550  1.00  0.00     0.148 A 
ATOM     90  C   UNL     1       8.312  -8.710  -3.360  1.00  0.00     0.002 A 
ATOM     91  C   UNL     1      10.415  -8.844  -4.554  1.00  0.00     0.091 A 
ATOM     92  F   UNL     1      12.215 -10.096  -3.612  1.00  0.00    -0.205 F 
ATOM     93  C   UNL     1       9.090  -8.387  -4.468  1.00  0.00     0.022 A 
BRANCH  91  94
ATOM     94  S   UNL     1      11.402  -8.275  -5.941  1.00  0.00     0.127 S 
ATOM     95  O   UNL     1      10.883  -9.087  -7.040  1.00  0.00    -0.237 OA
ATOM     96  O   UNL     1      11.053  -6.855  -6.012  1.00  0.00    -0.237 OA
ATOM     97  O   UNL     1      12.791  -8.528  -5.577  1.00  0.00    -0.744 OA
ENDBRANCH  91  94
ENDBRANCH  64  87
ENDBRANCH  38  39
ENDBRANCH  31  33
ENDBRANCH  30  31
ENDBRANCH  29  30
ENDBRANCH   1  29
TORSDOF 19
