REMARK SMILES C[C@](NC(=O)N1CCC[NH2+]CC1)(C(=O)OCCOC(=O)c1ccc(-c2c3nc(c(-c4cccc(S(=O)(=O)[O-])c4F)c4ccc([nH]4)c(-c4cccc(S(=O)(=O)[O-])c4F)c4nc(c(-c5cccc(S(=O)(=O)[O-])c5F)c5ccc2[nH]5)C=C4)C=C3)cc1)C(F)(F)F
REMARK SMILES IDX 15 1 13 2 14 3 2 4 1 5 84 6 85 7 86 8 87 9 3 10 4 11 5 13
REMARK SMILES IDX 6 14 7 15 8 16 12 18 11 19 10 20 9 23 16 25 17 26 18 27
REMARK SMILES IDX 19 28 20 29 21 30 22 31 83 32 23 33 82 34 24 35 25 36 26 37
REMARK SMILES IDX 76 38 27 39 81 40 75 41 77 42 28 43 80 44 74 45 73 46 29 48
REMARK SMILES IDX 61 49 41 50 60 51 42 52 45 53 59 54 78 55 43 56 44 57 58 59
REMARK SMILES IDX 79 60 46 61 30 62 31 63 39 64 32 65 34 66 40 67 33 68 35 69
REMARK SMILES IDX 36 70 37 71 38 72 62 73 63 74 71 75 64 76 66 77 72 78 65 79
REMARK SMILES IDX 67 80 68 81 69 82 70 83 47 84 48 85 56 86 49 87 51 88 57 89
REMARK SMILES IDX 50 90 52 91 53 92 54 93 55 94
REMARK H PARENT 3 12 10 21 10 22 77 47 45 58
REMARK Flexibility Score: 80.00
ROOT
ATOM      1  O   UNL     1      -1.508   0.940   0.093  1.00  0.00    -0.460 OA
ENDROOT
BRANCH   1   2
ATOM      2  C   UNL     1      -0.873   1.430   1.201  1.00  0.00     0.341 C 
ATOM      3  O   UNL     1      -1.469   1.737   2.227  1.00  0.00    -0.249 OA
BRANCH   2   4
ATOM      4  C   UNL     1       0.624   1.724   0.963  1.00  0.00     0.232 C 
ATOM      5  C   UNL     1       0.702   3.259   1.012  1.00  0.00     0.058 C 
BRANCH   4   6
ATOM      6  C   UNL     1       1.366   1.085   2.147  1.00  0.00     0.422 C 
ATOM      7  F   UNL     1       1.328  -0.267   2.061  1.00  0.00    -0.168 F 
ATOM      8  F   UNL     1       2.678   1.423   2.163  1.00  0.00    -0.168 F 
ATOM      9  F   UNL     1       0.874   1.439   3.351  1.00  0.00    -0.168 F 
ENDBRANCH   4   6
BRANCH   4  10
ATOM     10  N   UNL     1       1.055   1.106  -0.336  1.00  0.00    -0.315 N 
ATOM     11  C   UNL     1       1.774   1.479  -1.409  1.00  0.00     0.318 C 
ATOM     12  H   UNL     1       0.723   0.183  -0.426  1.00  0.00     0.166 HD
ATOM     13  O   UNL     1       1.698   0.769  -2.413  1.00  0.00    -0.249 OA
BRANCH  11  14
ATOM     14  N   UNL     1       2.436   2.671  -1.417  1.00  0.00    -0.319 N 
BRANCH  14  15
ATOM     15  C   UNL     1       3.492   3.005  -0.460  1.00  0.00     0.127 C 
BRANCH  15  16
ATOM     16  C   UNL     1       4.893   2.625  -0.927  1.00  0.00     0.083 CG0
ATOM     17  G   UNL     1       5.548   3.587  -1.920  1.00  0.00     0.000 G0
ENDBRANCH  15  16
ENDBRANCH  14  15
BRANCH  14  18
ATOM     18  C   UNL     1       2.355   3.451  -2.647  1.00  0.00     0.182 C 
BRANCH  18  19
ATOM     19  C   UNL     1       3.656   3.539  -3.457  1.00  0.00     0.282 C 
BRANCH  19  20
ATOM     20  N   UNL     1       4.678   4.360  -2.799  1.00  0.00    -0.345 N 
ATOM     21  H   UNL     1       5.252   4.803  -3.517  1.00  0.00     0.346 HD
ATOM     22  H   UNL     1       4.194   5.048  -2.223  1.00  0.00     0.346 HD
BRANCH  20  23
ATOM     23  C   UNL     1       5.548   3.587  -1.920  1.00  0.00     0.262 CG0
ATOM     24  G   UNL     1       4.893   2.625  -0.927  1.00  0.00     0.000 G0
ENDBRANCH  20  23
ENDBRANCH  19  20
ENDBRANCH  18  19
ENDBRANCH  14  18
ENDBRANCH  11  14
ENDBRANCH   4  10
ENDBRANCH   2   4
ENDBRANCH   1   2
BRANCH   1  25
ATOM     25  C   UNL     1      -2.952   1.004   0.121  1.00  0.00     0.274 C 
BRANCH  25  26
ATOM     26  C   UNL     1      -3.594  -0.360   0.358  1.00  0.00     0.275 C 
BRANCH  26  27
ATOM     27  O   UNL     1      -3.221  -0.866   1.649  1.00  0.00    -0.458 OA
BRANCH  27  28
ATOM     28  C   UNL     1      -2.434  -1.963   1.633  1.00  0.00     0.338 C 
ATOM     29  O   UNL     1      -2.056  -2.589   0.652  1.00  0.00    -0.246 OA
BRANCH  28  30
ATOM     30  C   UNL     1      -1.962  -2.259   2.990  1.00  0.00     0.060 A 
ATOM     31  C   UNL     1      -0.944  -1.465   3.503  1.00  0.00     0.016 A 
ATOM     32  C   UNL     1      -2.370  -3.402   3.671  1.00  0.00     0.016 A 
ATOM     33  C   UNL     1      -0.238  -1.866   4.630  1.00  0.00     0.010 A 
ATOM     34  C   UNL     1      -1.724  -3.753   4.865  1.00  0.00     0.010 A 
ATOM     35  C   UNL     1      -0.614  -3.020   5.327  1.00  0.00    -0.014 A 
BRANCH  35  36
ATOM     36  C   UNL     1       0.217  -3.487   6.472  1.00  0.00     0.031 A 
ATOM     37  C   UNL     1       0.877  -4.842   6.425  1.00  0.00     0.074 A 
ATOM     38  C   UNL     1       0.438  -2.681   7.531  1.00  0.00     0.049 A 
ATOM     39  N   UNL     1       1.542  -5.469   7.361  1.00  0.00    -0.248 NA
ATOM     40  C   UNL     1       0.767  -5.597   5.165  1.00  0.00     0.031 C 
ATOM     41  C   UNL     1      -0.114  -1.335   7.698  1.00  0.00     0.029 A 
ATOM     42  N   UNL     1       1.197  -2.868   8.660  1.00  0.00    -0.354 N 
ATOM     43  C   UNL     1       1.857  -6.716   6.835  1.00  0.00     0.074 A 
ATOM     44  C   UNL     1       1.324  -6.755   5.490  1.00  0.00     0.031 C 
ATOM     45  C   UNL     1       0.360  -0.802   8.834  1.00  0.00     0.029 A 
ATOM     46  C   UNL     1       1.190  -1.790   9.515  1.00  0.00     0.049 A 
ATOM     47  H   UNL     1       1.699  -3.695   8.841  1.00  0.00     0.167 HD
ATOM     48  C   UNL     1       2.540  -7.733   7.411  1.00  0.00     0.034 A 
ATOM     49  C   UNL     1       1.768  -1.619  10.721  1.00  0.00     0.034 A 
ATOM     50  C   UNL     1       3.153  -7.664   8.710  1.00  0.00     0.049 A 
ATOM     51  C   UNL     1       2.577  -2.740  11.309  1.00  0.00     0.074 A 
ATOM     52  C   UNL     1       3.853  -8.647   9.387  1.00  0.00     0.029 A 
ATOM     53  N   UNL     1       3.173  -6.534   9.513  1.00  0.00    -0.354 N 
ATOM     54  N   UNL     1       2.857  -3.914  10.795  1.00  0.00    -0.248 NA
ATOM     55  C   UNL     1       3.159  -2.514  12.641  1.00  0.00     0.031 C 
ATOM     56  C   UNL     1       4.312  -8.105  10.594  1.00  0.00     0.029 A 
ATOM     57  C   UNL     1       3.893  -6.787  10.668  1.00  0.00     0.049 A 
ATOM     58  H   UNL     1       2.739  -5.678   9.295  1.00  0.00     0.167 HD
ATOM     59  C   UNL     1       3.642  -4.565  11.738  1.00  0.00     0.074 A 
ATOM     60  C   UNL     1       3.836  -3.638  12.834  1.00  0.00     0.031 C 
ATOM     61  C   UNL     1       4.123  -5.832  11.720  1.00  0.00     0.034 A 
BRANCH  48  62
ATOM     62  C   UNL     1       2.695  -9.004   6.620  1.00  0.00     0.023 A 
ATOM     63  C   UNL     1       3.653  -9.069   5.590  1.00  0.00     0.012 A 
ATOM     64  C   UNL     1       1.925 -10.144   6.924  1.00  0.00     0.148 A 
ATOM     65  C   UNL     1       3.829 -10.243   4.859  1.00  0.00     0.002 A 
ATOM     66  C   UNL     1       2.130 -11.322   6.213  1.00  0.00     0.091 A 
ATOM     67  F   UNL     1       0.998 -10.053   7.888  1.00  0.00    -0.205 F 
ATOM     68  C   UNL     1       3.076 -11.371   5.177  1.00  0.00     0.022 A 
BRANCH  66  69
ATOM     69  S   UNL     1       1.249 -12.840   6.600  1.00  0.00     0.127 S 
ATOM     70  O   UNL     1       0.238 -12.873   5.545  1.00  0.00    -0.237 OA
ATOM     71  O   UNL     1       2.298 -13.853   6.471  1.00  0.00    -0.237 OA
ATOM     72  O   UNL     1       0.744 -12.668   7.955  1.00  0.00    -0.744 OA
ENDBRANCH  66  69
ENDBRANCH  48  62
BRANCH  49  73
ATOM     73  C   UNL     1       1.621  -0.317  11.434  1.00  0.00     0.023 A 
ATOM     74  C   UNL     1       2.744   0.520  11.586  1.00  0.00     0.012 A 
ATOM     75  C   UNL     1       0.372   0.122  11.912  1.00  0.00     0.148 A 
ATOM     76  C   UNL     1       2.626   1.762  12.213  1.00  0.00     0.002 A 
ATOM     77  C   UNL     1       0.250   1.387  12.476  1.00  0.00     0.091 A 
ATOM     78  F   UNL     1      -0.684  -0.695  11.793  1.00  0.00    -0.205 F 
ATOM     79  C   UNL     1       1.377   2.203  12.643  1.00  0.00     0.022 A 
BRANCH  77  80
ATOM     80  S   UNL     1      -1.365   2.062  12.886  1.00  0.00     0.127 S 
ATOM     81  O   UNL     1      -1.522   1.653  14.278  1.00  0.00    -0.237 OA
ATOM     82  O   UNL     1      -1.170   3.499  12.685  1.00  0.00    -0.237 OA
ATOM     83  O   UNL     1      -2.272   1.451  11.923  1.00  0.00    -0.744 OA
ENDBRANCH  77  80
ENDBRANCH  49  73
BRANCH  61  84
ATOM     84  C   UNL     1       4.898  -6.292  12.924  1.00  0.00     0.023 A 
ATOM     85  C   UNL     1       4.197  -6.640  14.096  1.00  0.00     0.012 A 
ATOM     86  C   UNL     1       6.297  -6.436  12.884  1.00  0.00     0.148 A 
ATOM     87  C   UNL     1       4.881  -7.101  15.220  1.00  0.00     0.002 A 
ATOM     88  C   UNL     1       6.969  -6.928  13.998  1.00  0.00     0.091 A 
ATOM     89  F   UNL     1       6.951  -6.075  11.770  1.00  0.00    -0.205 F 
ATOM     90  C   UNL     1       6.264  -7.255  15.168  1.00  0.00     0.022 A 
BRANCH  88  91
ATOM     91  S   UNL     1       8.742  -7.217  13.973  1.00  0.00     0.127 S 
ATOM     92  O   UNL     1       9.260  -5.965  14.519  1.00  0.00    -0.237 OA
ATOM     93  O   UNL     1       8.893  -8.375  14.856  1.00  0.00    -0.237 OA
ATOM     94  O   UNL     1       9.066  -7.487  12.578  1.00  0.00    -0.744 OA
ENDBRANCH  88  91
ENDBRANCH  61  84
ENDBRANCH  35  36
ENDBRANCH  28  30
ENDBRANCH  27  28
ENDBRANCH  26  27
ENDBRANCH  25  26
ENDBRANCH   1  25
TORSDOF 17
