REMARK SMILES Cc1nc2sc3c(c2c2nc(CCC(=O)OCCOC(=O)c4ccc(-c5c6nc(c(-c7cccc(S(=O)(=O)[O-])c7F)c7ccc([nH]7)c(-c7cccc(S(=O)(=O)[O-])c7F)c7nc(c(-c8cccc(S(=O)(=O)[O-])c8F)c8ccc5[nH]8)C=C7)C=C6)cc4)nn12)[C@@H](C)CCC3
REMARK SMILES IDX 18 1 17 2 16 3 14 4 15 5 13 6 12 7 11 8 1 9 2 10 3 11 86 12
REMARK SMILES IDX 4 13 9 14 85 15 5 16 8 17 10 18 6 19 7 20 91 21 87 22 90 23
REMARK SMILES IDX 88 24 89 25 19 26 20 27 21 28 22 29 23 30 84 31 24 32 83 33
REMARK SMILES IDX 25 34 26 35 27 36 77 37 28 38 82 39 76 40 78 41 29 42 81 43
REMARK SMILES IDX 75 44 74 45 30 47 62 48 42 49 61 50 43 51 46 52 60 53 79 54
REMARK SMILES IDX 44 55 45 56 59 58 80 59 47 60 31 61 32 62 40 63 33 64 35 65
REMARK SMILES IDX 41 66 34 67 36 68 37 69 38 70 39 71 63 72 64 73 72 74 65 75
REMARK SMILES IDX 67 76 73 77 66 78 68 79 69 80 70 81 71 82 48 83 49 84 57 85
REMARK SMILES IDX 50 86 52 87 58 88 51 89 53 90 54 91 55 92 56 93
REMARK H PARENT 78 46 46 57
REMARK Flexibility Score: inf
ROOT
ATOM      1  C   UNL     1      -0.455   3.914  -7.633  1.00  0.00     0.275 C 
ENDROOT
BRANCH   1   2
ATOM      2  C   UNL     1       0.993   4.073  -7.179  1.00  0.00     0.274 C 
BRANCH   2   3
ATOM      3  O   UNL     1       1.156   3.935  -5.752  1.00  0.00    -0.462 OA
BRANCH   3   4
ATOM      4  C   UNL     1       1.118   5.078  -5.021  1.00  0.00     0.306 C 
ATOM      5  O   UNL     1       0.988   6.205  -5.487  1.00  0.00    -0.252 OA
BRANCH   4   6
ATOM      6  C   UNL     1       1.369   4.821  -3.556  1.00  0.00     0.131 C 
BRANCH   6   7
ATOM      7  C   UNL     1       0.174   4.293  -2.775  1.00  0.00     0.091 C 
BRANCH   7   8
ATOM      8  C   UNL     1       0.103   2.804  -2.718  1.00  0.00     0.152 A 
ATOM      9  C   UNL     1       1.081  -0.054   0.099  1.00  0.00     0.090 C 
ATOM     10  C   UNL     1       0.468  -0.299  -1.244  1.00  0.00     0.131 A 
ATOM     11  N   UNL     1       0.212  -1.504  -1.689  1.00  0.00    -0.222 NA
ATOM     12  N   UNL     1       0.239   0.854  -2.003  1.00  0.00    -0.199 N 
ATOM     13  C   UNL     1      -0.282  -1.572  -2.970  1.00  0.00     0.129 A 
ATOM     14  C   UNL     1      -0.268   0.810  -3.271  1.00  0.00     0.168 A 
ATOM     15  N   UNL     1       0.523   2.121  -1.636  1.00  0.00    -0.150 NA
ATOM     16  S   UNL     1      -0.636  -3.072  -3.710  1.00  0.00    -0.120 S 
ATOM     17  C   UNL     1      -0.536  -0.527  -3.849  1.00  0.00     0.060 A 
ATOM     18  N   UNL     1      -0.382   2.026  -3.744  1.00  0.00    -0.211 NA
ATOM     19  C   UNL     1      -1.062  -2.322  -5.180  1.00  0.00     0.011 A 
ATOM     20  C   UNL     1      -0.938  -0.943  -5.149  1.00  0.00    -0.018 A 
ATOM     21  C   UNL     1      -1.474  -3.116  -6.379  1.00  0.00     0.047 C 
ATOM     22  C   UNL     1      -1.187  -0.093  -6.372  1.00  0.00     0.018 C 
ATOM     23  C   UNL     1      -2.289  -2.231  -7.329  1.00  0.00     0.006 C 
ATOM     24  C   UNL     1       0.055   0.726  -6.722  1.00  0.00     0.013 C 
ATOM     25  C   UNL     1      -1.544  -0.930  -7.630  1.00  0.00     0.008 C 
ENDBRANCH   7   8
ENDBRANCH   6   7
ENDBRANCH   4   6
ENDBRANCH   3   4
ENDBRANCH   2   3
ENDBRANCH   1   2
BRANCH   1  26
ATOM     26  O   UNL     1      -1.228   5.088  -7.418  1.00  0.00    -0.458 OA
BRANCH  26  27
ATOM     27  C   UNL     1      -1.852   5.086  -6.220  1.00  0.00     0.338 C 
ATOM     28  O   UNL     1      -1.614   4.403  -5.245  1.00  0.00    -0.246 OA
BRANCH  27  29
ATOM     29  C   UNL     1      -3.044   5.902  -6.304  1.00  0.00     0.060 A 
ATOM     30  C   UNL     1      -3.369   6.729  -5.228  1.00  0.00     0.016 A 
ATOM     31  C   UNL     1      -3.909   5.667  -7.378  1.00  0.00     0.016 A 
ATOM     32  C   UNL     1      -4.605   7.340  -5.231  1.00  0.00     0.010 A 
ATOM     33  C   UNL     1      -5.144   6.264  -7.370  1.00  0.00     0.010 A 
ATOM     34  C   UNL     1      -5.481   7.088  -6.294  1.00  0.00    -0.014 A 
BRANCH  34  35
ATOM     35  C   UNL     1      -6.708   7.853  -6.360  1.00  0.00     0.031 A 
ATOM     36  C   UNL     1      -6.520   9.274  -6.747  1.00  0.00     0.074 A 
ATOM     37  C   UNL     1      -7.920   7.277  -6.296  1.00  0.00     0.049 A 
ATOM     38  N   UNL     1      -6.863  10.331  -6.088  1.00  0.00    -0.248 NA
ATOM     39  C   UNL     1      -5.749   9.551  -7.970  1.00  0.00     0.031 C 
ATOM     40  C   UNL     1      -8.224   5.844  -6.280  1.00  0.00     0.029 A 
ATOM     41  N   UNL     1      -9.141   7.864  -6.403  1.00  0.00    -0.354 N 
ATOM     42  C   UNL     1      -6.533  11.407  -6.911  1.00  0.00     0.074 A 
ATOM     43  C   UNL     1      -5.702  10.881  -7.959  1.00  0.00     0.031 C 
ATOM     44  C   UNL     1      -9.519   5.673  -6.622  1.00  0.00     0.029 A 
ATOM     45  C   UNL     1     -10.148   6.976  -6.751  1.00  0.00     0.049 A 
ATOM     46  H   UNL     1      -9.295   8.824  -6.249  1.00  0.00     0.167 HD
ATOM     47  C   UNL     1      -7.155  12.610  -6.794  1.00  0.00     0.034 A 
ATOM     48  C   UNL     1     -11.382   7.304  -7.196  1.00  0.00     0.034 A 
ATOM     49  C   UNL     1      -7.826  12.734  -5.526  1.00  0.00     0.049 A 
ATOM     50  C   UNL     1     -11.638   8.711  -6.807  1.00  0.00     0.074 A 
ATOM     51  C   UNL     1      -7.433  12.701  -4.204  1.00  0.00     0.029 A 
ATOM     52  N   UNL     1      -9.190  12.582  -5.527  1.00  0.00    -0.354 N 
ATOM     53  N   UNL     1     -11.791   9.113  -5.575  1.00  0.00    -0.248 NA
ATOM     54  C   UNL     1     -11.383   9.764  -7.777  1.00  0.00     0.031 C 
ATOM     55  C   UNL     1      -8.524  12.107  -3.507  1.00  0.00     0.029 A 
ATOM     56  C   UNL     1      -9.529  11.828  -4.437  1.00  0.00     0.049 A 
ATOM     57  H   UNL     1      -9.814  12.950  -6.194  1.00  0.00     0.167 HD
ATOM     58  C   UNL     1     -11.227  10.382  -5.548  1.00  0.00     0.074 A 
ATOM     59  C   UNL     1     -11.146  10.784  -6.948  1.00  0.00     0.031 C 
ATOM     60  C   UNL     1     -10.609  10.858  -4.425  1.00  0.00     0.034 A 
BRANCH  47  61
ATOM     61  C   UNL     1      -7.460  13.546  -7.944  1.00  0.00     0.023 A 
ATOM     62  C   UNL     1      -8.046  14.792  -7.618  1.00  0.00     0.012 A 
ATOM     63  C   UNL     1      -7.462  13.184  -9.311  1.00  0.00     0.148 A 
ATOM     64  C   UNL     1      -8.660  15.596  -8.584  1.00  0.00     0.002 A 
ATOM     65  C   UNL     1      -7.995  14.029 -10.280  1.00  0.00     0.091 A 
ATOM     66  F   UNL     1      -7.075  11.964  -9.691  1.00  0.00    -0.205 F 
ATOM     67  C   UNL     1      -8.628  15.218  -9.919  1.00  0.00     0.022 A 
BRANCH  65  68
ATOM     68  S   UNL     1      -7.903  13.610 -12.026  1.00  0.00     0.127 S 
ATOM     69  O   UNL     1      -9.230  13.054 -12.267  1.00  0.00    -0.237 OA
ATOM     70  O   UNL     1      -7.657  14.915 -12.641  1.00  0.00    -0.237 OA
ATOM     71  O   UNL     1      -6.782  12.684 -12.136  1.00  0.00    -0.744 OA
ENDBRANCH  65  68
ENDBRANCH  47  61
BRANCH  48  72
ATOM     72  C   UNL     1     -12.289   6.547  -8.086  1.00  0.00     0.023 A 
ATOM     73  C   UNL     1     -13.667   6.832  -8.069  1.00  0.00     0.012 A 
ATOM     74  C   UNL     1     -11.793   5.711  -9.113  1.00  0.00     0.148 A 
ATOM     75  C   UNL     1     -14.520   6.323  -9.055  1.00  0.00     0.002 A 
ATOM     76  C   UNL     1     -12.648   5.192 -10.080  1.00  0.00     0.091 A 
ATOM     77  F   UNL     1     -10.472   5.499  -9.196  1.00  0.00    -0.205 F 
ATOM     78  C   UNL     1     -14.012   5.506 -10.060  1.00  0.00     0.022 A 
BRANCH  76  79
ATOM     79  S   UNL     1     -12.057   4.132 -11.408  1.00  0.00     0.127 S 
ATOM     80  O   UNL     1     -13.070   3.075 -11.430  1.00  0.00    -0.237 OA
ATOM     81  O   UNL     1     -12.092   5.036 -12.554  1.00  0.00    -0.237 OA
ATOM     82  O   UNL     1     -10.735   3.680 -10.994  1.00  0.00    -0.744 OA
ENDBRANCH  76  79
ENDBRANCH  48  72
BRANCH  60  83
ATOM     83  C   UNL     1     -10.801  10.112  -3.123  1.00  0.00     0.023 A 
ATOM     84  C   UNL     1     -10.390   8.771  -2.974  1.00  0.00     0.012 A 
ATOM     85  C   UNL     1     -11.185  10.831  -1.976  1.00  0.00     0.148 A 
ATOM     86  C   UNL     1     -10.379   8.155  -1.721  1.00  0.00     0.002 A 
ATOM     87  C   UNL     1     -11.115  10.233  -0.721  1.00  0.00     0.091 A 
ATOM     88  F   UNL     1     -11.571  12.107  -2.124  1.00  0.00    -0.205 F 
ATOM     89  C   UNL     1     -10.723   8.891  -0.592  1.00  0.00     0.022 A 
BRANCH  87  90
ATOM     90  S   UNL     1     -11.380  11.172   0.786  1.00  0.00     0.127 S 
ATOM     91  O   UNL     1     -12.721  10.746   1.182  1.00  0.00    -0.237 OA
ATOM     92  O   UNL     1     -10.304  10.689   1.655  1.00  0.00    -0.237 OA
ATOM     93  O   UNL     1     -11.250  12.575   0.409  1.00  0.00    -0.744 OA
ENDBRANCH  87  90
ENDBRANCH  60  83
ENDBRANCH  34  35
ENDBRANCH  27  29
ENDBRANCH  26  27
ENDBRANCH   1  26
TORSDOF 16
