REMARK SMILES CCCCCCNC(=O)Oc1cccc(-c2ccc([C@@H](C)C(=O)OCCOC(=O)c3ccc(-c4c5nc(c(-c6cccc(S(=O)(=O)[O-])c6F)c6ccc([nH]6)c(-c6cccc(S(=O)(=O)[O-])c6F)c6nc(c(-c7cccc(S(=O)(=O)[O-])c7F)c7ccc4[nH]7)C=C6)C=C5)cc3)cc2)c1
REMARK SMILES IDX 20 1 21 2 19 3 16 4 17 5 94 6 18 7 93 8 15 9 11 10 12 11
REMARK SMILES IDX 95 12 13 13 14 14 10 15 8 16 7 17 9 19 6 20 5 21 4 22 3 23
REMARK SMILES IDX 2 24 1 25 22 26 23 27 24 28 25 29 26 30 27 31 28 32 29 33
REMARK SMILES IDX 30 34 31 35 92 36 32 37 91 38 33 39 34 40 35 41 85 42 36 43
REMARK SMILES IDX 90 44 84 45 86 46 37 47 89 48 83 49 82 50 38 52 70 53 50 54
REMARK SMILES IDX 69 55 51 56 54 57 68 58 87 59 52 60 53 61 67 63 88 64 55 65
REMARK SMILES IDX 39 66 40 67 48 68 41 69 43 70 49 71 42 72 44 73 45 74 46 75
REMARK SMILES IDX 47 76 71 77 72 78 80 79 73 80 75 81 81 82 74 83 76 84 77 85
REMARK SMILES IDX 78 86 79 87 56 88 57 89 65 90 58 91 60 92 66 93 59 94 61 95
REMARK SMILES IDX 62 96 63 97 64 98
REMARK H PARENT 7 18 86 51 54 62
REMARK Flexibility Score: inf
ROOT
ATOM      1  C   UNL     1      -5.150  10.152  -9.473  1.00  0.00     0.126 C 
ATOM      2  C   UNL     1      -6.402  10.967  -9.794  1.00  0.00     0.025 C 
ENDROOT
BRANCH   1   3
ATOM      3  C   UNL     1      -5.171   9.585  -8.062  1.00  0.00    -0.034 A 
ATOM      4  C   UNL     1      -5.219   8.477  -5.443  1.00  0.00    -0.018 A 
ATOM      5  C   UNL     1      -5.315   9.861  -5.648  1.00  0.00     0.009 A 
ATOM      6  C   UNL     1      -5.088   7.656  -6.572  1.00  0.00     0.009 A 
ATOM      7  C   UNL     1      -5.297  10.408  -6.935  1.00  0.00     0.005 A 
ATOM      8  C   UNL     1      -5.066   8.201  -7.861  1.00  0.00     0.005 A 
BRANCH   4   9
ATOM      9  C   UNL     1      -5.279   7.908  -4.087  1.00  0.00    -0.015 A 
ATOM     10  C   UNL     1      -4.373   6.518  -2.317  1.00  0.00     0.133 A 
ATOM     11  C   UNL     1      -5.452   6.819  -1.488  1.00  0.00     0.047 A 
ATOM     12  C   UNL     1      -4.285   7.038  -3.610  1.00  0.00     0.056 A 
ATOM     13  C   UNL     1      -6.444   7.679  -1.948  1.00  0.00     0.004 A 
ATOM     14  C   UNL     1      -6.356   8.217  -3.234  1.00  0.00     0.009 A 
BRANCH  10  15
ATOM     15  O   UNL     1      -3.449   5.578  -1.834  1.00  0.00    -0.410 OA
BRANCH  15  16
ATOM     16  C   UNL     1      -2.117   5.961  -1.772  1.00  0.00     0.412 C 
ATOM     17  N   UNL     1      -1.301   4.984  -1.266  1.00  0.00    -0.321 N 
ATOM     18  H   UNL     1      -0.337   5.184  -1.246  1.00  0.00     0.167 HD
ATOM     19  O   UNL     1      -1.663   7.052  -2.093  1.00  0.00    -0.224 OA
BRANCH  17  20
ATOM     20  C   UNL     1      -1.704   3.688  -0.758  1.00  0.00     0.119 C 
BRANCH  20  21
ATOM     21  C   UNL     1      -1.070   2.534  -1.532  1.00  0.00     0.021 C 
BRANCH  21  22
ATOM     22  C   UNL     1       0.459   2.454  -1.443  1.00  0.00     0.002 C 
BRANCH  22  23
ATOM     23  C   UNL     1       1.038   2.321  -0.030  1.00  0.00    -0.000 C 
BRANCH  23  24
ATOM     24  C   UNL     1       0.555   1.109   0.772  1.00  0.00    -0.003 C 
ATOM     25  C   UNL     1       0.935  -0.222   0.141  1.00  0.00     0.004 C 
ENDBRANCH  23  24
ENDBRANCH  22  23
ENDBRANCH  21  22
ENDBRANCH  20  21
ENDBRANCH  17  20
ENDBRANCH  15  16
ENDBRANCH  10  15
ENDBRANCH   4   9
ENDBRANCH   1   3
BRANCH   1  26
ATOM     26  C   UNL     1      -3.906  10.945  -9.860  1.00  0.00     0.313 C 
ATOM     27  O   UNL     1      -3.569  11.092 -11.030  1.00  0.00    -0.252 OA
BRANCH  26  28
ATOM     28  O   UNL     1      -3.256  11.499  -8.803  1.00  0.00    -0.462 OA
BRANCH  28  29
ATOM     29  C   UNL     1      -2.026  12.191  -9.086  1.00  0.00     0.274 C 
BRANCH  29  30
ATOM     30  C   UNL     1      -0.820  11.338  -8.693  1.00  0.00     0.275 C 
BRANCH  30  31
ATOM     31  O   UNL     1      -0.711  10.188  -9.549  1.00  0.00    -0.458 OA
BRANCH  31  32
ATOM     32  C   UNL     1      -1.176   9.030  -9.026  1.00  0.00     0.338 C 
ATOM     33  O   UNL     1      -1.623   8.843  -7.910  1.00  0.00    -0.246 OA
BRANCH  32  34
ATOM     34  C   UNL     1      -1.154   7.995 -10.065  1.00  0.00     0.060 A 
ATOM     35  C   UNL     1      -2.352   7.662 -10.700  1.00  0.00     0.016 A 
ATOM     36  C   UNL     1       0.022   7.305 -10.354  1.00  0.00     0.016 A 
ATOM     37  C   UNL     1      -2.387   6.620 -11.621  1.00  0.00     0.010 A 
ATOM     38  C   UNL     1      -0.009   6.274 -11.297  1.00  0.00     0.010 A 
ATOM     39  C   UNL     1      -1.216   5.915 -11.924  1.00  0.00    -0.014 A 
BRANCH  39  40
ATOM     40  C   UNL     1      -1.253   4.791 -12.889  1.00  0.00     0.031 A 
ATOM     41  C   UNL     1      -1.074   3.381 -12.406  1.00  0.00     0.074 A 
ATOM     42  C   UNL     1      -1.419   5.046 -14.200  1.00  0.00     0.049 A 
ATOM     43  N   UNL     1      -0.990   2.276 -13.099  1.00  0.00    -0.248 NA
ATOM     44  C   UNL     1      -0.971   3.188 -10.950  1.00  0.00     0.031 C 
ATOM     45  C   UNL     1      -1.613   6.374 -14.783  1.00  0.00     0.029 A 
ATOM     46  N   UNL     1      -1.431   4.201 -15.280  1.00  0.00    -0.354 N 
ATOM     47  C   UNL     1      -0.773   1.264 -12.174  1.00  0.00     0.074 A 
ATOM     48  C   UNL     1      -0.745   1.884 -10.866  1.00  0.00     0.031 C 
ATOM     49  C   UNL     1      -1.717   6.256 -16.116  1.00  0.00     0.029 A 
ATOM     50  C   UNL     1      -1.552   4.854 -16.484  1.00  0.00     0.049 A 
ATOM     51  H   UNL     1      -1.360   3.222 -15.202  1.00  0.00     0.167 HD
ATOM     52  C   UNL     1      -0.621  -0.064 -12.394  1.00  0.00     0.034 A 
ATOM     53  C   UNL     1      -1.506   4.378 -17.744  1.00  0.00     0.034 A 
ATOM     54  C   UNL     1      -0.697  -0.679 -13.692  1.00  0.00     0.049 A 
ATOM     55  C   UNL     1      -1.309   2.902 -17.960  1.00  0.00     0.074 A 
ATOM     56  C   UNL     1      -0.639  -2.024 -14.012  1.00  0.00     0.029 A 
ATOM     57  N   UNL     1      -0.835   0.010 -14.888  1.00  0.00    -0.354 N 
ATOM     58  N   UNL     1      -1.222   1.943 -17.071  1.00  0.00    -0.248 NA
ATOM     59  C   UNL     1      -1.215   2.443 -19.353  1.00  0.00     0.031 C 
ATOM     60  C   UNL     1      -0.719  -2.146 -15.404  1.00  0.00     0.029 A 
ATOM     61  C   UNL     1      -0.839  -0.878 -15.950  1.00  0.00     0.049 A 
ATOM     62  H   UNL     1      -0.918   0.988 -14.969  1.00  0.00     0.167 HD
ATOM     63  C   UNL     1      -1.084   0.764 -17.794  1.00  0.00     0.074 A 
ATOM     64  C   UNL     1      -1.124   1.128 -19.196  1.00  0.00     0.031 C 
ATOM     65  C   UNL     1      -0.920  -0.503 -17.339  1.00  0.00     0.034 A 
BRANCH  52  66
ATOM     66  C   UNL     1      -0.379  -0.945 -11.199  1.00  0.00     0.023 A 
ATOM     67  C   UNL     1      -1.444  -1.250 -10.328  1.00  0.00     0.012 A 
ATOM     68  C   UNL     1       0.892  -1.504 -10.959  1.00  0.00     0.148 A 
ATOM     69  C   UNL     1      -1.242  -2.072  -9.220  1.00  0.00     0.002 A 
ATOM     70  C   UNL     1       1.077  -2.352  -9.873  1.00  0.00     0.091 A 
ATOM     71  F   UNL     1       1.900  -1.180 -11.782  1.00  0.00    -0.205 F 
ATOM     72  C   UNL     1       0.015  -2.630  -8.998  1.00  0.00     0.022 A 
BRANCH  70  73
ATOM     73  S   UNL     1       2.646  -3.165  -9.549  1.00  0.00     0.127 S 
ATOM     74  O   UNL     1       3.181  -2.351  -8.459  1.00  0.00    -0.237 OA
ATOM     75  O   UNL     1       2.225  -4.510  -9.152  1.00  0.00    -0.237 OA
ATOM     76  O   UNL     1       3.386  -3.111 -10.801  1.00  0.00    -0.744 OA
ENDBRANCH  70  73
ENDBRANCH  52  66
BRANCH  53  77
ATOM     77  C   UNL     1      -1.688   5.307 -18.893  1.00  0.00     0.023 A 
ATOM     78  C   UNL     1      -2.873   5.237 -19.651  1.00  0.00     0.012 A 
ATOM     79  C   UNL     1      -0.726   6.286 -19.210  1.00  0.00     0.148 A 
ATOM     80  C   UNL     1      -3.090   6.114 -20.713  1.00  0.00     0.002 A 
ATOM     81  C   UNL     1      -0.972   7.191 -20.236  1.00  0.00     0.091 A 
ATOM     82  F   UNL     1       0.404   6.323 -18.490  1.00  0.00    -0.205 F 
ATOM     83  C   UNL     1      -2.147   7.099 -20.998  1.00  0.00     0.022 A 
BRANCH  81  84
ATOM     84  S   UNL     1       0.126   8.569 -20.592  1.00  0.00     0.127 S 
ATOM     85  O   UNL     1       0.706   8.166 -21.870  1.00  0.00    -0.237 OA
ATOM     86  O   UNL     1      -0.810   9.691 -20.666  1.00  0.00    -0.237 OA
ATOM     87  O   UNL     1       1.052   8.633 -19.469  1.00  0.00    -0.744 OA
ENDBRANCH  81  84
ENDBRANCH  53  77
BRANCH  65  88
ATOM     88  C   UNL     1      -0.773  -1.596 -18.365  1.00  0.00     0.023 A 
ATOM     89  C   UNL     1       0.441  -1.724 -19.069  1.00  0.00     0.012 A 
ATOM     90  C   UNL     1      -1.800  -2.536 -18.578  1.00  0.00     0.148 A 
ATOM     91  C   UNL     1       0.622  -2.757 -19.988  1.00  0.00     0.002 A 
ATOM     92  C   UNL     1      -1.596  -3.589 -19.462  1.00  0.00     0.091 A 
ATOM     93  F   UNL     1      -2.954  -2.384 -17.913  1.00  0.00    -0.205 F 
ATOM     94  C   UNL     1      -0.391  -3.696 -20.175  1.00  0.00     0.022 A 
BRANCH  92  95
ATOM     95  S   UNL     1      -2.809  -4.894 -19.698  1.00  0.00     0.127 S 
ATOM     96  O   UNL     1      -3.355  -4.559 -21.012  1.00  0.00    -0.237 OA
ATOM     97  O   UNL     1      -1.980  -6.100 -19.672  1.00  0.00    -0.237 OA
ATOM     98  O   UNL     1      -3.740  -4.779 -18.584  1.00  0.00    -0.744 OA
ENDBRANCH  92  95
ENDBRANCH  65  88
ENDBRANCH  39  40
ENDBRANCH  32  34
ENDBRANCH  31  32
ENDBRANCH  30  31
ENDBRANCH  29  30
ENDBRANCH  28  29
ENDBRANCH  26  28
ENDBRANCH   1  26
TORSDOF 23
