REMARK SMILES CC[NH+](CC)CC[N@H+]1CC[C@@H](C(=O)OCCOC(=O)c2ccc(-c3c4nc(c(-c5cccc(S(=O)(=O)[O-])c5F)c5ccc([nH]5)c(-c5cccc(S(=O)(=O)[O-])c5F)c5nc(c(-c6cccc(S(=O)(=O)[O-])c6F)c6ccc3[nH]6)C=C5)C=C4)cc2)[C@@H]1C
REMARK SMILES IDX 15 1 14 2 12 3 13 4 11 5 8 6 9 7 83 8 10 10 84 11 7 12 6 13
REMARK SMILES IDX 3 14 2 16 1 17 4 18 5 19 16 20 17 21 18 22 19 23 20 24 21 25
REMARK SMILES IDX 82 26 22 27 81 28 23 29 24 30 25 31 75 32 26 33 80 34 74 35
REMARK SMILES IDX 76 36 27 37 79 38 73 39 72 40 28 42 60 43 40 44 59 45 41 46
REMARK SMILES IDX 44 47 58 48 77 49 42 50 43 51 57 53 78 54 45 55 29 56 30 57
REMARK SMILES IDX 38 58 31 59 33 60 39 61 32 62 34 63 35 64 36 65 37 66 61 67
REMARK SMILES IDX 62 68 70 69 63 70 65 71 71 72 64 73 66 74 67 75 68 76 69 77
REMARK SMILES IDX 46 78 47 79 55 80 48 81 50 82 56 83 49 84 51 85 52 86 53 87
REMARK SMILES IDX 54 88
REMARK H PARENT 8 9 3 15 76 41 44 52
REMARK Flexibility Score: inf
ROOT
ATOM      1  C   UNL     1       4.231  -1.117  -1.716  1.00  0.00     0.274 C 
ENDROOT
BRANCH   1   2
ATOM      2  O   UNL     1       4.036  -0.463  -0.448  1.00  0.00    -0.462 OA
BRANCH   2   3
ATOM      3  C   UNL     1       2.887  -0.758   0.216  1.00  0.00     0.315 C 
ATOM      4  O   UNL     1       2.001  -1.475  -0.235  1.00  0.00    -0.252 OA
BRANCH   3   5
ATOM      5  C   UNL     1       2.850  -0.192   1.626  1.00  0.00     0.162 C 
ATOM      6  N   UNL     1       2.969   2.189   1.948  1.00  0.00    -0.327 N 
ATOM      7  C   UNL     1       1.679   1.756   2.485  1.00  0.00     0.263 C 
ATOM      8  C   UNL     1       3.804   0.972   1.900  1.00  0.00     0.195 C 
ATOM      9  H   UNL     1       3.374   2.902   2.555  1.00  0.00     0.348 HD
ATOM     10  C   UNL     1       1.462   0.333   1.997  1.00  0.00     0.083 C 
ATOM     11  C   UNL     1       4.480   0.772   3.269  1.00  0.00     0.076 C 
BRANCH   6  12
ATOM     12  C   UNL     1       2.914   2.924   0.665  1.00  0.00     0.324 C 
BRANCH  12  13
ATOM     13  C   UNL     1       1.910   2.546  -0.468  1.00  0.00     0.324 C 
BRANCH  13  14
ATOM     14  N   UNL     1       0.483   2.853  -0.239  1.00  0.00    -0.331 N 
ATOM     15  H   UNL     1       0.293   2.458   0.681  1.00  0.00     0.348 HD
BRANCH  14  16
ATOM     16  C   UNL     1      -0.439   2.209  -1.201  1.00  0.00     0.258 C 
ATOM     17  C   UNL     1      -0.134   0.793  -1.681  1.00  0.00     0.071 C 
ENDBRANCH  14  16
BRANCH  14  18
ATOM     18  C   UNL     1       0.218   4.309  -0.223  1.00  0.00     0.258 C 
ATOM     19  C   UNL     1       0.135   4.902   1.177  1.00  0.00     0.071 C 
ENDBRANCH  14  18
ENDBRANCH  13  14
ENDBRANCH  12  13
ENDBRANCH   6  12
ENDBRANCH   3   5
ENDBRANCH   2   3
ENDBRANCH   1   2
BRANCH   1  20
ATOM     20  C   UNL     1       5.245  -2.251  -1.577  1.00  0.00     0.275 C 
BRANCH  20  21
ATOM     21  O   UNL     1       4.767  -3.240  -0.649  1.00  0.00    -0.458 OA
BRANCH  21  22
ATOM     22  C   UNL     1       5.316  -3.176   0.583  1.00  0.00     0.338 C 
ATOM     23  O   UNL     1       6.198  -2.414   0.963  1.00  0.00    -0.246 OA
BRANCH  22  24
ATOM     24  C   UNL     1       4.663  -4.126   1.491  1.00  0.00     0.060 A 
ATOM     25  C   UNL     1       3.390  -3.833   1.978  1.00  0.00     0.016 A 
ATOM     26  C   UNL     1       5.393  -5.190   2.018  1.00  0.00     0.016 A 
ATOM     27  C   UNL     1       2.901  -4.511   3.088  1.00  0.00     0.010 A 
ATOM     28  C   UNL     1       4.849  -5.941   3.064  1.00  0.00     0.010 A 
ATOM     29  C   UNL     1       3.628  -5.567   3.653  1.00  0.00    -0.014 A 
BRANCH  29  30
ATOM     30  C   UNL     1       3.147  -6.221   4.901  1.00  0.00     0.031 A 
ATOM     31  C   UNL     1       4.001  -6.195   6.143  1.00  0.00     0.074 A 
ATOM     32  C   UNL     1       1.940  -6.820   4.932  1.00  0.00     0.049 A 
ATOM     33  N   UNL     1       3.818  -6.809   7.284  1.00  0.00    -0.248 NA
ATOM     34  C   UNL     1       5.232  -5.387   6.092  1.00  0.00     0.031 C 
ATOM     35  C   UNL     1       1.010  -6.910   3.805  1.00  0.00     0.029 A 
ATOM     36  N   UNL     1       1.287  -7.466   5.952  1.00  0.00    -0.354 N 
ATOM     37  C   UNL     1       4.946  -6.534   8.049  1.00  0.00     0.074 A 
ATOM     38  C   UNL     1       5.802  -5.684   7.251  1.00  0.00     0.031 C 
ATOM     39  C   UNL     1      -0.104  -7.543   4.202  1.00  0.00     0.029 A 
ATOM     40  C   UNL     1       0.055  -7.960   5.591  1.00  0.00     0.049 A 
ATOM     41  H   UNL     1       1.665  -7.567   6.856  1.00  0.00     0.167 HD
ATOM     42  C   UNL     1       5.236  -6.938   9.309  1.00  0.00     0.034 A 
ATOM     43  C   UNL     1      -0.841  -8.682   6.292  1.00  0.00     0.034 A 
ATOM     44  C   UNL     1       4.340  -7.696  10.139  1.00  0.00     0.049 A 
ATOM     45  C   UNL     1      -0.528  -9.048   7.716  1.00  0.00     0.074 A 
ATOM     46  C   UNL     1       4.530  -8.133  11.438  1.00  0.00     0.029 A 
ATOM     47  N   UNL     1       3.069  -8.102   9.762  1.00  0.00    -0.354 N 
ATOM     48  N   UNL     1       0.529  -8.748   8.431  1.00  0.00    -0.248 NA
ATOM     49  C   UNL     1      -1.538  -9.837   8.436  1.00  0.00     0.031 C 
ATOM     50  C   UNL     1       3.366  -8.791  11.853  1.00  0.00     0.029 A 
ATOM     51  C   UNL     1       2.455  -8.767  10.809  1.00  0.00     0.049 A 
ATOM     52  H   UNL     1       2.664  -7.942   8.880  1.00  0.00     0.167 HD
ATOM     53  C   UNL     1       0.308  -9.300   9.687  1.00  0.00     0.074 A 
ATOM     54  C   UNL     1      -1.001  -9.921   9.646  1.00  0.00     0.031 C 
ATOM     55  C   UNL     1       1.127  -9.322  10.767  1.00  0.00     0.034 A 
BRANCH  42  56
ATOM     56  C   UNL     1       6.566  -6.530   9.882  1.00  0.00     0.023 A 
ATOM     57  C   UNL     1       6.748  -5.214  10.351  1.00  0.00     0.012 A 
ATOM     58  C   UNL     1       7.621  -7.456   9.995  1.00  0.00     0.148 A 
ATOM     59  C   UNL     1       7.967  -4.819  10.900  1.00  0.00     0.002 A 
ATOM     60  C   UNL     1       8.823  -7.064  10.575  1.00  0.00     0.091 A 
ATOM     61  F   UNL     1       7.442  -8.696   9.516  1.00  0.00    -0.205 F 
ATOM     62  C   UNL     1       9.000  -5.745  11.021  1.00  0.00     0.022 A 
BRANCH  60  63
ATOM     63  S   UNL     1      10.179  -8.217  10.828  1.00  0.00     0.127 S 
ATOM     64  O   UNL     1      11.038  -7.921   9.683  1.00  0.00    -0.237 OA
ATOM     65  O   UNL     1      10.720  -7.792  12.120  1.00  0.00    -0.237 OA
ATOM     66  O   UNL     1       9.570  -9.540  10.840  1.00  0.00    -0.744 OA
ENDBRANCH  60  63
ENDBRANCH  42  56
BRANCH  43  67
ATOM     67  C   UNL     1      -2.139  -9.056   5.663  1.00  0.00     0.023 A 
ATOM     68  C   UNL     1      -3.321  -8.434   6.106  1.00  0.00     0.012 A 
ATOM     69  C   UNL     1      -2.203  -9.969   4.593  1.00  0.00     0.148 A 
ATOM     70  C   UNL     1      -4.546  -8.724   5.503  1.00  0.00     0.002 A 
ATOM     71  C   UNL     1      -3.417 -10.208   3.959  1.00  0.00     0.091 A 
ATOM     72  F   UNL     1      -1.073 -10.574   4.200  1.00  0.00    -0.205 F 
ATOM     73  C   UNL     1      -4.593  -9.598   4.420  1.00  0.00     0.022 A 
BRANCH  71  74
ATOM     74  S   UNL     1      -3.513 -11.200   2.464  1.00  0.00     0.127 S 
ATOM     75  O   UNL     1      -3.890 -12.508   2.992  1.00  0.00    -0.237 OA
ATOM     76  O   UNL     1      -4.560 -10.520   1.700  1.00  0.00    -0.237 OA
ATOM     77  O   UNL     1      -2.188 -11.104   1.864  1.00  0.00    -0.744 OA
ENDBRANCH  71  74
ENDBRANCH  43  67
BRANCH  55  78
ATOM     78  C   UNL     1       0.629 -10.031  11.995  1.00  0.00     0.023 A 
ATOM     79  C   UNL     1       0.654 -11.439  12.034  1.00  0.00     0.012 A 
ATOM     80  C   UNL     1       0.196  -9.314  13.126  1.00  0.00     0.148 A 
ATOM     81  C   UNL     1       0.232 -12.124  13.172  1.00  0.00     0.002 A 
ATOM     82  C   UNL     1      -0.192 -10.004  14.270  1.00  0.00     0.091 A 
ATOM     83  F   UNL     1       0.153  -7.975  13.064  1.00  0.00    -0.205 F 
ATOM     84  C   UNL     1      -0.182 -11.407  14.293  1.00  0.00     0.022 A 
BRANCH  82  85
ATOM     85  S   UNL     1      -0.660  -9.129  15.767  1.00  0.00     0.127 S 
ATOM     86  O   UNL     1      -2.100  -8.964  15.585  1.00  0.00    -0.237 OA
ATOM     87  O   UNL     1      -0.286 -10.071  16.824  1.00  0.00    -0.237 OA
ATOM     88  O   UNL     1       0.132  -7.906  15.754  1.00  0.00    -0.744 OA
ENDBRANCH  82  85
ENDBRANCH  55  78
ENDBRANCH  29  30
ENDBRANCH  22  24
ENDBRANCH  21  22
ENDBRANCH  20  21
ENDBRANCH   1  20
TORSDOF 19
