REMARK SMILES CC[C@@H]1SC[C@@H](C(=O)OCCOC(=O)c2ccc(-c3c4nc(c(-c5cccc(S(=O)(=O)[O-])c5F)c5ccc([nH]5)c(-c5cccc(S(=O)(=O)[O-])c5F)c5nc(c(-c6cccc(S(=O)(=O)[O-])c6F)c6ccc3[nH]6)C=C5)C=C4)cc2)N1C(=O)c1ccc(C[NH3+])o1
REMARK SMILES IDX 10 1 9 2 7 3 8 4 6 5 3 6 4 7 78 8 5 9 2 10 1 11 79 12 80 13
REMARK SMILES IDX 81 14 82 15 87 16 83 17 84 18 85 19 86 20 11 24 12 25 13 26
REMARK SMILES IDX 14 27 15 28 16 29 77 30 17 31 76 32 18 33 19 34 20 35 70 36
REMARK SMILES IDX 21 37 75 38 69 39 71 40 22 41 74 42 68 43 67 44 23 46 55 47
REMARK SMILES IDX 35 48 54 49 36 50 39 51 53 52 72 53 37 54 38 55 52 57 73 58
REMARK SMILES IDX 40 59 24 60 25 61 33 62 26 63 28 64 34 65 27 66 29 67 30 68
REMARK SMILES IDX 31 69 32 70 56 71 57 72 65 73 58 74 60 75 66 76 59 77 61 78
REMARK SMILES IDX 62 79 63 80 64 81 41 82 42 83 50 84 43 85 45 86 51 87 44 88
REMARK SMILES IDX 46 89 47 90 48 91 49 92
REMARK H PARENT 86 21 86 22 86 23 71 45 39 56
REMARK Flexibility Score: inf
ROOT
ATOM      1  C   UNL     1       0.067  -1.237   3.220  1.00  0.00     0.274 C 
ENDROOT
BRANCH   1   2
ATOM      2  O   UNL     1       0.635  -0.132   2.493  1.00  0.00    -0.461 OA
BRANCH   2   3
ATOM      3  C   UNL     1       1.322   0.778   3.240  1.00  0.00     0.329 C 
ATOM      4  O   UNL     1       1.547   0.662   4.441  1.00  0.00    -0.250 OA
BRANCH   3   5
ATOM      5  C   UNL     1       1.637   2.076   2.469  1.00  0.00     0.206 C 
ATOM      6  C   UNL     1       0.213   2.339   0.459  1.00  0.00     0.144 C 
ATOM      7  S   UNL     1      -0.803   2.760   1.962  1.00  0.00    -0.134 SA
ATOM      8  N   UNL     1       1.539   2.016   0.995  1.00  0.00    -0.309 N 
ATOM      9  C   UNL     1       0.663   3.130   2.959  1.00  0.00     0.109 C 
BRANCH   6  10
ATOM     10  C   UNL     1       0.068   3.620  -0.387  1.00  0.00     0.033 C 
ATOM     11  C   UNL     1       0.549   3.560  -1.822  1.00  0.00     0.007 C 
ENDBRANCH   6  10
BRANCH   8  12
ATOM     12  C   UNL     1       2.680   1.571   0.324  1.00  0.00     0.291 C 
ATOM     13  O   UNL     1       3.722   1.418   0.967  1.00  0.00    -0.265 OA
BRANCH  12  14
ATOM     14  C   UNL     1       2.706   1.403  -1.110  1.00  0.00     0.192 A 
ATOM     15  C   UNL     1       3.627   1.916  -2.008  1.00  0.00     0.057 A 
ATOM     16  O   UNL     1       1.865   0.537  -1.759  1.00  0.00    -0.450 OA
ATOM     17  C   UNL     1       3.331   1.361  -3.268  1.00  0.00     0.052 A 
ATOM     18  C   UNL     1       2.295   0.474  -3.062  1.00  0.00     0.159 A 
BRANCH  18  19
ATOM     19  C   UNL     1       1.659  -0.521  -3.961  1.00  0.00     0.335 C 
BRANCH  19  20
ATOM     20  N   UNL     1       0.521   0.056  -4.671  1.00  0.00    -0.351 N 
ATOM     21  H   UNL     1      -0.181   0.362  -3.996  1.00  0.00     0.344 HD
ATOM     22  H   UNL     1       0.115  -0.645  -5.290  1.00  0.00     0.344 HD
ATOM     23  H   UNL     1       0.833   0.856  -5.222  1.00  0.00     0.344 HD
ENDBRANCH  19  20
ENDBRANCH  18  19
ENDBRANCH  12  14
ENDBRANCH   8  12
ENDBRANCH   3   5
ENDBRANCH   2   3
ENDBRANCH   1   2
BRANCH   1  24
ATOM     24  C   UNL     1       0.839  -2.528   2.969  1.00  0.00     0.275 C 
BRANCH  24  25
ATOM     25  O   UNL     1       2.211  -2.380   3.361  1.00  0.00    -0.458 OA
BRANCH  25  26
ATOM     26  C   UNL     1       3.062  -2.099   2.348  1.00  0.00     0.338 C 
ATOM     27  O   UNL     1       2.800  -2.030   1.155  1.00  0.00    -0.246 OA
BRANCH  26  28
ATOM     28  C   UNL     1       4.391  -1.834   2.904  1.00  0.00     0.060 A 
ATOM     29  C   UNL     1       4.742  -0.521   3.221  1.00  0.00     0.016 A 
ATOM     30  C   UNL     1       5.319  -2.868   3.018  1.00  0.00     0.016 A 
ATOM     31  C   UNL     1       6.045  -0.223   3.604  1.00  0.00     0.010 A 
ATOM     32  C   UNL     1       6.615  -2.573   3.445  1.00  0.00     0.010 A 
ATOM     33  C   UNL     1       6.995  -1.245   3.713  1.00  0.00    -0.014 A 
BRANCH  33  34
ATOM     34  C   UNL     1       8.400  -0.922   4.058  1.00  0.00     0.031 A 
ATOM     35  C   UNL     1       9.480  -1.104   3.029  1.00  0.00     0.074 A 
ATOM     36  C   UNL     1       8.704  -0.485   5.294  1.00  0.00     0.049 A 
ATOM     37  N   UNL     1      10.777  -1.008   3.167  1.00  0.00    -0.248 NA
ATOM     38  C   UNL     1       9.046  -1.449   1.664  1.00  0.00     0.031 C 
ATOM     39  C   UNL     1       7.739  -0.254   6.370  1.00  0.00     0.029 A 
ATOM     40  N   UNL     1       9.916  -0.178   5.861  1.00  0.00    -0.354 N 
ATOM     41  C   UNL     1      11.316  -1.329   1.927  1.00  0.00     0.074 A 
ATOM     42  C   UNL     1      10.206  -1.621   1.045  1.00  0.00     0.031 C 
ATOM     43  C   UNL     1       8.396   0.143   7.471  1.00  0.00     0.029 A 
ATOM     44  C   UNL     1       9.829   0.150   7.193  1.00  0.00     0.049 A 
ATOM     45  H   UNL     1      10.764  -0.193   5.362  1.00  0.00     0.167 HD
ATOM     46  C   UNL     1      12.617  -1.362   1.556  1.00  0.00     0.034 A 
ATOM     47  C   UNL     1      10.798   0.399   8.095  1.00  0.00     0.034 A 
ATOM     48  C   UNL     1      13.712  -1.015   2.422  1.00  0.00     0.049 A 
ATOM     49  C   UNL     1      12.236   0.357   7.652  1.00  0.00     0.074 A 
ATOM     50  C   UNL     1      15.064  -0.986   2.129  1.00  0.00     0.029 A 
ATOM     51  N   UNL     1      13.580  -0.626   3.746  1.00  0.00    -0.354 N 
ATOM     52  N   UNL     1      12.725   0.123   6.458  1.00  0.00    -0.248 NA
ATOM     53  C   UNL     1      13.255   0.634   8.675  1.00  0.00     0.031 C 
ATOM     54  C   UNL     1      15.751  -0.583   3.280  1.00  0.00     0.029 A 
ATOM     55  C   UNL     1      14.825  -0.353   4.285  1.00  0.00     0.049 A 
ATOM     56  H   UNL     1      12.726  -0.555   4.231  1.00  0.00     0.167 HD
ATOM     57  C   UNL     1      14.103   0.251   6.579  1.00  0.00     0.074 A 
ATOM     58  C   UNL     1      14.370   0.609   7.957  1.00  0.00     0.031 C 
ATOM     59  C   UNL     1      15.065   0.066   5.641  1.00  0.00     0.034 A 
BRANCH  46  60
ATOM     60  C   UNL     1      12.932  -1.750   0.136  1.00  0.00     0.023 A 
ATOM     61  C   UNL     1      12.722  -0.817  -0.899  1.00  0.00     0.012 A 
ATOM     62  C   UNL     1      13.500  -3.003  -0.164  1.00  0.00     0.148 A 
ATOM     63  C   UNL     1      13.053  -1.134  -2.216  1.00  0.00     0.002 A 
ATOM     64  C   UNL     1      13.860  -3.299  -1.474  1.00  0.00     0.091 A 
ATOM     65  F   UNL     1      13.670  -3.884   0.832  1.00  0.00    -0.205 F 
ATOM     66  C   UNL     1      13.631  -2.368  -2.502  1.00  0.00     0.022 A 
BRANCH  64  67
ATOM     67  S   UNL     1      14.674  -4.834  -1.933  1.00  0.00     0.127 S 
ATOM     68  O   UNL     1      13.605  -5.532  -2.647  1.00  0.00    -0.237 OA
ATOM     69  O   UNL     1      15.767  -4.363  -2.783  1.00  0.00    -0.237 OA
ATOM     70  O   UNL     1      15.099  -5.451  -0.685  1.00  0.00    -0.744 OA
ENDBRANCH  64  67
ENDBRANCH  46  60
BRANCH  47  71
ATOM     71  C   UNL     1      10.438   0.739   9.500  1.00  0.00     0.023 A 
ATOM     72  C   UNL     1      10.661   2.047   9.973  1.00  0.00     0.012 A 
ATOM     73  C   UNL     1       9.853  -0.210  10.361  1.00  0.00     0.148 A 
ATOM     74  C   UNL     1      10.333   2.395  11.284  1.00  0.00     0.002 A 
ATOM     75  C   UNL     1       9.476   0.159  11.647  1.00  0.00     0.091 A 
ATOM     76  F   UNL     1       9.671  -1.458   9.905  1.00  0.00    -0.205 F 
ATOM     77  C   UNL     1       9.729   1.456  12.117  1.00  0.00     0.022 A 
BRANCH  75  78
ATOM     78  S   UNL     1       8.572  -0.959  12.725  1.00  0.00     0.127 S 
ATOM     79  O   UNL     1       9.634  -1.476  13.582  1.00  0.00    -0.237 OA
ATOM     80  O   UNL     1       7.629  -0.057  13.389  1.00  0.00    -0.237 OA
ATOM     81  O   UNL     1       7.941  -1.922  11.831  1.00  0.00    -0.744 OA
ENDBRANCH  75  78
ENDBRANCH  47  71
BRANCH  59  82
ATOM     82  C   UNL     1      16.494   0.273   6.062  1.00  0.00     0.023 A 
ATOM     83  C   UNL     1      17.135  -0.706   6.847  1.00  0.00     0.012 A 
ATOM     84  C   UNL     1      17.224   1.393   5.620  1.00  0.00     0.148 A 
ATOM     85  C   UNL     1      18.473  -0.560   7.207  1.00  0.00     0.002 A 
ATOM     86  C   UNL     1      18.569   1.512   5.949  1.00  0.00     0.091 A 
ATOM     87  F   UNL     1      16.590   2.325   4.892  1.00  0.00    -0.205 F 
ATOM     88  C   UNL     1      19.193   0.541   6.749  1.00  0.00     0.022 A 
BRANCH  86  89
ATOM     89  S   UNL     1      19.590   2.853   5.328  1.00  0.00     0.127 S 
ATOM     90  O   UNL     1      19.677   3.728   6.495  1.00  0.00    -0.237 OA
ATOM     91  O   UNL     1      20.837   2.168   4.986  1.00  0.00    -0.237 OA
ATOM     92  O   UNL     1      18.873   3.400   4.183  1.00  0.00    -0.744 OA
ENDBRANCH  86  89
ENDBRANCH  59  82
ENDBRANCH  33  34
ENDBRANCH  26  28
ENDBRANCH  25  26
ENDBRANCH  24  25
ENDBRANCH   1  24
TORSDOF 19
