REMARK SMILES CCc1c(C(=O)NCC(=O)OCCOC(=O)c2ccc(-c3c4nc(c(-c5cccc(S(=O)(=O)[O-])c5F)c5ccc([nH]5)c(-c5cccc(S(=O)(=O)[O-])c5F)c5nc(c(-c6cccc(S(=O)(=O)[O-])c6F)c6ccc3[nH]6)C=C5)C=C4)cc2)nnn1-c1ccc(Cl)cc1
REMARK SMILES IDX 12 1 11 2 9 3 10 4 8 5 7 6 5 7 6 8 4 10 3 11 82 12 80 13
REMARK SMILES IDX 81 14 2 15 1 16 83 17 84 18 89 19 85 20 88 21 86 22 87 23
REMARK SMILES IDX 13 24 14 25 15 26 16 27 17 28 18 29 79 30 19 31 78 32 20 33
REMARK SMILES IDX 21 34 22 35 72 36 23 37 77 38 71 39 73 40 24 41 76 42 70 43
REMARK SMILES IDX 69 44 25 46 57 47 37 48 56 49 38 50 41 51 55 52 74 53 39 54
REMARK SMILES IDX 40 55 54 57 75 58 42 59 26 60 27 61 35 62 28 63 30 64 36 65
REMARK SMILES IDX 29 66 31 67 32 68 33 69 34 70 58 71 59 72 67 73 60 74 62 75
REMARK SMILES IDX 68 76 61 77 63 78 64 79 65 80 66 81 43 82 44 83 52 84 45 85
REMARK SMILES IDX 47 86 53 87 46 88 48 89 49 90 50 91 51 92
REMARK H PARENT 7 9 73 45 41 56
REMARK Flexibility Score: inf
ROOT
ATOM      1  C   UNL     1      -2.449   1.908   1.209  1.00  0.00     0.274 C 
ENDROOT
BRANCH   1   2
ATOM      2  O   UNL     1      -1.128   1.430   1.524  1.00  0.00    -0.461 OA
BRANCH   2   3
ATOM      3  C   UNL     1      -0.245   1.386   0.484  1.00  0.00     0.325 C 
ATOM      4  O   UNL     1      -0.557   1.478  -0.699  1.00  0.00    -0.250 OA
BRANCH   3   5
ATOM      5  C   UNL     1       1.207   1.260   0.949  1.00  0.00     0.239 C 
BRANCH   5   6
ATOM      6  N   UNL     1       1.378   1.088   2.366  1.00  0.00    -0.340 N 
ATOM      7  C   UNL     1       1.458  -0.011   3.166  1.00  0.00     0.274 C 
ATOM      8  O   UNL     1       1.687   0.238   4.354  1.00  0.00    -0.267 OA
ATOM      9  H   UNL     1       1.452   1.938   2.858  1.00  0.00     0.164 HD
BRANCH   7  10
ATOM     10  C   UNL     1       1.308  -1.410   2.724  1.00  0.00     0.174 A 
ATOM     11  C   UNL     1       0.885  -2.106   1.581  1.00  0.00     0.077 A 
ATOM     12  N   UNL     1       0.962  -3.440   1.975  1.00  0.00    -0.217 N 
ATOM     13  N   UNL     1       1.540  -2.352   3.720  1.00  0.00    -0.124 NA
ATOM     14  N   UNL     1       1.228  -3.551   3.280  1.00  0.00    -0.061 NA
BRANCH  11  15
ATOM     15  C   UNL     1       0.239  -1.770   0.269  1.00  0.00     0.055 C 
ATOM     16  C   UNL     1       1.195  -1.498  -0.886  1.00  0.00     0.011 C 
ENDBRANCH  11  15
BRANCH  12  17
ATOM     17  C   UNL     1       0.609  -4.579   1.228  1.00  0.00     0.067 A 
ATOM     18  C   UNL     1      -0.474  -5.356   1.653  1.00  0.00     0.030 A 
ATOM     19  C   UNL     1       1.287  -4.863   0.039  1.00  0.00     0.030 A 
ATOM     20  C   UNL     1      -0.922  -6.395   0.839  1.00  0.00     0.023 A 
ATOM     21  C   UNL     1       0.856  -5.930  -0.748  1.00  0.00     0.023 A 
ATOM     22  C   UNL     1      -0.257  -6.676  -0.356  1.00  0.00     0.041 A 
ATOM     23  Cl  UNL     1      -0.825  -7.948  -1.367  1.00  0.00    -0.084 Cl
ENDBRANCH  12  17
ENDBRANCH   7  10
ENDBRANCH   5   6
ENDBRANCH   3   5
ENDBRANCH   2   3
ENDBRANCH   1   2
BRANCH   1  24
ATOM     24  C   UNL     1      -2.525   3.428   1.312  1.00  0.00     0.275 C 
BRANCH  24  25
ATOM     25  O   UNL     1      -1.707   4.058   0.328  1.00  0.00    -0.458 OA
BRANCH  25  26
ATOM     26  C   UNL     1      -0.441   4.311   0.729  1.00  0.00     0.338 C 
ATOM     27  O   UNL     1       0.118   3.887   1.727  1.00  0.00    -0.246 OA
BRANCH  26  28
ATOM     28  C   UNL     1       0.176   5.293  -0.156  1.00  0.00     0.060 A 
ATOM     29  C   UNL     1       1.559   5.476  -0.039  1.00  0.00     0.016 A 
ATOM     30  C   UNL     1      -0.651   6.202  -0.825  1.00  0.00     0.016 A 
ATOM     31  C   UNL     1       2.089   6.683  -0.431  1.00  0.00     0.010 A 
ATOM     32  C   UNL     1      -0.124   7.413  -1.190  1.00  0.00     0.010 A 
ATOM     33  C   UNL     1       1.219   7.662  -0.917  1.00  0.00    -0.014 A 
BRANCH  33  34
ATOM     34  C   UNL     1       1.770   8.958  -1.239  1.00  0.00     0.031 A 
ATOM     35  C   UNL     1       2.526   8.949  -2.507  1.00  0.00     0.074 A 
ATOM     36  C   UNL     1       1.488  10.051  -0.507  1.00  0.00     0.049 A 
ATOM     37  N   UNL     1       3.799   9.092  -2.668  1.00  0.00    -0.248 NA
ATOM     38  C   UNL     1       1.808   8.524  -3.720  1.00  0.00     0.031 C 
ATOM     39  C   UNL     1       0.507  10.167   0.577  1.00  0.00     0.029 A 
ATOM     40  N   UNL     1       1.907  11.332  -0.685  1.00  0.00    -0.354 N 
ATOM     41  C   UNL     1       3.987   9.046  -4.046  1.00  0.00     0.074 A 
ATOM     42  C   UNL     1       2.807   8.441  -4.597  1.00  0.00     0.031 C 
ATOM     43  C   UNL     1       0.224  11.473   0.775  1.00  0.00     0.029 A 
ATOM     44  C   UNL     1       1.086  12.276  -0.075  1.00  0.00     0.049 A 
ATOM     45  H   UNL     1       2.713  11.570  -1.197  1.00  0.00     0.167 HD
ATOM     46  C   UNL     1       4.939   9.815  -4.639  1.00  0.00     0.034 A 
ATOM     47  C   UNL     1       1.062  13.606  -0.337  1.00  0.00     0.034 A 
ATOM     48  C   UNL     1       5.915  10.267  -3.676  1.00  0.00     0.049 A 
ATOM     49  C   UNL     1       2.333  13.943  -1.019  1.00  0.00     0.074 A 
ATOM     50  C   UNL     1       6.772   9.655  -2.784  1.00  0.00     0.029 A 
ATOM     51  N   UNL     1       5.821  11.579  -3.282  1.00  0.00    -0.354 N 
ATOM     52  N   UNL     1       3.499  13.909  -0.439  1.00  0.00    -0.248 NA
ATOM     53  C   UNL     1       2.356  13.937  -2.473  1.00  0.00     0.031 C 
ATOM     54  C   UNL     1       6.816  10.522  -1.655  1.00  0.00     0.029 A 
ATOM     55  C   UNL     1       6.030  11.643  -1.934  1.00  0.00     0.049 A 
ATOM     56  H   UNL     1       5.633  12.345  -3.872  1.00  0.00     0.167 HD
ATOM     57  C   UNL     1       4.352  13.412  -1.416  1.00  0.00     0.074 A 
ATOM     58  C   UNL     1       3.628  13.581  -2.672  1.00  0.00     0.031 C 
ATOM     59  C   UNL     1       5.425  12.639  -1.076  1.00  0.00     0.034 A 
BRANCH  46  60
ATOM     60  C   UNL     1       4.754  10.529  -5.966  1.00  0.00     0.023 A 
ATOM     61  C   UNL     1       5.867  11.250  -6.455  1.00  0.00     0.012 A 
ATOM     62  C   UNL     1       3.511  10.781  -6.594  1.00  0.00     0.148 A 
ATOM     63  C   UNL     1       5.733  12.229  -7.444  1.00  0.00     0.002 A 
ATOM     64  C   UNL     1       3.397  11.697  -7.633  1.00  0.00     0.091 A 
ATOM     65  F   UNL     1       2.386  10.243  -6.121  1.00  0.00    -0.205 F 
ATOM     66  C   UNL     1       4.497  12.453  -8.035  1.00  0.00     0.022 A 
BRANCH  64  67
ATOM     67  S   UNL     1       1.828  11.987  -8.464  1.00  0.00     0.127 S 
ATOM     68  O   UNL     1       1.475  13.312  -7.963  1.00  0.00    -0.237 OA
ATOM     69  O   UNL     1       2.225  11.938  -9.871  1.00  0.00    -0.237 OA
ATOM     70  O   UNL     1       0.954  10.895  -8.054  1.00  0.00    -0.744 OA
ENDBRANCH  64  67
ENDBRANCH  46  60
BRANCH  47  71
ATOM     71  C   UNL     1      -0.060  14.573  -0.281  1.00  0.00     0.023 A 
ATOM     72  C   UNL     1       0.223  15.954  -0.258  1.00  0.00     0.012 A 
ATOM     73  C   UNL     1      -1.390  14.172  -0.538  1.00  0.00     0.148 A 
ATOM     74  C   UNL     1      -0.771  16.901  -0.525  1.00  0.00     0.002 A 
ATOM     75  C   UNL     1      -2.379  15.119  -0.793  1.00  0.00     0.091 A 
ATOM     76  F   UNL     1      -1.667  12.865  -0.629  1.00  0.00    -0.205 F 
ATOM     77  C   UNL     1      -2.070  16.484  -0.802  1.00  0.00     0.022 A 
BRANCH  75  78
ATOM     78  S   UNL     1      -4.072  14.652  -1.179  1.00  0.00     0.127 S 
ATOM     79  O   UNL     1      -4.840  15.550  -0.315  1.00  0.00    -0.237 OA
ATOM     80  O   UNL     1      -4.152  14.959  -2.605  1.00  0.00    -0.237 OA
ATOM     81  O   UNL     1      -4.186  13.242  -0.828  1.00  0.00    -0.744 OA
ENDBRANCH  75  78
ENDBRANCH  47  71
BRANCH  59  82
ATOM     82  C   UNL     1       5.863  12.627   0.366  1.00  0.00     0.023 A 
ATOM     83  C   UNL     1       5.046  12.142   1.408  1.00  0.00     0.012 A 
ATOM     84  C   UNL     1       7.200  12.958   0.646  1.00  0.00     0.148 A 
ATOM     85  C   UNL     1       5.549  12.012   2.706  1.00  0.00     0.002 A 
ATOM     86  C   UNL     1       7.710  12.778   1.924  1.00  0.00     0.091 A 
ATOM     87  F   UNL     1       7.962  13.420  -0.358  1.00  0.00    -0.205 F 
ATOM     88  C   UNL     1       6.885  12.316   2.961  1.00  0.00     0.022 A 
BRANCH  86  89
ATOM     89  S   UNL     1       9.452  13.021   2.274  1.00  0.00     0.127 S 
ATOM     90  O   UNL     1       9.448  14.307   2.969  1.00  0.00    -0.237 OA
ATOM     91  O   UNL     1       9.767  11.869   3.120  1.00  0.00    -0.237 OA
ATOM     92  O   UNL     1      10.125  13.007   0.981  1.00  0.00    -0.744 OA
ENDBRANCH  86  89
ENDBRANCH  59  82
ENDBRANCH  33  34
ENDBRANCH  26  28
ENDBRANCH  25  26
ENDBRANCH  24  25
ENDBRANCH   1  24
TORSDOF 18
