REMARK SMILES [NH3+][C@@H](CCCC(=O)OCCOC(=O)c1ccc(-c2c3nc(c(-c4cccc(S(=O)(=O)[O-])c4F)c4ccc([nH]4)c(-c4cccc(S(=O)(=O)[O-])c4F)c4nc(c(-c5cccc(S(=O)(=O)[O-])c5F)c5ccc2[nH]5)C=C4)C=C3)cc1)c1cnc2[nH]ccc2c1
REMARK SMILES IDX 9 1 8 2 6 3 7 4 5 5 4 6 3 7 2 8 1 9 77 13 78 14 85 15 79 16
REMARK SMILES IDX 84 17 80 18 83 19 81 20 82 21 10 23 11 24 12 25 13 26 14 27
REMARK SMILES IDX 15 28 76 29 16 30 75 31 17 32 18 33 19 34 69 35 20 36 74 37
REMARK SMILES IDX 68 38 70 39 21 40 73 41 67 42 66 43 22 45 54 46 34 47 53 48
REMARK SMILES IDX 35 49 38 50 52 51 71 52 36 53 37 54 51 56 72 57 39 58 23 59
REMARK SMILES IDX 24 60 32 61 25 62 27 63 33 64 26 65 28 66 29 67 30 68 31 69
REMARK SMILES IDX 55 70 56 71 64 72 57 73 59 74 65 75 58 76 60 77 61 78 62 79
REMARK SMILES IDX 63 80 40 81 41 82 49 83 42 84 44 85 50 86 43 87 45 88 46 89
REMARK SMILES IDX 47 90 48 91
REMARK H PARENT 1 10 1 11 1 12 81 22 70 44 38 55
REMARK Flexibility Score: inf
ROOT
ATOM      1  C   UNL     1      -2.120   5.765   1.906  1.00  0.00     0.274 C 
ENDROOT
BRANCH   1   2
ATOM      2  O   UNL     1      -1.023   4.928   1.522  1.00  0.00    -0.462 OA
BRANCH   2   3
ATOM      3  C   UNL     1      -1.237   4.178   0.410  1.00  0.00     0.305 C 
ATOM      4  O   UNL     1      -2.319   3.772   0.012  1.00  0.00    -0.252 OA
BRANCH   3   5
ATOM      5  C   UNL     1       0.071   3.967  -0.301  1.00  0.00     0.123 C 
BRANCH   5   6
ATOM      6  C   UNL     1       1.048   3.044   0.428  1.00  0.00     0.018 C 
BRANCH   6   7
ATOM      7  C   UNL     1       0.479   2.188   1.580  1.00  0.00     0.071 C 
BRANCH   7   8
ATOM      8  C   UNL     1       0.196   0.679   1.387  1.00  0.00     0.213 C 
BRANCH   8   9
ATOM      9  N   UNL     1       1.540   0.046   1.402  1.00  0.00    -0.351 N 
ATOM     10  H   UNL     1       2.078   0.409   2.189  1.00  0.00     0.345 HD
ATOM     11  H   UNL     1       2.026   0.258   0.531  1.00  0.00     0.345 HD
ATOM     12  H   UNL     1       1.439  -0.965   1.497  1.00  0.00     0.345 HD
ENDBRANCH   8   9
BRANCH   8  13
ATOM     13  C   UNL     1      -0.607   0.121   0.193  1.00  0.00     0.028 A 
ATOM     14  C   UNL     1      -0.664  -1.274   0.139  1.00  0.00     0.123 A 
ATOM     15  C   UNL     1      -0.550   0.762  -1.038  1.00  0.00     0.023 A 
ATOM     16  N   UNL     1      -0.058  -2.012  -0.822  1.00  0.00    -0.238 NA
ATOM     17  C   UNL     1       0.306   0.130  -1.941  1.00  0.00     0.019 A 
ATOM     18  C   UNL     1       0.525  -1.227  -1.751  1.00  0.00     0.137 A 
ATOM     19  C   UNL     1       1.145   0.556  -3.001  1.00  0.00     0.029 A 
ATOM     20  N   UNL     1       1.515  -1.607  -2.612  1.00  0.00    -0.346 N 
ATOM     21  C   UNL     1       1.952  -0.516  -3.324  1.00  0.00     0.085 A 
ATOM     22  H   UNL     1       1.861  -2.524  -2.709  1.00  0.00     0.167 HD
ENDBRANCH   8  13
ENDBRANCH   7   8
ENDBRANCH   6   7
ENDBRANCH   5   6
ENDBRANCH   3   5
ENDBRANCH   2   3
ENDBRANCH   1   2
BRANCH   1  23
ATOM     23  C   UNL     1      -1.944   7.076   1.147  1.00  0.00     0.275 C 
BRANCH  23  24
ATOM     24  O   UNL     1      -2.288   6.862  -0.237  1.00  0.00    -0.458 OA
BRANCH  24  25
ATOM     25  C   UNL     1      -1.360   7.222  -1.154  1.00  0.00     0.338 C 
ATOM     26  O   UNL     1      -0.272   7.728  -0.943  1.00  0.00    -0.246 OA
BRANCH  25  27
ATOM     27  C   UNL     1      -1.877   6.949  -2.506  1.00  0.00     0.060 A 
ATOM     28  C   UNL     1      -2.193   5.651  -2.923  1.00  0.00     0.016 A 
ATOM     29  C   UNL     1      -1.990   8.020  -3.391  1.00  0.00     0.016 A 
ATOM     30  C   UNL     1      -2.597   5.420  -4.241  1.00  0.00     0.010 A 
ATOM     31  C   UNL     1      -2.455   7.794  -4.685  1.00  0.00     0.010 A 
ATOM     32  C   UNL     1      -2.748   6.492  -5.130  1.00  0.00    -0.014 A 
BRANCH  32  33
ATOM     33  C   UNL     1      -3.214   6.306  -6.530  1.00  0.00     0.031 A 
ATOM     34  C   UNL     1      -2.327   6.733  -7.669  1.00  0.00     0.074 A 
ATOM     35  C   UNL     1      -4.469   5.883  -6.775  1.00  0.00     0.049 A 
ATOM     36  N   UNL     1      -2.630   6.935  -8.924  1.00  0.00    -0.248 NA
ATOM     37  C   UNL     1      -0.915   6.989  -7.342  1.00  0.00     0.031 C 
ATOM     38  C   UNL     1      -5.428   5.440  -5.762  1.00  0.00     0.029 A 
ATOM     39  N   UNL     1      -5.173   5.812  -7.954  1.00  0.00    -0.354 N 
ATOM     40  C   UNL     1      -1.469   7.412  -9.522  1.00  0.00     0.074 A 
ATOM     41  C   UNL     1      -0.451   7.455  -8.493  1.00  0.00     0.031 C 
ATOM     42  C   UNL     1      -6.602   5.174  -6.355  1.00  0.00     0.029 A 
ATOM     43  C   UNL     1      -6.499   5.489  -7.776  1.00  0.00     0.049 A 
ATOM     44  H   UNL     1      -4.769   5.976  -8.836  1.00  0.00     0.167 HD
ATOM     45  C   UNL     1      -1.270   7.778 -10.811  1.00  0.00     0.034 A 
ATOM     46  C   UNL     1      -7.529   5.497  -8.645  1.00  0.00     0.034 A 
ATOM     47  C   UNL     1      -2.272   7.678 -11.839  1.00  0.00     0.049 A 
ATOM     48  C   UNL     1      -7.280   5.897 -10.073  1.00  0.00     0.074 A 
ATOM     49  C   UNL     1      -2.152   7.964 -13.188  1.00  0.00     0.029 A 
ATOM     50  N   UNL     1      -3.576   7.257 -11.634  1.00  0.00    -0.354 N 
ATOM     51  N   UNL     1      -6.160   6.269 -10.642  1.00  0.00    -0.248 NA
ATOM     52  C   UNL     1      -8.434   5.861 -10.984  1.00  0.00     0.031 C 
ATOM     53  C   UNL     1      -3.389   7.727 -13.796  1.00  0.00     0.029 A 
ATOM     54  C   UNL     1      -4.274   7.277 -12.829  1.00  0.00     0.049 A 
ATOM     55  H   UNL     1      -3.951   6.983 -10.766  1.00  0.00     0.167 HD
ATOM     56  C   UNL     1      -6.465   6.484 -11.982  1.00  0.00     0.074 A 
ATOM     57  C   UNL     1      -7.872   6.178 -12.143  1.00  0.00     0.031 C 
ATOM     58  C   UNL     1      -5.659   6.913 -12.984  1.00  0.00     0.034 A 
BRANCH  45  59
ATOM     59  C   UNL     1       0.092   8.295 -11.195  1.00  0.00     0.023 A 
ATOM     60  C   UNL     1       1.173   7.398 -11.308  1.00  0.00     0.012 A 
ATOM     61  C   UNL     1       0.287   9.656 -11.504  1.00  0.00     0.148 A 
ATOM     62  C   UNL     1       2.433   7.852 -11.696  1.00  0.00     0.002 A 
ATOM     63  C   UNL     1       1.537  10.094 -11.929  1.00  0.00     0.091 A 
ATOM     64  F   UNL     1      -0.747  10.499 -11.369  1.00  0.00    -0.205 F 
ATOM     65  C   UNL     1       2.613   9.195 -12.015  1.00  0.00     0.022 A 
BRANCH  63  66
ATOM     66  S   UNL     1       1.849  11.789 -12.435  1.00  0.00     0.127 S 
ATOM     67  O   UNL     1       2.640  12.291 -11.312  1.00  0.00    -0.237 OA
ATOM     68  O   UNL     1       2.602  11.608 -13.677  1.00  0.00    -0.237 OA
ATOM     69  O   UNL     1       0.540  12.404 -12.604  1.00  0.00    -0.744 OA
ENDBRANCH  63  66
ENDBRANCH  45  59
BRANCH  46  70
ATOM     70  C   UNL     1      -8.889   5.093  -8.185  1.00  0.00     0.023 A 
ATOM     71  C   UNL     1      -9.431   3.873  -8.632  1.00  0.00     0.012 A 
ATOM     72  C   UNL     1      -9.627   5.883  -7.281  1.00  0.00     0.148 A 
ATOM     73  C   UNL     1     -10.692   3.456  -8.205  1.00  0.00     0.002 A 
ATOM     74  C   UNL     1     -10.858   5.434  -6.815  1.00  0.00     0.091 A 
ATOM     75  F   UNL     1      -9.104   7.051  -6.882  1.00  0.00    -0.205 F 
ATOM     76  C   UNL     1     -11.399   4.229  -7.287  1.00  0.00     0.022 A 
BRANCH  74  77
ATOM     77  S   UNL     1     -11.770   6.298  -5.530  1.00  0.00     0.127 S 
ATOM     78  O   UNL     1     -12.856   6.908  -6.292  1.00  0.00    -0.237 OA
ATOM     79  O   UNL     1     -12.175   5.199  -4.652  1.00  0.00    -0.237 OA
ATOM     80  O   UNL     1     -10.816   7.221  -4.929  1.00  0.00    -0.744 OA
ENDBRANCH  74  77
ENDBRANCH  46  70
BRANCH  58  81
ATOM     81  C   UNL     1      -6.263   7.045 -14.356  1.00  0.00     0.023 A 
ATOM     82  C   UNL     1      -7.122   8.125 -14.640  1.00  0.00     0.012 A 
ATOM     83  C   UNL     1      -5.918   6.146 -15.384  1.00  0.00     0.148 A 
ATOM     84  C   UNL     1      -7.649   8.293 -15.919  1.00  0.00     0.002 A 
ATOM     85  C   UNL     1      -6.412   6.345 -16.668  1.00  0.00     0.091 A 
ATOM     86  F   UNL     1      -5.115   5.113 -15.088  1.00  0.00    -0.205 F 
ATOM     87  C   UNL     1      -7.285   7.411 -16.935  1.00  0.00     0.022 A 
BRANCH  85  88
ATOM     88  S   UNL     1      -5.923   5.313 -18.055  1.00  0.00     0.127 S 
ATOM     89  O   UNL     1      -7.121   4.501 -18.260  1.00  0.00    -0.237 OA
ATOM     90  O   UNL     1      -5.669   6.301 -19.105  1.00  0.00    -0.237 OA
ATOM     91  O   UNL     1      -4.740   4.585 -17.615  1.00  0.00    -0.744 OA
ENDBRANCH  85  88
ENDBRANCH  58  81
ENDBRANCH  32  33
ENDBRANCH  25  27
ENDBRANCH  24  25
ENDBRANCH  23  24
ENDBRANCH   1  23
TORSDOF 19
