REMARK SMILES O=C(OCCOC(=O)[C@@H]1CC[C@@H](CNC(=O)c2ccc(O)nn2)O1)c1ccc(-c2c3nc(c(-c4cccc(S(=O)(=O)[O-])c4F)c4ccc([nH]4)c(-c4cccc(S(=O)(=O)[O-])c4F)c4nc(c(-c5cccc(S(=O)(=O)[O-])c5F)c5ccc2[nH]5)C=C4)C=C3)cc1
REMARK SMILES IDX 5 1 4 2 3 3 2 4 1 5 25 6 26 7 87 8 27 9 86 10 28 11 29 12
REMARK SMILES IDX 30 13 80 14 31 15 85 16 79 17 81 18 32 19 84 20 78 21 77 22
REMARK SMILES IDX 33 24 65 25 45 26 64 27 46 28 49 29 63 30 82 31 47 32 48 33
REMARK SMILES IDX 62 35 83 36 50 37 34 38 35 39 43 40 36 41 38 42 44 43 37 44
REMARK SMILES IDX 39 45 40 46 41 47 42 48 66 49 67 50 75 51 68 52 70 53 76 54
REMARK SMILES IDX 69 55 71 56 72 57 73 58 74 59 51 60 52 61 60 62 53 63 55 64
REMARK SMILES IDX 61 65 54 66 56 67 57 68 58 69 59 70 6 71 7 72 8 73 9 74
REMARK SMILES IDX 10 75 24 76 11 77 12 78 13 79 14 80 15 81 16 83 17 84 18 85
REMARK SMILES IDX 23 86 19 87 22 88 20 89 21 90
REMARK H PARENT 81 23 49 34 14 82 21 91
REMARK Flexibility Score: inf
ROOT
ATOM      1  C   UNL     1       3.867  -0.269   2.124  1.00  0.00     0.274 C 
ENDROOT
BRANCH   1   2
ATOM      2  C   UNL     1       4.088   0.901   1.156  1.00  0.00     0.275 C 
BRANCH   2   3
ATOM      3  O   UNL     1       3.188   0.938   0.045  1.00  0.00    -0.458 OA
BRANCH   3   4
ATOM      4  C   UNL     1       3.227   0.212  -1.098  1.00  0.00     0.338 C 
ATOM      5  O   UNL     1       2.429   0.506  -1.988  1.00  0.00    -0.246 OA
BRANCH   4   6
ATOM      6  C   UNL     1       4.112  -0.988  -1.300  1.00  0.00     0.060 A 
ATOM      7  C   UNL     1       5.274  -1.323  -0.585  1.00  0.00     0.016 A 
ATOM      8  C   UNL     1       3.695  -1.883  -2.289  1.00  0.00     0.016 A 
ATOM      9  C   UNL     1       5.903  -2.570  -0.724  1.00  0.00     0.010 A 
ATOM     10  C   UNL     1       4.354  -3.098  -2.469  1.00  0.00     0.010 A 
ATOM     11  C   UNL     1       5.427  -3.480  -1.654  1.00  0.00    -0.014 A 
BRANCH  11  12
ATOM     12  C   UNL     1       6.105  -4.764  -1.946  1.00  0.00     0.031 A 
ATOM     13  C   UNL     1       6.932  -4.810  -3.193  1.00  0.00     0.074 A 
ATOM     14  C   UNL     1       5.867  -5.872  -1.216  1.00  0.00     0.049 A 
ATOM     15  N   UNL     1       7.508  -5.828  -3.772  1.00  0.00    -0.248 NA
ATOM     16  C   UNL     1       7.125  -3.524  -3.889  1.00  0.00     0.031 C 
ATOM     17  C   UNL     1       5.132  -5.918   0.048  1.00  0.00     0.029 A 
ATOM     18  N   UNL     1       6.147  -7.192  -1.472  1.00  0.00    -0.354 N 
ATOM     19  C   UNL     1       8.140  -5.303  -4.890  1.00  0.00     0.074 A 
ATOM     20  C   UNL     1       7.836  -3.892  -4.940  1.00  0.00     0.031 C 
ATOM     21  C   UNL     1       4.883  -7.200   0.374  1.00  0.00     0.029 A 
ATOM     22  C   UNL     1       5.485  -8.064  -0.633  1.00  0.00     0.049 A 
ATOM     23  H   UNL     1       6.759  -7.486  -2.185  1.00  0.00     0.167 HD
ATOM     24  C   UNL     1       8.873  -5.959  -5.817  1.00  0.00     0.034 A 
ATOM     25  C   UNL     1       5.380  -9.407  -0.691  1.00  0.00     0.034 A 
ATOM     26  C   UNL     1       9.077  -7.381  -5.798  1.00  0.00     0.049 A 
ATOM     27  C   UNL     1       6.177 -10.129  -1.750  1.00  0.00     0.074 A 
ATOM     28  C   UNL     1       9.644  -8.179  -6.773  1.00  0.00     0.029 A 
ATOM     29  N   UNL     1       8.700  -8.233  -4.764  1.00  0.00    -0.354 N 
ATOM     30  N   UNL     1       6.989  -9.622  -2.649  1.00  0.00    -0.248 NA
ATOM     31  C   UNL     1       6.112 -11.596  -1.762  1.00  0.00     0.031 C 
ATOM     32  C   UNL     1       9.441  -9.515  -6.405  1.00  0.00     0.029 A 
ATOM     33  C   UNL     1       8.803  -9.547  -5.171  1.00  0.00     0.049 A 
ATOM     34  H   UNL     1       8.404  -7.941  -3.872  1.00  0.00     0.167 HD
ATOM     35  C   UNL     1       7.524 -10.697  -3.345  1.00  0.00     0.074 A 
ATOM     36  C   UNL     1       6.989 -11.893  -2.716  1.00  0.00     0.031 C 
ATOM     37  C   UNL     1       8.362 -10.699  -4.415  1.00  0.00     0.034 A 
BRANCH  24  38
ATOM     38  C   UNL     1       9.365  -5.126  -6.969  1.00  0.00     0.023 A 
ATOM     39  C   UNL     1      10.400  -4.190  -6.767  1.00  0.00     0.012 A 
ATOM     40  C   UNL     1       8.734  -5.198  -8.227  1.00  0.00     0.148 A 
ATOM     41  C   UNL     1      10.774  -3.315  -7.787  1.00  0.00     0.002 A 
ATOM     42  C   UNL     1       9.148  -4.358  -9.253  1.00  0.00     0.091 A 
ATOM     43  F   UNL     1       7.710  -6.051  -8.376  1.00  0.00    -0.205 F 
ATOM     44  C   UNL     1      10.155  -3.405  -9.031  1.00  0.00     0.022 A 
BRANCH  42  45
ATOM     45  S   UNL     1       8.447  -4.414 -10.905  1.00  0.00     0.127 S 
ATOM     46  O   UNL     1       7.912  -3.062 -11.046  1.00  0.00    -0.237 OA
ATOM     47  O   UNL     1       9.624  -4.699 -11.720  1.00  0.00    -0.237 OA
ATOM     48  O   UNL     1       7.442  -5.473 -10.876  1.00  0.00    -0.744 OA
ENDBRANCH  42  45
ENDBRANCH  24  38
BRANCH  25  49
ATOM     49  C   UNL     1       4.610 -10.139   0.359  1.00  0.00     0.023 A 
ATOM     50  C   UNL     1       5.319 -10.637   1.469  1.00  0.00     0.012 A 
ATOM     51  C   UNL     1       3.204 -10.273   0.329  1.00  0.00     0.148 A 
ATOM     52  C   UNL     1       4.652 -11.252   2.529  1.00  0.00     0.002 A 
ATOM     53  C   UNL     1       2.543 -10.885   1.395  1.00  0.00     0.091 A 
ATOM     54  F   UNL     1       2.538  -9.774  -0.720  1.00  0.00    -0.205 F 
ATOM     55  C   UNL     1       3.267 -11.374   2.494  1.00  0.00     0.022 A 
BRANCH  53  56
ATOM     56  S   UNL     1       0.754 -11.067   1.489  1.00  0.00     0.127 S 
ATOM     57  O   UNL     1       0.607 -12.505   1.712  1.00  0.00    -0.237 OA
ATOM     58  O   UNL     1       0.434 -10.233   2.648  1.00  0.00    -0.237 OA
ATOM     59  O   UNL     1       0.235 -10.583   0.219  1.00  0.00    -0.744 OA
ENDBRANCH  53  56
ENDBRANCH  25  49
BRANCH  37  60
ATOM     60  C   UNL     1       8.913 -12.015  -4.876  1.00  0.00     0.023 A 
ATOM     61  C   UNL     1       8.155 -12.909  -5.653  1.00  0.00     0.012 A 
ATOM     62  C   UNL     1      10.280 -12.263  -4.653  1.00  0.00     0.148 A 
ATOM     63  C   UNL     1       8.759 -14.043  -6.197  1.00  0.00     0.002 A 
ATOM     64  C   UNL     1      10.884 -13.364  -5.235  1.00  0.00     0.091 A 
ATOM     65  F   UNL     1      10.967 -11.392  -3.898  1.00  0.00    -0.205 F 
ATOM     66  C   UNL     1      10.124 -14.262  -6.002  1.00  0.00     0.022 A 
BRANCH  64  67
ATOM     67  S   UNL     1      12.650 -13.651  -5.112  1.00  0.00     0.127 S 
ATOM     68  O   UNL     1      12.698 -14.860  -4.293  1.00  0.00    -0.237 OA
ATOM     69  O   UNL     1      13.029 -13.842  -6.512  1.00  0.00    -0.237 OA
ATOM     70  O   UNL     1      13.213 -12.460  -4.489  1.00  0.00    -0.744 OA
ENDBRANCH  64  67
ENDBRANCH  37  60
ENDBRANCH  11  12
ENDBRANCH   4   6
ENDBRANCH   3   4
ENDBRANCH   2   3
ENDBRANCH   1   2
BRANCH   1  71
ATOM     71  O   UNL     1       3.281  -1.439   1.515  1.00  0.00    -0.460 OA
BRANCH  71  72
ATOM     72  C   UNL     1       1.929  -1.568   1.654  1.00  0.00     0.335 C 
ATOM     73  O   UNL     1       1.237  -0.775   2.286  1.00  0.00    -0.249 OA
BRANCH  72  74
ATOM     74  C   UNL     1       1.360  -2.861   1.021  1.00  0.00     0.228 C 
ATOM     75  C   UNL     1       1.837  -4.093   1.784  1.00  0.00     0.047 C 
ATOM     76  O   UNL     1       1.535  -3.146  -0.379  1.00  0.00    -0.361 OA
ATOM     77  C   UNL     1       1.591  -5.193   0.782  1.00  0.00     0.037 C 
ATOM     78  C   UNL     1       2.017  -4.503  -0.500  1.00  0.00     0.138 C 
BRANCH  78  79
ATOM     79  C   UNL     1       1.616  -5.287  -1.766  1.00  0.00     0.148 C 
BRANCH  79  80
ATOM     80  N   UNL     1       1.354  -4.467  -2.948  1.00  0.00    -0.348 N 
ATOM     81  C   UNL     1       1.697  -4.654  -4.275  1.00  0.00     0.271 C 
ATOM     82  H   UNL     1       0.848  -3.641  -2.769  1.00  0.00     0.163 HD
ATOM     83  O   UNL     1       1.327  -3.825  -5.108  1.00  0.00    -0.267 OA
BRANCH  81  84
ATOM     84  C   UNL     1       2.630  -5.735  -4.692  1.00  0.00     0.151 A 
ATOM     85  C   UNL     1       3.615  -5.441  -5.629  1.00  0.00     0.042 A 
ATOM     86  N   UNL     1       2.612  -6.885  -3.986  1.00  0.00    -0.142 NA
ATOM     87  C   UNL     1       4.692  -6.300  -5.717  1.00  0.00     0.072 A 
ATOM     88  N   UNL     1       3.671  -7.717  -4.061  1.00  0.00    -0.112 NA
ATOM     89  C   UNL     1       4.693  -7.385  -4.869  1.00  0.00     0.230 A 
BRANCH  89  90
ATOM     90  O   UNL     1       5.851  -8.045  -4.654  1.00  0.00    -0.492 OA
ATOM     91  H   UNL     1       6.601  -7.859  -5.184  1.00  0.00     0.295 HD
ENDBRANCH  89  90
ENDBRANCH  81  84
ENDBRANCH  79  80
ENDBRANCH  78  79
ENDBRANCH  72  74
ENDBRANCH  71  72
ENDBRANCH   1  71
TORSDOF 18
