REMARK SMILES COc1ccccc1-c1nnc(S[C@@H](C)C(=O)OCCOC(=O)c2ccc(-c3c4nc(c(-c5cccc(S(=O)(=O)[O-])c5F)c5ccc([nH]5)c(-c5cccc(S(=O)(=O)[O-])c5F)c5nc(c(-c6cccc(S(=O)(=O)[O-])c6F)c6ccc3[nH]6)C=C5)C=C4)cc2)n1-c1ccccc1
REMARK SMILES IDX 19 1 18 2 16 3 17 4 14 5 15 6 13 7 12 8 9 9 10 10 87 11
REMARK SMILES IDX 11 12 8 13 3 14 4 15 5 16 7 17 6 18 2 19 1 20 88 21 89 22
REMARK SMILES IDX 93 23 90 24 92 25 91 26 20 27 21 28 22 29 23 30 24 31 25 32
REMARK SMILES IDX 86 33 26 34 85 35 27 36 28 37 29 38 79 39 30 40 84 41 78 42
REMARK SMILES IDX 80 43 31 44 83 45 77 46 76 47 32 49 64 50 44 51 63 52 45 53
REMARK SMILES IDX 48 54 62 55 81 56 46 57 47 58 61 60 82 61 49 62 33 63 34 64
REMARK SMILES IDX 42 65 35 66 37 67 43 68 36 69 38 70 39 71 40 72 41 73 65 74
REMARK SMILES IDX 66 75 74 76 67 77 69 78 75 79 68 80 70 81 71 82 72 83 73 84
REMARK SMILES IDX 50 85 51 86 59 87 52 88 54 89 60 90 53 91 55 92 56 93 57 94
REMARK SMILES IDX 58 95
REMARK H PARENT 80 48 48 59
REMARK Flexibility Score: inf
ROOT
ATOM      1  C   UNL     1       4.912   2.351   3.030  1.00  0.00     0.274 C 
ENDROOT
BRANCH   1   2
ATOM      2  O   UNL     1       4.716   2.211   1.600  1.00  0.00    -0.461 OA
BRANCH   2   3
ATOM      3  C   UNL     1       4.446   3.290   0.808  1.00  0.00     0.319 C 
ATOM      4  O   UNL     1       4.291   4.429   1.238  1.00  0.00    -0.251 OA
BRANCH   3   5
ATOM      5  C   UNL     1       4.477   2.967  -0.691  1.00  0.00     0.161 C 
ATOM      6  C   UNL     1       3.469   3.684  -1.593  1.00  0.00     0.032 C 
BRANCH   5   7
ATOM      7  S   UNL     1       4.492   1.257  -1.228  1.00  0.00    -0.071 SA
BRANCH   7   8
ATOM      8  C   UNL     1       3.684   0.194  -0.140  1.00  0.00     0.196 A 
ATOM      9  C   UNL     1       2.615  -0.884   1.428  1.00  0.00     0.173 A 
ATOM     10  N   UNL     1       3.413  -1.737   0.826  1.00  0.00    -0.129 NA
ATOM     11  N   UNL     1       2.735   0.386   0.864  1.00  0.00    -0.270 N 
ATOM     12  N   UNL     1       4.046  -1.074  -0.170  1.00  0.00    -0.122 NA
BRANCH   9  13
ATOM     13  C   UNL     1       1.666  -1.256   2.457  1.00  0.00     0.062 A 
ATOM     14  C   UNL     1       0.297  -0.960   2.368  1.00  0.00     0.129 A 
ATOM     15  C   UNL     1      -0.488  -1.097   3.513  1.00  0.00     0.047 A 
ATOM     16  C   UNL     1       0.058  -1.587   4.704  1.00  0.00     0.004 A 
ATOM     17  C   UNL     1       2.200  -1.799   3.639  1.00  0.00     0.016 A 
ATOM     18  C   UNL     1       1.398  -1.958   4.763  1.00  0.00     0.001 A 
BRANCH  14  19
ATOM     19  O   UNL     1      -0.340  -0.363   1.309  1.00  0.00    -0.496 OA
ATOM     20  C   UNL     1      -0.132  -0.917   0.011  1.00  0.00     0.278 C 
ENDBRANCH  14  19
ENDBRANCH   9  13
BRANCH  11  21
ATOM     21  C   UNL     1       2.009   1.546   1.301  1.00  0.00     0.050 A 
ATOM     22  C   UNL     1       1.427   2.424   0.396  1.00  0.00     0.027 A 
ATOM     23  C   UNL     1       1.931   1.850   2.673  1.00  0.00     0.027 A 
ATOM     24  C   UNL     1       0.974   3.677   0.830  1.00  0.00     0.002 A 
ATOM     25  C   UNL     1       1.519   3.114   3.102  1.00  0.00     0.002 A 
ATOM     26  C   UNL     1       1.077   4.043   2.171  1.00  0.00     0.000 A 
ENDBRANCH  11  21
ENDBRANCH   7   8
ENDBRANCH   5   7
ENDBRANCH   3   5
ENDBRANCH   2   3
ENDBRANCH   1   2
BRANCH   1  27
ATOM     27  C   UNL     1       6.357   2.081   3.398  1.00  0.00     0.275 C 
BRANCH  27  28
ATOM     28  O   UNL     1       7.104   3.165   2.888  1.00  0.00    -0.458 OA
BRANCH  28  29
ATOM     29  C   UNL     1       7.307   3.100   1.549  1.00  0.00     0.338 C 
ATOM     30  O   UNL     1       7.192   2.126   0.836  1.00  0.00    -0.246 OA
BRANCH  29  31
ATOM     31  C   UNL     1       7.680   4.453   1.059  1.00  0.00     0.060 A 
ATOM     32  C   UNL     1       8.241   4.364  -0.216  1.00  0.00     0.016 A 
ATOM     33  C   UNL     1       8.253   5.240   2.052  1.00  0.00     0.016 A 
ATOM     34  C   UNL     1       9.607   4.459  -0.277  1.00  0.00     0.010 A 
ATOM     35  C   UNL     1       9.614   5.305   2.015  1.00  0.00     0.010 A 
ATOM     36  C   UNL     1      10.278   4.783   0.900  1.00  0.00    -0.014 A 
BRANCH  36  37
ATOM     37  C   UNL     1      11.718   4.755   0.920  1.00  0.00     0.031 A 
ATOM     38  C   UNL     1      12.225   6.084   0.530  1.00  0.00     0.074 A 
ATOM     39  C   UNL     1      12.436   3.739   1.429  1.00  0.00     0.049 A 
ATOM     40  N   UNL     1      12.515   6.491  -0.666  1.00  0.00    -0.248 NA
ATOM     41  C   UNL     1      11.996   7.175   1.494  1.00  0.00     0.031 C 
ATOM     42  C   UNL     1      11.987   2.538   2.139  1.00  0.00     0.029 A 
ATOM     43  N   UNL     1      13.784   3.656   1.527  1.00  0.00    -0.354 N 
ATOM     44  C   UNL     1      12.757   7.846  -0.481  1.00  0.00     0.074 A 
ATOM     45  C   UNL     1      11.988   8.221   0.667  1.00  0.00     0.031 C 
ATOM     46  C   UNL     1      13.041   2.005   2.808  1.00  0.00     0.029 A 
ATOM     47  C   UNL     1      14.240   2.762   2.486  1.00  0.00     0.049 A 
ATOM     48  H   UNL     1      14.392   4.188   0.964  1.00  0.00     0.167 HD
ATOM     49  C   UNL     1      13.912   8.421  -0.916  1.00  0.00     0.034 A 
ATOM     50  C   UNL     1      15.486   2.759   3.031  1.00  0.00     0.034 A 
ATOM     51  C   UNL     1      14.586   7.564  -1.863  1.00  0.00     0.049 A 
ATOM     52  C   UNL     1      16.355   3.576   2.139  1.00  0.00     0.074 A 
ATOM     53  C   UNL     1      14.237   6.962  -3.056  1.00  0.00     0.029 A 
ATOM     54  N   UNL     1      15.666   6.859  -1.384  1.00  0.00    -0.354 N 
ATOM     55  N   UNL     1      16.634   3.243   0.909  1.00  0.00    -0.248 NA
ATOM     56  C   UNL     1      16.488   4.993   2.446  1.00  0.00     0.031 C 
ATOM     57  C   UNL     1      14.831   5.666  -3.006  1.00  0.00     0.029 A 
ATOM     58  C   UNL     1      15.574   5.566  -1.828  1.00  0.00     0.049 A 
ATOM     59  H   UNL     1      16.385   7.223  -0.817  1.00  0.00     0.167 HD
ATOM     60  C   UNL     1      16.522   4.429   0.191  1.00  0.00     0.074 A 
ATOM     61  C   UNL     1      16.526   5.486   1.203  1.00  0.00     0.031 C 
ATOM     62  C   UNL     1      16.111   4.426  -1.114  1.00  0.00     0.034 A 
BRANCH  49  63
ATOM     63  C   UNL     1      14.651   9.519  -0.166  1.00  0.00     0.023 A 
ATOM     64  C   UNL     1      15.719  10.131  -0.849  1.00  0.00     0.012 A 
ATOM     65  C   UNL     1      14.538   9.819   1.218  1.00  0.00     0.148 A 
ATOM     66  C   UNL     1      16.648  10.940  -0.184  1.00  0.00     0.002 A 
ATOM     67  C   UNL     1      15.415  10.680   1.860  1.00  0.00     0.091 A 
ATOM     68  F   UNL     1      13.664   9.184   1.994  1.00  0.00    -0.205 F 
ATOM     69  C   UNL     1      16.496  11.219   1.170  1.00  0.00     0.022 A 
BRANCH  67  70
ATOM     70  S   UNL     1      15.228  11.075   3.608  1.00  0.00     0.127 S 
ATOM     71  O   UNL     1      16.335  10.326   4.192  1.00  0.00    -0.237 OA
ATOM     72  O   UNL     1      15.391  12.528   3.601  1.00  0.00    -0.237 OA
ATOM     73  O   UNL     1      13.889  10.630   3.977  1.00  0.00    -0.744 OA
ENDBRANCH  67  70
ENDBRANCH  49  63
BRANCH  50  74
ATOM     74  C   UNL     1      15.894   2.428   4.421  1.00  0.00     0.023 A 
ATOM     75  C   UNL     1      17.233   2.094   4.713  1.00  0.00     0.012 A 
ATOM     76  C   UNL     1      15.031   2.700   5.507  1.00  0.00     0.148 A 
ATOM     77  C   UNL     1      17.695   2.043   6.037  1.00  0.00     0.002 A 
ATOM     78  C   UNL     1      15.490   2.637   6.820  1.00  0.00     0.091 A 
ATOM     79  F   UNL     1      13.783   3.111   5.247  1.00  0.00    -0.205 F 
ATOM     80  C   UNL     1      16.826   2.318   7.090  1.00  0.00     0.022 A 
BRANCH  78  81
ATOM     81  S   UNL     1      14.429   2.995   8.228  1.00  0.00     0.127 S 
ATOM     82  O   UNL     1      14.603   1.795   9.047  1.00  0.00    -0.237 OA
ATOM     83  O   UNL     1      15.044   4.202   8.773  1.00  0.00    -0.237 OA
ATOM     84  O   UNL     1      13.087   3.163   7.686  1.00  0.00    -0.744 OA
ENDBRANCH  78  81
ENDBRANCH  50  74
BRANCH  62  85
ATOM     85  C   UNL     1      15.994   3.087  -1.808  1.00  0.00     0.023 A 
ATOM     86  C   UNL     1      15.036   2.116  -1.441  1.00  0.00     0.012 A 
ATOM     87  C   UNL     1      16.756   2.876  -2.967  1.00  0.00     0.148 A 
ATOM     88  C   UNL     1      14.860   0.954  -2.199  1.00  0.00     0.002 A 
ATOM     89  C   UNL     1      16.549   1.741  -3.743  1.00  0.00     0.091 A 
ATOM     90  F   UNL     1      17.651   3.814  -3.312  1.00  0.00    -0.205 F 
ATOM     91  C   UNL     1      15.609   0.772  -3.358  1.00  0.00     0.022 A 
BRANCH  89  92
ATOM     92  S   UNL     1      17.394   1.507  -5.306  1.00  0.00     0.127 S 
ATOM     93  O   UNL     1      18.323   0.424  -4.991  1.00  0.00    -0.237 OA
ATOM     94  O   UNL     1      16.298   1.132  -6.201  1.00  0.00    -0.237 OA
ATOM     95  O   UNL     1      18.013   2.787  -5.627  1.00  0.00    -0.744 OA
ENDBRANCH  89  92
ENDBRANCH  62  85
ENDBRANCH  36  37
ENDBRANCH  29  31
ENDBRANCH  28  29
ENDBRANCH  27  28
ENDBRANCH   1  27
TORSDOF 19
