REMARK SMILES C[N@@H+]1CCC[C@@H](C(=O)N[C@H](C(=O)OCCOC(=O)c2ccc(-c3c4nc(c(-c5cccc(S(=O)(=O)[O-])c5F)c5ccc([nH]5)c(-c5cccc(S(=O)(=O)[O-])c5F)c5nc(c(-c6cccc(S(=O)(=O)[O-])c6F)c6ccc3[nH]6)C=C5)C=C4)cc2)c2ccccc2)C1
REMARK SMILES IDX 15 1 14 2 13 3 11 4 12 5 10 6 9 7 7 8 8 9 6 11 1 12 2 13
REMARK SMILES IDX 3 14 88 15 4 17 5 18 82 19 83 20 87 21 84 22 86 23 85 24
REMARK SMILES IDX 16 25 17 26 18 27 19 28 20 29 81 30 21 31 80 32 22 33 23 34
REMARK SMILES IDX 24 35 74 36 25 37 79 38 73 39 75 40 26 41 78 42 72 43 71 44
REMARK SMILES IDX 27 46 59 47 39 48 58 49 40 50 43 51 57 52 76 53 41 54 42 55
REMARK SMILES IDX 56 57 77 58 44 59 28 60 29 61 37 62 30 63 32 64 38 65 31 66
REMARK SMILES IDX 33 67 34 68 35 69 36 70 60 71 61 72 69 73 62 74 64 75 70 76
REMARK SMILES IDX 63 77 65 78 66 79 67 80 68 81 45 82 46 83 54 84 47 85 49 86
REMARK SMILES IDX 55 87 48 88 50 89 51 90 52 91 53 92
REMARK H PARENT 9 10 2 16 75 45 43 56
REMARK Flexibility Score: inf
ROOT
ATOM      1  C   UNL     1       1.984  -1.832   4.979  1.00  0.00     0.275 C 
ENDROOT
BRANCH   1   2
ATOM      2  C   UNL     1       2.491  -1.441   3.590  1.00  0.00     0.274 C 
BRANCH   2   3
ATOM      3  O   UNL     1       2.075  -0.108   3.221  1.00  0.00    -0.460 OA
BRANCH   3   4
ATOM      4  C   UNL     1       0.977  -0.008   2.434  1.00  0.00     0.333 C 
ATOM      5  O   UNL     1       0.392  -1.004   2.007  1.00  0.00    -0.249 OA
BRANCH   4   6
ATOM      6  C   UNL     1       0.556   1.424   2.029  1.00  0.00     0.223 C 
BRANCH   6   7
ATOM      7  N   UNL     1      -0.915   1.474   2.078  1.00  0.00    -0.339 N 
ATOM      8  C   UNL     1      -1.893   1.423   1.147  1.00  0.00     0.229 C 
ATOM      9  O   UNL     1      -3.049   1.469   1.588  1.00  0.00    -0.275 OA
ATOM     10  H   UNL     1      -1.264   1.563   2.994  1.00  0.00     0.164 HD
BRANCH   8  11
ATOM     11  C   UNL     1      -1.690   1.347  -0.364  1.00  0.00     0.133 C 
ATOM     12  C   UNL     1       1.191   3.498  -1.569  1.00  0.00     0.332 C 
ATOM     13  N   UNL     1       0.496   2.311  -1.092  1.00  0.00    -0.337 N 
ATOM     14  C   UNL     1       0.778   1.135  -1.918  1.00  0.00     0.262 C 
ATOM     15  C   UNL     1      -0.947   2.538  -0.972  1.00  0.00     0.275 C 
ATOM     16  H   UNL     1       0.858   2.117  -0.158  1.00  0.00     0.347 HD
ATOM     17  C   UNL     1       0.218  -0.125  -1.261  1.00  0.00     0.062 C 
ATOM     18  C   UNL     1      -1.260  -0.017  -0.905  1.00  0.00     0.025 C 
ENDBRANCH   8  11
ENDBRANCH   6   7
BRANCH   6  19
ATOM     19  C   UNL     1       1.107   2.685   2.707  1.00  0.00    -0.014 A 
ATOM     20  C   UNL     1       2.236   2.750   3.531  1.00  0.00     0.006 A 
ATOM     21  C   UNL     1       0.477   3.917   2.404  1.00  0.00     0.006 A 
ATOM     22  C   UNL     1       2.699   3.973   4.039  1.00  0.00     0.000 A 
ATOM     23  C   UNL     1       0.933   5.136   2.908  1.00  0.00     0.000 A 
ATOM     24  C   UNL     1       2.050   5.163   3.728  1.00  0.00     0.000 A 
ENDBRANCH   6  19
ENDBRANCH   4   6
ENDBRANCH   3   4
ENDBRANCH   2   3
ENDBRANCH   1   2
BRANCH   1  25
ATOM     25  O   UNL     1       0.562  -2.047   4.984  1.00  0.00    -0.458 OA
BRANCH  25  26
ATOM     26  C   UNL     1      -0.172  -0.981   5.374  1.00  0.00     0.338 C 
ATOM     27  O   UNL     1       0.243   0.111   5.722  1.00  0.00    -0.246 OA
BRANCH  26  28
ATOM     28  C   UNL     1      -1.604  -1.273   5.233  1.00  0.00     0.060 A 
ATOM     29  C   UNL     1      -2.215  -0.990   4.015  1.00  0.00     0.016 A 
ATOM     30  C   UNL     1      -2.370  -1.640   6.338  1.00  0.00     0.016 A 
ATOM     31  C   UNL     1      -3.599  -0.964   3.916  1.00  0.00     0.010 A 
ATOM     32  C   UNL     1      -3.763  -1.700   6.212  1.00  0.00     0.010 A 
ATOM     33  C   UNL     1      -4.391  -1.317   5.012  1.00  0.00    -0.014 A 
BRANCH  33  34
ATOM     34  C   UNL     1      -5.870  -1.208   4.918  1.00  0.00     0.031 A 
ATOM     35  C   UNL     1      -6.603  -0.246   5.811  1.00  0.00     0.074 A 
ATOM     36  C   UNL     1      -6.551  -1.938   4.014  1.00  0.00     0.049 A 
ATOM     37  N   UNL     1      -7.890  -0.116   6.006  1.00  0.00    -0.248 NA
ATOM     38  C   UNL     1      -5.780   0.685   6.601  1.00  0.00     0.031 C 
ATOM     39  C   UNL     1      -5.953  -2.861   3.049  1.00  0.00     0.029 A 
ATOM     40  N   UNL     1      -7.896  -2.011   3.754  1.00  0.00    -0.354 N 
ATOM     41  C   UNL     1      -8.026   0.847   6.998  1.00  0.00     0.074 A 
ATOM     42  C   UNL     1      -6.693   1.284   7.353  1.00  0.00     0.031 C 
ATOM     43  C   UNL     1      -6.921  -3.381   2.279  1.00  0.00     0.029 A 
ATOM     44  C   UNL     1      -8.214  -2.887   2.743  1.00  0.00     0.049 A 
ATOM     45  H   UNL     1      -8.570  -1.487   4.244  1.00  0.00     0.167 HD
ATOM     46  C   UNL     1      -9.161   1.330   7.555  1.00  0.00     0.034 A 
ATOM     47  C   UNL     1      -9.412  -3.268   2.259  1.00  0.00     0.034 A 
ATOM     48  C   UNL     1     -10.485   0.962   7.131  1.00  0.00     0.049 A 
ATOM     49  C   UNL     1     -10.658  -2.697   2.875  1.00  0.00     0.074 A 
ATOM     50  C   UNL     1     -11.702   1.392   7.628  1.00  0.00     0.029 A 
ATOM     51  N   UNL     1     -10.763   0.098   6.082  1.00  0.00    -0.354 N 
ATOM     52  N   UNL     1     -10.773  -1.799   3.824  1.00  0.00    -0.248 NA
ATOM     53  C   UNL     1     -11.941  -3.191   2.355  1.00  0.00     0.031 C 
ATOM     54  C   UNL     1     -12.717   0.795   6.871  1.00  0.00     0.029 A 
ATOM     55  C   UNL     1     -12.132  -0.008   5.905  1.00  0.00     0.049 A 
ATOM     56  H   UNL     1     -10.086  -0.372   5.543  1.00  0.00     0.167 HD
ATOM     57  C   UNL     1     -12.136  -1.610   4.007  1.00  0.00     0.074 A 
ATOM     58  C   UNL     1     -12.809  -2.466   3.050  1.00  0.00     0.031 C 
ATOM     59  C   UNL     1     -12.776  -0.822   4.907  1.00  0.00     0.034 A 
BRANCH  46  60
ATOM     60  C   UNL     1      -9.013   2.327   8.671  1.00  0.00     0.023 A 
ATOM     61  C   UNL     1      -8.683   3.664   8.375  1.00  0.00     0.012 A 
ATOM     62  C   UNL     1      -9.218   1.947  10.012  1.00  0.00     0.148 A 
ATOM     63  C   UNL     1      -8.530   4.600   9.398  1.00  0.00     0.002 A 
ATOM     64  C   UNL     1      -9.097   2.894  11.024  1.00  0.00     0.091 A 
ATOM     65  F   UNL     1      -9.498   0.664  10.283  1.00  0.00    -0.205 F 
ATOM     66  C   UNL     1      -8.746   4.218  10.720  1.00  0.00     0.022 A 
BRANCH  64  67
ATOM     67  S   UNL     1      -9.425   2.478  12.741  1.00  0.00     0.127 S 
ATOM     68  O   UNL     1      -8.095   2.113  13.221  1.00  0.00    -0.237 OA
ATOM     69  O   UNL     1      -9.943   3.736  13.283  1.00  0.00    -0.237 OA
ATOM     70  O   UNL     1     -10.407   1.403  12.693  1.00  0.00    -0.744 OA
ENDBRANCH  64  67
ENDBRANCH  46  60
BRANCH  47  71
ATOM     71  C   UNL     1      -9.475  -4.207   1.103  1.00  0.00     0.023 A 
ATOM     72  C   UNL     1      -9.902  -3.722  -0.149  1.00  0.00     0.012 A 
ATOM     73  C   UNL     1      -9.051  -5.546   1.211  1.00  0.00     0.148 A 
ATOM     74  C   UNL     1      -9.911  -4.555  -1.268  1.00  0.00     0.002 A 
ATOM     75  C   UNL     1      -9.007  -6.353   0.080  1.00  0.00     0.091 A 
ATOM     76  F   UNL     1      -8.675  -5.999   2.416  1.00  0.00    -0.205 F 
ATOM     77  C   UNL     1      -9.448  -5.864  -1.158  1.00  0.00     0.022 A 
BRANCH  75  78
ATOM     78  S   UNL     1      -8.285  -7.999   0.109  1.00  0.00     0.127 S 
ATOM     79  O   UNL     1      -9.472  -8.848   0.081  1.00  0.00    -0.237 OA
ATOM     80  O   UNL     1      -7.491  -8.009  -1.121  1.00  0.00    -0.237 OA
ATOM     81  O   UNL     1      -7.490  -8.053   1.329  1.00  0.00    -0.744 OA
ENDBRANCH  75  78
ENDBRANCH  47  71
BRANCH  59  82
ATOM     82  C   UNL     1     -14.280  -0.842   4.895  1.00  0.00     0.023 A 
ATOM     83  C   UNL     1     -14.956  -1.925   5.490  1.00  0.00     0.012 A 
ATOM     84  C   UNL     1     -15.018   0.234   4.368  1.00  0.00     0.148 A 
ATOM     85  C   UNL     1     -16.349  -1.946   5.543  1.00  0.00     0.002 A 
ATOM     86  C   UNL     1     -16.406   0.222   4.455  1.00  0.00     0.091 A 
ATOM     87  F   UNL     1     -14.356   1.243   3.783  1.00  0.00    -0.205 F 
ATOM     88  C   UNL     1     -17.073  -0.868   5.036  1.00  0.00     0.022 A 
BRANCH  86  89
ATOM     89  S   UNL     1     -17.399   1.610   3.894  1.00  0.00     0.127 S 
ATOM     90  O   UNL     1     -17.795   1.175   2.556  1.00  0.00    -0.237 OA
ATOM     91  O   UNL     1     -18.488   1.641   4.872  1.00  0.00    -0.237 OA
ATOM     92  O   UNL     1     -16.516   2.768   3.949  1.00  0.00    -0.744 OA
ENDBRANCH  86  89
ENDBRANCH  59  82
ENDBRANCH  33  34
ENDBRANCH  26  28
ENDBRANCH  25  26
ENDBRANCH   1  25
TORSDOF 17
