REMARK SMILES Cc1cc(NC(=O)c2ccc3ncsc3c2)sc1C(=O)OCCOC(=O)c1ccc(-c2c3nc(c(-c4cccc(S(=O)(=O)[O-])c4F)c4ccc([nH]4)c(-c4cccc(S(=O)(=O)[O-])c4F)c4nc(c(-c5cccc(S(=O)(=O)[O-])c5F)c5ccc2[nH]5)C=C4)C=C3)cc1
REMARK SMILES IDX 23 1 22 2 21 3 19 4 20 5 18 6 1 7 2 8 3 9 4 10 17 11 5 12
REMARK SMILES IDX 6 13 7 15 8 16 9 17 16 18 10 19 15 20 11 21 14 22 12 23
REMARK SMILES IDX 13 24 24 25 25 26 26 27 27 28 28 29 89 30 29 31 88 32 30 33
REMARK SMILES IDX 31 34 32 35 82 36 33 37 87 38 81 39 83 40 34 41 86 42 80 43
REMARK SMILES IDX 79 44 35 46 67 47 47 48 66 49 48 50 51 51 65 52 84 53 49 54
REMARK SMILES IDX 50 55 64 57 85 58 52 59 36 60 37 61 45 62 38 63 40 64 46 65
REMARK SMILES IDX 39 66 41 67 42 68 43 69 44 70 68 71 69 72 77 73 70 74 72 75
REMARK SMILES IDX 78 76 71 77 73 78 74 79 75 80 76 81 53 82 54 83 62 84 55 85
REMARK SMILES IDX 57 86 63 87 56 88 58 89 59 90 60 91 61 92
REMARK H PARENT 5 14 83 45 51 56
REMARK Flexibility Score: inf
ROOT
ATOM      1  C   UNL     1       1.267  -5.008   1.026  1.00  0.00     0.275 C 
ENDROOT
BRANCH   1   2
ATOM      2  C   UNL     1       1.747  -4.384  -0.288  1.00  0.00     0.275 C 
BRANCH   2   3
ATOM      3  O   UNL     1       1.701  -2.948  -0.207  1.00  0.00    -0.458 OA
BRANCH   3   4
ATOM      4  C   UNL     1       0.775  -2.306  -0.979  1.00  0.00     0.348 C 
ATOM      5  O   UNL     1       0.074  -2.864  -1.805  1.00  0.00    -0.245 OA
BRANCH   4   6
ATOM      6  C   UNL     1       0.708  -0.895  -0.610  1.00  0.00     0.117 A 
ATOM      7  C   UNL     1       2.998  -0.376   0.491  1.00  0.00     0.046 C 
ATOM      8  C   UNL     1       1.593  -0.072   0.080  1.00  0.00    -0.023 A 
ATOM      9  C   UNL     1       0.985   1.195   0.371  1.00  0.00     0.042 A 
ATOM     10  C   UNL     1      -0.227   1.362  -0.248  1.00  0.00     0.096 A 
ATOM     11  S   UNL     1      -0.711  -0.023  -1.080  1.00  0.00    -0.111 S 
BRANCH  10  12
ATOM     12  N   UNL     1      -1.092   2.429  -0.348  1.00  0.00    -0.314 N 
ATOM     13  C   UNL     1      -0.770   3.757  -0.162  1.00  0.00     0.256 C 
ATOM     14  H   UNL     1      -2.028   2.224  -0.573  1.00  0.00     0.171 HD
ATOM     15  O   UNL     1      -1.625   4.622   0.004  1.00  0.00    -0.269 OA
BRANCH  13  16
ATOM     16  C   UNL     1       0.649   4.172  -0.257  1.00  0.00     0.041 A 
ATOM     17  C   UNL     1       1.411   3.776  -1.361  1.00  0.00     0.016 A 
ATOM     18  C   UNL     1       1.217   4.876   0.811  1.00  0.00     0.035 A 
ATOM     19  C   UNL     1       2.793   3.970  -1.365  1.00  0.00     0.030 A 
ATOM     20  C   UNL     1       2.611   5.054   0.792  1.00  0.00     0.055 A 
ATOM     21  C   UNL     1       3.409   4.596  -0.263  1.00  0.00     0.081 A 
ATOM     22  S   UNL     1       3.625   5.785   1.979  1.00  0.00    -0.122 S 
ATOM     23  N   UNL     1       4.771   4.791  -0.108  1.00  0.00    -0.245 NA
ATOM     24  C   UNL     1       4.997   5.393   1.036  1.00  0.00     0.176 A 
ENDBRANCH  13  16
ENDBRANCH  10  12
ENDBRANCH   4   6
ENDBRANCH   3   4
ENDBRANCH   2   3
ENDBRANCH   1   2
BRANCH   1  25
ATOM     25  O   UNL     1      -0.158  -4.869   1.174  1.00  0.00    -0.458 OA
BRANCH  25  26
ATOM     26  C   UNL     1      -0.565  -3.807   1.907  1.00  0.00     0.338 C 
ATOM     27  O   UNL     1       0.141  -2.996   2.484  1.00  0.00    -0.246 OA
BRANCH  26  28
ATOM     28  C   UNL     1      -2.023  -3.656   1.774  1.00  0.00     0.060 A 
ATOM     29  C   UNL     1      -2.482  -2.556   1.053  1.00  0.00     0.016 A 
ATOM     30  C   UNL     1      -2.926  -4.522   2.387  1.00  0.00     0.016 A 
ATOM     31  C   UNL     1      -3.843  -2.298   0.941  1.00  0.00     0.010 A 
ATOM     32  C   UNL     1      -4.300  -4.271   2.267  1.00  0.00     0.010 A 
ATOM     33  C   UNL     1      -4.768  -3.150   1.553  1.00  0.00    -0.014 A 
BRANCH  33  34
ATOM     34  C   UNL     1      -6.217  -2.832   1.477  1.00  0.00     0.031 A 
ATOM     35  C   UNL     1      -6.954  -2.387   2.709  1.00  0.00     0.074 A 
ATOM     36  C   UNL     1      -6.866  -2.923   0.300  1.00  0.00     0.049 A 
ATOM     37  N   UNL     1      -8.228  -2.136   2.863  1.00  0.00    -0.248 NA
ATOM     38  C   UNL     1      -6.153  -2.202   3.929  1.00  0.00     0.031 C 
ATOM     39  C   UNL     1      -6.257  -3.323  -0.970  1.00  0.00     0.029 A 
ATOM     40  N   UNL     1      -8.183  -2.699  -0.017  1.00  0.00    -0.354 N 
ATOM     41  C   UNL     1      -8.392  -1.814   4.205  1.00  0.00     0.074 A 
ATOM     42  C   UNL     1      -7.085  -1.899   4.822  1.00  0.00     0.031 C 
ATOM     43  C   UNL     1      -7.199  -3.324  -1.926  1.00  0.00     0.029 A 
ATOM     44  C   UNL     1      -8.485  -2.970  -1.331  1.00  0.00     0.049 A 
ATOM     45  H   UNL     1      -8.847  -2.376   0.634  1.00  0.00     0.167 HD
ATOM     46  C   UNL     1      -9.525  -1.467   4.861  1.00  0.00     0.034 A 
ATOM     47  C   UNL     1      -9.668  -2.962  -1.978  1.00  0.00     0.034 A 
ATOM     48  C   UNL     1     -10.814  -1.335   4.235  1.00  0.00     0.049 A 
ATOM     49  C   UNL     1     -10.912  -2.573  -1.225  1.00  0.00     0.074 A 
ATOM     50  C   UNL     1     -12.014  -0.955   4.809  1.00  0.00     0.029 A 
ATOM     51  N   UNL     1     -11.072  -1.574   2.894  1.00  0.00    -0.354 N 
ATOM     52  N   UNL     1     -11.036  -2.200   0.026  1.00  0.00    -0.248 NA
ATOM     53  C   UNL     1     -12.175  -2.584  -1.977  1.00  0.00     0.031 C 
ATOM     54  C   UNL     1     -13.001  -0.976   3.817  1.00  0.00     0.029 A 
ATOM     55  C   UNL     1     -12.411  -1.354   2.621  1.00  0.00     0.049 A 
ATOM     56  H   UNL     1     -10.400  -1.859   2.232  1.00  0.00     0.167 HD
ATOM     57  C   UNL     1     -12.383  -1.908   0.205  1.00  0.00     0.074 A 
ATOM     58  C   UNL     1     -13.030  -2.123  -1.073  1.00  0.00     0.031 C 
ATOM     59  C   UNL     1     -13.030  -1.519   1.331  1.00  0.00     0.034 A 
BRANCH  46  60
ATOM     60  C   UNL     1      -9.418  -1.179   6.335  1.00  0.00     0.023 A 
ATOM     61  C   UNL     1      -8.839   0.030   6.768  1.00  0.00     0.012 A 
ATOM     62  C   UNL     1      -9.934  -2.080   7.287  1.00  0.00     0.148 A 
ATOM     63  C   UNL     1      -8.749   0.326   8.128  1.00  0.00     0.002 A 
ATOM     64  C   UNL     1      -9.875  -1.760   8.639  1.00  0.00     0.091 A 
ATOM     65  F   UNL     1     -10.458  -3.236   6.856  1.00  0.00    -0.205 F 
ATOM     66  C   UNL     1      -9.275  -0.563   9.061  1.00  0.00     0.022 A 
BRANCH  64  67
ATOM     67  S   UNL     1     -10.589  -2.811   9.910  1.00  0.00     0.127 S 
ATOM     68  O   UNL     1      -9.394  -3.405  10.507  1.00  0.00    -0.237 OA
ATOM     69  O   UNL     1     -11.279  -1.842  10.763  1.00  0.00    -0.237 OA
ATOM     70  O   UNL     1     -11.470  -3.737   9.213  1.00  0.00    -0.744 OA
ENDBRANCH  64  67
ENDBRANCH  46  60
BRANCH  47  71
ATOM     71  C   UNL     1      -9.723  -3.309  -3.427  1.00  0.00     0.023 A 
ATOM     72  C   UNL     1     -10.020  -2.307  -4.370  1.00  0.00     0.012 A 
ATOM     73  C   UNL     1      -9.447  -4.615  -3.876  1.00  0.00     0.148 A 
ATOM     74  C   UNL     1     -10.062  -2.605  -5.733  1.00  0.00     0.002 A 
ATOM     75  C   UNL     1      -9.434  -4.892  -5.239  1.00  0.00     0.091 A 
ATOM     76  F   UNL     1      -9.192  -5.562  -2.962  1.00  0.00    -0.205 F 
ATOM     77  C   UNL     1      -9.756  -3.892  -6.168  1.00  0.00     0.022 A 
BRANCH  75  78
ATOM     78  S   UNL     1      -8.917  -6.486  -5.886  1.00  0.00     0.127 S 
ATOM     79  O   UNL     1     -10.191  -7.073  -6.290  1.00  0.00    -0.237 OA
ATOM     80  O   UNL     1      -8.040  -6.097  -6.992  1.00  0.00    -0.237 OA
ATOM     81  O   UNL     1      -8.230  -7.149  -4.786  1.00  0.00    -0.744 OA
ENDBRANCH  75  78
ENDBRANCH  47  71
BRANCH  59  82
ATOM     82  C   UNL     1     -14.514  -1.276   1.234  1.00  0.00     0.023 A 
ATOM     83  C   UNL     1     -15.393  -2.372   1.143  1.00  0.00     0.012 A 
ATOM     84  C   UNL     1     -15.039   0.029   1.310  1.00  0.00     0.148 A 
ATOM     85  C   UNL     1     -16.773  -2.173   1.101  1.00  0.00     0.002 A 
ATOM     86  C   UNL     1     -16.416   0.218   1.312  1.00  0.00     0.091 A 
ATOM     87  F   UNL     1     -14.185   1.061   1.375  1.00  0.00    -0.205 F 
ATOM     88  C   UNL     1     -17.284  -0.881   1.197  1.00  0.00     0.022 A 
BRANCH  86  89
ATOM     89  S   UNL     1     -17.163   1.839   1.523  1.00  0.00     0.127 S 
ATOM     90  O   UNL     1     -17.603   2.143   0.163  1.00  0.00    -0.237 OA
ATOM     91  O   UNL     1     -18.246   1.564   2.467  1.00  0.00    -0.237 OA
ATOM     92  O   UNL     1     -16.109   2.696   2.049  1.00  0.00    -0.744 OA
ENDBRANCH  86  89
ENDBRANCH  59  82
ENDBRANCH  33  34
ENDBRANCH  26  28
ENDBRANCH  25  26
ENDBRANCH   1  25
TORSDOF 16
