REMARK SMILES O=C(OCCOC(=O)c1ccc2c(c1)[C@@H]1C=CC[C@@H]1[C@H](c1ccncc1)N2)c1ccc(-c2c3nc(c(-c4cccc(S(=O)(=O)[O-])c4F)c4ccc([nH]4)c(-c4cccc(S(=O)(=O)[O-])c4F)c4nc(c(-c5cccc(S(=O)(=O)[O-])c5F)c5ccc2[nH]5)C=C4)C=C3)cc1
REMARK SMILES IDX 4 1 3 2 2 3 1 4 28 5 29 6 90 7 30 8 89 9 31 10 32 11 33 12
REMARK SMILES IDX 83 13 34 14 88 15 82 16 84 17 35 18 87 19 81 20 80 21 36 23
REMARK SMILES IDX 68 24 48 25 67 26 49 27 52 28 66 29 85 30 50 31 51 32 65 34
REMARK SMILES IDX 86 35 53 36 37 37 38 38 46 39 39 40 41 41 47 42 40 43 42 44
REMARK SMILES IDX 43 45 44 46 45 47 69 48 70 49 78 50 71 51 73 52 79 53 72 54
REMARK SMILES IDX 74 55 75 56 76 57 77 58 54 59 55 60 63 61 56 62 58 63 64 64
REMARK SMILES IDX 57 65 59 66 60 67 61 68 62 69 5 70 6 71 7 72 8 73 9 74 10 75
REMARK SMILES IDX 14 76 11 77 13 78 12 79 15 80 27 81 16 82 19 83 20 84 17 86
REMARK SMILES IDX 18 87 21 88 22 89 26 90 23 91 25 92 24 93
REMARK H PARENT 84 22 52 33 27 85
REMARK Flexibility Score: inf
ROOT
ATOM      1  C   UNL     1       3.781   1.575  -0.299  1.00  0.00     0.275 C 
ENDROOT
BRANCH   1   2
ATOM      2  O   UNL     1       2.749   0.703  -0.797  1.00  0.00    -0.458 OA
BRANCH   2   3
ATOM      3  C   UNL     1       2.660  -0.649  -0.764  1.00  0.00     0.338 C 
ATOM      4  O   UNL     1       1.703  -1.198  -1.305  1.00  0.00    -0.246 OA
BRANCH   3   5
ATOM      5  C   UNL     1       3.621  -1.498   0.002  1.00  0.00     0.060 A 
ATOM      6  C   UNL     1       4.975  -1.209   0.170  1.00  0.00     0.016 A 
ATOM      7  C   UNL     1       3.115  -2.669   0.590  1.00  0.00     0.016 A 
ATOM      8  C   UNL     1       5.782  -1.992   0.992  1.00  0.00     0.010 A 
ATOM      9  C   UNL     1       3.918  -3.458   1.421  1.00  0.00     0.010 A 
ATOM     10  C   UNL     1       5.263  -3.115   1.633  1.00  0.00    -0.014 A 
BRANCH  10  11
ATOM     11  C   UNL     1       6.189  -4.010   2.366  1.00  0.00     0.031 A 
ATOM     12  C   UNL     1       6.502  -5.343   1.748  1.00  0.00     0.074 A 
ATOM     13  C   UNL     1       6.798  -3.619   3.509  1.00  0.00     0.049 A 
ATOM     14  N   UNL     1       7.226  -6.314   2.228  1.00  0.00    -0.248 NA
ATOM     15  C   UNL     1       6.003  -5.585   0.379  1.00  0.00     0.031 C 
ATOM     16  C   UNL     1       6.689  -2.296   4.133  1.00  0.00     0.029 A 
ATOM     17  N   UNL     1       7.529  -4.345   4.428  1.00  0.00    -0.354 N 
ATOM     18  C   UNL     1       7.357  -7.227   1.190  1.00  0.00     0.074 A 
ATOM     19  C   UNL     1       6.540  -6.763   0.096  1.00  0.00     0.031 C 
ATOM     20  C   UNL     1       7.144  -2.367   5.401  1.00  0.00     0.029 A 
ATOM     21  C   UNL     1       7.531  -3.740   5.677  1.00  0.00     0.049 A 
ATOM     22  H   UNL     1       7.992  -5.189   4.222  1.00  0.00     0.167 HD
ATOM     23  C   UNL     1       8.173  -8.303   1.136  1.00  0.00     0.034 A 
ATOM     24  C   UNL     1       7.664  -4.303   6.898  1.00  0.00     0.034 A 
ATOM     25  C   UNL     1       8.946  -8.747   2.261  1.00  0.00     0.049 A 
ATOM     26  C   UNL     1       8.229  -5.693   6.931  1.00  0.00     0.074 A 
ATOM     27  C   UNL     1       9.855  -9.784   2.340  1.00  0.00     0.029 A 
ATOM     28  N   UNL     1       8.863  -8.185   3.527  1.00  0.00    -0.354 N 
ATOM     29  N   UNL     1       8.455  -6.509   5.932  1.00  0.00    -0.248 NA
ATOM     30  C   UNL     1       8.703  -6.173   8.233  1.00  0.00     0.031 C 
ATOM     31  C   UNL     1      10.292  -9.871   3.667  1.00  0.00     0.029 A 
ATOM     32  C   UNL     1       9.685  -8.864   4.404  1.00  0.00     0.049 A 
ATOM     33  H   UNL     1       8.300  -7.413   3.765  1.00  0.00     0.167 HD
ATOM     34  C   UNL     1       9.227  -7.535   6.455  1.00  0.00     0.074 A 
ATOM     35  C   UNL     1       9.357  -7.270   7.876  1.00  0.00     0.031 C 
ATOM     36  C   UNL     1       9.830  -8.560   5.804  1.00  0.00     0.034 A 
BRANCH  23  37
ATOM     37  C   UNL     1       8.321  -8.999  -0.188  1.00  0.00     0.023 A 
ATOM     38  C   UNL     1       9.013  -8.348  -1.233  1.00  0.00     0.012 A 
ATOM     39  C   UNL     1       7.822 -10.297  -0.395  1.00  0.00     0.148 A 
ATOM     40  C   UNL     1       9.181  -8.966  -2.471  1.00  0.00     0.002 A 
ATOM     41  C   UNL     1       8.026 -10.922  -1.620  1.00  0.00     0.091 A 
ATOM     42  F   UNL     1       7.152 -10.889   0.604  1.00  0.00    -0.205 F 
ATOM     43  C   UNL     1       8.695 -10.256  -2.661  1.00  0.00     0.022 A 
BRANCH  41  44
ATOM     44  S   UNL     1       7.489 -12.602  -1.955  1.00  0.00     0.127 S 
ATOM     45  O   UNL     1       6.529 -12.395  -3.039  1.00  0.00    -0.237 OA
ATOM     46  O   UNL     1       8.739 -13.244  -2.361  1.00  0.00    -0.237 OA
ATOM     47  O   UNL     1       6.917 -13.100  -0.712  1.00  0.00    -0.744 OA
ENDBRANCH  41  44
ENDBRANCH  23  37
BRANCH  24  48
ATOM     48  C   UNL     1       7.334  -3.594   8.174  1.00  0.00     0.023 A 
ATOM     49  C   UNL     1       8.347  -2.894   8.850  1.00  0.00     0.012 A 
ATOM     50  C   UNL     1       6.057  -3.685   8.782  1.00  0.00     0.148 A 
ATOM     51  C   UNL     1       8.104  -2.310  10.098  1.00  0.00     0.002 A 
ATOM     52  C   UNL     1       5.801  -3.041   9.992  1.00  0.00     0.091 A 
ATOM     53  F   UNL     1       5.133  -4.477   8.228  1.00  0.00    -0.205 F 
ATOM     54  C   UNL     1       6.830  -2.367  10.659  1.00  0.00     0.022 A 
BRANCH  52  55
ATOM     55  S   UNL     1       4.165  -2.980  10.749  1.00  0.00     0.127 S 
ATOM     56  O   UNL     1       4.271  -3.987  11.800  1.00  0.00    -0.237 OA
ATOM     57  O   UNL     1       4.095  -1.598  11.226  1.00  0.00    -0.237 OA
ATOM     58  O   UNL     1       3.219  -3.278   9.681  1.00  0.00    -0.744 OA
ENDBRANCH  52  55
ENDBRANCH  24  48
BRANCH  36  59
ATOM     59  C   UNL     1      10.782  -9.400   6.603  1.00  0.00     0.023 A 
ATOM     60  C   UNL     1      10.305 -10.290   7.581  1.00  0.00     0.012 A 
ATOM     61  C   UNL     1      12.166  -9.319   6.346  1.00  0.00     0.148 A 
ATOM     62  C   UNL     1      11.198 -11.056   8.327  1.00  0.00     0.002 A 
ATOM     63  C   UNL     1      13.042 -10.133   7.046  1.00  0.00     0.091 A 
ATOM     64  F   UNL     1      12.598  -8.441   5.428  1.00  0.00    -0.205 F 
ATOM     65  C   UNL     1      12.563 -10.988   8.050  1.00  0.00     0.022 A 
BRANCH  63  66
ATOM     66  S   UNL     1      14.797 -10.193   6.672  1.00  0.00     0.127 S 
ATOM     67  O   UNL     1      15.373  -9.513   7.831  1.00  0.00    -0.237 OA
ATOM     68  O   UNL     1      15.050 -11.633   6.620  1.00  0.00    -0.237 OA
ATOM     69  O   UNL     1      14.961  -9.506   5.398  1.00  0.00    -0.744 OA
ENDBRANCH  63  66
ENDBRANCH  36  59
ENDBRANCH  10  11
ENDBRANCH   3   5
ENDBRANCH   2   3
ENDBRANCH   1   2
BRANCH   1  70
ATOM     70  C   UNL     1       3.815   1.812   1.218  1.00  0.00     0.275 C 
BRANCH  70  71
ATOM     71  O   UNL     1       3.401   0.695   2.022  1.00  0.00    -0.458 OA
BRANCH  71  72
ATOM     72  C   UNL     1       2.070   0.653   2.289  1.00  0.00     0.338 C 
ATOM     73  O   UNL     1       1.244   1.480   1.921  1.00  0.00    -0.246 OA
BRANCH  72  74
ATOM     74  C   UNL     1       1.689  -0.597   2.987  1.00  0.00     0.060 A 
ATOM     75  C   UNL     1       0.627  -1.343   2.468  1.00  0.00     0.018 A 
ATOM     76  C   UNL     1       2.314  -1.029   4.155  1.00  0.00     0.022 A 
ATOM     77  C   UNL     1       0.187  -2.507   3.116  1.00  0.00     0.027 A 
ATOM     78  C   UNL     1       1.852  -2.194   4.820  1.00  0.00    -0.017 A 
ATOM     79  C   UNL     1       0.755  -2.926   4.323  1.00  0.00     0.038 A 
ATOM     80  C   UNL     1       2.557  -2.670   6.070  1.00  0.00     0.049 C 
ATOM     81  N   UNL     1       0.269  -4.061   4.977  1.00  0.00    -0.378 N 
ATOM     82  C   UNL     1       3.985  -2.986   5.796  1.00  0.00    -0.023 C 
ATOM     83  C   UNL     1       2.105  -4.036   6.574  1.00  0.00     0.031 C 
ATOM     84  C   UNL     1       0.619  -4.254   6.387  1.00  0.00     0.114 C 
ATOM     85  H   UNL     1      -0.294  -4.715   4.503  1.00  0.00     0.161 HD
ATOM     86  C   UNL     1       4.206  -4.296   5.640  1.00  0.00    -0.030 C 
ATOM     87  C   UNL     1       2.984  -5.088   5.883  1.00  0.00     0.034 C 
BRANCH  84  88
ATOM     88  C   UNL     1       0.287  -5.623   6.972  1.00  0.00    -0.022 A 
ATOM     89  C   UNL     1       0.443  -5.795   8.363  1.00  0.00     0.026 A 
ATOM     90  C   UNL     1       0.054  -6.765   6.205  1.00  0.00     0.026 A 
ATOM     91  C   UNL     1       0.383  -7.067   8.906  1.00  0.00     0.111 A 
ATOM     92  C   UNL     1      -0.014  -7.996   6.848  1.00  0.00     0.111 A 
ATOM     93  N   UNL     1       0.129  -8.174   8.180  1.00  0.00    -0.265 NA
ENDBRANCH  84  88
ENDBRANCH  72  74
ENDBRANCH  71  72
ENDBRANCH  70  71
ENDBRANCH   1  70
TORSDOF 15
