REMARK SMILES CC(C)Cc1ccc(S(=O)(=O)Nc2cnc(N3CCCC3)c(C(=O)OCCOC(=O)c3ccc(-c4c5nc(c(-c6cccc(S(=O)(=O)[O-])c6F)c6ccc([nH]6)c(-c6cccc(S(=O)(=O)[O-])c6F)c6nc(c(-c7cccc(S(=O)(=O)[O-])c7F)c7ccc4[nH]7)C=C6)C=C5)cc3)c2)cc1
REMARK SMILES IDX 26 1 25 2 23 3 24 4 22 5 13 6 14 7 94 8 15 9 16 10 12 11
REMARK SMILES IDX 9 13 10 14 11 15 8 16 5 17 6 18 96 19 7 20 95 21 4 22 2 23
REMARK SMILES IDX 1 24 3 25 17 26 18 27 21 28 19 29 20 30 27 31 28 32 29 33
REMARK SMILES IDX 30 34 31 35 32 36 93 37 33 38 92 39 34 40 35 41 36 42 86 43
REMARK SMILES IDX 37 44 91 45 85 46 87 47 38 48 90 49 84 50 83 51 39 53 71 54
REMARK SMILES IDX 51 55 70 56 52 57 55 58 69 59 88 60 53 61 54 62 68 64 89 65
REMARK SMILES IDX 56 66 40 67 41 68 49 69 42 70 44 71 50 72 43 73 45 74 46 75
REMARK SMILES IDX 47 76 48 77 72 78 73 79 81 80 74 81 76 82 82 83 75 84 77 85
REMARK SMILES IDX 78 86 79 87 80 88 57 89 58 90 66 91 59 92 61 93 67 94 60 95
REMARK SMILES IDX 62 96 63 97 64 98 65 99
REMARK H PARENT 12 12 87 52 55 63
REMARK Flexibility Score: inf
ROOT
ATOM      1  C   UNL     1      -3.724  -4.748   2.010  1.00  0.00     0.275 C 
ENDROOT
BRANCH   1   2
ATOM      2  O   UNL     1      -3.422  -5.435   0.776  1.00  0.00    -0.458 OA
BRANCH   2   3
ATOM      3  C   UNL     1      -2.129  -5.346   0.382  1.00  0.00     0.342 C 
ATOM      4  O   UNL     1      -1.281  -4.644   0.910  1.00  0.00    -0.246 OA
BRANCH   3   5
ATOM      5  C   UNL     1      -1.899  -6.070  -0.880  1.00  0.00     0.104 A 
ATOM      6  C   UNL     1      -2.110  -5.609  -3.220  1.00  0.00     0.068 A 
ATOM      7  C   UNL     1      -1.043  -6.482  -3.401  1.00  0.00     0.140 A 
ATOM      8  C   UNL     1      -2.627  -5.508  -1.948  1.00  0.00     0.048 A 
ATOM      9  N   UNL     1      -0.422  -7.154  -2.402  1.00  0.00    -0.236 NA
ATOM     10  C   UNL     1      -0.804  -6.929  -1.122  1.00  0.00     0.143 A 
BRANCH   6  11
ATOM     11  N   UNL     1      -2.562  -4.811  -4.310  1.00  0.00    -0.278 N 
ATOM     12  H   UNL     1      -2.689  -5.254  -5.180  1.00  0.00     0.180 HD
BRANCH  11  13
ATOM     13  S   UNL     1      -2.896  -3.155  -4.214  1.00  0.00     0.261 S 
ATOM     14  O   UNL     1      -4.336  -3.036  -4.106  1.00  0.00    -0.201 OA
ATOM     15  O   UNL     1      -2.196  -2.577  -5.344  1.00  0.00    -0.201 OA
BRANCH  13  16
ATOM     16  C   UNL     1      -2.211  -2.383  -2.763  1.00  0.00     0.087 A 
ATOM     17  C   UNL     1      -1.384  -1.210  -0.334  1.00  0.00    -0.048 A 
ATOM     18  C   UNL     1      -2.487  -0.698  -1.025  1.00  0.00     0.005 A 
ATOM     19  C   UNL     1      -0.697  -2.298  -0.893  1.00  0.00     0.005 A 
ATOM     20  C   UNL     1      -2.906  -1.289  -2.222  1.00  0.00     0.022 A 
ATOM     21  C   UNL     1      -1.068  -2.846  -2.124  1.00  0.00     0.022 A 
BRANCH  17  22
ATOM     22  C   UNL     1      -0.968  -0.618   0.999  1.00  0.00     0.038 C 
BRANCH  22  23
ATOM     23  C   UNL     1       0.559  -0.513   1.215  1.00  0.00    -0.013 C 
ATOM     24  C   UNL     1       1.220   0.364   0.149  1.00  0.00     0.008 C 
ATOM     25  C   UNL     1       0.879   0.031   2.608  1.00  0.00     0.008 C 
ENDBRANCH  22  23
ENDBRANCH  17  22
ENDBRANCH  13  16
ENDBRANCH  11  13
ENDBRANCH   6  11
BRANCH  10  26
ATOM     26  N   UNL     1      -0.003  -7.537  -0.177  1.00  0.00    -0.356 N 
ATOM     27  C   UNL     1      -0.569  -9.103   0.821  1.00  0.00     0.118 C 
ATOM     28  C   UNL     1       1.188  -6.480   0.773  1.00  0.00     0.118 C 
ATOM     29  C   UNL     1       0.413  -8.854   2.811  1.00  0.00     0.023 C 
ATOM     30  C   UNL     1       1.442  -7.140   2.589  1.00  0.00     0.023 C 
ENDBRANCH  10  26
ENDBRANCH   3   5
ENDBRANCH   2   3
ENDBRANCH   1   2
BRANCH   1  31
ATOM     31  C   UNL     1      -4.113  -5.775   3.065  1.00  0.00     0.275 C 
BRANCH  31  32
ATOM     32  O   UNL     1      -2.983  -6.639   3.282  1.00  0.00    -0.458 OA
BRANCH  32  33
ATOM     33  C   UNL     1      -3.060  -7.819   2.636  1.00  0.00     0.338 C 
ATOM     34  O   UNL     1      -4.025  -8.310   2.075  1.00  0.00    -0.246 OA
BRANCH  33  35
ATOM     35  C   UNL     1      -1.736  -8.430   2.556  1.00  0.00     0.060 A 
ATOM     36  C   UNL     1      -0.422  -7.586   1.825  1.00  0.00     0.016 A 
ATOM     37  C   UNL     1      -1.574 -10.077   2.689  1.00  0.00     0.016 A 
ATOM     38  C   UNL     1       1.160  -8.649   1.162  1.00  0.00     0.010 A 
ATOM     39  C   UNL     1      -0.218 -10.972   2.193  1.00  0.00     0.010 A 
ATOM     40  C   UNL     1       1.170 -10.374   1.418  1.00  0.00    -0.014 A 
BRANCH  40  41
ATOM     41  C   UNL     1       2.349 -11.283   1.164  1.00  0.00     0.031 A 
ATOM     42  C   UNL     1       2.143 -12.728   0.744  1.00  0.00     0.074 A 
ATOM     43  C   UNL     1       3.610 -10.893   1.473  1.00  0.00     0.049 A 
ATOM     44  N   UNL     1       3.001 -13.720   0.740  1.00  0.00    -0.248 NA
ATOM     45  C   UNL     1       0.802 -13.117   0.278  1.00  0.00     0.031 C 
ATOM     46  C   UNL     1       4.017  -9.554   1.867  1.00  0.00     0.029 A 
ATOM     47  N   UNL     1       4.793 -11.599   1.566  1.00  0.00    -0.354 N 
ATOM     48  C   UNL     1       2.293 -14.849   0.334  1.00  0.00     0.074 A 
ATOM     49  C   UNL     1       0.922 -14.431   0.142  1.00  0.00     0.031 C 
ATOM     50  C   UNL     1       5.300  -9.527   2.228  1.00  0.00     0.029 A 
ATOM     51  C   UNL     1       5.830 -10.866   2.112  1.00  0.00     0.049 A 
ATOM     52  H   UNL     1       4.889 -12.534   1.272  1.00  0.00     0.167 HD
ATOM     53  C   UNL     1       2.746 -16.106   0.101  1.00  0.00     0.034 A 
ATOM     54  C   UNL     1       7.077 -11.189   2.502  1.00  0.00     0.034 A 
ATOM     55  C   UNL     1       4.129 -16.496   0.200  1.00  0.00     0.049 A 
ATOM     56  C   UNL     1       7.562 -12.569   2.219  1.00  0.00     0.074 A 
ATOM     57  C   UNL     1       4.707 -17.710  -0.130  1.00  0.00     0.029 A 
ATOM     58  N   UNL     1       5.152 -15.683   0.664  1.00  0.00    -0.354 N 
ATOM     59  N   UNL     1       6.892 -13.579   1.726  1.00  0.00    -0.248 NA
ATOM     60  C   UNL     1       8.984 -12.837   2.462  1.00  0.00     0.031 C 
ATOM     61  C   UNL     1       6.071 -17.644   0.174  1.00  0.00     0.029 A 
ATOM     62  C   UNL     1       6.351 -16.375   0.652  1.00  0.00     0.049 A 
ATOM     63  H   UNL     1       5.042 -14.750   0.959  1.00  0.00     0.167 HD
ATOM     64  C   UNL     1       7.820 -14.590   1.546  1.00  0.00     0.074 A 
ATOM     65  C   UNL     1       9.101 -14.065   1.975  1.00  0.00     0.031 C 
ATOM     66  C   UNL     1       7.623 -15.839   1.063  1.00  0.00     0.034 A 
BRANCH  53  67
ATOM     67  C   UNL     1       1.749 -17.160  -0.327  1.00  0.00     0.023 A 
ATOM     68  C   UNL     1       1.158 -17.103  -1.606  1.00  0.00     0.012 A 
ATOM     69  C   UNL     1       1.457 -18.254   0.514  1.00  0.00     0.148 A 
ATOM     70  C   UNL     1       0.263 -18.089  -2.024  1.00  0.00     0.002 A 
ATOM     71  C   UNL     1       0.603 -19.259   0.072  1.00  0.00     0.091 A 
ATOM     72  F   UNL     1       2.019 -18.292   1.730  1.00  0.00    -0.205 F 
ATOM     73  C   UNL     1      -0.006 -19.171  -1.190  1.00  0.00     0.022 A 
BRANCH  71  74
ATOM     74  S   UNL     1       0.256 -20.736   1.036  1.00  0.00     0.127 S 
ATOM     75  O   UNL     1      -1.160 -20.556   1.352  1.00  0.00    -0.237 OA
ATOM     76  O   UNL     1       0.535 -21.802   0.073  1.00  0.00    -0.237 OA
ATOM     77  O   UNL     1       1.158 -20.694   2.178  1.00  0.00    -0.744 OA
ENDBRANCH  71  74
ENDBRANCH  53  67
BRANCH  54  78
ATOM     78  C   UNL     1       7.961 -10.144   3.102  1.00  0.00     0.023 A 
ATOM     79  C   UNL     1       9.011  -9.601   2.338  1.00  0.00     0.012 A 
ATOM     80  C   UNL     1       7.707  -9.623   4.388  1.00  0.00     0.148 A 
ATOM     81  C   UNL     1       9.814  -8.582   2.854  1.00  0.00     0.002 A 
ATOM     82  C   UNL     1       8.479  -8.573   4.876  1.00  0.00     0.091 A 
ATOM     83  F   UNL     1       6.696 -10.144   5.097  1.00  0.00    -0.205 F 
ATOM     84  C   UNL     1       9.543  -8.062   4.117  1.00  0.00     0.022 A 
BRANCH  82  85
ATOM     85  S   UNL     1       8.118  -7.750   6.433  1.00  0.00     0.127 S 
ATOM     86  O   UNL     1       9.207  -8.224   7.282  1.00  0.00    -0.237 OA
ATOM     87  O   UNL     1       8.201  -6.337   6.058  1.00  0.00    -0.237 OA
ATOM     88  O   UNL     1       6.781  -8.190   6.809  1.00  0.00    -0.744 OA
ENDBRANCH  82  85
ENDBRANCH  54  78
BRANCH  66  89
ATOM     89  C   UNL     1       8.833 -16.720   0.949  1.00  0.00     0.023 A 
ATOM     90  C   UNL     1       9.447 -17.225   2.112  1.00  0.00     0.012 A 
ATOM     91  C   UNL     1       9.336 -17.076  -0.316  1.00  0.00     0.148 A 
ATOM     92  C   UNL     1      10.572 -18.040   2.017  1.00  0.00     0.002 A 
ATOM     93  C   UNL     1      10.421 -17.936  -0.404  1.00  0.00     0.091 A 
ATOM     94  F   UNL     1       8.749 -16.561  -1.407  1.00  0.00    -0.205 F 
ATOM     95  C   UNL     1      11.051 -18.405   0.760  1.00  0.00     0.022 A 
BRANCH  93  96
ATOM     96  S   UNL     1      11.043 -18.540  -1.975  1.00  0.00     0.127 S 
ATOM     97  O   UNL     1      12.335 -17.863  -2.064  1.00  0.00    -0.237 OA
ATOM     98  O   UNL     1      11.123 -19.982  -1.738  1.00  0.00    -0.237 OA
ATOM     99  O   UNL     1      10.062 -18.145  -2.977  1.00  0.00    -0.744 OA
ENDBRANCH  93  96
ENDBRANCH  66  89
ENDBRANCH  40  41
ENDBRANCH  33  35
ENDBRANCH  32  33
ENDBRANCH  31  32
ENDBRANCH   1  31
TORSDOF 20
