REMARK SMILES O=C(CCc1nc2ccccc2[nH]1)NCCC(=O)OCCOC(=O)c1ccc(-c2c3nc(c(-c4cccc(S(=O)(=O)[O-])c4F)c4ccc([nH]4)c(-c4cccc(S(=O)(=O)[O-])c4F)c4nc(c(-c5cccc(S(=O)(=O)[O-])c5F)c5ccc2[nH]5)C=C4)C=C3)cc1
REMARK SMILES IDX 20 1 19 2 17 3 18 4 16 5 15 6 14 7 1 8 2 9 3 11 4 12 5 13
REMARK SMILES IDX 6 14 13 15 7 16 12 17 8 19 11 20 9 21 10 22 21 23 22 24
REMARK SMILES IDX 23 25 24 26 25 27 26 28 87 29 27 30 86 31 28 32 29 33 30 34
REMARK SMILES IDX 80 35 31 36 85 37 79 38 81 39 32 40 84 41 78 42 77 43 33 45
REMARK SMILES IDX 65 46 45 47 64 48 46 49 49 50 63 51 82 52 47 53 48 54 62 56
REMARK SMILES IDX 83 57 50 58 34 59 35 60 43 61 36 62 38 63 44 64 37 65 39 66
REMARK SMILES IDX 40 67 41 68 42 69 66 70 67 71 75 72 68 73 70 74 76 75 69 76
REMARK SMILES IDX 71 77 72 78 73 79 74 80 51 81 52 82 60 83 53 84 55 85 61 86
REMARK SMILES IDX 54 87 56 88 57 89 58 90 59 91
REMARK H PARENT 14 10 13 18 81 44 49 55
REMARK Flexibility Score: inf
ROOT
ATOM      1  C   UNL     1       5.847  -4.037   1.157  1.00  0.00     0.274 C 
ENDROOT
BRANCH   1   2
ATOM      2  O   UNL     1       4.672  -3.198   1.097  1.00  0.00    -0.462 OA
BRANCH   2   3
ATOM      3  C   UNL     1       3.494  -3.873   1.209  1.00  0.00     0.307 C 
ATOM      4  O   UNL     1       3.407  -5.084   1.384  1.00  0.00    -0.252 OA
BRANCH   3   5
ATOM      5  C   UNL     1       2.274  -3.015   0.986  1.00  0.00     0.144 C 
BRANCH   5   6
ATOM      6  C   UNL     1       2.230  -1.705   1.764  1.00  0.00     0.127 C 
BRANCH   6   7
ATOM      7  N   UNL     1       2.803  -0.585   1.034  1.00  0.00    -0.356 N 
ATOM      8  O   UNL     1       1.074  -0.438  -0.447  1.00  0.00    -0.275 OA
ATOM      9  C   UNL     1       2.184  -0.058  -0.076  1.00  0.00     0.220 C 
ATOM     10  H   UNL     1       3.653  -0.195   1.341  1.00  0.00     0.163 HD
BRANCH   9  11
ATOM     11  C   UNL     1       3.006   0.874  -0.953  1.00  0.00     0.108 C 
BRANCH  11  12
ATOM     12  C   UNL     1       3.691   2.055  -0.286  1.00  0.00     0.085 C 
BRANCH  12  13
ATOM     13  C   UNL     1       4.974   1.768   0.425  1.00  0.00     0.107 A 
ATOM     14  N   UNL     1       5.643   2.638   1.158  1.00  0.00    -0.233 NA
ATOM     15  N   UNL     1       5.581   0.535   0.480  1.00  0.00    -0.342 N 
ATOM     16  C   UNL     1       6.547   1.898   1.880  1.00  0.00     0.089 A 
ATOM     17  C   UNL     1       6.483   0.565   1.509  1.00  0.00     0.065 A 
ATOM     18  H   UNL     1       5.400  -0.230  -0.113  1.00  0.00     0.168 HD
ATOM     19  C   UNL     1       7.414   2.276   2.914  1.00  0.00     0.030 A 
ATOM     20  C   UNL     1       7.192  -0.444   2.151  1.00  0.00     0.028 A 
ATOM     21  C   UNL     1       8.118   1.274   3.599  1.00  0.00     0.002 A 
ATOM     22  C   UNL     1       7.989  -0.067   3.234  1.00  0.00     0.002 A 
ENDBRANCH  12  13
ENDBRANCH  11  12
ENDBRANCH   9  11
ENDBRANCH   6   7
ENDBRANCH   5   6
ENDBRANCH   3   5
ENDBRANCH   2   3
ENDBRANCH   1   2
BRANCH   1  23
ATOM     23  C   UNL     1       6.449  -4.200   2.558  1.00  0.00     0.275 C 
BRANCH  23  24
ATOM     24  O   UNL     1       5.481  -4.519   3.557  1.00  0.00    -0.458 OA
BRANCH  24  25
ATOM     25  C   UNL     1       4.908  -3.445   4.150  1.00  0.00     0.338 C 
ATOM     26  O   UNL     1       5.074  -2.268   3.894  1.00  0.00    -0.246 OA
BRANCH  25  27
ATOM     27  C   UNL     1       3.996  -3.941   5.178  1.00  0.00     0.060 A 
ATOM     28  C   UNL     1       2.686  -4.270   4.828  1.00  0.00     0.016 A 
ATOM     29  C   UNL     1       4.463  -4.082   6.484  1.00  0.00     0.016 A 
ATOM     30  C   UNL     1       1.825  -4.753   5.804  1.00  0.00     0.010 A 
ATOM     31  C   UNL     1       3.612  -4.609   7.449  1.00  0.00     0.010 A 
ATOM     32  C   UNL     1       2.290  -4.946   7.114  1.00  0.00    -0.014 A 
BRANCH  32  33
ATOM     33  C   UNL     1       1.401  -5.551   8.127  1.00  0.00     0.031 A 
ATOM     34  C   UNL     1       0.899  -4.730   9.276  1.00  0.00     0.074 A 
ATOM     35  C   UNL     1       1.097  -6.858   8.017  1.00  0.00     0.049 A 
ATOM     36  N   UNL     1       0.127  -5.089  10.266  1.00  0.00    -0.248 NA
ATOM     37  C   UNL     1       1.335  -3.325   9.330  1.00  0.00     0.031 C 
ATOM     38  C   UNL     1       1.581  -7.748   6.957  1.00  0.00     0.029 A 
ATOM     39  N   UNL     1       0.326  -7.670   8.806  1.00  0.00    -0.354 N 
ATOM     40  C   UNL     1       0.017  -3.971  11.084  1.00  0.00     0.074 A 
ATOM     41  C   UNL     1       0.809  -2.923  10.478  1.00  0.00     0.031 C 
ATOM     42  C   UNL     1       1.088  -8.980   7.158  1.00  0.00     0.029 A 
ATOM     43  C   UNL     1       0.282  -8.974   8.373  1.00  0.00     0.049 A 
ATOM     44  H   UNL     1      -0.150  -7.350   9.606  1.00  0.00     0.167 HD
ATOM     45  C   UNL     1      -0.693  -3.834  12.228  1.00  0.00     0.034 A 
ATOM     46  C   UNL     1      -0.338 -10.044   8.904  1.00  0.00     0.034 A 
ATOM     47  C   UNL     1      -1.498  -4.883  12.795  1.00  0.00     0.049 A 
ATOM     48  C   UNL     1      -1.157  -9.848  10.149  1.00  0.00     0.074 A 
ATOM     49  C   UNL     1      -2.312  -4.838  13.912  1.00  0.00     0.029 A 
ATOM     50  N   UNL     1      -1.582  -6.173  12.290  1.00  0.00    -0.354 N 
ATOM     51  N   UNL     1      -1.363  -8.749  10.836  1.00  0.00    -0.248 NA
ATOM     52  C   UNL     1      -1.859 -11.027  10.674  1.00  0.00     0.031 C 
ATOM     53  C   UNL     1      -2.870  -6.108  14.095  1.00  0.00     0.029 A 
ATOM     54  C   UNL     1      -2.428  -6.937  13.075  1.00  0.00     0.049 A 
ATOM     55  H   UNL     1      -1.109  -6.498  11.489  1.00  0.00     0.167 HD
ATOM     56  C   UNL     1      -2.247  -9.093  11.850  1.00  0.00     0.074 A 
ATOM     57  C   UNL     1      -2.551 -10.500  11.675  1.00  0.00     0.031 C 
ATOM     58  C   UNL     1      -2.752  -8.322  12.845  1.00  0.00     0.034 A 
BRANCH  45  59
ATOM     59  C   UNL     1      -0.647  -2.499  12.925  1.00  0.00     0.023 A 
ATOM     60  C   UNL     1      -1.304  -1.389  12.357  1.00  0.00     0.012 A 
ATOM     61  C   UNL     1       0.017  -2.350  14.159  1.00  0.00     0.148 A 
ATOM     62  C   UNL     1      -1.271  -0.144  12.986  1.00  0.00     0.002 A 
ATOM     63  C   UNL     1       0.009  -1.117  14.801  1.00  0.00     0.091 A 
ATOM     64  F   UNL     1       0.657  -3.410  14.672  1.00  0.00    -0.205 F 
ATOM     65  C   UNL     1      -0.623  -0.011  14.210  1.00  0.00     0.022 A 
BRANCH  63  66
ATOM     66  S   UNL     1       0.753  -0.862  16.416  1.00  0.00     0.127 S 
ATOM     67  O   UNL     1       1.930  -0.063  16.076  1.00  0.00    -0.237 OA
ATOM     68  O   UNL     1      -0.295  -0.131  17.127  1.00  0.00    -0.237 OA
ATOM     69  O   UNL     1       1.031  -2.191  16.944  1.00  0.00    -0.744 OA
ENDBRANCH  63  66
ENDBRANCH  45  59
BRANCH  46  70
ATOM     70  C   UNL     1      -0.271 -11.364   8.215  1.00  0.00     0.023 A 
ATOM     71  C   UNL     1      -1.427 -11.876   7.594  1.00  0.00     0.012 A 
ATOM     72  C   UNL     1       0.932 -12.092   8.131  1.00  0.00     0.148 A 
ATOM     73  C   UNL     1      -1.394 -13.102   6.928  1.00  0.00     0.002 A 
ATOM     74  C   UNL     1       0.972 -13.286   7.420  1.00  0.00     0.091 A 
ATOM     75  F   UNL     1       2.020 -11.594   8.737  1.00  0.00    -0.205 F 
ATOM     76  C   UNL     1      -0.194 -13.801   6.832  1.00  0.00     0.022 A 
BRANCH  74  77
ATOM     77  S   UNL     1       2.500 -14.186   7.135  1.00  0.00     0.127 S 
ATOM     78  O   UNL     1       2.333 -15.345   8.008  1.00  0.00    -0.237 OA
ATOM     79  O   UNL     1       2.419 -14.477   5.702  1.00  0.00    -0.237 OA
ATOM     80  O   UNL     1       3.570 -13.266   7.498  1.00  0.00    -0.744 OA
ENDBRANCH  74  77
ENDBRANCH  46  70
BRANCH  58  81
ATOM     81  C   UNL     1      -3.719  -8.974  13.797  1.00  0.00     0.023 A 
ATOM     82  C   UNL     1      -3.250  -9.896  14.752  1.00  0.00     0.012 A 
ATOM     83  C   UNL     1      -5.082  -8.620  13.784  1.00  0.00     0.148 A 
ATOM     84  C   UNL     1      -4.131 -10.485  15.658  1.00  0.00     0.002 A 
ATOM     85  C   UNL     1      -5.944  -9.171  14.723  1.00  0.00     0.091 A 
ATOM     86  F   UNL     1      -5.512  -7.757  12.851  1.00  0.00    -0.205 F 
ATOM     87  C   UNL     1      -5.474 -10.113  15.652  1.00  0.00     0.022 A 
BRANCH  85  88
ATOM     88  S   UNL     1      -7.664  -8.670  14.849  1.00  0.00     0.127 S 
ATOM     89  O   UNL     1      -8.351  -9.803  14.232  1.00  0.00    -0.237 OA
ATOM     90  O   UNL     1      -7.852  -8.556  16.296  1.00  0.00    -0.237 OA
ATOM     91  O   UNL     1      -7.763  -7.406  14.130  1.00  0.00    -0.744 OA
ENDBRANCH  85  88
ENDBRANCH  58  81
ENDBRANCH  32  33
ENDBRANCH  25  27
ENDBRANCH  24  25
ENDBRANCH  23  24
ENDBRANCH   1  23
TORSDOF 19
