REMARK SMILES Cn1c(=O)c(=O)n(C)c2cc(S(=O)(=O)N3CCC[C@H]3C(=O)OCCOC(=O)c3ccc(-c4c5nc(c(-c6cccc(S(=O)(=O)[O-])c6F)c6ccc([nH]6)c(-c6cccc(S(=O)(=O)[O-])c6F)c6nc(c(-c7cccc(S(=O)(=O)[O-])c7F)c7ccc4[nH]7)C=C6)C=C5)cc3)ccc21
REMARK SMILES IDX 24 1 23 2 22 3 20 4 21 5 19 6 15 7 16 8 17 9 18 10 12 11
REMARK SMILES IDX 13 12 14 13 11 14 1 15 2 16 3 17 93 18 4 19 5 20 9 21 92 22
REMARK SMILES IDX 6 23 7 24 10 25 91 26 8 27 25 28 26 29 27 30 28 31 29 32
REMARK SMILES IDX 90 33 30 34 89 35 31 36 32 37 33 38 83 39 34 40 88 41 82 42
REMARK SMILES IDX 84 43 35 44 87 45 81 46 80 47 36 49 68 50 48 51 67 52 49 53
REMARK SMILES IDX 52 54 66 55 85 56 50 57 51 58 65 60 86 61 53 62 37 63 38 64
REMARK SMILES IDX 46 65 39 66 41 67 47 68 40 69 42 70 43 71 44 72 45 73 69 74
REMARK SMILES IDX 70 75 78 76 71 77 73 78 79 79 72 80 74 81 75 82 76 83 77 84
REMARK SMILES IDX 54 85 55 86 63 87 56 88 58 89 64 90 57 91 59 92 60 93 61 94
REMARK SMILES IDX 62 95
REMARK H PARENT 84 48 52 59
REMARK Flexibility Score: inf
ROOT
ATOM      1  C   UNL     1       5.332   8.985  -3.685  1.00  0.00     0.275 C 
ENDROOT
BRANCH   1   2
ATOM      2  C   UNL     1       5.947   7.784  -2.959  1.00  0.00     0.274 C 
BRANCH   2   3
ATOM      3  O   UNL     1       4.941   6.806  -2.637  1.00  0.00    -0.461 OA
BRANCH   3   4
ATOM      4  C   UNL     1       4.340   6.933  -1.416  1.00  0.00     0.324 C 
ATOM      5  O   UNL     1       4.730   7.695  -0.542  1.00  0.00    -0.250 OA
BRANCH   4   6
ATOM      6  C   UNL     1       3.178   5.952  -1.282  1.00  0.00     0.183 C 
ATOM      7  N   UNL     1       2.084   6.416  -0.391  1.00  0.00    -0.184 NA
ATOM      8  C   UNL     1       0.843   6.633  -1.148  1.00  0.00     0.103 C 
ATOM      9  C   UNL     1       0.972   5.697  -2.330  1.00  0.00     0.019 C 
ATOM     10  C   UNL     1       2.466   5.653  -2.617  1.00  0.00     0.034 C 
BRANCH   7  11
ATOM     11  S   UNL     1       2.037   6.001   1.233  1.00  0.00     0.243 S 
ATOM     12  O   UNL     1       1.021   6.823   1.853  1.00  0.00    -0.207 OA
ATOM     13  O   UNL     1       3.392   5.940   1.727  1.00  0.00    -0.207 OA
BRANCH  11  14
ATOM     14  C   UNL     1       1.432   4.320   1.302  1.00  0.00     0.084 A 
ATOM     15  C   UNL     1       0.602  -0.648   0.525  1.00  0.00     0.154 C 
ATOM     16  N   UNL     1       0.284   0.265   1.613  1.00  0.00    -0.305 N 
ATOM     17  C   UNL     1      -0.349  -0.249   2.739  1.00  0.00     0.316 A 
ATOM     18  C   UNL     1       0.637   1.635   1.521  1.00  0.00     0.068 A 
ATOM     19  O   UNL     1      -0.664  -1.432   2.851  1.00  0.00    -0.263 OA
ATOM     20  C   UNL     1      -0.659   0.716   3.891  1.00  0.00     0.316 A 
ATOM     21  C   UNL     1       0.357   2.531   2.571  1.00  0.00     0.069 A 
ATOM     22  C   UNL     1       1.286   2.105   0.375  1.00  0.00     0.030 A 
ATOM     23  O   UNL     1      -1.214   0.261   4.889  1.00  0.00    -0.263 OA
ATOM     24  N   UNL     1      -0.291   2.054   3.745  1.00  0.00    -0.305 N 
ATOM     25  C   UNL     1       0.750   3.881   2.444  1.00  0.00     0.050 A 
ATOM     26  C   UNL     1       1.685   3.428   0.272  1.00  0.00     0.024 A 
ATOM     27  C   UNL     1      -0.579   2.962   4.847  1.00  0.00     0.154 C 
ENDBRANCH  11  14
ENDBRANCH   7  11
ENDBRANCH   4   6
ENDBRANCH   3   4
ENDBRANCH   2   3
ENDBRANCH   1   2
BRANCH   1  28
ATOM     28  O   UNL     1       4.689   9.888  -2.767  1.00  0.00    -0.458 OA
BRANCH  28  29
ATOM     29  C   UNL     1       3.365   9.688  -2.562  1.00  0.00     0.338 C 
ATOM     30  O   UNL     1       2.650   8.873  -3.120  1.00  0.00    -0.246 OA
BRANCH  29  31
ATOM     31  C   UNL     1       2.929  10.529  -1.436  1.00  0.00     0.060 A 
ATOM     32  C   UNL     1       2.929  11.919  -1.536  1.00  0.00     0.016 A 
ATOM     33  C   UNL     1       2.497   9.905  -0.265  1.00  0.00     0.016 A 
ATOM     34  C   UNL     1       2.525  12.677  -0.434  1.00  0.00     0.010 A 
ATOM     35  C   UNL     1       2.070  10.656   0.823  1.00  0.00     0.010 A 
ATOM     36  C   UNL     1       2.104  12.050   0.755  1.00  0.00    -0.014 A 
BRANCH  36  37
ATOM     37  C   UNL     1       1.677  12.852   1.923  1.00  0.00     0.031 A 
ATOM     38  C   UNL     1       2.513  12.893   3.173  1.00  0.00     0.074 A 
ATOM     39  C   UNL     1       0.505  13.511   1.863  1.00  0.00     0.049 A 
ATOM     40  N   UNL     1       2.335  13.615   4.248  1.00  0.00    -0.248 NA
ATOM     41  C   UNL     1       3.688  12.006   3.235  1.00  0.00     0.031 C 
ATOM     42  C   UNL     1      -0.443  13.443   0.749  1.00  0.00     0.029 A 
ATOM     43  N   UNL     1      -0.093  14.356   2.760  1.00  0.00    -0.354 N 
ATOM     44  C   UNL     1       3.362  13.265   5.116  1.00  0.00     0.074 A 
ATOM     45  C   UNL     1       4.147  12.245   4.457  1.00  0.00     0.031 C 
ATOM     46  C   UNL     1      -1.495  14.230   1.021  1.00  0.00     0.029 A 
ATOM     47  C   UNL     1      -1.297  14.855   2.326  1.00  0.00     0.049 A 
ATOM     48  H   UNL     1       0.302  14.584   3.633  1.00  0.00     0.167 HD
ATOM     49  C   UNL     1       3.643  13.778   6.336  1.00  0.00     0.034 A 
ATOM     50  C   UNL     1      -2.137  15.734   2.905  1.00  0.00     0.034 A 
ATOM     51  C   UNL     1       2.885  14.825   6.961  1.00  0.00     0.049 A 
ATOM     52  C   UNL     1      -1.754  16.352   4.220  1.00  0.00     0.074 A 
ATOM     53  C   UNL     1       3.147  15.479   8.152  1.00  0.00     0.029 A 
ATOM     54  N   UNL     1       1.720  15.371   6.449  1.00  0.00    -0.354 N 
ATOM     55  N   UNL     1      -0.680  16.142   4.942  1.00  0.00    -0.248 NA
ATOM     56  C   UNL     1      -2.670  17.355   4.781  1.00  0.00     0.031 C 
ATOM     57  C   UNL     1       2.140  16.425   8.359  1.00  0.00     0.029 A 
ATOM     58  C   UNL     1       1.252  16.358   7.297  1.00  0.00     0.049 A 
ATOM     59  H   UNL     1       1.289  15.097   5.607  1.00  0.00     0.167 HD
ATOM     60  C   UNL     1      -0.784  16.994   6.034  1.00  0.00     0.074 A 
ATOM     61  C   UNL     1      -2.013  17.742   5.867  1.00  0.00     0.031 C 
ATOM     62  C   UNL     1       0.055  17.128   7.089  1.00  0.00     0.034 A 
BRANCH  49  63
ATOM     63  C   UNL     1       4.881  13.303   7.045  1.00  0.00     0.023 A 
ATOM     64  C   UNL     1       6.125  13.838   6.657  1.00  0.00     0.012 A 
ATOM     65  C   UNL     1       4.806  12.461   8.172  1.00  0.00     0.148 A 
ATOM     66  C   UNL     1       7.280  13.543   7.378  1.00  0.00     0.002 A 
ATOM     67  C   UNL     1       5.958  12.192   8.902  1.00  0.00     0.091 A 
ATOM     68  F   UNL     1       3.609  11.968   8.521  1.00  0.00    -0.205 F 
ATOM     69  C   UNL     1       7.195  12.730   8.505  1.00  0.00     0.022 A 
BRANCH  67  70
ATOM     70  S   UNL     1       5.959  11.205  10.403  1.00  0.00     0.127 S 
ATOM     71  O   UNL     1       6.899  10.138  10.058  1.00  0.00    -0.237 OA
ATOM     72  O   UNL     1       6.458  12.158  11.393  1.00  0.00    -0.237 OA
ATOM     73  O   UNL     1       4.584  10.767  10.603  1.00  0.00    -0.744 OA
ENDBRANCH  67  70
ENDBRANCH  49  63
BRANCH  50  74
ATOM     74  C   UNL     1      -3.371  16.146   2.185  1.00  0.00     0.023 A 
ATOM     75  C   UNL     1      -3.413  17.406   1.559  1.00  0.00     0.012 A 
ATOM     76  C   UNL     1      -4.468  15.273   2.058  1.00  0.00     0.148 A 
ATOM     77  C   UNL     1      -4.536  17.797   0.830  1.00  0.00     0.002 A 
ATOM     78  C   UNL     1      -5.566  15.652   1.296  1.00  0.00     0.091 A 
ATOM     79  F   UNL     1      -4.405  14.082   2.671  1.00  0.00    -0.205 F 
ATOM     80  C   UNL     1      -5.607  16.917   0.690  1.00  0.00     0.022 A 
BRANCH  78  81
ATOM     81  S   UNL     1      -6.940  14.543   0.967  1.00  0.00     0.127 S 
ATOM     82  O   UNL     1      -8.005  15.143   1.767  1.00  0.00    -0.237 OA
ATOM     83  O   UNL     1      -7.103  14.683  -0.480  1.00  0.00    -0.237 OA
ATOM     84  O   UNL     1      -6.493  13.225   1.395  1.00  0.00    -0.744 OA
ENDBRANCH  78  81
ENDBRANCH  50  74
BRANCH  62  85
ATOM     85  C   UNL     1      -0.311  18.114   8.160  1.00  0.00     0.023 A 
ATOM     86  C   UNL     1      -1.264  17.747   9.130  1.00  0.00     0.012 A 
ATOM     87  C   UNL     1       0.381  19.334   8.287  1.00  0.00     0.148 A 
ATOM     88  C   UNL     1      -1.527  18.585  10.211  1.00  0.00     0.002 A 
ATOM     89  C   UNL     1       0.137  20.149   9.385  1.00  0.00     0.091 A 
ATOM     90  F   UNL     1       1.277  19.660   7.344  1.00  0.00    -0.205 F 
ATOM     91  C   UNL     1      -0.819  19.777  10.345  1.00  0.00     0.022 A 
BRANCH  89  92
ATOM     92  S   UNL     1       1.049  21.666   9.687  1.00  0.00     0.127 S 
ATOM     93  O   UNL     1       0.012  22.679   9.497  1.00  0.00    -0.237 OA
ATOM     94  O   UNL     1       1.488  21.493  11.072  1.00  0.00    -0.237 OA
ATOM     95  O   UNL     1       2.127  21.693   8.707  1.00  0.00    -0.744 OA
ENDBRANCH  89  92
ENDBRANCH  62  85
ENDBRANCH  36  37
ENDBRANCH  29  31
ENDBRANCH  28  29
ENDBRANCH   1  28
TORSDOF 16
