REMARK SMILES CC(C)C[C@H](NC(=O)[C@@H](NC(=O)[C@H](C)NC(=O)CNC(=O)OCc1ccccc1)C(C)C)C(=O)OCCOC(=O)c1ccc(-c2c3nc(c(-c4cccc(S(=O)(=O)[O-])c4F)c4ccc([nH]4)c(-c4cccc(S(=O)(=O)[O-])c4F)c4nc(c(-c5cccc(S(=O)(=O)[O-])c5F)c5ccc2[nH]5)C=C4)C=C3)cc1
REMARK SMILES IDX 5 1 4 2 2 3 1 4 3 5 33 6 34 7 35 8 36 9 37 10 38 11 39 12
REMARK SMILES IDX 40 13 41 14 42 15 103 16 43 17 102 18 44 19 45 20 46 21
REMARK SMILES IDX 96 22 47 23 101 24 95 25 97 26 48 27 100 28 94 29 93 30
REMARK SMILES IDX 49 32 81 33 61 34 80 35 62 36 65 37 79 38 98 39 63 40 64 41
REMARK SMILES IDX 78 43 99 44 66 45 50 46 51 47 59 48 52 49 54 50 60 51 53 52
REMARK SMILES IDX 55 53 56 54 57 55 58 56 82 57 83 58 91 59 84 60 86 61 92 62
REMARK SMILES IDX 85 63 87 64 88 65 89 66 90 67 67 68 68 69 76 70 69 71 71 72
REMARK SMILES IDX 77 73 70 74 72 75 73 76 74 77 75 78 6 79 7 80 8 82 9 83
REMARK SMILES IDX 10 84 11 85 12 87 13 88 14 89 15 90 16 91 17 93 18 94 19 95
REMARK SMILES IDX 20 96 21 98 22 99 23 100 24 101 25 102 29 103 26 104 28 105
REMARK SMILES IDX 27 106 30 107 31 108 32 109
REMARK H PARENT 97 31 65 42 6 81 10 86 15 92 19 97
REMARK Flexibility Score: inf
ROOT
ATOM      1  C   UNL     1      -3.973  -2.879   2.172  1.00  0.00     0.192 C 
ENDROOT
BRANCH   1   2
ATOM      2  C   UNL     1      -4.564  -2.222   3.454  1.00  0.00     0.040 C 
BRANCH   2   3
ATOM      3  C   UNL     1      -3.718  -1.064   3.995  1.00  0.00    -0.015 C 
ATOM      4  C   UNL     1      -3.912   0.213   3.170  1.00  0.00     0.007 C 
ATOM      5  C   UNL     1      -4.094  -0.785   5.449  1.00  0.00     0.007 C 
ENDBRANCH   2   3
ENDBRANCH   1   2
BRANCH   1   6
ATOM      6  C   UNL     1      -2.860  -4.120   2.757  1.00  0.00     0.328 C 
ATOM      7  O   UNL     1      -1.718  -3.811   3.088  1.00  0.00    -0.250 OA
BRANCH   6   8
ATOM      8  O   UNL     1      -3.341  -5.409   3.009  1.00  0.00    -0.461 OA
BRANCH   8   9
ATOM      9  C   UNL     1      -2.776  -6.879   2.607  1.00  0.00     0.274 C 
BRANCH   9  10
ATOM     10  C   UNL     1      -3.369  -7.821   1.134  1.00  0.00     0.275 C 
BRANCH  10  11
ATOM     11  O   UNL     1      -4.097  -7.154  -0.306  1.00  0.00    -0.458 OA
BRANCH  11  12
ATOM     12  C   UNL     1      -4.141  -5.909  -1.142  1.00  0.00     0.338 C 
ATOM     13  O   UNL     1      -5.179  -5.738  -1.790  1.00  0.00    -0.246 OA
BRANCH  12  14
ATOM     14  C   UNL     1      -2.946  -4.601  -1.302  1.00  0.00     0.060 A 
ATOM     15  C   UNL     1      -3.763  -3.234  -2.047  1.00  0.00     0.016 A 
ATOM     16  C   UNL     1      -1.067  -4.491  -1.287  1.00  0.00     0.016 A 
ATOM     17  C   UNL     1      -2.849  -1.819  -2.755  1.00  0.00     0.010 A 
ATOM     18  C   UNL     1      -0.170  -3.108  -2.056  1.00  0.00     0.010 A 
ATOM     19  C   UNL     1      -1.058  -1.728  -2.701  1.00  0.00    -0.014 A 
BRANCH  19  20
ATOM     20  C   UNL     1      -0.274  -0.564  -3.236  1.00  0.00     0.031 A 
ATOM     21  C   UNL     1      -0.469  -0.124  -4.657  1.00  0.00     0.074 A 
ATOM     22  C   UNL     1       0.673   0.059  -2.491  1.00  0.00     0.049 A 
ATOM     23  N   UNL     1       0.144   0.831  -5.304  1.00  0.00    -0.248 NA
ATOM     24  C   UNL     1      -1.525  -0.786  -5.438  1.00  0.00     0.031 C 
ATOM     25  C   UNL     1       0.853  -0.070  -1.052  1.00  0.00     0.029 A 
ATOM     26  N   UNL     1       1.719   0.890  -2.838  1.00  0.00    -0.354 N 
ATOM     27  C   UNL     1      -0.475   0.910  -6.543  1.00  0.00     0.074 A 
ATOM     28  C   UNL     1      -1.522  -0.082  -6.561  1.00  0.00     0.031 C 
ATOM     29  C   UNL     1       2.039   0.424  -0.673  1.00  0.00     0.029 A 
ATOM     30  C   UNL     1       2.672   1.006  -1.838  1.00  0.00     0.049 A 
ATOM     31  H   UNL     1       1.781   1.353  -3.704  1.00  0.00     0.167 HD
ATOM     32  C   UNL     1      -0.179   1.726  -7.578  1.00  0.00     0.034 A 
ATOM     33  C   UNL     1       3.919   1.517  -1.849  1.00  0.00     0.034 A 
ATOM     34  C   UNL     1       0.951   2.612  -7.588  1.00  0.00     0.049 A 
ATOM     35  C   UNL     1       4.324   2.276  -3.074  1.00  0.00     0.074 A 
ATOM     36  C   UNL     1       1.355   3.478  -8.587  1.00  0.00     0.029 A 
ATOM     37  N   UNL     1       1.902   2.685  -6.581  1.00  0.00    -0.354 N 
ATOM     38  N   UNL     1       3.637   2.456  -4.176  1.00  0.00    -0.248 NA
ATOM     39  C   UNL     1       5.613   2.976  -3.041  1.00  0.00     0.031 C 
ATOM     40  C   UNL     1       2.590   4.017  -8.215  1.00  0.00     0.029 A 
ATOM     41  C   UNL     1       2.926   3.534  -6.959  1.00  0.00     0.049 A 
ATOM     42  H   UNL     1       1.855   2.204  -5.723  1.00  0.00     0.167 HD
ATOM     43  C   UNL     1       4.381   3.328  -4.950  1.00  0.00     0.074 A 
ATOM     44  C   UNL     1       5.572   3.647  -4.184  1.00  0.00     0.031 C 
ATOM     45  C   UNL     1       4.100   3.827  -6.177  1.00  0.00     0.034 A 
BRANCH  32  46
ATOM     46  C   UNL     1      -1.052   1.653  -8.799  1.00  0.00     0.023 A 
ATOM     47  C   UNL     1      -2.338   2.232  -8.783  1.00  0.00     0.012 A 
ATOM     48  C   UNL     1      -0.572   1.062  -9.983  1.00  0.00     0.148 A 
ATOM     49  C   UNL     1      -3.136   2.215  -9.927  1.00  0.00     0.002 A 
ATOM     50  C   UNL     1      -1.357   1.084 -11.129  1.00  0.00     0.091 A 
ATOM     51  F   UNL     1       0.641   0.493  -9.963  1.00  0.00    -0.205 F 
ATOM     52  C   UNL     1      -2.641   1.652 -11.101  1.00  0.00     0.022 A 
BRANCH  50  53
ATOM     53  S   UNL     1      -0.787   0.442 -12.706  1.00  0.00     0.127 S 
ATOM     54  O   UNL     1      -1.772  -0.608 -12.971  1.00  0.00    -0.237 OA
ATOM     55  O   UNL     1      -0.901   1.617 -13.569  1.00  0.00    -0.237 OA
ATOM     56  O   UNL     1       0.571  -0.033 -12.485  1.00  0.00    -0.744 OA
ENDBRANCH  50  53
ENDBRANCH  32  46
BRANCH  33  57
ATOM     57  C   UNL     1       4.830   1.357  -0.673  1.00  0.00     0.023 A 
ATOM     58  C   UNL     1       5.176   2.465   0.125  1.00  0.00     0.012 A 
ATOM     59  C   UNL     1       5.354   0.089  -0.336  1.00  0.00     0.148 A 
ATOM     60  C   UNL     1       6.049   2.321   1.209  1.00  0.00     0.002 A 
ATOM     61  C   UNL     1       6.194  -0.054   0.766  1.00  0.00     0.091 A 
ATOM     62  F   UNL     1       5.031  -0.957  -1.111  1.00  0.00    -0.205 F 
ATOM     63  C   UNL     1       6.552   1.064   1.533  1.00  0.00     0.022 A 
BRANCH  61  64
ATOM     64  S   UNL     1       6.822  -1.651   1.307  1.00  0.00     0.127 S 
ATOM     65  O   UNL     1       8.225  -1.571   0.910  1.00  0.00    -0.237 OA
ATOM     66  O   UNL     1       6.590  -1.599   2.752  1.00  0.00    -0.237 OA
ATOM     67  O   UNL     1       6.021  -2.646   0.607  1.00  0.00    -0.744 OA
ENDBRANCH  61  64
ENDBRANCH  33  57
BRANCH  45  68
ATOM     68  C   UNL     1       5.109   4.764  -6.771  1.00  0.00     0.023 A 
ATOM     69  C   UNL     1       6.346   4.263  -7.221  1.00  0.00     0.012 A 
ATOM     70  C   UNL     1       4.799   6.125  -6.943  1.00  0.00     0.148 A 
ATOM     71  C   UNL     1       7.278   5.116  -7.804  1.00  0.00     0.002 A 
ATOM     72  C   UNL     1       5.708   6.956  -7.578  1.00  0.00     0.091 A 
ATOM     73  F   UNL     1       3.621   6.576  -6.489  1.00  0.00    -0.205 F 
ATOM     74  C   UNL     1       6.955   6.458  -7.995  1.00  0.00     0.022 A 
BRANCH  72  75
ATOM     75  S   UNL     1       5.338   8.669  -7.962  1.00  0.00     0.127 S 
ATOM     76  O   UNL     1       6.271   9.378  -7.087  1.00  0.00    -0.237 OA
ATOM     77  O   UNL     1       5.662   8.740  -9.387  1.00  0.00    -0.237 OA
ATOM     78  O   UNL     1       3.928   8.860  -7.650  1.00  0.00    -0.744 OA
ENDBRANCH  72  75
ENDBRANCH  45  68
ENDBRANCH  19  20
ENDBRANCH  12  14
ENDBRANCH  11  12
ENDBRANCH  10  11
ENDBRANCH   9  10
ENDBRANCH   8   9
ENDBRANCH   6   8
ENDBRANCH   1   6
BRANCH   1  79
ATOM     79  N   UNL     1      -5.228  -2.946   1.232  1.00  0.00    -0.341 N 
ATOM     80  C   UNL     1      -5.922  -2.266   0.265  1.00  0.00     0.243 C 
ATOM     81  H   UNL     1      -5.691  -3.798   1.399  1.00  0.00     0.164 HD
ATOM     82  O   UNL     1      -7.136  -2.536   0.328  1.00  0.00    -0.273 OA
BRANCH  80  83
ATOM     83  C   UNL     1      -5.449  -1.265  -0.885  1.00  0.00     0.174 C 
BRANCH  83  84
ATOM     84  N   UNL     1      -4.094  -0.725  -0.589  1.00  0.00    -0.342 N 
ATOM     85  C   UNL     1      -2.774  -1.090  -0.505  1.00  0.00     0.242 C 
ATOM     86  H   UNL     1      -4.172   0.234  -0.379  1.00  0.00     0.164 HD
ATOM     87  O   UNL     1      -2.114  -0.230   0.100  1.00  0.00    -0.273 OA
BRANCH  85  88
ATOM     88  C   UNL     1      -2.016  -2.640  -0.962  1.00  0.00     0.168 C 
ATOM     89  C   UNL     1      -0.710  -2.637   0.268  1.00  0.00     0.041 C 
BRANCH  88  90
ATOM     90  N   UNL     1      -1.965  -3.669  -2.792  1.00  0.00    -0.343 N 
ATOM     91  C   UNL     1      -2.008  -4.995  -3.444  1.00  0.00     0.240 C 
ATOM     92  H   UNL     1      -1.877  -2.995  -3.504  1.00  0.00     0.164 HD
ATOM     93  O   UNL     1      -2.093  -4.967  -4.680  1.00  0.00    -0.273 OA
BRANCH  91  94
ATOM     94  C   UNL     1      -2.150  -6.490  -2.639  1.00  0.00     0.219 C 
BRANCH  94  95
ATOM     95  N   UNL     1      -1.803  -6.847  -1.092  1.00  0.00    -0.312 N 
ATOM     96  C   UNL     1      -2.005  -6.191   0.241  1.00  0.00     0.407 C 
ATOM     97  H   UNL     1      -1.344  -7.714  -1.009  1.00  0.00     0.167 HD
ATOM     98  O   UNL     1      -0.973  -6.155   0.921  1.00  0.00    -0.225 OA
BRANCH  96  99
ATOM     99  O   UNL     1      -3.318  -5.489   0.826  1.00  0.00    -0.445 OA
BRANCH  99 100
ATOM    100  C   UNL     1      -5.023  -5.772   1.378  1.00  0.00     0.270 C 
BRANCH 100 101
ATOM    101  C   UNL     1      -5.649  -6.902   2.312  1.00  0.00    -0.011 A 
ATOM    102  C   UNL     1      -5.389  -7.016   3.704  1.00  0.00     0.007 A 
ATOM    103  C   UNL     1      -6.438  -7.914   1.755  1.00  0.00     0.007 A 
ATOM    104  C   UNL     1      -5.524  -8.240   4.375  1.00  0.00     0.000 A 
ATOM    105  C   UNL     1      -6.655  -9.114   2.456  1.00  0.00     0.000 A 
ATOM    106  C   UNL     1      -6.115  -9.310   3.727  1.00  0.00     0.000 A 
ENDBRANCH 100 101
ENDBRANCH  99 100
ENDBRANCH  96  99
ENDBRANCH  94  95
ENDBRANCH  91  94
ENDBRANCH  88  90
ENDBRANCH  85  88
ENDBRANCH  83  84
BRANCH  83 107
ATOM    107  C   UNL     1      -5.981  -1.493  -2.464  1.00  0.00     0.015 C 
ATOM    108  C   UNL     1      -7.318  -2.235  -2.686  1.00  0.00     0.010 C 
ATOM    109  C   UNL     1      -5.777  -0.362  -3.493  1.00  0.00     0.010 C 
ENDBRANCH  83 107
ENDBRANCH  80  83
ENDBRANCH   1  79
TORSDOF 27
