REMARK SMILES O=C(OCCOC(=O)C1CN(S(=O)(=O)c2ccc(F)cc2)C1)c1ccc(-c2c3nc(c(-c4cccc(S(=O)(=O)[O-])c4F)c4ccc([nH]4)c(-c4cccc(S(=O)(=O)[O-])c4F)c4nc(c(-c5cccc(S(=O)(=O)[O-])c5F)c5ccc2[nH]5)C=C4)C=C3)cc1
REMARK SMILES IDX 4 1 3 2 2 3 1 4 23 5 24 6 85 7 25 8 84 9 26 10 27 11 28 12
REMARK SMILES IDX 78 13 29 14 83 15 77 16 79 17 30 18 82 19 76 20 75 21 31 23
REMARK SMILES IDX 63 24 43 25 62 26 44 27 47 28 61 29 80 30 45 31 46 32 60 34
REMARK SMILES IDX 81 35 48 36 32 37 33 38 41 39 34 40 36 41 42 42 35 43 37 44
REMARK SMILES IDX 38 45 39 46 40 47 64 48 65 49 73 50 66 51 68 52 74 53 67 54
REMARK SMILES IDX 69 55 70 56 71 57 72 58 49 59 50 60 58 61 51 62 53 63 59 64
REMARK SMILES IDX 52 65 54 66 55 67 56 68 57 69 5 70 6 71 7 72 8 73 9 74 10 75
REMARK SMILES IDX 22 76 11 77 12 78 13 79 14 80 15 81 16 82 21 83 17 84 20 85
REMARK SMILES IDX 18 86 19 87
REMARK H PARENT 79 22 47 33
REMARK Flexibility Score: inf
ROOT
ATOM      1  C   UNL     1       4.032  -1.567   0.328  1.00  0.00     0.275 C 
ENDROOT
BRANCH   1   2
ATOM      2  O   UNL     1       3.108  -0.675   0.962  1.00  0.00    -0.458 OA
BRANCH   2   3
ATOM      3  C   UNL     1       3.165   0.674   1.054  1.00  0.00     0.338 C 
ATOM      4  O   UNL     1       2.447   1.236   1.879  1.00  0.00    -0.246 OA
BRANCH   3   5
ATOM      5  C   UNL     1       3.934   1.530   0.097  1.00  0.00     0.060 A 
ATOM      6  C   UNL     1       5.169   1.231  -0.497  1.00  0.00     0.016 A 
ATOM      7  C   UNL     1       3.350   2.770  -0.199  1.00  0.00     0.016 A 
ATOM      8  C   UNL     1       5.760   2.094  -1.437  1.00  0.00     0.010 A 
ATOM      9  C   UNL     1       3.948   3.643  -1.108  1.00  0.00     0.010 A 
ATOM     10  C   UNL     1       5.146   3.300  -1.760  1.00  0.00    -0.014 A 
BRANCH  10  11
ATOM     11  C   UNL     1       5.756   4.293  -2.681  1.00  0.00     0.031 A 
ATOM     12  C   UNL     1       6.220   5.584  -2.073  1.00  0.00     0.074 A 
ATOM     13  C   UNL     1       5.696   4.141  -4.021  1.00  0.00     0.049 A 
ATOM     14  N   UNL     1       6.476   6.725  -2.649  1.00  0.00    -0.248 NA
ATOM     15  C   UNL     1       6.361   5.596  -0.606  1.00  0.00     0.031 C 
ATOM     16  C   UNL     1       5.226   2.949  -4.729  1.00  0.00     0.029 A 
ATOM     17  N   UNL     1       5.915   5.051  -5.029  1.00  0.00    -0.354 N 
ATOM     18  C   UNL     1       6.779   7.601  -1.614  1.00  0.00     0.074 A 
ATOM     19  C   UNL     1       6.618   6.873  -0.375  1.00  0.00     0.031 C 
ATOM     20  C   UNL     1       5.069   3.239  -6.034  1.00  0.00     0.029 A 
ATOM     21  C   UNL     1       5.456   4.627  -6.260  1.00  0.00     0.049 A 
ATOM     22  H   UNL     1       6.357   5.919  -4.886  1.00  0.00     0.167 HD
ATOM     23  C   UNL     1       7.199   8.884  -1.688  1.00  0.00     0.034 A 
ATOM     24  C   UNL     1       5.344   5.297  -7.426  1.00  0.00     0.034 A 
ATOM     25  C   UNL     1       7.401   9.581  -2.924  1.00  0.00     0.049 A 
ATOM     26  C   UNL     1       5.831   6.725  -7.488  1.00  0.00     0.074 A 
ATOM     27  C   UNL     1       7.915  10.848  -3.126  1.00  0.00     0.029 A 
ATOM     28  N   UNL     1       7.100   9.063  -4.174  1.00  0.00    -0.354 N 
ATOM     29  N   UNL     1       6.290   7.482  -6.521  1.00  0.00    -0.248 NA
ATOM     30  C   UNL     1       5.852   7.365  -8.812  1.00  0.00     0.031 C 
ATOM     31  C   UNL     1       7.931  11.093  -4.503  1.00  0.00     0.029 A 
ATOM     32  C   UNL     1       7.438   9.974  -5.155  1.00  0.00     0.049 A 
ATOM     33  H   UNL     1       6.703   8.177  -4.337  1.00  0.00     0.167 HD
ATOM     34  C   UNL     1       6.718   8.659  -7.130  1.00  0.00     0.074 A 
ATOM     35  C   UNL     1       6.463   8.512  -8.548  1.00  0.00     0.031 C 
ATOM     36  C   UNL     1       7.268   9.763  -6.569  1.00  0.00     0.034 A 
BRANCH  23  37
ATOM     37  C   UNL     1       7.556   9.568  -0.397  1.00  0.00     0.023 A 
ATOM     38  C   UNL     1       8.709   9.148   0.300  1.00  0.00     0.012 A 
ATOM     39  C   UNL     1       6.784  10.626   0.117  1.00  0.00     0.148 A 
ATOM     40  C   UNL     1       9.063   9.736   1.511  1.00  0.00     0.002 A 
ATOM     41  C   UNL     1       7.170  11.240   1.303  1.00  0.00     0.091 A 
ATOM     42  F   UNL     1       5.689  11.004  -0.557  1.00  0.00    -0.205 F 
ATOM     43  C   UNL     1       8.298  10.785   2.009  1.00  0.00     0.022 A 
BRANCH  41  44
ATOM     44  S   UNL     1       6.301  12.645   2.006  1.00  0.00     0.127 S 
ATOM     45  O   UNL     1       5.896  12.120   3.311  1.00  0.00    -0.237 OA
ATOM     46  O   UNL     1       7.356  13.656   2.057  1.00  0.00    -0.237 OA
ATOM     47  O   UNL     1       5.203  12.940   1.097  1.00  0.00    -0.744 OA
ENDBRANCH  41  44
ENDBRANCH  23  37
BRANCH  24  48
ATOM     48  C   UNL     1       4.863   4.623  -8.669  1.00  0.00     0.023 A 
ATOM     49  C   UNL     1       5.815   4.277  -9.651  1.00  0.00     0.012 A 
ATOM     50  C   UNL     1       3.498   4.384  -8.922  1.00  0.00     0.148 A 
ATOM     51  C   UNL     1       5.418   3.754 -10.881  1.00  0.00     0.002 A 
ATOM     52  C   UNL     1       3.111   3.832 -10.142  1.00  0.00     0.091 A 
ATOM     53  F   UNL     1       2.609   4.717  -7.977  1.00  0.00    -0.205 F 
ATOM     54  C   UNL     1       4.068   3.532 -11.127  1.00  0.00     0.022 A 
BRANCH  52  55
ATOM     55  S   UNL     1       1.402   3.464 -10.568  1.00  0.00     0.127 S 
ATOM     56  O   UNL     1       1.198   4.312 -11.741  1.00  0.00    -0.237 OA
ATOM     57  O   UNL     1       1.472   2.030 -10.855  1.00  0.00    -0.237 OA
ATOM     58  O   UNL     1       0.614   3.825  -9.399  1.00  0.00    -0.744 OA
ENDBRANCH  52  55
ENDBRANCH  24  48
BRANCH  36  59
ATOM     59  C   UNL     1       7.721  10.872  -7.479  1.00  0.00     0.023 A 
ATOM     60  C   UNL     1       6.774  11.718  -8.086  1.00  0.00     0.012 A 
ATOM     61  C   UNL     1       9.096  11.148  -7.628  1.00  0.00     0.148 A 
ATOM     62  C   UNL     1       7.189  12.812  -8.844  1.00  0.00     0.002 A 
ATOM     63  C   UNL     1       9.500  12.270  -8.339  1.00  0.00     0.091 A 
ATOM     64  F   UNL     1       9.982  10.314  -7.063  1.00  0.00    -0.205 F 
ATOM     65  C   UNL     1       8.549  13.098  -8.955  1.00  0.00     0.022 A 
BRANCH  63  66
ATOM     66  S   UNL     1      11.223  12.773  -8.426  1.00  0.00     0.127 S 
ATOM     67  O   UNL     1      11.592  12.346  -9.774  1.00  0.00    -0.237 OA
ATOM     68  O   UNL     1      11.137  14.223  -8.248  1.00  0.00    -0.237 OA
ATOM     69  O   UNL     1      11.896  12.074  -7.339  1.00  0.00    -0.744 OA
ENDBRANCH  63  66
ENDBRANCH  36  59
ENDBRANCH  10  11
ENDBRANCH   3   5
ENDBRANCH   2   3
ENDBRANCH   1   2
BRANCH   1  70
ATOM     70  C   UNL     1       3.714  -1.884  -1.134  1.00  0.00     0.274 C 
BRANCH  70  71
ATOM     71  O   UNL     1       3.220  -0.770  -1.900  1.00  0.00    -0.462 OA
BRANCH  71  72
ATOM     72  C   UNL     1       1.859  -0.736  -2.084  1.00  0.00     0.311 C 
ATOM     73  O   UNL     1       1.100  -1.532  -1.528  1.00  0.00    -0.252 OA
BRANCH  72  74
ATOM     74  C   UNL     1       1.381   0.333  -3.075  1.00  0.00     0.129 C 
ATOM     75  C   UNL     1       0.401   1.382  -2.524  1.00  0.00     0.119 C 
ATOM     76  C   UNL     1       2.262   1.521  -3.460  1.00  0.00     0.119 C 
ATOM     77  N   UNL     1       1.131   2.492  -3.235  1.00  0.00    -0.196 NA
BRANCH  77  78
ATOM     78  S   UNL     1       0.372   3.326  -4.552  1.00  0.00     0.243 S 
ATOM     79  O   UNL     1       0.767   2.617  -5.751  1.00  0.00    -0.207 OA
ATOM     80  O   UNL     1      -1.017   3.475  -4.174  1.00  0.00    -0.207 OA
BRANCH  78  81
ATOM     81  C   UNL     1       1.086   4.954  -4.578  1.00  0.00     0.082 A 
ATOM     82  C   UNL     1       2.336   5.215  -4.020  1.00  0.00     0.025 A 
ATOM     83  C   UNL     1       0.341   6.001  -5.136  1.00  0.00     0.025 A 
ATOM     84  C   UNL     1       2.851   6.516  -4.028  1.00  0.00     0.040 A 
ATOM     85  C   UNL     1       0.861   7.299  -5.148  1.00  0.00     0.040 A 
ATOM     86  C   UNL     1       2.112   7.545  -4.596  1.00  0.00     0.123 A 
ATOM     87  F   UNL     1       2.607   8.789  -4.612  1.00  0.00    -0.207 F 
ENDBRANCH  78  81
ENDBRANCH  77  78
ENDBRANCH  72  74
ENDBRANCH  71  72
ENDBRANCH  70  71
ENDBRANCH   1  70
TORSDOF 16
