REMARK SMILES COc1cccc([C@H](CC(=O)OCCOC(=O)c2ccc(-c3c4nc(c(-c5cccc(S(=O)(=O)[O-])c5F)c5ccc([nH]5)c(-c5cccc(S(=O)(=O)[O-])c5F)c5nc(c(-c6cccc(S(=O)(=O)[O-])c6F)c6ccc3[nH]6)C=C5)C=C4)cc2)NS(=O)(=O)c2ccc3c(c2)C[C@@H](C)N3C(C)=O)c1
REMARK SMILES IDX 13 1 12 2 10 3 11 4 9 5 8 6 7 7 3 8 4 9 98 10 5 11 6 12 2 13
REMARK SMILES IDX 1 14 81 15 82 17 83 18 84 19 85 20 86 21 90 22 87 23 89 24
REMARK SMILES IDX 88 25 91 26 94 27 92 28 93 29 95 30 96 31 97 32 14 33 15 34
REMARK SMILES IDX 16 35 17 36 18 37 19 38 80 39 20 40 79 41 21 42 22 43 23 44
REMARK SMILES IDX 73 45 24 46 78 47 72 48 74 49 25 50 77 51 71 52 70 53 26 55
REMARK SMILES IDX 58 56 38 57 57 58 39 59 42 60 56 61 75 62 40 63 41 64 55 66
REMARK SMILES IDX 76 67 43 68 27 69 28 70 36 71 29 72 31 73 37 74 30 75 32 76
REMARK SMILES IDX 33 77 34 78 35 79 59 80 60 81 68 82 61 83 63 84 69 85 62 86
REMARK SMILES IDX 64 87 65 88 66 89 67 90 44 91 45 92 53 93 46 94 48 95 54 96
REMARK SMILES IDX 47 97 49 98 50 99 51 100 52 101
REMARK H PARENT 81 16 74 54 42 65
REMARK Flexibility Score: inf
ROOT
ATOM      1  C   UNL     1       2.262  -0.426  -1.686  1.00  0.00     0.274 C 
ENDROOT
BRANCH   1   2
ATOM      2  O   UNL     1       2.963  -1.655  -1.356  1.00  0.00    -0.462 OA
BRANCH   2   3
ATOM      3  C   UNL     1       2.144  -2.658  -0.964  1.00  0.00     0.307 C 
ATOM      4  O   UNL     1       0.924  -2.534  -0.871  1.00  0.00    -0.252 OA
BRANCH   3   5
ATOM      5  C   UNL     1       2.791  -3.951  -0.545  1.00  0.00     0.147 C 
BRANCH   5   6
ATOM      6  C   UNL     1       4.157  -4.460  -1.054  1.00  0.00     0.111 C 
BRANCH   6   7
ATOM      7  C   UNL     1       4.466  -5.720  -0.232  1.00  0.00    -0.026 A 
ATOM      8  C   UNL     1       3.772  -7.904   0.638  1.00  0.00     0.119 A 
ATOM      9  C   UNL     1       4.977  -7.995   1.331  1.00  0.00     0.046 A 
ATOM     10  C   UNL     1       3.538  -6.787  -0.163  1.00  0.00     0.051 A 
ATOM     11  C   UNL     1       5.934  -6.984   1.226  1.00  0.00     0.004 A 
ATOM     12  C   UNL     1       5.676  -5.844   0.462  1.00  0.00     0.005 A 
BRANCH   8  13
ATOM     13  O   UNL     1       2.906  -8.944   0.840  1.00  0.00    -0.497 OA
ATOM     14  C   UNL     1       1.761  -9.008  -0.005  1.00  0.00     0.278 C 
ENDBRANCH   8  13
ENDBRANCH   6   7
BRANCH   6  15
ATOM     15  N   UNL     1       4.159  -4.774  -2.504  1.00  0.00    -0.203 NA
ATOM     16  H   UNL     1       3.774  -3.961  -2.984  1.00  0.00     0.142 HD
BRANCH  15  17
ATOM     17  S   UNL     1       5.638  -5.160  -3.285  1.00  0.00     0.241 S 
ATOM     18  O   UNL     1       6.306  -6.229  -2.568  1.00  0.00    -0.207 OA
ATOM     19  O   UNL     1       5.370  -5.247  -4.696  1.00  0.00    -0.207 OA
BRANCH  17  20
ATOM     20  C   UNL     1       6.593  -3.678  -3.031  1.00  0.00     0.082 A 
ATOM     21  C   UNL     1       7.817  -3.685  -2.330  1.00  0.00     0.024 A 
ATOM     22  C   UNL     1       5.975  -2.487  -3.398  1.00  0.00     0.027 A 
ATOM     23  C   UNL     1       8.395  -2.474  -1.915  1.00  0.00     0.028 A 
ATOM     24  C   UNL     1       6.464  -1.333  -2.847  1.00  0.00    -0.021 A 
ATOM     25  C   UNL     1       7.659  -1.324  -2.122  1.00  0.00     0.047 A 
ATOM     26  C   UNL     1       5.835   0.023  -2.859  1.00  0.00     0.063 C 
ATOM     27  N   UNL     1       7.870  -0.012  -1.643  1.00  0.00    -0.309 N 
ATOM     28  C   UNL     1       6.525   0.617  -1.624  1.00  0.00     0.092 C 
ATOM     29  C   UNL     1       5.794   0.224  -0.320  1.00  0.00     0.032 C 
BRANCH  27  30
ATOM     30  C   UNL     1       9.058   0.625  -1.955  1.00  0.00     0.224 C 
ATOM     31  C   UNL     1       8.915   1.768  -2.942  1.00  0.00     0.115 C 
ATOM     32  O   UNL     1      10.166   0.225  -1.603  1.00  0.00    -0.275 OA
ENDBRANCH  27  30
ENDBRANCH  17  20
ENDBRANCH  15  17
ENDBRANCH   6  15
ENDBRANCH   5   6
ENDBRANCH   3   5
ENDBRANCH   2   3
ENDBRANCH   1   2
BRANCH   1  33
ATOM     33  C   UNL     1       1.986  -0.239  -3.188  1.00  0.00     0.275 C 
BRANCH  33  34
ATOM     34  O   UNL     1       1.121  -1.236  -3.744  1.00  0.00    -0.458 OA
BRANCH  34  35
ATOM     35  C   UNL     1       1.748  -2.382  -4.077  1.00  0.00     0.338 C 
ATOM     36  O   UNL     1       2.922  -2.666  -3.908  1.00  0.00    -0.246 OA
BRANCH  35  37
ATOM     37  C   UNL     1       0.806  -3.381  -4.548  1.00  0.00     0.060 A 
ATOM     38  C   UNL     1       0.534  -4.449  -3.693  1.00  0.00     0.016 A 
ATOM     39  C   UNL     1       0.335  -3.345  -5.857  1.00  0.00     0.016 A 
ATOM     40  C   UNL     1      -0.219  -5.512  -4.149  1.00  0.00     0.010 A 
ATOM     41  C   UNL     1      -0.458  -4.396  -6.301  1.00  0.00     0.010 A 
ATOM     42  C   UNL     1      -0.733  -5.481  -5.450  1.00  0.00    -0.014 A 
BRANCH  42  43
ATOM     43  C   UNL     1      -1.599  -6.580  -5.907  1.00  0.00     0.031 A 
ATOM     44  C   UNL     1      -1.126  -7.504  -6.984  1.00  0.00     0.074 A 
ATOM     45  C   UNL     1      -2.823  -6.692  -5.362  1.00  0.00     0.049 A 
ATOM     46  N   UNL     1      -1.790  -8.435  -7.611  1.00  0.00    -0.248 NA
ATOM     47  C   UNL     1       0.270  -7.351  -7.426  1.00  0.00     0.031 C 
ATOM     48  C   UNL     1      -3.360  -5.824  -4.310  1.00  0.00     0.029 A 
ATOM     49  N   UNL     1      -3.846  -7.558  -5.635  1.00  0.00    -0.354 N 
ATOM     50  C   UNL     1      -0.913  -8.952  -8.553  1.00  0.00     0.074 A 
ATOM     51  C   UNL     1       0.333  -8.228  -8.420  1.00  0.00     0.031 C 
ATOM     52  C   UNL     1      -4.623  -6.187  -4.044  1.00  0.00     0.029 A 
ATOM     53  C   UNL     1      -4.996  -7.274  -4.940  1.00  0.00     0.049 A 
ATOM     54  H   UNL     1      -3.766  -8.309  -6.267  1.00  0.00     0.167 HD
ATOM     55  C   UNL     1      -1.132  -9.951  -9.440  1.00  0.00     0.034 A 
ATOM     56  C   UNL     1      -6.227  -7.804  -5.047  1.00  0.00     0.034 A 
ATOM     57  C   UNL     1      -2.373 -10.674  -9.530  1.00  0.00     0.049 A 
ATOM     58  C   UNL     1      -6.438  -8.915  -6.036  1.00  0.00     0.074 A 
ATOM     59  C   UNL     1      -2.697 -11.729 -10.363  1.00  0.00     0.029 A 
ATOM     60  N   UNL     1      -3.496 -10.414  -8.756  1.00  0.00    -0.354 N 
ATOM     61  N   UNL     1      -5.575  -9.455  -6.862  1.00  0.00    -0.248 NA
ATOM     62  C   UNL     1      -7.779  -9.508  -6.088  1.00  0.00     0.031 C 
ATOM     63  C   UNL     1      -4.022 -12.096 -10.103  1.00  0.00     0.029 A 
ATOM     64  C   UNL     1      -4.516 -11.286  -9.092  1.00  0.00     0.049 A 
ATOM     65  H   UNL     1      -3.557  -9.711  -8.069  1.00  0.00     0.167 HD
ATOM     66  C   UNL     1      -6.259 -10.471  -7.516  1.00  0.00     0.074 A 
ATOM     67  C   UNL     1      -7.601 -10.485  -6.967  1.00  0.00     0.031 C 
ATOM     68  C   UNL     1      -5.826 -11.306  -8.492  1.00  0.00     0.034 A 
BRANCH  55  69
ATOM     69  C   UNL     1      -0.003 -10.333 -10.358  1.00  0.00     0.023 A 
ATOM     70  C   UNL     1       1.111 -11.026  -9.844  1.00  0.00     0.012 A 
ATOM     71  C   UNL     1      -0.063 -10.049 -11.737  1.00  0.00     0.148 A 
ATOM     72  C   UNL     1       2.161 -11.405 -10.680  1.00  0.00     0.002 A 
ATOM     73  C   UNL     1       0.967 -10.467 -12.572  1.00  0.00     0.091 A 
ATOM     74  F   UNL     1      -1.119  -9.367 -12.204  1.00  0.00    -0.205 F 
ATOM     75  C   UNL     1       2.084 -11.136 -12.044  1.00  0.00     0.022 A 
BRANCH  73  76
ATOM     76  S   UNL     1       0.928 -10.232 -14.352  1.00  0.00     0.127 S 
ATOM     77  O   UNL     1       1.967  -9.220 -14.540  1.00  0.00    -0.237 OA
ATOM     78  O   UNL     1       1.278 -11.564 -14.847  1.00  0.00    -0.237 OA
ATOM     79  O   UNL     1      -0.426  -9.803 -14.672  1.00  0.00    -0.744 OA
ENDBRANCH  73  76
ENDBRANCH  55  69
BRANCH  56  80
ATOM     80  C   UNL     1      -7.327  -7.302  -4.181  1.00  0.00     0.023 A 
ATOM     81  C   UNL     1      -7.834  -8.125  -3.158  1.00  0.00     0.012 A 
ATOM     82  C   UNL     1      -7.836  -5.996  -4.328  1.00  0.00     0.148 A 
ATOM     83  C   UNL     1      -8.848  -7.667  -2.316  1.00  0.00     0.002 A 
ATOM     84  C   UNL     1      -8.804  -5.526  -3.450  1.00  0.00     0.091 A 
ATOM     85  F   UNL     1      -7.347  -5.231  -5.315  1.00  0.00    -0.205 F 
ATOM     86  C   UNL     1      -9.325  -6.365  -2.454  1.00  0.00     0.022 A 
BRANCH  84  87
ATOM     87  S   UNL     1      -9.366  -3.820  -3.468  1.00  0.00     0.127 S 
ATOM     88  O   UNL     1     -10.694  -3.948  -4.062  1.00  0.00    -0.237 OA
ATOM     89  O   UNL     1      -9.357  -3.480  -2.045  1.00  0.00    -0.237 OA
ATOM     90  O   UNL     1      -8.382  -3.093  -4.260  1.00  0.00    -0.744 OA
ENDBRANCH  84  87
ENDBRANCH  56  80
BRANCH  68  91
ATOM     91  C   UNL     1      -6.806 -12.324  -9.007  1.00  0.00     0.023 A 
ATOM     92  C   UNL     1      -7.864 -11.916  -9.843  1.00  0.00     0.012 A 
ATOM     93  C   UNL     1      -6.637 -13.692  -8.716  1.00  0.00     0.148 A 
ATOM     94  C   UNL     1      -8.758 -12.852 -10.358  1.00  0.00     0.002 A 
ATOM     95  C   UNL     1      -7.503 -14.624  -9.273  1.00  0.00     0.091 A 
ATOM     96  F   UNL     1      -5.636 -14.054  -7.901  1.00  0.00    -0.205 F 
ATOM     97  C   UNL     1      -8.571 -14.205 -10.083  1.00  0.00     0.022 A 
BRANCH  95  98
ATOM     98  S   UNL     1      -7.281 -16.392  -9.051  1.00  0.00     0.127 S 
ATOM     99  O   UNL     1      -8.366 -16.714  -8.126  1.00  0.00    -0.237 OA
ATOM    100  O   UNL     1      -7.467 -16.901 -10.410  1.00  0.00    -0.237 OA
ATOM    101  O   UNL     1      -5.935 -16.563  -8.521  1.00  0.00    -0.744 OA
ENDBRANCH  95  98
ENDBRANCH  68  91
ENDBRANCH  42  43
ENDBRANCH  35  37
ENDBRANCH  34  35
ENDBRANCH  33  34
ENDBRANCH   1  33
TORSDOF 21
