REMARK SMILES NS(=O)(=O)c1ccc(-n2nc(C(=O)NCCCCCCCCCCC(=O)OCCOC(=O)c3ccc(-c4c5nc(c(-c6cccc(S(=O)(=O)[O-])c6F)c6ccc([nH]6)c(-c6cccc(S(=O)(=O)[O-])c6F)c6nc(c(-c7cccc(S(=O)(=O)[O-])c7F)c7ccc4[nH]7)C=C6)C=C5)cc3)cc2-c2ccccc2)cc1
REMARK SMILES IDX 22 1 21 2 20 3 19 4 18 5 17 6 16 7 15 8 14 9 12 10 13 11
REMARK SMILES IDX 11 13 9 14 10 15 97 16 96 17 8 18 5 19 6 20 105 21 7 22
REMARK SMILES IDX 104 23 2 24 3 25 4 26 1 27 98 30 99 31 103 32 100 33 102 34
REMARK SMILES IDX 101 35 23 36 24 37 25 38 26 39 27 40 28 41 29 42 30 43 31 44
REMARK SMILES IDX 32 45 33 46 34 47 95 48 35 49 94 50 36 51 37 52 38 53 88 54
REMARK SMILES IDX 39 55 93 56 87 57 89 58 40 59 92 60 86 61 85 62 41 64 73 65
REMARK SMILES IDX 53 66 72 67 54 68 57 69 71 70 90 71 55 72 56 73 70 75 91 76
REMARK SMILES IDX 58 77 42 78 43 79 51 80 44 81 46 82 52 83 45 84 47 85 48 86
REMARK SMILES IDX 49 87 50 88 74 89 75 90 83 91 76 92 78 93 84 94 77 95 79 96
REMARK SMILES IDX 80 97 81 98 82 99 59 100 60 101 68 102 61 103 63 104 69 105
REMARK SMILES IDX 62 106 64 107 65 108 66 109 67 110
REMARK H PARENT 14 12 1 28 1 29 89 63 57 74
REMARK Flexibility Score: inf
ROOT
ATOM      1  C   UNL     1       6.755   3.761  16.148  1.00  0.00     0.001 C 
ENDROOT
BRANCH   1   2
ATOM      2  C   UNL     1       6.661   4.848  15.082  1.00  0.00     0.000 C 
BRANCH   2   3
ATOM      3  C   UNL     1       6.760   4.254  13.678  1.00  0.00     0.000 C 
BRANCH   3   4
ATOM      4  C   UNL     1       5.619   3.276  13.392  1.00  0.00     0.000 C 
BRANCH   4   5
ATOM      5  C   UNL     1       4.245   3.936  13.557  1.00  0.00     0.000 C 
BRANCH   5   6
ATOM      6  C   UNL     1       4.004   5.048  12.527  1.00  0.00     0.002 C 
BRANCH   6   7
ATOM      7  C   UNL     1       4.153   4.551  11.086  1.00  0.00     0.021 C 
BRANCH   7   8
ATOM      8  C   UNL     1       3.151   3.438  10.797  1.00  0.00     0.116 C 
BRANCH   8   9
ATOM      9  N   UNL     1       1.911   4.021  10.355  1.00  0.00    -0.351 N 
ATOM     10  C   UNL     1       1.378   4.202   9.106  1.00  0.00     0.271 C 
ATOM     11  O   UNL     1       0.337   4.862   9.056  1.00  0.00    -0.267 OA
ATOM     12  H   UNL     1       1.341   4.352  11.085  1.00  0.00     0.163 HD
BRANCH  10  13
ATOM     13  C   UNL     1       1.983   3.580   7.911  1.00  0.00     0.151 A 
ATOM     14  N   UNL     1       1.964   2.731   5.941  1.00  0.00    -0.232 N 
ATOM     15  N   UNL     1       1.297   3.575   6.752  1.00  0.00    -0.162 NA
ATOM     16  C   UNL     1       3.161   2.312   6.485  1.00  0.00     0.075 A 
ATOM     17  C   UNL     1       3.232   2.947   7.705  1.00  0.00     0.065 A 
BRANCH  14  18
ATOM     18  C   UNL     1       1.443   2.421   4.670  1.00  0.00     0.065 A 
ATOM     19  C   UNL     1       0.685   1.884   2.067  1.00  0.00     0.082 A 
ATOM     20  C   UNL     1       1.088   0.832   2.896  1.00  0.00     0.024 A 
ATOM     21  C   UNL     1       0.611   3.197   2.549  1.00  0.00     0.024 A 
ATOM     22  C   UNL     1       1.487   1.104   4.199  1.00  0.00     0.030 A 
ATOM     23  C   UNL     1       0.957   3.463   3.871  1.00  0.00     0.030 A 
BRANCH  19  24
ATOM     24  S   UNL     1       0.357   1.596   0.358  1.00  0.00     0.238 S 
ATOM     25  O   UNL     1       1.091   2.575  -0.420  1.00  0.00    -0.207 OA
ATOM     26  O   UNL     1      -1.051   1.358   0.189  1.00  0.00    -0.207 OA
BRANCH  24  27
ATOM     27  N   UNL     1       1.122   0.133   0.038  1.00  0.00    -0.225 NA
ATOM     28  H   UNL     1       0.983  -0.116  -0.942  1.00  0.00     0.137 HD
ATOM     29  H   UNL     1       0.727  -0.595   0.633  1.00  0.00     0.137 HD
ENDBRANCH  24  27
ENDBRANCH  19  24
ENDBRANCH  14  18
BRANCH  16  30
ATOM     30  C   UNL     1       4.190   1.510   5.835  1.00  0.00     0.000 A 
ATOM     31  C   UNL     1       4.853   1.990   4.700  1.00  0.00     0.010 A 
ATOM     32  C   UNL     1       4.559   0.272   6.377  1.00  0.00     0.010 A 
ATOM     33  C   UNL     1       5.865   1.236   4.107  1.00  0.00     0.001 A 
ATOM     34  C   UNL     1       5.569  -0.483   5.780  1.00  0.00     0.001 A 
ATOM     35  C   UNL     1       6.221  -0.000   4.646  1.00  0.00     0.000 A 
ENDBRANCH  16  30
ENDBRANCH  10  13
ENDBRANCH   8   9
ENDBRANCH   7   8
ENDBRANCH   6   7
ENDBRANCH   5   6
ENDBRANCH   4   5
ENDBRANCH   3   4
ENDBRANCH   2   3
ENDBRANCH   1   2
BRANCH   1  36
ATOM     36  C   UNL     1       8.171   3.201  16.251  1.00  0.00     0.012 C 
BRANCH  36  37
ATOM     37  C   UNL     1       9.285   4.222  16.507  1.00  0.00     0.123 C 
BRANCH  37  38
ATOM     38  C   UNL     1       9.158   5.174  17.686  1.00  0.00     0.305 C 
ATOM     39  O   UNL     1      10.129   5.549  18.333  1.00  0.00    -0.252 OA
BRANCH  38  40
ATOM     40  O   UNL     1       7.888   5.602  17.899  1.00  0.00    -0.462 OA
BRANCH  40  41
ATOM     41  C   UNL     1       7.599   6.269  19.145  1.00  0.00     0.274 C 
BRANCH  41  42
ATOM     42  C   UNL     1       7.232   5.270  20.235  1.00  0.00     0.275 C 
BRANCH  42  43
ATOM     43  O   UNL     1       8.313   4.362  20.417  1.00  0.00    -0.458 OA
BRANCH  43  44
ATOM     44  C   UNL     1       8.158   3.196  19.757  1.00  0.00     0.338 C 
ATOM     45  O   UNL     1       7.229   2.873  19.037  1.00  0.00    -0.246 OA
BRANCH  44  46
ATOM     46  C   UNL     1       9.201   2.260  20.158  1.00  0.00     0.060 A 
ATOM     47  C   UNL     1       9.445   1.157  19.324  1.00  0.00     0.016 A 
ATOM     48  C   UNL     1       9.444   2.243  21.528  1.00  0.00     0.016 A 
ATOM     49  C   UNL     1       9.687  -0.060  19.913  1.00  0.00     0.010 A 
ATOM     50  C   UNL     1       9.593   1.022  22.112  1.00  0.00     0.010 A 
ATOM     51  C   UNL     1       9.643  -0.116  21.302  1.00  0.00    -0.014 A 
BRANCH  51  52
ATOM     52  C   UNL     1       9.741  -1.394  21.966  1.00  0.00     0.031 A 
ATOM     53  C   UNL     1      11.159  -1.764  22.197  1.00  0.00     0.074 A 
ATOM     54  C   UNL     1       8.631  -1.960  22.480  1.00  0.00     0.049 A 
ATOM     55  N   UNL     1      11.847  -2.712  21.647  1.00  0.00    -0.248 NA
ATOM     56  C   UNL     1      11.990  -0.781  22.924  1.00  0.00     0.031 C 
ATOM     57  C   UNL     1       7.279  -1.382  22.526  1.00  0.00     0.029 A 
ATOM     58  N   UNL     1       8.505  -3.076  23.243  1.00  0.00    -0.354 N 
ATOM     59  C   UNL     1      13.121  -2.564  22.199  1.00  0.00     0.074 A 
ATOM     60  C   UNL     1      13.216  -1.204  22.627  1.00  0.00     0.031 C 
ATOM     61  C   UNL     1       6.569  -1.998  23.498  1.00  0.00     0.029 A 
ATOM     62  C   UNL     1       7.376  -3.066  24.061  1.00  0.00     0.049 A 
ATOM     63  H   UNL     1       9.148  -3.821  23.220  1.00  0.00     0.167 HD
ATOM     64  C   UNL     1      13.813  -3.639  22.668  1.00  0.00     0.034 A 
ATOM     65  C   UNL     1       7.201  -3.792  25.196  1.00  0.00     0.034 A 
ATOM     66  C   UNL     1      13.270  -4.860  22.126  1.00  0.00     0.049 A 
ATOM     67  C   UNL     1       8.246  -4.843  25.206  1.00  0.00     0.074 A 
ATOM     68  C   UNL     1      13.079  -5.373  20.860  1.00  0.00     0.029 A 
ATOM     69  N   UNL     1      12.453  -5.573  22.968  1.00  0.00    -0.354 N 
ATOM     70  N   UNL     1       8.313  -5.813  24.337  1.00  0.00    -0.248 NA
ATOM     71  C   UNL     1       9.483  -4.553  25.916  1.00  0.00     0.031 C 
ATOM     72  C   UNL     1      11.857  -6.100  20.936  1.00  0.00     0.029 A 
ATOM     73  C   UNL     1      11.394  -6.056  22.254  1.00  0.00     0.049 A 
ATOM     74  H   UNL     1      12.605  -5.713  23.931  1.00  0.00     0.167 HD
ATOM     75  C   UNL     1       9.670  -5.939  24.066  1.00  0.00     0.074 A 
ATOM     76  C   UNL     1      10.344  -5.224  25.147  1.00  0.00     0.031 C 
ATOM     77  C   UNL     1      10.097  -6.337  22.832  1.00  0.00     0.034 A 
BRANCH  64  78
ATOM     78  C   UNL     1      14.644  -3.649  23.948  1.00  0.00     0.023 A 
ATOM     79  C   UNL     1      15.313  -4.857  24.243  1.00  0.00     0.012 A 
ATOM     80  C   UNL     1      14.597  -2.690  24.993  1.00  0.00     0.148 A 
ATOM     81  C   UNL     1      15.820  -5.131  25.518  1.00  0.00     0.002 A 
ATOM     82  C   UNL     1      15.159  -2.938  26.240  1.00  0.00     0.091 A 
ATOM     83  F   UNL     1      13.912  -1.557  24.858  1.00  0.00    -0.205 F 
ATOM     84  C   UNL     1      15.741  -4.172  26.519  1.00  0.00     0.022 A 
BRANCH  82  85
ATOM     85  S   UNL     1      15.106  -1.715  27.562  1.00  0.00     0.127 S 
ATOM     86  O   UNL     1      14.168  -2.335  28.493  1.00  0.00    -0.237 OA
ATOM     87  O   UNL     1      16.501  -1.698  28.003  1.00  0.00    -0.237 OA
ATOM     88  O   UNL     1      14.661  -0.473  26.943  1.00  0.00    -0.744 OA
ENDBRANCH  82  85
ENDBRANCH  64  78
BRANCH  65  89
ATOM     89  C   UNL     1       6.450  -3.449  26.432  1.00  0.00     0.023 A 
ATOM     90  C   UNL     1       6.070  -4.475  27.323  1.00  0.00     0.012 A 
ATOM     91  C   UNL     1       6.347  -2.113  26.881  1.00  0.00     0.148 A 
ATOM     92  C   UNL     1       5.628  -4.182  28.621  1.00  0.00     0.002 A 
ATOM     93  C   UNL     1       5.894  -1.826  28.166  1.00  0.00     0.091 A 
ATOM     94  F   UNL     1       6.784  -1.130  26.084  1.00  0.00    -0.205 F 
ATOM     95  C   UNL     1       5.545  -2.859  29.044  1.00  0.00     0.022 A 
BRANCH  93  96
ATOM     96  S   UNL     1       5.781  -0.142  28.789  1.00  0.00     0.127 S 
ATOM     97  O   UNL     1       4.417  -0.107  29.318  1.00  0.00    -0.237 OA
ATOM     98  O   UNL     1       6.831  -0.124  29.804  1.00  0.00    -0.237 OA
ATOM     99  O   UNL     1       6.000   0.725  27.638  1.00  0.00    -0.744 OA
ENDBRANCH  93  96
ENDBRANCH  65  89
BRANCH  77 100
ATOM    100  C   UNL     1       9.086  -6.937  21.893  1.00  0.00     0.023 A 
ATOM    101  C   UNL     1       8.054  -6.187  21.291  1.00  0.00     0.012 A 
ATOM    102  C   UNL     1       9.332  -8.245  21.448  1.00  0.00     0.148 A 
ATOM    103  C   UNL     1       7.284  -6.739  20.262  1.00  0.00     0.002 A 
ATOM    104  C   UNL     1       8.605  -8.767  20.390  1.00  0.00     0.091 A 
ATOM    105  F   UNL     1      10.316  -8.938  22.042  1.00  0.00    -0.205 F 
ATOM    106  C   UNL     1       7.573  -8.021  19.798  1.00  0.00     0.022 A 
BRANCH 104 107
ATOM    107  S   UNL     1       9.040 -10.342  19.653  1.00  0.00     0.127 S 
ATOM    108  O   UNL     1       7.948 -11.201  20.103  1.00  0.00    -0.237 OA
ATOM    109  O   UNL     1       9.027 -10.031  18.222  1.00  0.00    -0.237 OA
ATOM    110  O   UNL     1      10.359 -10.680  20.175  1.00  0.00    -0.744 OA
ENDBRANCH 104 107
ENDBRANCH  77 100
ENDBRANCH  51  52
ENDBRANCH  44  46
ENDBRANCH  43  44
ENDBRANCH  42  43
ENDBRANCH  41  42
ENDBRANCH  40  41
ENDBRANCH  38  40
ENDBRANCH  37  38
ENDBRANCH  36  37
ENDBRANCH   1  36
TORSDOF 29
