REMARK SMILES C[C@](O)(C(=O)OCCOC(=O)c1ccc(-c2c3nc(c(-c4cccc(S(=O)(=O)[O-])c4F)c4ccc([nH]4)c(-c4cccc(S(=O)(=O)[O-])c4F)c4nc(c(-c5cccc(S(=O)(=O)[O-])c5F)c5ccc2[nH]5)C=C4)C=C3)cc1)c1ccc(O)cc1
REMARK SMILES IDX 8 1 7 2 6 3 4 4 5 5 2 6 1 7 75 8 76 9 81 10 77 11 80 12
REMARK SMILES IDX 78 13 79 14 3 16 9 18 10 19 11 20 12 21 13 22 74 23 14 24
REMARK SMILES IDX 73 25 15 26 16 27 17 28 67 29 18 30 72 31 66 32 68 33 19 34
REMARK SMILES IDX 71 35 65 36 64 37 20 39 52 40 32 41 51 42 33 43 36 44 50 45
REMARK SMILES IDX 69 46 34 47 35 48 49 50 70 51 37 52 21 53 22 54 30 55 23 56
REMARK SMILES IDX 25 57 31 58 24 59 26 60 27 61 28 62 29 63 53 64 54 65 62 66
REMARK SMILES IDX 55 67 57 68 63 69 56 70 58 71 59 72 60 73 61 74 38 75 39 76
REMARK SMILES IDX 47 77 40 78 42 79 48 80 41 81 43 82 44 83 45 84 46 85
REMARK H PARENT 79 15 3 17 68 38 36 49
REMARK Flexibility Score: inf
ROOT
ATOM      1  C   UNL     1      -3.535  -0.155  -0.341  1.00  0.00     0.275 C 
ENDROOT
BRANCH   1   2
ATOM      2  C   UNL     1      -2.813  -1.379   0.210  1.00  0.00     0.274 C 
BRANCH   2   3
ATOM      3  O   UNL     1      -1.391  -1.150   0.243  1.00  0.00    -0.460 OA
BRANCH   3   4
ATOM      4  C   UNL     1      -0.644  -1.804  -0.695  1.00  0.00     0.342 C 
ATOM      5  O   UNL     1      -1.111  -2.564  -1.538  1.00  0.00    -0.248 OA
BRANCH   4   6
ATOM      6  C   UNL     1       0.882  -1.546  -0.509  1.00  0.00     0.184 C 
ATOM      7  C   UNL     1       1.463  -2.851   0.063  1.00  0.00     0.060 C 
BRANCH   6   8
ATOM      8  C   UNL     1       1.523  -1.148  -1.853  1.00  0.00    -0.005 A 
ATOM      9  C   UNL     1       1.961  -2.117  -2.776  1.00  0.00     0.011 A 
ATOM     10  C   UNL     1       1.641   0.208  -2.232  1.00  0.00     0.011 A 
ATOM     11  C   UNL     1       2.534  -1.749  -3.996  1.00  0.00     0.046 A 
ATOM     12  C   UNL     1       2.222   0.577  -3.453  1.00  0.00     0.046 A 
ATOM     13  C   UNL     1       2.665  -0.408  -4.324  1.00  0.00     0.115 A 
BRANCH  13  14
ATOM     14  O   UNL     1       3.205  -0.108  -5.536  1.00  0.00    -0.508 OA
ATOM     15  H   UNL     1       3.495  -0.796  -6.103  1.00  0.00     0.293 HD
ENDBRANCH  13  14
ENDBRANCH   6   8
BRANCH   6  16
ATOM     16  O   UNL     1       1.189  -0.562   0.489  1.00  0.00    -0.374 OA
ATOM     17  H   UNL     1       0.853   0.302   0.206  1.00  0.00     0.212 HD
ENDBRANCH   6  16
ENDBRANCH   4   6
ENDBRANCH   3   4
ENDBRANCH   2   3
ENDBRANCH   1   2
BRANCH   1  18
ATOM     18  O   UNL     1      -3.178   0.018  -1.721  1.00  0.00    -0.458 OA
BRANCH  18  19
ATOM     19  C   UNL     1      -2.574   1.186  -2.035  1.00  0.00     0.338 C 
ATOM     20  O   UNL     1      -2.369   2.138  -1.302  1.00  0.00    -0.246 OA
BRANCH  19  21
ATOM     21  C   UNL     1      -2.161   1.154  -3.447  1.00  0.00     0.060 A 
ATOM     22  C   UNL     1      -1.330   0.134  -3.904  1.00  0.00     0.016 A 
ATOM     23  C   UNL     1      -2.504   2.211  -4.289  1.00  0.00     0.016 A 
ATOM     24  C   UNL     1      -0.754   0.227  -5.169  1.00  0.00     0.010 A 
ATOM     25  C   UNL     1      -2.000   2.246  -5.593  1.00  0.00     0.010 A 
ATOM     26  C   UNL     1      -1.074   1.283  -6.034  1.00  0.00    -0.014 A 
BRANCH  26  27
ATOM     27  C   UNL     1      -0.408   1.413  -7.364  1.00  0.00     0.031 A 
ATOM     28  C   UNL     1       0.301   2.691  -7.739  1.00  0.00     0.074 A 
ATOM     29  C   UNL     1      -0.434   0.397  -8.251  1.00  0.00     0.049 A 
ATOM     30  N   UNL     1       0.759   3.072  -8.904  1.00  0.00    -0.248 NA
ATOM     31  C   UNL     1       0.513   3.679  -6.667  1.00  0.00     0.031 C 
ATOM     32  C   UNL     1      -1.058  -0.907  -8.028  1.00  0.00     0.029 A 
ATOM     33  N   UNL     1       0.074   0.305  -9.526  1.00  0.00    -0.354 N 
ATOM     34  C   UNL     1       1.211   4.375  -8.731  1.00  0.00     0.074 A 
ATOM     35  C   UNL     1       1.008   4.710  -7.338  1.00  0.00     0.031 C 
ATOM     36  C   UNL     1      -0.869  -1.679  -9.107  1.00  0.00     0.029 A 
ATOM     37  C   UNL     1      -0.196  -0.897 -10.139  1.00  0.00     0.049 A 
ATOM     38  H   UNL     1       0.581   1.029  -9.958  1.00  0.00     0.167 HD
ATOM     39  C   UNL     1       1.746   5.217  -9.648  1.00  0.00     0.034 A 
ATOM     40  C   UNL     1       0.023  -1.317 -11.401  1.00  0.00     0.034 A 
ATOM     41  C   UNL     1       2.045   4.853 -11.007  1.00  0.00     0.049 A 
ATOM     42  C   UNL     1       0.666  -0.383 -12.386  1.00  0.00     0.074 A 
ATOM     43  C   UNL     1       2.637   5.624 -11.992  1.00  0.00     0.029 A 
ATOM     44  N   UNL     1       1.799   3.610 -11.567  1.00  0.00    -0.354 N 
ATOM     45  N   UNL     1       1.104   0.838 -12.197  1.00  0.00    -0.248 NA
ATOM     46  C   UNL     1       0.844  -0.882 -13.757  1.00  0.00     0.031 C 
ATOM     47  C   UNL     1       2.751   4.845 -13.149  1.00  0.00     0.029 A 
ATOM     48  C   UNL     1       2.232   3.589 -12.882  1.00  0.00     0.049 A 
ATOM     49  H   UNL     1       1.378   2.853 -11.100  1.00  0.00     0.167 HD
ATOM     50  C   UNL     1       1.609   1.254 -13.423  1.00  0.00     0.074 A 
ATOM     51  C   UNL     1       1.458   0.140 -14.338  1.00  0.00     0.031 C 
ATOM     52  C   UNL     1       2.119   2.460 -13.768  1.00  0.00     0.034 A 
BRANCH  39  53
ATOM     53  C   UNL     1       2.071   6.620  -9.209  1.00  0.00     0.023 A 
ATOM     54  C   UNL     1       3.229   6.866  -8.448  1.00  0.00     0.012 A 
ATOM     55  C   UNL     1       1.263   7.702  -9.612  1.00  0.00     0.148 A 
ATOM     56  C   UNL     1       3.567   8.167  -8.075  1.00  0.00     0.002 A 
ATOM     57  C   UNL     1       1.626   8.999  -9.267  1.00  0.00     0.091 A 
ATOM     58  F   UNL     1       0.148   7.446 -10.312  1.00  0.00    -0.205 F 
ATOM     59  C   UNL     1       2.774   9.233  -8.493  1.00  0.00     0.022 A 
BRANCH  57  60
ATOM     60  S   UNL     1       0.698  10.430  -9.832  1.00  0.00     0.127 S 
ATOM     61  O   UNL     1      -0.123  10.732  -8.661  1.00  0.00    -0.237 OA
ATOM     62  O   UNL     1       1.754  11.406 -10.103  1.00  0.00    -0.237 OA
ATOM     63  O   UNL     1      -0.025   9.985 -11.016  1.00  0.00    -0.744 OA
ENDBRANCH  57  60
ENDBRANCH  39  53
BRANCH  40  64
ATOM     64  C   UNL     1      -0.374  -2.700 -11.789  1.00  0.00     0.023 A 
ATOM     65  C   UNL     1       0.622  -3.662 -12.042  1.00  0.00     0.012 A 
ATOM     66  C   UNL     1      -1.728  -3.090 -11.825  1.00  0.00     0.148 A 
ATOM     67  C   UNL     1       0.277  -4.984 -12.325  1.00  0.00     0.002 A 
ATOM     68  C   UNL     1      -2.061  -4.422 -12.038  1.00  0.00     0.091 A 
ATOM     69  F   UNL     1      -2.667  -2.155 -11.617  1.00  0.00    -0.205 F 
ATOM     70  C   UNL     1      -1.062  -5.369 -12.303  1.00  0.00     0.022 A 
BRANCH  68  71
ATOM     71  S   UNL     1      -3.749  -5.007 -11.841  1.00  0.00     0.127 S 
ATOM     72  O   UNL     1      -4.223  -5.034 -13.221  1.00  0.00    -0.237 OA
ATOM     73  O   UNL     1      -3.554  -6.324 -11.231  1.00  0.00    -0.237 OA
ATOM     74  O   UNL     1      -4.385  -4.037 -10.959  1.00  0.00    -0.744 OA
ENDBRANCH  68  71
ENDBRANCH  40  64
BRANCH  52  75
ATOM     75  C   UNL     1       2.553   2.649 -15.196  1.00  0.00     0.023 A 
ATOM     76  C   UNL     1       1.575   2.859 -16.188  1.00  0.00     0.012 A 
ATOM     77  C   UNL     1       3.916   2.695 -15.544  1.00  0.00     0.148 A 
ATOM     78  C   UNL     1       1.948   3.092 -17.511  1.00  0.00     0.002 A 
ATOM     79  C   UNL     1       4.281   2.963 -16.859  1.00  0.00     0.091 A 
ATOM     80  F   UNL     1       4.830   2.471 -14.589  1.00  0.00    -0.205 F 
ATOM     81  C   UNL     1       3.299   3.155 -17.845  1.00  0.00     0.022 A 
BRANCH  79  82
ATOM     82  S   UNL     1       5.998   3.138 -17.357  1.00  0.00     0.127 S 
ATOM     83  O   UNL     1       6.256   1.851 -17.999  1.00  0.00    -0.237 OA
ATOM     84  O   UNL     1       5.946   4.277 -18.275  1.00  0.00    -0.237 OA
ATOM     85  O   UNL     1       6.742   3.392 -16.130  1.00  0.00    -0.744 OA
ENDBRANCH  79  82
ENDBRANCH  52  75
ENDBRANCH  26  27
ENDBRANCH  19  21
ENDBRANCH  18  19
ENDBRANCH   1  18
TORSDOF 17
