REMARK SMILES COc1ccc(NC(=O)C[C@@H](C[NH+]2CCOCC2)C(=O)OCCOC(=O)c2ccc(-c3c4nc(c(-c5cccc(S(=O)(=O)[O-])c5F)c5ccc([nH]5)c(-c5cccc(S(=O)(=O)[O-])c5F)c5nc(c(-c6cccc(S(=O)(=O)[O-])c6F)c6ccc3[nH]6)C=C5)C=C4)cc2)cc1
REMARK SMILES IDX 22 1 21 2 19 3 20 4 11 5 10 6 8 7 7 8 9 10 6 11 3 12 4 13
REMARK SMILES IDX 91 14 5 15 90 16 2 17 1 18 12 19 13 20 14 21 18 22 15 24
REMARK SMILES IDX 17 25 16 26 23 27 24 28 25 29 26 30 27 31 28 32 89 33 29 34
REMARK SMILES IDX 88 35 30 36 31 37 32 38 82 39 33 40 87 41 81 42 83 43 34 44
REMARK SMILES IDX 86 45 80 46 79 47 35 49 67 50 47 51 66 52 48 53 51 54 65 55
REMARK SMILES IDX 84 56 49 57 50 58 64 60 85 61 52 62 36 63 37 64 45 65 38 66
REMARK SMILES IDX 40 67 46 68 39 69 41 70 42 71 43 72 44 73 68 74 69 75 77 76
REMARK SMILES IDX 70 77 72 78 78 79 71 80 73 81 74 82 75 83 76 84 53 85 54 86
REMARK SMILES IDX 62 87 55 88 57 89 63 90 56 91 58 92 59 93 60 94 61 95
REMARK H PARENT 7 9 13 23 83 48 51 59
REMARK Flexibility Score: inf
ROOT
ATOM      1  C   UNL     1      -4.899  -5.374  -0.537  1.00  0.00     0.274 C 
ENDROOT
BRANCH   1   2
ATOM      2  O   UNL     1      -3.730  -5.614  -1.365  1.00  0.00    -0.462 OA
BRANCH   2   3
ATOM      3  C   UNL     1      -2.786  -6.241  -0.644  1.00  0.00     0.315 C 
ATOM      4  O   UNL     1      -3.007  -6.580   0.528  1.00  0.00    -0.252 OA
BRANCH   3   5
ATOM      5  C   UNL     1      -1.384  -6.437  -1.188  1.00  0.00     0.163 C 
BRANCH   5   6
ATOM      6  C   UNL     1      -0.662  -6.047  -2.466  1.00  0.00     0.121 C 
BRANCH   6   7
ATOM      7  C   UNL     1       0.906  -6.332  -2.420  1.00  0.00     0.225 C 
ATOM      8  N   UNL     1       1.920  -5.705  -1.689  1.00  0.00    -0.326 N 
ATOM      9  H   UNL     1       2.753  -6.229  -1.664  1.00  0.00     0.169 HD
ATOM     10  O   UNL     1       1.321  -7.247  -3.155  1.00  0.00    -0.275 OA
BRANCH   8  11
ATOM     11  C   UNL     1       2.019  -4.463  -0.964  1.00  0.00     0.041 A 
ATOM     12  C   UNL     1       0.804  -1.047  -0.615  1.00  0.00     0.119 A 
ATOM     13  C   UNL     1       0.301  -2.219   0.565  1.00  0.00     0.048 A 
ATOM     14  C   UNL     1       1.873  -1.550  -1.823  1.00  0.00     0.048 A 
ATOM     15  C   UNL     1       1.028  -4.045   0.455  1.00  0.00     0.030 A 
ATOM     16  C   UNL     1       2.470  -3.155  -1.982  1.00  0.00     0.030 A 
BRANCH  12  17
ATOM     17  O   UNL     1       0.312   0.209  -0.486  1.00  0.00    -0.497 OA
ATOM     18  C   UNL     1       1.341   1.186  -0.433  1.00  0.00     0.278 C 
ENDBRANCH  12  17
ENDBRANCH   8  11
ENDBRANCH   6   7
ENDBRANCH   5   6
BRANCH   5  19
ATOM     19  C   UNL     1      -0.701  -5.653  -0.126  1.00  0.00     0.278 C 
BRANCH  19  20
ATOM     20  N   UNL     1      -1.010  -4.149  -0.268  1.00  0.00    -0.330 N 
ATOM     21  C   UNL     1       0.363  -3.162  -1.068  1.00  0.00     0.291 C 
ATOM     22  C   UNL     1      -1.245  -3.735   1.318  1.00  0.00     0.291 C 
ATOM     23  H   UNL     1      -1.797  -3.952  -0.886  1.00  0.00     0.348 HD
ATOM     24  C   UNL     1       2.097  -2.584   0.183  1.00  0.00     0.221 C 
ATOM     25  C   UNL     1       0.129  -3.437   2.507  1.00  0.00     0.221 C 
ATOM     26  O   UNL     1       1.688  -2.761   2.008  1.00  0.00    -0.370 OA
ENDBRANCH  19  20
ENDBRANCH   5  19
ENDBRANCH   3   5
ENDBRANCH   2   3
ENDBRANCH   1   2
BRANCH   1  27
ATOM     27  C   UNL     1      -5.852  -6.589  -0.448  1.00  0.00     0.275 C 
BRANCH  27  28
ATOM     28  O   UNL     1      -5.314  -7.752   0.232  1.00  0.00    -0.458 OA
BRANCH  28  29
ATOM     29  C   UNL     1      -4.582  -8.589  -0.546  1.00  0.00     0.338 C 
ATOM     30  O   UNL     1      -4.409  -8.483  -1.752  1.00  0.00    -0.246 OA
BRANCH  29  31
ATOM     31  C   UNL     1      -3.876  -9.631   0.230  1.00  0.00     0.060 A 
ATOM     32  C   UNL     1      -2.514  -9.477   0.510  1.00  0.00     0.016 A 
ATOM     33  C   UNL     1      -4.479 -10.864   0.444  1.00  0.00     0.016 A 
ATOM     34  C   UNL     1      -1.728 -10.549   0.894  1.00  0.00     0.010 A 
ATOM     35  C   UNL     1      -3.705 -11.930   0.922  1.00  0.00     0.010 A 
ATOM     36  C   UNL     1      -2.317 -11.789   1.113  1.00  0.00    -0.014 A 
BRANCH  36  37
ATOM     37  C   UNL     1      -1.462 -12.934   1.501  1.00  0.00     0.031 A 
ATOM     38  C   UNL     1      -1.388 -14.139   0.608  1.00  0.00     0.074 A 
ATOM     39  C   UNL     1      -0.755 -12.881   2.647  1.00  0.00     0.049 A 
ATOM     40  N   UNL     1      -0.840 -15.300   0.842  1.00  0.00    -0.248 NA
ATOM     41  C   UNL     1      -2.027 -14.031  -0.716  1.00  0.00     0.031 C 
ATOM     42  C   UNL     1      -0.710 -11.738   3.566  1.00  0.00     0.029 A 
ATOM     43  N   UNL     1       0.042 -13.819   3.253  1.00  0.00    -0.354 N 
ATOM     44  C   UNL     1      -1.134 -16.085  -0.265  1.00  0.00     0.074 A 
ATOM     45  C   UNL     1      -1.894 -15.265  -1.182  1.00  0.00     0.031 C 
ATOM     46  C   UNL     1       0.055 -12.047   4.622  1.00  0.00     0.029 A 
ATOM     47  C   UNL     1       0.482 -13.434   4.499  1.00  0.00     0.049 A 
ATOM     48  H   UNL     1       0.275 -14.681   2.839  1.00  0.00     0.167 HD
ATOM     49  C   UNL     1      -0.805 -17.379  -0.484  1.00  0.00     0.034 A 
ATOM     50  C   UNL     1       1.099 -14.140   5.464  1.00  0.00     0.034 A 
ATOM     51  C   UNL     1      -0.018 -18.167   0.426  1.00  0.00     0.049 A 
ATOM     52  C   UNL     1       1.419 -15.584   5.198  1.00  0.00     0.074 A 
ATOM     53  C   UNL     1       0.415 -19.472   0.275  1.00  0.00     0.029 A 
ATOM     54  N   UNL     1       0.436 -17.733   1.661  1.00  0.00    -0.354 N 
ATOM     55  N   UNL     1       1.195 -16.295   4.120  1.00  0.00    -0.248 NA
ATOM     56  C   UNL     1       2.098 -16.319   6.273  1.00  0.00     0.031 C 
ATOM     57  C   UNL     1       1.080 -19.847   1.445  1.00  0.00     0.029 A 
ATOM     58  C   UNL     1       1.123 -18.754   2.295  1.00  0.00     0.049 A 
ATOM     59  H   UNL     1       0.292 -16.833   2.032  1.00  0.00     0.167 HD
ATOM     60  C   UNL     1       1.740 -17.547   4.371  1.00  0.00     0.074 A 
ATOM     61  C   UNL     1       2.334 -17.485   5.691  1.00  0.00     0.031 C 
ATOM     62  C   UNL     1       1.741 -18.656   3.591  1.00  0.00     0.034 A 
BRANCH  49  63
ATOM     63  C   UNL     1      -1.310 -18.043  -1.736  1.00  0.00     0.023 A 
ATOM     64  C   UNL     1      -0.761 -17.718  -2.991  1.00  0.00     0.012 A 
ATOM     65  C   UNL     1      -2.273 -19.068  -1.643  1.00  0.00     0.148 A 
ATOM     66  C   UNL     1      -1.175 -18.396  -4.139  1.00  0.00     0.002 A 
ATOM     67  C   UNL     1      -2.641 -19.772  -2.781  1.00  0.00     0.091 A 
ATOM     68  F   UNL     1      -2.799 -19.341  -0.441  1.00  0.00    -0.205 F 
ATOM     69  C   UNL     1      -2.101 -19.431  -4.031  1.00  0.00     0.022 A 
BRANCH  67  70
ATOM     70  S   UNL     1      -3.759 -21.177  -2.731  1.00  0.00     0.127 S 
ATOM     71  O   UNL     1      -4.874 -20.695  -3.546  1.00  0.00    -0.237 OA
ATOM     72  O   UNL     1      -2.955 -22.226  -3.356  1.00  0.00    -0.237 OA
ATOM     73  O   UNL     1      -4.073 -21.398  -1.326  1.00  0.00    -0.744 OA
ENDBRANCH  67  70
ENDBRANCH  49  63
BRANCH  50  74
ATOM     74  C   UNL     1       1.419 -13.517   6.780  1.00  0.00     0.023 A 
ATOM     75  C   UNL     1       2.761 -13.382   7.183  1.00  0.00     0.012 A 
ATOM     76  C   UNL     1       0.397 -13.088   7.651  1.00  0.00     0.148 A 
ATOM     77  C   UNL     1       3.078 -12.891   8.450  1.00  0.00     0.002 A 
ATOM     78  C   UNL     1       0.721 -12.538   8.884  1.00  0.00     0.091 A 
ATOM     79  F   UNL     1      -0.877 -13.230   7.257  1.00  0.00    -0.205 F 
ATOM     80  C   UNL     1       2.059 -12.463   9.297  1.00  0.00     0.022 A 
BRANCH  78  81
ATOM     81  S   UNL     1      -0.518 -11.843   9.983  1.00  0.00     0.127 S 
ATOM     82  O   UNL     1      -0.520 -12.810  11.078  1.00  0.00    -0.237 OA
ATOM     83  O   UNL     1       0.067 -10.542  10.310  1.00  0.00    -0.237 OA
ATOM     84  O   UNL     1      -1.744 -11.770   9.200  1.00  0.00    -0.744 OA
ENDBRANCH  78  81
ENDBRANCH  50  74
BRANCH  62  85
ATOM     85  C   UNL     1       2.461 -19.868   4.119  1.00  0.00     0.023 A 
ATOM     86  C   UNL     1       1.952 -20.573   5.227  1.00  0.00     0.012 A 
ATOM     87  C   UNL     1       3.632 -20.326   3.485  1.00  0.00     0.148 A 
ATOM     88  C   UNL     1       2.630 -21.681   5.732  1.00  0.00     0.002 A 
ATOM     89  C   UNL     1       4.267 -21.468   3.953  1.00  0.00     0.091 A 
ATOM     90  F   UNL     1       4.107 -19.634   2.439  1.00  0.00    -0.205 F 
ATOM     91  C   UNL     1       3.780 -22.134   5.090  1.00  0.00     0.022 A 
BRANCH  89  92
ATOM     92  S   UNL     1       5.692 -22.183   3.129  1.00  0.00     0.127 S 
ATOM     93  O   UNL     1       6.756 -21.927   4.099  1.00  0.00    -0.237 OA
ATOM     94  O   UNL     1       5.302 -23.588   3.007  1.00  0.00    -0.237 OA
ATOM     95  O   UNL     1       5.823 -21.478   1.861  1.00  0.00    -0.744 OA
ENDBRANCH  89  92
ENDBRANCH  62  85
ENDBRANCH  36  37
ENDBRANCH  29  31
ENDBRANCH  28  29
ENDBRANCH  27  28
ENDBRANCH   1  27
TORSDOF 20
