REMARK SMILES COc1ccc2c(CC(=O)OCCOC(=O)c3ccc(-c4c5nc(c(-c6cccc(S(=O)(=O)[O-])c6F)c6ccc([nH]6)c(-c6cccc(S(=O)(=O)[O-])c6F)c6nc(c(-c7cccc(S(=O)(=O)[O-])c7F)c7ccc4[nH]7)C=C6)C=C5)cc3)c(C(=O)c3cc(C)ccn3)[nH]c2c1
REMARK SMILES IDX 12 1 11 2 9 3 10 4 8 5 7 6 3 7 4 8 92 9 5 10 91 11 6 12
REMARK SMILES IDX 90 13 80 14 2 16 1 17 81 18 82 19 83 20 84 21 89 22 85 23
REMARK SMILES IDX 88 24 86 25 87 26 13 27 14 28 15 29 16 30 17 31 18 32 79 33
REMARK SMILES IDX 19 34 78 35 20 36 21 37 22 38 72 39 23 40 77 41 71 42 73 43
REMARK SMILES IDX 24 44 76 45 70 46 69 47 25 49 57 50 37 51 56 52 38 53 41 54
REMARK SMILES IDX 55 55 74 56 39 57 40 58 54 60 75 61 42 62 26 63 27 64 35 65
REMARK SMILES IDX 28 66 30 67 36 68 29 69 31 70 32 71 33 72 34 73 58 74 59 75
REMARK SMILES IDX 67 76 60 77 62 78 68 79 61 80 63 81 64 82 65 83 66 84 43 85
REMARK SMILES IDX 44 86 52 87 45 88 47 89 53 90 46 91 48 92 49 93 50 94 51 95
REMARK H PARENT 90 15 73 48 41 59
REMARK Flexibility Score: inf
ROOT
ATOM      1  C   UNL     1       4.109   8.599  -2.240  1.00  0.00     0.274 C 
ENDROOT
BRANCH   1   2
ATOM      2  O   UNL     1       3.358   7.719  -1.377  1.00  0.00    -0.462 OA
BRANCH   2   3
ATOM      3  C   UNL     1       3.943   7.433  -0.182  1.00  0.00     0.310 C 
ATOM      4  O   UNL     1       5.069   7.808   0.139  1.00  0.00    -0.252 OA
BRANCH   3   5
ATOM      5  C   UNL     1       3.085   6.632   0.771  1.00  0.00     0.161 C 
BRANCH   5   6
ATOM      6  C   UNL     1       1.854   5.991   0.199  1.00  0.00     0.000 A 
ATOM      7  C   UNL     1       0.955   2.067  -0.956  1.00  0.00     0.120 A 
ATOM      8  C   UNL     1       2.304   2.317  -0.715  1.00  0.00     0.047 A 
ATOM      9  C   UNL     1       0.019   3.106  -0.982  1.00  0.00     0.073 A 
ATOM     10  C   UNL     1       2.738   3.607  -0.393  1.00  0.00     0.014 A 
ATOM     11  C   UNL     1       0.467   4.381  -0.617  1.00  0.00     0.050 A 
ATOM     12  C   UNL     1       1.793   4.647  -0.289  1.00  0.00     0.004 A 
ATOM     13  N   UNL     1      -0.224   5.561  -0.465  1.00  0.00    -0.351 N 
ATOM     14  C   UNL     1       0.544   6.472   0.228  1.00  0.00     0.093 A 
ATOM     15  H   UNL     1      -1.134   5.729  -0.802  1.00  0.00     0.167 HD
BRANCH   7  16
ATOM     16  O   UNL     1       0.472   0.805  -1.195  1.00  0.00    -0.497 OA
ATOM     17  C   UNL     1       0.897  -0.131  -0.203  1.00  0.00     0.278 C 
ENDBRANCH   7  16
BRANCH  14  18
ATOM     18  C   UNL     1       0.007   7.622   0.940  1.00  0.00     0.227 C 
ATOM     19  O   UNL     1       0.555   8.108   1.925  1.00  0.00    -0.285 OA
BRANCH  18  20
ATOM     20  C   UNL     1      -1.328   8.151   0.572  1.00  0.00     0.113 A 
ATOM     21  C   UNL     1      -2.408   7.909   1.414  1.00  0.00     0.036 A 
ATOM     22  N   UNL     1      -1.399   8.877  -0.568  1.00  0.00    -0.253 NA
ATOM     23  C   UNL     1      -3.644   8.461   1.077  1.00  0.00    -0.047 A 
ATOM     24  C   UNL     1      -2.581   9.474  -0.820  1.00  0.00     0.112 A 
ATOM     25  C   UNL     1      -4.864   8.210   1.912  1.00  0.00     0.044 C 
ATOM     26  C   UNL     1      -3.718   9.292  -0.045  1.00  0.00     0.023 A 
ENDBRANCH  18  20
ENDBRANCH  14  18
ENDBRANCH   5   6
ENDBRANCH   3   5
ENDBRANCH   2   3
ENDBRANCH   1   2
BRANCH   1  27
ATOM     27  C   UNL     1       3.511  10.002  -2.225  1.00  0.00     0.275 C 
BRANCH  27  28
ATOM     28  O   UNL     1       3.343  10.439  -0.867  1.00  0.00    -0.458 OA
BRANCH  28  29
ATOM     29  C   UNL     1       2.089  10.814  -0.532  1.00  0.00     0.338 C 
ATOM     30  O   UNL     1       1.131  10.922  -1.296  1.00  0.00    -0.246 OA
BRANCH  29  31
ATOM     31  C   UNL     1       2.008  11.143   0.901  1.00  0.00     0.060 A 
ATOM     32  C   UNL     1       2.597  10.329   1.869  1.00  0.00     0.016 A 
ATOM     33  C   UNL     1       1.239  12.241   1.291  1.00  0.00     0.016 A 
ATOM     34  C   UNL     1       2.330  10.552   3.221  1.00  0.00     0.010 A 
ATOM     35  C   UNL     1       1.061  12.522   2.647  1.00  0.00     0.010 A 
ATOM     36  C   UNL     1       1.568  11.658   3.630  1.00  0.00    -0.014 A 
BRANCH  36  37
ATOM     37  C   UNL     1       1.304  11.915   5.075  1.00  0.00     0.031 A 
ATOM     38  C   UNL     1      -0.107  12.002   5.601  1.00  0.00     0.074 A 
ATOM     39  C   UNL     1       2.338  12.110   5.918  1.00  0.00     0.049 A 
ATOM     40  N   UNL     1      -0.522  12.348   6.794  1.00  0.00    -0.248 NA
ATOM     41  C   UNL     1      -1.195  11.680   4.663  1.00  0.00     0.031 C 
ATOM     42  C   UNL     1       3.752  12.081   5.541  1.00  0.00     0.029 A 
ATOM     43  N   UNL     1       2.361  12.383   7.264  1.00  0.00    -0.354 N 
ATOM     44  C   UNL     1      -1.911  12.353   6.731  1.00  0.00     0.074 A 
ATOM     45  C   UNL     1      -2.272  11.970   5.383  1.00  0.00     0.031 C 
ATOM     46  C   UNL     1       4.504  12.296   6.630  1.00  0.00     0.029 A 
ATOM     47  C   UNL     1       3.629  12.539   7.772  1.00  0.00     0.049 A 
ATOM     48  H   UNL     1       1.547  12.459   7.813  1.00  0.00     0.167 HD
ATOM     49  C   UNL     1      -2.805  12.633   7.711  1.00  0.00     0.034 A 
ATOM     50  C   UNL     1       4.050  12.860   9.011  1.00  0.00     0.034 A 
ATOM     51  C   UNL     1      -2.453  12.926   9.076  1.00  0.00     0.049 A 
ATOM     52  C   UNL     1       3.037  13.096  10.093  1.00  0.00     0.074 A 
ATOM     53  C   UNL     1      -3.295  13.170  10.148  1.00  0.00     0.029 A 
ATOM     54  N   UNL     1      -1.157  12.993   9.565  1.00  0.00    -0.354 N 
ATOM     55  N   UNL     1       1.730  13.025  10.028  1.00  0.00    -0.248 NA
ATOM     56  C   UNL     1       3.556  13.439  11.425  1.00  0.00     0.031 C 
ATOM     57  C   UNL     1      -2.508  13.376  11.288  1.00  0.00     0.029 A 
ATOM     58  C   UNL     1      -1.176  13.263  10.924  1.00  0.00     0.049 A 
ATOM     59  H   UNL     1      -0.343  12.867   9.026  1.00  0.00     0.167 HD
ATOM     60  C   UNL     1       1.270  13.303  11.309  1.00  0.00     0.074 A 
ATOM     61  C   UNL     1       2.440  13.507  12.139  1.00  0.00     0.031 C 
ATOM     62  C   UNL     1      -0.007  13.410  11.751  1.00  0.00     0.034 A 
BRANCH  49  63
ATOM     63  C   UNL     1      -4.269  12.581   7.363  1.00  0.00     0.023 A 
ATOM     64  C   UNL     1      -4.908  11.330   7.253  1.00  0.00     0.012 A 
ATOM     65  C   UNL     1      -5.029  13.760   7.227  1.00  0.00     0.148 A 
ATOM     66  C   UNL     1      -6.277  11.252   6.995  1.00  0.00     0.002 A 
ATOM     67  C   UNL     1      -6.399  13.674   7.001  1.00  0.00     0.091 A 
ATOM     68  F   UNL     1      -4.401  14.941   7.309  1.00  0.00    -0.205 F 
ATOM     69  C   UNL     1      -7.023  12.422   6.880  1.00  0.00     0.022 A 
BRANCH  67  70
ATOM     70  S   UNL     1      -7.447  15.132   6.910  1.00  0.00     0.127 S 
ATOM     71  O   UNL     1      -7.601  15.295   5.466  1.00  0.00    -0.237 OA
ATOM     72  O   UNL     1      -8.659  14.693   7.605  1.00  0.00    -0.237 OA
ATOM     73  O   UNL     1      -6.712  16.187   7.594  1.00  0.00    -0.744 OA
ENDBRANCH  67  70
ENDBRANCH  49  63
BRANCH  50  74
ATOM     74  C   UNL     1       5.511  12.915   9.296  1.00  0.00     0.023 A 
ATOM     75  C   UNL     1       6.096  11.902  10.078  1.00  0.00     0.012 A 
ATOM     76  C   UNL     1       6.332  13.915   8.741  1.00  0.00     0.148 A 
ATOM     77  C   UNL     1       7.471  11.890  10.313  1.00  0.00     0.002 A 
ATOM     78  C   UNL     1       7.708  13.864   8.929  1.00  0.00     0.091 A 
ATOM     79  F   UNL     1       5.756  14.889   8.020  1.00  0.00    -0.205 F 
ATOM     80  C   UNL     1       8.279  12.860   9.725  1.00  0.00     0.022 A 
BRANCH  78  81
ATOM     81  S   UNL     1       8.815  14.991   8.073  1.00  0.00     0.127 S 
ATOM     82  O   UNL     1       9.043  16.018   9.085  1.00  0.00    -0.237 OA
ATOM     83  O   UNL     1       9.972  14.141   7.788  1.00  0.00    -0.237 OA
ATOM     84  O   UNL     1       8.082  15.409   6.885  1.00  0.00    -0.744 OA
ENDBRANCH  78  81
ENDBRANCH  50  74
BRANCH  62  85
ATOM     85  C   UNL     1      -0.208  13.761  13.200  1.00  0.00     0.023 A 
ATOM     86  C   UNL     1      -0.005  15.091  13.618  1.00  0.00     0.012 A 
ATOM     87  C   UNL     1      -0.640  12.800  14.133  1.00  0.00     0.148 A 
ATOM     88  C   UNL     1      -0.203  15.453  14.950  1.00  0.00     0.002 A 
ATOM     89  C   UNL     1      -0.870  13.177  15.452  1.00  0.00     0.091 A 
ATOM     90  F   UNL     1      -0.804  11.533  13.724  1.00  0.00    -0.205 F 
ATOM     91  C   UNL     1      -0.644  14.500  15.865  1.00  0.00     0.022 A 
BRANCH  89  92
ATOM     92  S   UNL     1      -1.510  12.013  16.663  1.00  0.00     0.127 S 
ATOM     93  O   UNL     1      -0.284  11.513  17.279  1.00  0.00    -0.237 OA
ATOM     94  O   UNL     1      -2.324  12.866  17.531  1.00  0.00    -0.237 OA
ATOM     95  O   UNL     1      -2.279  11.043  15.893  1.00  0.00    -0.744 OA
ENDBRANCH  89  92
ENDBRANCH  62  85
ENDBRANCH  36  37
ENDBRANCH  29  31
ENDBRANCH  28  29
ENDBRANCH  27  28
ENDBRANCH   1  27
TORSDOF 18
