REMARK SMILES COc1ccccc1Nc1snc(C)c1C(=O)OCCOC(=O)c1ccc(-c2c3nc(c(-c4cccc(S(=O)(=O)[O-])c4F)c4ccc([nH]4)c(-c4cccc(S(=O)(=O)[O-])c4F)c4nc(c(-c5cccc(S(=O)(=O)[O-])c5F)c5ccc2[nH]5)C=C4)C=C3)cc1
REMARK SMILES IDX 19 1 18 2 16 3 17 4 15 5 10 6 11 7 12 8 13 9 14 10 9 11 8 13
REMARK SMILES IDX 3 14 4 15 5 16 7 17 6 18 2 19 1 20 20 21 21 22 22 23 23 24
REMARK SMILES IDX 24 25 25 26 86 27 26 28 85 29 27 30 28 31 29 32 79 33 30 34
REMARK SMILES IDX 84 35 78 36 80 37 31 38 83 39 77 40 76 41 32 43 64 44 44 45
REMARK SMILES IDX 63 46 45 47 48 48 62 49 81 50 46 51 47 52 61 54 82 55 49 56
REMARK SMILES IDX 33 57 34 58 42 59 35 60 37 61 43 62 36 63 38 64 39 65 40 66
REMARK SMILES IDX 41 67 65 68 66 69 74 70 67 71 69 72 75 73 68 74 70 75 71 76
REMARK SMILES IDX 72 77 73 78 50 79 51 80 59 81 52 82 54 83 60 84 53 85 55 86
REMARK SMILES IDX 56 87 57 88 58 89
REMARK H PARENT 9 12 80 42 48 53
REMARK Flexibility Score: inf
ROOT
ATOM      1  C   UNL     1       2.026  -0.290  -4.623  1.00  0.00     0.275 C 
ENDROOT
BRANCH   1   2
ATOM      2  O   UNL     1       2.888  -0.625  -3.528  1.00  0.00    -0.458 OA
BRANCH   2   3
ATOM      3  C   UNL     1       4.005  -1.352  -3.824  1.00  0.00     0.343 C 
ATOM      4  O   UNL     1       4.257  -1.802  -4.941  1.00  0.00    -0.246 OA
BRANCH   3   5
ATOM      5  C   UNL     1       4.894  -1.529  -2.686  1.00  0.00     0.117 A 
ATOM      6  C   UNL     1       4.495  -1.734  -1.366  1.00  0.00     0.128 A 
ATOM      7  S   UNL     1       5.911  -1.704  -0.387  1.00  0.00    -0.017 S 
ATOM      8  N   UNL     1       6.999  -1.632  -1.620  1.00  0.00    -0.195 NA
ATOM      9  C   UNL     1       6.339  -1.500  -2.772  1.00  0.00     0.068 A 
ATOM     10  C   UNL     1       7.159  -1.316  -4.007  1.00  0.00     0.069 C 
BRANCH   6  11
ATOM     11  N   UNL     1       3.276  -1.915  -0.790  1.00  0.00    -0.342 N 
ATOM     12  H   UNL     1       3.178  -1.571   0.127  1.00  0.00     0.168 HD
BRANCH  11  13
ATOM     13  C   UNL     1       2.135  -2.533  -1.343  1.00  0.00     0.082 A 
ATOM     14  C   UNL     1       0.849  -2.182  -0.891  1.00  0.00     0.142 A 
ATOM     15  C   UNL     1      -0.294  -2.746  -1.465  1.00  0.00     0.048 A 
ATOM     16  C   UNL     1      -0.174  -3.643  -2.527  1.00  0.00     0.004 A 
ATOM     17  C   UNL     1       2.228  -3.462  -2.391  1.00  0.00     0.030 A 
ATOM     18  C   UNL     1       1.088  -4.003  -2.988  1.00  0.00     0.002 A 
BRANCH  14  19
ATOM     19  O   UNL     1       0.663  -1.358   0.194  1.00  0.00    -0.495 OA
ATOM     20  C   UNL     1       0.857   0.016  -0.146  1.00  0.00     0.278 C 
ENDBRANCH  14  19
ENDBRANCH  11  13
ENDBRANCH   6  11
ENDBRANCH   3   5
ENDBRANCH   2   3
ENDBRANCH   1   2
BRANCH   1  21
ATOM     21  C   UNL     1       2.310   1.124  -5.102  1.00  0.00     0.275 C 
BRANCH  21  22
ATOM     22  O   UNL     1       3.516   1.207  -5.864  1.00  0.00    -0.458 OA
BRANCH  22  23
ATOM     23  C   UNL     1       4.604   1.563  -5.144  1.00  0.00     0.338 C 
ATOM     24  O   UNL     1       4.816   1.324  -3.967  1.00  0.00    -0.246 OA
BRANCH  23  25
ATOM     25  C   UNL     1       5.423   2.499  -5.920  1.00  0.00     0.060 A 
ATOM     26  C   UNL     1       6.682   2.820  -5.412  1.00  0.00     0.016 A 
ATOM     27  C   UNL     1       4.867   3.203  -7.001  1.00  0.00     0.016 A 
ATOM     28  C   UNL     1       7.340   3.916  -5.931  1.00  0.00     0.010 A 
ATOM     29  C   UNL     1       5.535   4.293  -7.526  1.00  0.00     0.010 A 
ATOM     30  C   UNL     1       6.748   4.671  -6.961  1.00  0.00    -0.014 A 
BRANCH  30  31
ATOM     31  C   UNL     1       7.563   5.711  -7.573  1.00  0.00     0.031 A 
ATOM     32  C   UNL     1       8.836   5.160  -8.099  1.00  0.00     0.074 A 
ATOM     33  C   UNL     1       7.212   7.005  -7.723  1.00  0.00     0.049 A 
ATOM     34  N   UNL     1      10.012   5.358  -7.606  1.00  0.00    -0.248 NA
ATOM     35  C   UNL     1       8.781   4.100  -9.119  1.00  0.00     0.031 C 
ATOM     36  C   UNL     1       5.910   7.620  -7.464  1.00  0.00     0.029 A 
ATOM     37  N   UNL     1       7.933   8.034  -8.258  1.00  0.00    -0.354 N 
ATOM     38  C   UNL     1      10.878   4.659  -8.438  1.00  0.00     0.074 A 
ATOM     39  C   UNL     1      10.064   3.741  -9.189  1.00  0.00     0.031 C 
ATOM     40  C   UNL     1       5.860   8.824  -8.077  1.00  0.00     0.029 A 
ATOM     41  C   UNL     1       7.157   9.118  -8.664  1.00  0.00     0.049 A 
ATOM     42  H   UNL     1       8.913   8.012  -8.350  1.00  0.00     0.167 HD
ATOM     43  C   UNL     1      12.134   5.133  -8.655  1.00  0.00     0.034 A 
ATOM     44  C   UNL     1       7.532  10.136  -9.485  1.00  0.00     0.034 A 
ATOM     45  C   UNL     1      12.537   6.041  -7.606  1.00  0.00     0.049 A 
ATOM     46  C   UNL     1       9.010  10.215  -9.443  1.00  0.00     0.074 A 
ATOM     47  C   UNL     1      12.577   5.975  -6.225  1.00  0.00     0.029 A 
ATOM     48  N   UNL     1      12.584   7.379  -7.916  1.00  0.00    -0.354 N 
ATOM     49  N   UNL     1       9.673  10.589  -8.385  1.00  0.00    -0.248 NA
ATOM     50  C   UNL     1       9.760   9.442 -10.419  1.00  0.00     0.031 C 
ATOM     51  C   UNL     1      12.142   7.259  -5.784  1.00  0.00     0.029 A 
ATOM     52  C   UNL     1      11.955   8.059  -6.911  1.00  0.00     0.049 A 
ATOM     53  H   UNL     1      12.996   7.776  -8.718  1.00  0.00     0.167 HD
ATOM     54  C   UNL     1      10.725   9.687  -8.320  1.00  0.00     0.074 A 
ATOM     55  C   UNL     1      10.786   9.073  -9.647  1.00  0.00     0.031 C 
ATOM     56  C   UNL     1      11.246   9.300  -7.120  1.00  0.00     0.034 A 
BRANCH  43  57
ATOM     57  C   UNL     1      12.791   5.149 -10.018  1.00  0.00     0.023 A 
ATOM     58  C   UNL     1      14.116   5.636 -10.081  1.00  0.00     0.012 A 
ATOM     59  C   UNL     1      12.098   5.021 -11.246  1.00  0.00     0.148 A 
ATOM     60  C   UNL     1      14.683   6.059 -11.287  1.00  0.00     0.002 A 
ATOM     61  C   UNL     1      12.695   5.365 -12.451  1.00  0.00     0.091 A 
ATOM     62  F   UNL     1      10.807   4.691 -11.264  1.00  0.00    -0.205 F 
ATOM     63  C   UNL     1      13.973   5.923 -12.473  1.00  0.00     0.022 A 
BRANCH  61  64
ATOM     64  S   UNL     1      11.837   5.167 -14.018  1.00  0.00     0.127 S 
ATOM     65  O   UNL     1      11.621   6.556 -14.410  1.00  0.00    -0.237 OA
ATOM     66  O   UNL     1      12.834   4.444 -14.807  1.00  0.00    -0.237 OA
ATOM     67  O   UNL     1      10.636   4.395 -13.722  1.00  0.00    -0.744 OA
ENDBRANCH  61  64
ENDBRANCH  43  57
BRANCH  44  68
ATOM     68  C   UNL     1       6.747  10.880 -10.505  1.00  0.00     0.023 A 
ATOM     69  C   UNL     1       7.275  12.057 -11.082  1.00  0.00     0.012 A 
ATOM     70  C   UNL     1       5.622  10.295 -11.126  1.00  0.00     0.148 A 
ATOM     71  C   UNL     1       6.726  12.604 -12.251  1.00  0.00     0.002 A 
ATOM     72  C   UNL     1       5.072  10.848 -12.279  1.00  0.00     0.091 A 
ATOM     73  F   UNL     1       5.145   9.141 -10.646  1.00  0.00    -0.205 F 
ATOM     74  C   UNL     1       5.629  11.996 -12.854  1.00  0.00     0.022 A 
BRANCH  72  75
ATOM     75  S   UNL     1       3.668  10.096 -13.114  1.00  0.00     0.127 S 
ATOM     76  O   UNL     1       2.798  11.251 -13.346  1.00  0.00    -0.237 OA
ATOM     77  O   UNL     1       4.287   9.545 -14.315  1.00  0.00    -0.237 OA
ATOM     78  O   UNL     1       3.124   9.120 -12.177  1.00  0.00    -0.744 OA
ENDBRANCH  72  75
ENDBRANCH  44  68
BRANCH  56  79
ATOM     79  C   UNL     1      10.878  10.074  -5.882  1.00  0.00     0.023 A 
ATOM     80  C   UNL     1       9.553  10.197  -5.413  1.00  0.00     0.012 A 
ATOM     81  C   UNL     1      11.930  10.544  -5.077  1.00  0.00     0.148 A 
ATOM     82  C   UNL     1       9.287  10.794  -4.177  1.00  0.00     0.002 A 
ATOM     83  C   UNL     1      11.665  11.089  -3.829  1.00  0.00     0.091 A 
ATOM     84  F   UNL     1      13.183  10.422  -5.540  1.00  0.00    -0.205 F 
ATOM     85  C   UNL     1      10.344  11.226  -3.377  1.00  0.00     0.022 A 
BRANCH  83  86
ATOM     86  S   UNL     1      12.992  11.548  -2.712  1.00  0.00     0.127 S 
ATOM     87  O   UNL     1      12.957  13.007  -2.781  1.00  0.00    -0.237 OA
ATOM     88  O   UNL     1      12.539  10.984  -1.439  1.00  0.00    -0.237 OA
ATOM     89  O   UNL     1      14.198  10.924  -3.242  1.00  0.00    -0.744 OA
ENDBRANCH  83  86
ENDBRANCH  56  79
ENDBRANCH  30  31
ENDBRANCH  23  25
ENDBRANCH  22  23
ENDBRANCH  21  22
ENDBRANCH   1  21
TORSDOF 17
