REMARK SMILES C[C@@H]1CN(C(=O)NC[C@@H]2CCC[C@@H]2C(=O)OCCOC(=O)c2ccc(-c3c4nc(c(-c5cccc(S(=O)(=O)[O-])c5F)c5ccc([nH]5)c(-c5cccc(S(=O)(=O)[O-])c5F)c5nc(c(-c6cccc(S(=O)(=O)[O-])c6F)c6ccc3[nH]6)C=C5)C=C4)cc2)C[C@@H]1C
REMARK SMILES IDX 17 1 16 2 14 3 15 4 13 5 9 6 10 7 11 8 12 9 8 10 7 11 5 12
REMARK SMILES IDX 6 13 4 15 1 16 2 17 3 18 86 19 85 20 87 21 18 22 19 23 20 24
REMARK SMILES IDX 21 25 22 26 23 27 84 28 24 29 83 30 25 31 26 32 27 33 77 34
REMARK SMILES IDX 28 35 82 36 76 37 78 38 29 39 81 40 75 41 74 42 30 44 62 45
REMARK SMILES IDX 42 46 61 47 43 48 46 49 60 50 79 51 44 52 45 53 59 55 80 56
REMARK SMILES IDX 47 57 31 58 32 59 40 60 33 61 35 62 41 63 34 64 36 65 37 66
REMARK SMILES IDX 38 67 39 68 63 69 64 70 72 71 65 72 67 73 73 74 66 75 68 76
REMARK SMILES IDX 69 77 70 78 71 79 48 80 49 81 57 82 50 83 52 84 58 85 51 86
REMARK SMILES IDX 53 87 54 88 55 89 56 90
REMARK H PARENT 7 14 78 43 46 54
REMARK Flexibility Score: inf
ROOT
ATOM      1  C   UNL     1      -2.563   3.554   0.030  1.00  0.00     0.274 C 
ENDROOT
BRANCH   1   2
ATOM      2  O   UNL     1      -2.559   3.948  -1.358  1.00  0.00    -0.462 OA
BRANCH   2   3
ATOM      3  C   UNL     1      -1.689   3.261  -2.133  1.00  0.00     0.309 C 
ATOM      4  O   UNL     1      -0.999   2.333  -1.732  1.00  0.00    -0.252 OA
BRANCH   3   5
ATOM      5  C   UNL     1      -1.618   3.693  -3.576  1.00  0.00     0.104 C 
ATOM      6  C   UNL     1      -0.521   4.710  -3.896  1.00  0.00     0.022 C 
ATOM      7  C   UNL     1      -1.214   6.068  -3.725  1.00  0.00     0.006 C 
ATOM      8  C   UNL     1      -2.708   5.824  -3.952  1.00  0.00     0.001 C 
ATOM      9  C   UNL     1      -2.890   4.322  -4.129  1.00  0.00     0.016 C 
BRANCH   6  10
ATOM     10  C   UNL     1       0.846   4.522  -3.199  1.00  0.00     0.122 C 
BRANCH  10  11
ATOM     11  N   UNL     1       0.972   5.231  -1.938  1.00  0.00    -0.338 N 
ATOM     12  C   UNL     1       1.175   4.976  -0.641  1.00  0.00     0.317 C 
ATOM     13  O   UNL     1       1.097   5.974   0.088  1.00  0.00    -0.249 OA
ATOM     14  H   UNL     1       0.880   6.200  -2.083  1.00  0.00     0.165 HD
BRANCH  12  15
ATOM     15  N   UNL     1       1.425   3.757  -0.118  1.00  0.00    -0.324 N 
ATOM     16  C   UNL     1       1.568   0.034   0.141  1.00  0.00     0.010 C 
ATOM     17  C   UNL     1       1.181   1.481   0.367  1.00  0.00     0.010 C 
ATOM     18  C   UNL     1       1.677   2.448  -0.712  1.00  0.00     0.125 C 
ATOM     19  C   UNL     1       1.688   2.150   1.653  1.00  0.00     0.010 C 
ATOM     20  C   UNL     1       1.446   3.633   1.341  1.00  0.00     0.125 C 
ATOM     21  C   UNL     1       3.156   1.880   1.978  1.00  0.00     0.010 C 
ENDBRANCH  12  15
ENDBRANCH  10  11
ENDBRANCH   6  10
ENDBRANCH   3   5
ENDBRANCH   2   3
ENDBRANCH   1   2
BRANCH   1  22
ATOM     22  C   UNL     1      -3.479   2.358   0.344  1.00  0.00     0.275 C 
BRANCH  22  23
ATOM     23  O   UNL     1      -2.977   1.100  -0.152  1.00  0.00    -0.458 OA
BRANCH  23  24
ATOM     24  C   UNL     1      -3.398   0.764  -1.396  1.00  0.00     0.338 C 
ATOM     25  O   UNL     1      -4.197   1.384  -2.083  1.00  0.00    -0.246 OA
BRANCH  24  26
ATOM     26  C   UNL     1      -2.628  -0.383  -1.921  1.00  0.00     0.060 A 
ATOM     27  C   UNL     1      -1.984  -0.212  -3.153  1.00  0.00     0.016 A 
ATOM     28  C   UNL     1      -2.596  -1.622  -1.282  1.00  0.00     0.016 A 
ATOM     29  C   UNL     1      -1.311  -1.268  -3.757  1.00  0.00     0.010 A 
ATOM     30  C   UNL     1      -1.940  -2.695  -1.901  1.00  0.00     0.010 A 
ATOM     31  C   UNL     1      -1.313  -2.527  -3.151  1.00  0.00    -0.014 A 
BRANCH  31  32
ATOM     32  C   UNL     1      -0.769  -3.682  -3.902  1.00  0.00     0.031 A 
ATOM     33  C   UNL     1      -1.721  -4.614  -4.597  1.00  0.00     0.074 A 
ATOM     34  C   UNL     1       0.559  -3.869  -4.002  1.00  0.00     0.049 A 
ATOM     35  N   UNL     1      -1.468  -5.702  -5.275  1.00  0.00    -0.248 NA
ATOM     36  C   UNL     1      -3.151  -4.271  -4.520  1.00  0.00     0.031 C 
ATOM     37  C   UNL     1       1.580  -3.005  -3.411  1.00  0.00     0.029 A 
ATOM     38  N   UNL     1       1.276  -4.860  -4.627  1.00  0.00    -0.354 N 
ATOM     39  C   UNL     1      -2.705  -6.196  -5.672  1.00  0.00     0.074 A 
ATOM     40  C   UNL     1      -3.708  -5.288  -5.161  1.00  0.00     0.031 C 
ATOM     41  C   UNL     1       2.793  -3.519  -3.677  1.00  0.00     0.029 A 
ATOM     42  C   UNL     1       2.633  -4.764  -4.426  1.00  0.00     0.049 A 
ATOM     43  H   UNL     1       0.859  -5.570  -5.166  1.00  0.00     0.167 HD
ATOM     44  C   UNL     1      -2.978  -7.302  -6.404  1.00  0.00     0.034 A 
ATOM     45  C   UNL     1       3.627  -5.602  -4.781  1.00  0.00     0.034 A 
ATOM     46  C   UNL     1      -1.976  -8.188  -6.930  1.00  0.00     0.049 A 
ATOM     47  C   UNL     1       3.292  -6.846  -5.563  1.00  0.00     0.074 A 
ATOM     48  C   UNL     1      -2.149  -9.321  -7.705  1.00  0.00     0.029 A 
ATOM     49  N   UNL     1      -0.611  -8.047  -6.727  1.00  0.00    -0.354 N 
ATOM     50  N   UNL     1       2.126  -7.257  -6.002  1.00  0.00    -0.248 NA
ATOM     51  C   UNL     1       4.412  -7.729  -5.921  1.00  0.00     0.031 C 
ATOM     52  C   UNL     1      -0.890  -9.879  -7.949  1.00  0.00     0.029 A 
ATOM     53  C   UNL     1       0.070  -9.077  -7.352  1.00  0.00     0.049 A 
ATOM     54  H   UNL     1      -0.189  -7.320  -6.214  1.00  0.00     0.167 HD
ATOM     55  C   UNL     1       2.376  -8.425  -6.715  1.00  0.00     0.074 A 
ATOM     56  C   UNL     1       3.807  -8.643  -6.668  1.00  0.00     0.031 C 
ATOM     57  C   UNL     1       1.500  -9.250  -7.341  1.00  0.00     0.034 A 
BRANCH  44  58
ATOM     58  C   UNL     1      -4.425  -7.612  -6.683  1.00  0.00     0.023 A 
ATOM     59  C   UNL     1      -5.143  -6.834  -7.614  1.00  0.00     0.012 A 
ATOM     60  C   UNL     1      -5.061  -8.701  -6.056  1.00  0.00     0.148 A 
ATOM     61  C   UNL     1      -6.480  -7.114  -7.892  1.00  0.00     0.002 A 
ATOM     62  C   UNL     1      -6.381  -9.001  -6.370  1.00  0.00     0.091 A 
ATOM     63  F   UNL     1      -4.369  -9.414  -5.156  1.00  0.00    -0.205 F 
ATOM     64  C   UNL     1      -7.096  -8.203  -7.278  1.00  0.00     0.022 A 
BRANCH  62  65
ATOM     65  S   UNL     1      -7.239 -10.425  -5.688  1.00  0.00     0.127 S 
ATOM     66  O   UNL     1      -8.193  -9.788  -4.781  1.00  0.00    -0.237 OA
ATOM     67  O   UNL     1      -7.838 -11.023  -6.881  1.00  0.00    -0.237 OA
ATOM     68  O   UNL     1      -6.216 -11.241  -5.048  1.00  0.00    -0.744 OA
ENDBRANCH  62  65
ENDBRANCH  44  58
BRANCH  45  69
ATOM     69  C   UNL     1       5.037  -5.286  -4.414  1.00  0.00     0.023 A 
ATOM     70  C   UNL     1       5.965  -4.963  -5.423  1.00  0.00     0.012 A 
ATOM     71  C   UNL     1       5.460  -5.292  -3.070  1.00  0.00     0.148 A 
ATOM     72  C   UNL     1       7.294  -4.681  -5.103  1.00  0.00     0.002 A 
ATOM     73  C   UNL     1       6.770  -4.953  -2.754  1.00  0.00     0.091 A 
ATOM     74  F   UNL     1       4.568  -5.622  -2.126  1.00  0.00    -0.205 F 
ATOM     75  C   UNL     1       7.693  -4.665  -3.769  1.00  0.00     0.022 A 
BRANCH  73  76
ATOM     76  S   UNL     1       7.336  -4.780  -1.058  1.00  0.00     0.127 S 
ATOM     77  O   UNL     1       8.213  -5.939  -0.915  1.00  0.00    -0.237 OA
ATOM     78  O   UNL     1       8.022  -3.488  -1.099  1.00  0.00    -0.237 OA
ATOM     79  O   UNL     1       6.131  -4.793  -0.238  1.00  0.00    -0.744 OA
ENDBRANCH  73  76
ENDBRANCH  45  69
BRANCH  57  80
ATOM     80  C   UNL     1       2.061 -10.448  -8.063  1.00  0.00     0.023 A 
ATOM     81  C   UNL     1       2.552 -11.544  -7.328  1.00  0.00     0.012 A 
ATOM     82  C   UNL     1       2.027 -10.518  -9.470  1.00  0.00     0.148 A 
ATOM     83  C   UNL     1       3.031 -12.679  -7.982  1.00  0.00     0.002 A 
ATOM     84  C   UNL     1       2.459 -11.672 -10.114  1.00  0.00     0.091 A 
ATOM     85  F   UNL     1       1.572  -9.457 -10.153  1.00  0.00    -0.205 F 
ATOM     86  C   UNL     1       2.973 -12.748  -9.373  1.00  0.00     0.022 A 
BRANCH  84  87
ATOM     87  S   UNL     1       2.330 -11.886 -11.893  1.00  0.00     0.127 S 
ATOM     88  O   UNL     1       3.725 -11.763 -12.310  1.00  0.00    -0.237 OA
ATOM     89  O   UNL     1       1.777 -13.237 -12.004  1.00  0.00    -0.237 OA
ATOM     90  O   UNL     1       1.441 -10.831 -12.360  1.00  0.00    -0.744 OA
ENDBRANCH  84  87
ENDBRANCH  57  80
ENDBRANCH  31  32
ENDBRANCH  24  26
ENDBRANCH  23  24
ENDBRANCH  22  23
ENDBRANCH   1  22
TORSDOF 17
