REMARK SMILES CC(=O)c1c[nH]c(C(=O)N[C@H]2C=C[C@H](C(=O)OCCOC(=O)c3ccc(-c4c5nc(c(-c6cccc(S(=O)(=O)[O-])c6F)c6ccc([nH]6)c(-c6cccc(S(=O)(=O)[O-])c6F)c6nc(c(-c7cccc(S(=O)(=O)[O-])c7F)c7ccc4[nH]7)C=C6)C=C5)cc3)C2)c1
REMARK SMILES IDX 18 1 17 2 15 3 16 4 14 5 11 6 12 7 86 8 13 9 10 10 8 11 9 12
REMARK SMILES IDX 7 14 4 15 5 16 87 17 6 18 2 20 1 21 3 22 19 23 20 24 21 25
REMARK SMILES IDX 22 26 23 27 24 28 85 29 25 30 84 31 26 32 27 33 28 34 78 35
REMARK SMILES IDX 29 36 83 37 77 38 79 39 30 40 82 41 76 42 75 43 31 45 63 46
REMARK SMILES IDX 43 47 62 48 44 49 47 50 61 51 80 52 45 53 46 54 60 56 81 57
REMARK SMILES IDX 48 58 32 59 33 60 41 61 34 62 36 63 42 64 35 65 37 66 38 67
REMARK SMILES IDX 39 68 40 69 64 70 65 71 73 72 66 73 68 74 74 75 67 76 69 77
REMARK SMILES IDX 70 78 71 79 72 80 49 81 50 82 58 83 51 84 53 85 59 86 52 87
REMARK SMILES IDX 54 88 55 89 56 90 57 91
REMARK H PARENT 10 13 6 19 79 44 47 55
REMARK Flexibility Score: inf
ROOT
ATOM      1  C   UNL     1      -5.552   2.079   2.334  1.00  0.00     0.274 C 
ENDROOT
BRANCH   1   2
ATOM      2  O   UNL     1      -5.321   1.371   3.566  1.00  0.00    -0.462 OA
BRANCH   2   3
ATOM      3  C   UNL     1      -4.017   1.297   3.946  1.00  0.00     0.312 C 
ATOM      4  O   UNL     1      -3.071   1.550   3.206  1.00  0.00    -0.252 OA
BRANCH   3   5
ATOM      5  C   UNL     1      -3.856   0.908   5.417  1.00  0.00     0.124 C 
ATOM      6  C   UNL     1      -2.120  -0.754   5.389  1.00  0.00     0.106 C 
ATOM      7  C   UNL     1      -3.419  -1.373   5.800  1.00  0.00    -0.006 C 
ATOM      8  C   UNL     1      -2.372   0.712   5.744  1.00  0.00     0.048 C 
ATOM      9  C   UNL     1      -4.396  -0.455   5.757  1.00  0.00    -0.014 C 
BRANCH   6  10
ATOM     10  N   UNL     1      -1.000  -1.293   6.100  1.00  0.00    -0.345 N 
ATOM     11  C   UNL     1       0.326  -1.251   5.748  1.00  0.00     0.268 C 
ATOM     12  O   UNL     1       1.130  -1.756   6.536  1.00  0.00    -0.268 OA
ATOM     13  H   UNL     1      -1.207  -1.750   6.946  1.00  0.00     0.164 HD
BRANCH  11  14
ATOM     14  C   UNL     1       0.776  -0.702   4.478  1.00  0.00     0.105 A 
ATOM     15  C   UNL     1       1.094   0.132   2.363  1.00  0.00     0.035 A 
ATOM     16  C   UNL     1       2.274  -0.439   2.791  1.00  0.00     0.094 A 
ATOM     17  C   UNL     1       0.193   0.036   3.461  1.00  0.00     0.045 A 
ATOM     18  N   UNL     1       2.090  -0.877   4.078  1.00  0.00    -0.356 N 
ATOM     19  H   UNL     1       2.798  -1.264   4.642  1.00  0.00     0.166 HD
BRANCH  15  20
ATOM     20  C   UNL     1       0.789   0.707   1.055  1.00  0.00     0.161 C 
ATOM     21  C   UNL     1       1.440   0.092  -0.155  1.00  0.00     0.093 C 
ATOM     22  O   UNL     1      -0.048   1.597   0.922  1.00  0.00    -0.294 OA
ENDBRANCH  15  20
ENDBRANCH  11  14
ENDBRANCH   6  10
ENDBRANCH   3   5
ENDBRANCH   2   3
ENDBRANCH   1   2
BRANCH   1  23
ATOM     23  C   UNL     1      -5.976   3.527   2.584  1.00  0.00     0.275 C 
BRANCH  23  24
ATOM     24  O   UNL     1      -4.996   4.317   3.267  1.00  0.00    -0.458 OA
BRANCH  24  25
ATOM     25  C   UNL     1      -5.099   4.251   4.613  1.00  0.00     0.338 C 
ATOM     26  O   UNL     1      -5.665   3.389   5.267  1.00  0.00    -0.246 OA
BRANCH  25  27
ATOM     27  C   UNL     1      -4.603   5.460   5.260  1.00  0.00     0.060 A 
ATOM     28  C   UNL     1      -3.999   5.334   6.516  1.00  0.00     0.016 A 
ATOM     29  C   UNL     1      -5.031   6.694   4.765  1.00  0.00     0.016 A 
ATOM     30  C   UNL     1      -3.871   6.458   7.313  1.00  0.00     0.010 A 
ATOM     31  C   UNL     1      -4.945   7.806   5.583  1.00  0.00     0.010 A 
ATOM     32  C   UNL     1      -4.370   7.685   6.854  1.00  0.00    -0.014 A 
BRANCH  32  33
ATOM     33  C   UNL     1      -4.106   8.888   7.666  1.00  0.00     0.031 A 
ATOM     34  C   UNL     1      -2.701   9.449   7.332  1.00  0.00     0.074 A 
ATOM     35  C   UNL     1      -5.074   9.234   8.575  1.00  0.00     0.049 A 
ATOM     36  N   UNL     1      -1.832  10.032   8.102  1.00  0.00    -0.248 NA
ATOM     37  C   UNL     1      -2.116   9.216   5.977  1.00  0.00     0.031 C 
ATOM     38  C   UNL     1      -6.399   8.576   8.701  1.00  0.00     0.029 A 
ATOM     39  N   UNL     1      -5.169  10.188   9.573  1.00  0.00    -0.354 N 
ATOM     40  C   UNL     1      -0.758  10.459   7.277  1.00  0.00     0.074 A 
ATOM     41  C   UNL     1      -0.910   9.786   6.030  1.00  0.00     0.031 C 
ATOM     42  C   UNL     1      -7.102   9.076   9.744  1.00  0.00     0.029 A 
ATOM     43  C   UNL     1      -6.336  10.129  10.387  1.00  0.00     0.049 A 
ATOM     44  H   UNL     1      -4.471  10.868   9.712  1.00  0.00     0.167 HD
ATOM     45  C   UNL     1       0.081  11.482   7.621  1.00  0.00     0.034 A 
ATOM     46  C   UNL     1      -6.647  10.853  11.514  1.00  0.00     0.034 A 
ATOM     47  C   UNL     1      -0.343  12.012   8.874  1.00  0.00     0.049 A 
ATOM     48  C   UNL     1      -5.616  11.894  11.594  1.00  0.00     0.074 A 
ATOM     49  C   UNL     1      -0.257  11.538  10.154  1.00  0.00     0.029 A 
ATOM     50  N   UNL     1      -1.303  12.995   8.795  1.00  0.00    -0.354 N 
ATOM     51  N   UNL     1      -5.551  12.922  10.801  1.00  0.00    -0.248 NA
ATOM     52  C   UNL     1      -4.508  11.726  12.542  1.00  0.00     0.031 C 
ATOM     53  C   UNL     1      -1.491  11.922  10.709  1.00  0.00     0.029 A 
ATOM     54  C   UNL     1      -2.151  12.815   9.852  1.00  0.00     0.049 A 
ATOM     55  H   UNL     1      -1.367  13.695   8.106  1.00  0.00     0.167 HD
ATOM     56  C   UNL     1      -4.227  13.263  10.901  1.00  0.00     0.074 A 
ATOM     57  C   UNL     1      -3.774  12.777  12.187  1.00  0.00     0.031 C 
ATOM     58  C   UNL     1      -3.480  13.368   9.769  1.00  0.00     0.034 A 
BRANCH  45  59
ATOM     59  C   UNL     1       1.116  12.309   6.894  1.00  0.00     0.023 A 
ATOM     60  C   UNL     1       1.978  13.067   7.741  1.00  0.00     0.012 A 
ATOM     61  C   UNL     1       1.094  12.646   5.531  1.00  0.00     0.148 A 
ATOM     62  C   UNL     1       2.660  14.198   7.300  1.00  0.00     0.002 A 
ATOM     63  C   UNL     1       1.826  13.752   5.081  1.00  0.00     0.091 A 
ATOM     64  F   UNL     1       0.309  11.960   4.695  1.00  0.00    -0.205 F 
ATOM     65  C   UNL     1       2.567  14.551   5.968  1.00  0.00     0.022 A 
BRANCH  63  66
ATOM     66  S   UNL     1       1.872  14.267   3.360  1.00  0.00     0.127 S 
ATOM     67  O   UNL     1       1.055  15.477   3.383  1.00  0.00    -0.237 OA
ATOM     68  O   UNL     1       3.303  14.507   3.157  1.00  0.00    -0.237 OA
ATOM     69  O   UNL     1       1.345  13.144   2.598  1.00  0.00    -0.744 OA
ENDBRANCH  63  66
ENDBRANCH  45  59
BRANCH  46  70
ATOM     70  C   UNL     1      -7.652  10.817  12.654  1.00  0.00     0.023 A 
ATOM     71  C   UNL     1      -8.848  10.087  12.640  1.00  0.00     0.012 A 
ATOM     72  C   UNL     1      -7.366  11.496  13.885  1.00  0.00     0.148 A 
ATOM     73  C   UNL     1      -9.646   9.962  13.801  1.00  0.00     0.002 A 
ATOM     74  C   UNL     1      -8.078  11.268  15.058  1.00  0.00     0.091 A 
ATOM     75  F   UNL     1      -6.404  12.421  13.928  1.00  0.00    -0.205 F 
ATOM     76  C   UNL     1      -9.239  10.507  15.019  1.00  0.00     0.022 A 
BRANCH  74  77
ATOM     77  S   UNL     1      -7.461  11.812  16.668  1.00  0.00     0.127 S 
ATOM     78  O   UNL     1      -8.631  12.468  17.249  1.00  0.00    -0.237 OA
ATOM     79  O   UNL     1      -7.102  10.536  17.287  1.00  0.00    -0.237 OA
ATOM     80  O   UNL     1      -6.333  12.695  16.402  1.00  0.00    -0.744 OA
ENDBRANCH  74  77
ENDBRANCH  46  70
BRANCH  58  81
ATOM     81  C   UNL     1      -4.265  13.745   8.507  1.00  0.00     0.023 A 
ATOM     82  C   UNL     1      -5.024  14.933   8.561  1.00  0.00     0.012 A 
ATOM     83  C   UNL     1      -4.391  12.962   7.334  1.00  0.00     0.148 A 
ATOM     84  C   UNL     1      -5.886  15.311   7.526  1.00  0.00     0.002 A 
ATOM     85  C   UNL     1      -5.268  13.329   6.303  1.00  0.00     0.091 A 
ATOM     86  F   UNL     1      -3.657  11.858   7.222  1.00  0.00    -0.205 F 
ATOM     87  C   UNL     1      -6.013  14.509   6.401  1.00  0.00     0.022 A 
BRANCH  85  88
ATOM     88  S   UNL     1      -5.572  12.335   4.826  1.00  0.00     0.127 S 
ATOM     89  O   UNL     1      -7.022  12.134   4.871  1.00  0.00    -0.237 OA
ATOM     90  O   UNL     1      -5.127  13.223   3.755  1.00  0.00    -0.237 OA
ATOM     91  O   UNL     1      -4.796  11.112   4.983  1.00  0.00    -0.744 OA
ENDBRANCH  85  88
ENDBRANCH  58  81
ENDBRANCH  32  33
ENDBRANCH  25  27
ENDBRANCH  24  25
ENDBRANCH  23  24
ENDBRANCH   1  23
TORSDOF 17
