REMARK SMILES C[C@]12c3ccccc3[C@](C)(c3ccccc31)[C@@H]1C(=O)N(c3ccc(C(=O)OCCOC(=O)c4ccc(-c5c6nc(c(-c7cccc(S(=O)(=O)[O-])c7F)c7ccc([nH]7)c(-c7cccc(S(=O)(=O)[O-])c7F)c7nc(c(-c8cccc(S(=O)(=O)[O-])c8F)c8ccc5[nH]8)C=C7)C=C6)cc4)cc3)C(=O)[C@H]12
REMARK SMILES IDX 29 1 28 2 27 3 25 4 26 5 24 6 21 7 22 8 97 9 23 10 96 11
REMARK SMILES IDX 20 12 1 13 2 14 16 15 3 16 100 17 15 18 11 19 8 20 4 21
REMARK SMILES IDX 17 22 98 23 14 24 12 25 9 26 7 27 5 28 18 29 99 30 13 31
REMARK SMILES IDX 10 32 6 33 19 34 30 35 31 36 32 37 33 38 34 39 95 40 35 41
REMARK SMILES IDX 94 42 36 43 37 44 38 45 88 46 39 47 93 48 87 49 89 50 40 51
REMARK SMILES IDX 92 52 86 53 85 54 41 56 73 57 53 58 72 59 54 60 57 61 71 62
REMARK SMILES IDX 90 63 55 64 56 65 70 67 91 68 58 69 42 70 43 71 51 72 44 73
REMARK SMILES IDX 46 74 52 75 45 76 47 77 48 78 49 79 50 80 74 81 75 82 83 83
REMARK SMILES IDX 76 84 78 85 84 86 77 87 79 88 80 89 81 90 82 91 59 92 60 93
REMARK SMILES IDX 68 94 61 95 63 96 69 97 62 98 64 99 65 100 66 101 67 102
REMARK H PARENT 89 55 57 66
REMARK Flexibility Score: inf
ROOT
ATOM      1  C   UNL     1       1.466   2.116  11.444  1.00  0.00     0.275 C 
ENDROOT
BRANCH   1   2
ATOM      2  C   UNL     1       0.010   2.506  11.178  1.00  0.00     0.275 C 
BRANCH   2   3
ATOM      3  O   UNL     1      -0.344   2.305   9.795  1.00  0.00    -0.458 OA
BRANCH   3   4
ATOM      4  C   UNL     1      -0.440   3.425   9.033  1.00  0.00     0.338 C 
ATOM      5  O   UNL     1      -0.301   4.572   9.412  1.00  0.00    -0.246 OA
BRANCH   4   6
ATOM      6  C   UNL     1      -0.616   3.057   7.604  1.00  0.00     0.060 A 
ATOM      7  C   UNL     1      -0.756   2.377   4.899  1.00  0.00     0.052 A 
ATOM      8  C   UNL     1      -0.006   3.481   5.293  1.00  0.00     0.028 A 
ATOM      9  C   UNL     1      -1.469   1.633   5.848  1.00  0.00     0.028 A 
ATOM     10  C   UNL     1      -0.003   3.858   6.632  1.00  0.00     0.018 A 
ATOM     11  C   UNL     1      -1.361   1.944   7.208  1.00  0.00     0.018 A 
BRANCH   7  12
ATOM     12  N   UNL     1      -0.843   2.071   3.539  1.00  0.00    -0.250 N 
ATOM     13  C   UNL     1       1.765   0.999  -0.004  1.00  0.00     0.022 C 
ATOM     14  C   UNL     1       0.245   1.139   0.043  1.00  0.00     0.030 C 
ATOM     15  C   UNL     1      -0.550  -0.162  -0.258  1.00  0.00    -0.033 A 
ATOM     16  C   UNL     1      -0.342   2.176  -0.968  1.00  0.00    -0.033 A 
ATOM     17  C   UNL     1      -0.245   1.796   1.358  1.00  0.00     0.108 C 
ATOM     18  C   UNL     1      -0.006  -1.410  -0.539  1.00  0.00     0.005 A 
ATOM     19  C   UNL     1      -1.981   0.005  -0.274  1.00  0.00    -0.033 A 
ATOM     20  C   UNL     1      -1.757   2.382  -0.818  1.00  0.00    -0.033 A 
ATOM     21  C   UNL     1       0.383   2.904  -1.908  1.00  0.00     0.005 A 
ATOM     22  C   UNL     1      -1.721   1.435   1.557  1.00  0.00     0.108 C 
ATOM     23  C   UNL     1       0.238   1.633   2.766  1.00  0.00     0.238 C 
ATOM     24  C   UNL     1      -0.861  -2.477  -0.833  1.00  0.00     0.000 A 
ATOM     25  C   UNL     1      -2.820  -1.062  -0.580  1.00  0.00     0.005 A 
ATOM     26  C   UNL     1      -2.438   1.425   0.191  1.00  0.00     0.030 C 
ATOM     27  C   UNL     1      -2.399   3.332  -1.608  1.00  0.00     0.005 A 
ATOM     28  C   UNL     1      -0.282   3.845  -2.693  1.00  0.00     0.000 A 
ATOM     29  C   UNL     1      -2.028   2.178   2.811  1.00  0.00     0.238 C 
ATOM     30  O   UNL     1       1.348   1.282   3.119  1.00  0.00    -0.274 OA
ATOM     31  C   UNL     1      -2.251  -2.303  -0.860  1.00  0.00     0.000 A 
ATOM     32  C   UNL     1      -3.947   1.604   0.343  1.00  0.00     0.022 C 
ATOM     33  C   UNL     1      -1.656   4.061  -2.540  1.00  0.00     0.000 A 
ATOM     34  O   UNL     1      -3.111   2.619   3.150  1.00  0.00    -0.274 OA
ENDBRANCH   7  12
ENDBRANCH   4   6
ENDBRANCH   3   4
ENDBRANCH   2   3
ENDBRANCH   1   2
BRANCH   1  35
ATOM     35  O   UNL     1       2.370   3.085  10.884  1.00  0.00    -0.458 OA
BRANCH  35  36
ATOM     36  C   UNL     1       2.959   2.731   9.718  1.00  0.00     0.338 C 
ATOM     37  O   UNL     1       2.841   1.678   9.116  1.00  0.00    -0.246 OA
BRANCH  36  38
ATOM     38  C   UNL     1       3.704   3.888   9.203  1.00  0.00     0.060 A 
ATOM     39  C   UNL     1       5.046   4.098   9.493  1.00  0.00     0.016 A 
ATOM     40  C   UNL     1       3.031   4.757   8.351  1.00  0.00     0.016 A 
ATOM     41  C   UNL     1       5.691   5.218   8.949  1.00  0.00     0.010 A 
ATOM     42  C   UNL     1       3.691   5.814   7.736  1.00  0.00     0.010 A 
ATOM     43  C   UNL     1       5.022   6.088   8.061  1.00  0.00    -0.014 A 
BRANCH  43  44
ATOM     44  C   UNL     1       5.695   7.285   7.484  1.00  0.00     0.031 A 
ATOM     45  C   UNL     1       5.137   8.673   7.709  1.00  0.00     0.074 A 
ATOM     46  C   UNL     1       6.787   7.128   6.709  1.00  0.00     0.049 A 
ATOM     47  N   UNL     1       5.604   9.823   7.292  1.00  0.00    -0.248 NA
ATOM     48  C   UNL     1       3.881   8.790   8.472  1.00  0.00     0.031 C 
ATOM     49  C   UNL     1       7.363   5.841   6.311  1.00  0.00     0.029 A 
ATOM     50  N   UNL     1       7.607   8.054   6.113  1.00  0.00    -0.354 N 
ATOM     51  C   UNL     1       4.685  10.783   7.701  1.00  0.00     0.074 A 
ATOM     52  C   UNL     1       3.613  10.084   8.371  1.00  0.00     0.031 C 
ATOM     53  C   UNL     1       8.466   6.060   5.577  1.00  0.00     0.029 A 
ATOM     54  C   UNL     1       8.662   7.499   5.428  1.00  0.00     0.049 A 
ATOM     55  H   UNL     1       7.454   9.025   6.171  1.00  0.00     0.167 HD
ATOM     56  C   UNL     1       4.745  12.129   7.572  1.00  0.00     0.034 A 
ATOM     57  C   UNL     1       9.683   8.077   4.765  1.00  0.00     0.034 A 
ATOM     58  C   UNL     1       5.854  12.834   6.994  1.00  0.00     0.049 A 
ATOM     59  C   UNL     1       9.781   9.575   4.722  1.00  0.00     0.074 A 
ATOM     60  C   UNL     1       6.063  14.201   6.936  1.00  0.00     0.029 A 
ATOM     61  N   UNL     1       6.942  12.233   6.384  1.00  0.00    -0.354 N 
ATOM     62  N   UNL     1       8.979  10.465   5.254  1.00  0.00    -0.248 NA
ATOM     63  C   UNL     1      10.934  10.152   4.014  1.00  0.00     0.031 C 
ATOM     64  C   UNL     1       7.278  14.428   6.285  1.00  0.00     0.029 A 
ATOM     65  C   UNL     1       7.826  13.201   5.944  1.00  0.00     0.049 A 
ATOM     66  H   UNL     1       7.068  11.263   6.280  1.00  0.00     0.167 HD
ATOM     67  C   UNL     1       9.532  11.703   4.954  1.00  0.00     0.074 A 
ATOM     68  C   UNL     1      10.752  11.451   4.216  1.00  0.00     0.031 C 
ATOM     69  C   UNL     1       9.058  12.937   5.248  1.00  0.00     0.034 A 
BRANCH  56  70
ATOM     70  C   UNL     1       3.627  12.954   8.150  1.00  0.00     0.023 A 
ATOM     71  C   UNL     1       3.578  13.159   9.544  1.00  0.00     0.012 A 
ATOM     72  C   UNL     1       2.709  13.623   7.317  1.00  0.00     0.148 A 
ATOM     73  C   UNL     1       2.624  14.007  10.103  1.00  0.00     0.002 A 
ATOM     74  C   UNL     1       1.781  14.494   7.879  1.00  0.00     0.091 A 
ATOM     75  F   UNL     1       2.773  13.409   5.996  1.00  0.00    -0.205 F 
ATOM     76  C   UNL     1       1.735  14.682   9.271  1.00  0.00     0.022 A 
BRANCH  74  77
ATOM     77  S   UNL     1       0.628  15.462   6.899  1.00  0.00     0.127 S 
ATOM     78  O   UNL     1      -0.660  14.955   7.371  1.00  0.00    -0.237 OA
ATOM     79  O   UNL     1       0.939  16.827   7.323  1.00  0.00    -0.237 OA
ATOM     80  O   UNL     1       0.932  15.166   5.506  1.00  0.00    -0.744 OA
ENDBRANCH  74  77
ENDBRANCH  56  70
BRANCH  57  81
ATOM     81  C   UNL     1      10.737   7.218   4.160  1.00  0.00     0.023 A 
ATOM     82  C   UNL     1      11.982   7.101   4.807  1.00  0.00     0.012 A 
ATOM     83  C   UNL     1      10.486   6.462   3.000  1.00  0.00     0.148 A 
ATOM     84  C   UNL     1      12.965   6.248   4.303  1.00  0.00     0.002 A 
ATOM     85  C   UNL     1      11.454   5.585   2.526  1.00  0.00     0.091 A 
ATOM     86  F   UNL     1       9.293   6.596   2.403  1.00  0.00    -0.205 F 
ATOM     87  C   UNL     1      12.698   5.483   3.171  1.00  0.00     0.022 A 
BRANCH  85  88
ATOM     88  S   UNL     1      11.168   4.482   1.137  1.00  0.00     0.127 S 
ATOM     89  O   UNL     1      12.134   4.978   0.159  1.00  0.00    -0.237 OA
ATOM     90  O   UNL     1      11.494   3.180   1.718  1.00  0.00    -0.237 OA
ATOM     91  O   UNL     1       9.768   4.652   0.776  1.00  0.00    -0.744 OA
ENDBRANCH  85  88
ENDBRANCH  57  81
BRANCH  69  92
ATOM     92  C   UNL     1       9.841  14.130   4.776  1.00  0.00     0.023 A 
ATOM     93  C   UNL     1       9.730  14.532   3.432  1.00  0.00     0.012 A 
ATOM     94  C   UNL     1      10.567  14.923   5.685  1.00  0.00     0.148 A 
ATOM     95  C   UNL     1      10.338  15.707   2.995  1.00  0.00     0.002 A 
ATOM     96  C   UNL     1      11.142  16.110   5.250  1.00  0.00     0.091 A 
ATOM     97  F   UNL     1      10.659  14.512   6.958  1.00  0.00    -0.205 F 
ATOM     98  C   UNL     1      11.032  16.502   3.905  1.00  0.00     0.022 A 
BRANCH  96  99
ATOM     99  S   UNL     1      11.991  17.239   6.361  1.00  0.00     0.127 S 
ATOM    100  O   UNL     1      13.369  17.149   5.879  1.00  0.00    -0.237 OA
ATOM    101  O   UNL     1      11.327  18.511   6.076  1.00  0.00    -0.237 OA
ATOM    102  O   UNL     1      11.771  16.726   7.706  1.00  0.00    -0.744 OA
ENDBRANCH  96  99
ENDBRANCH  69  92
ENDBRANCH  43  44
ENDBRANCH  36  38
ENDBRANCH  35  36
ENDBRANCH   1  35
TORSDOF 15
