REMARK SMILES Cc1cc(OC(F)(F)F)cc2c1O[C@H](C(F)(F)F)C(C(=O)OCCOC(=O)c1ccc(-c3c4nc(c(-c5cccc(S(=O)(=O)[O-])c5F)c5ccc([nH]5)c(-c5cccc(S(=O)(=O)[O-])c5F)c5nc(c(-c6cccc(S(=O)(=O)[O-])c6F)c6ccc3[nH]6)C=C5)C=C4)cc1)=C2
REMARK SMILES IDX 24 1 23 2 22 3 20 4 21 5 19 6 1 7 2 8 3 9 12 10 4 11 11 12
REMARK SMILES IDX 13 13 10 14 91 15 14 16 5 17 6 18 7 19 8 20 9 21 15 22 16 23
REMARK SMILES IDX 17 24 18 25 25 26 26 27 27 28 28 29 29 30 90 31 30 32 89 33
REMARK SMILES IDX 31 34 32 35 33 36 83 37 34 38 88 39 82 40 84 41 35 42 87 43
REMARK SMILES IDX 81 44 80 45 36 47 68 48 48 49 67 50 49 51 52 52 66 53 85 54
REMARK SMILES IDX 50 55 51 56 65 58 86 59 53 60 37 61 38 62 46 63 39 64 41 65
REMARK SMILES IDX 47 66 40 67 42 68 43 69 44 70 45 71 69 72 70 73 78 74 71 75
REMARK SMILES IDX 73 76 79 77 72 78 74 79 75 80 76 81 77 82 54 83 55 84 63 85
REMARK SMILES IDX 56 86 58 87 64 88 57 89 59 90 60 91 61 92 62 93
REMARK H PARENT 84 46 52 57
REMARK Flexibility Score: inf
ROOT
ATOM      1  C   UNL     1       2.852  -8.556   2.089  1.00  0.00     0.275 C 
ENDROOT
BRANCH   1   2
ATOM      2  C   UNL     1       1.995  -8.104   0.907  1.00  0.00     0.275 C 
BRANCH   2   3
ATOM      3  O   UNL     1       1.909  -6.665   0.842  1.00  0.00    -0.459 OA
BRANCH   3   4
ATOM      4  C   UNL     1       0.762  -6.132   1.323  1.00  0.00     0.338 C 
ATOM      5  O   UNL     1      -0.208  -6.746   1.739  1.00  0.00    -0.246 OA
BRANCH   4   6
ATOM      6  C   UNL     1       0.822  -4.660   1.288  1.00  0.00     0.087 C 
ATOM      7  C   UNL     1       0.946   0.243  -0.197  1.00  0.00     0.048 C 
ATOM      8  C   UNL     1       0.564  -0.494   1.054  1.00  0.00    -0.005 A 
ATOM      9  C   UNL     1       0.069   0.220   2.164  1.00  0.00     0.054 A 
ATOM     10  C   UNL     1       0.712  -1.886   1.139  1.00  0.00     0.131 A 
ATOM     11  C   UNL     1      -0.277  -0.441   3.343  1.00  0.00     0.130 A 
ATOM     12  C   UNL     1       0.359  -2.548   2.314  1.00  0.00     0.021 A 
ATOM     13  O   UNL     1       1.227  -2.534   0.048  1.00  0.00    -0.475 OA
ATOM     14  C   UNL     1      -0.121  -1.826   3.412  1.00  0.00     0.058 A 
ATOM     15  C   UNL     1       0.456  -3.993   2.387  1.00  0.00     0.027 C 
ATOM     16  C   UNL     1       1.153  -3.986  -0.009  1.00  0.00     0.316 C 
BRANCH  11  17
ATOM     17  O   UNL     1      -0.770   0.124   4.484  1.00  0.00    -0.406 OA
BRANCH  17  18
ATOM     18  C   UNL     1      -1.061   1.510   4.470  1.00  0.00     0.573 C 
ATOM     19  F   UNL     1       0.059   2.238   4.267  1.00  0.00    -0.132 F 
ATOM     20  F   UNL     1      -1.963   1.807   3.509  1.00  0.00    -0.132 F 
ATOM     21  F   UNL     1      -1.585   1.864   5.662  1.00  0.00    -0.132 F 
ENDBRANCH  17  18
ENDBRANCH  11  17
BRANCH  16  22
ATOM     22  C   UNL     1       0.169  -4.391  -1.118  1.00  0.00     0.430 C 
ATOM     23  F   UNL     1       0.458  -3.764  -2.285  1.00  0.00    -0.167 F 
ATOM     24  F   UNL     1       0.227  -5.721  -1.376  1.00  0.00    -0.167 F 
ATOM     25  F   UNL     1      -1.112  -4.094  -0.806  1.00  0.00    -0.167 F 
ENDBRANCH  16  22
ENDBRANCH   4   6
ENDBRANCH   3   4
ENDBRANCH   2   3
ENDBRANCH   1   2
BRANCH   1  26
ATOM     26  O   UNL     1       2.206  -8.239   3.333  1.00  0.00    -0.458 OA
BRANCH  26  27
ATOM     27  C   UNL     1       2.676  -7.136   3.959  1.00  0.00     0.338 C 
ATOM     28  O   UNL     1       3.587  -6.412   3.596  1.00  0.00    -0.246 OA
BRANCH  27  29
ATOM     29  C   UNL     1       1.882  -6.868   5.165  1.00  0.00     0.060 A 
ATOM     30  C   UNL     1       0.566  -6.434   5.028  1.00  0.00     0.016 A 
ATOM     31  C   UNL     1       2.490  -6.889   6.419  1.00  0.00     0.016 A 
ATOM     32  C   UNL     1      -0.100  -5.885   6.118  1.00  0.00     0.010 A 
ATOM     33  C   UNL     1       1.770  -6.459   7.537  1.00  0.00     0.010 A 
ATOM     34  C   UNL     1       0.485  -5.907   7.392  1.00  0.00    -0.014 A 
BRANCH  34  35
ATOM     35  C   UNL     1      -0.255  -5.359   8.560  1.00  0.00     0.031 A 
ATOM     36  C   UNL     1       0.328  -4.236   9.379  1.00  0.00     0.074 A 
ATOM     37  C   UNL     1      -1.460  -5.873   8.882  1.00  0.00     0.049 A 
ATOM     38  N   UNL     1      -0.130  -3.704  10.483  1.00  0.00    -0.248 NA
ATOM     39  C   UNL     1       1.589  -3.637   8.908  1.00  0.00     0.031 C 
ATOM     40  C   UNL     1      -2.135  -6.957   8.163  1.00  0.00     0.029 A 
ATOM     41  N   UNL     1      -2.334  -5.555   9.891  1.00  0.00    -0.354 N 
ATOM     42  C   UNL     1       0.810  -2.755  10.868  1.00  0.00     0.074 A 
ATOM     43  C   UNL     1       1.864  -2.776   9.880  1.00  0.00     0.031 C 
ATOM     44  C   UNL     1      -3.327  -7.189   8.728  1.00  0.00     0.029 A 
ATOM     45  C   UNL     1      -3.473  -6.327   9.894  1.00  0.00     0.049 A 
ATOM     46  H   UNL     1      -2.163  -4.844  10.549  1.00  0.00     0.167 HD
ATOM     47  C   UNL     1       0.786  -1.930  11.941  1.00  0.00     0.034 A 
ATOM     48  C   UNL     1      -4.511  -6.363  10.751  1.00  0.00     0.034 A 
ATOM     49  C   UNL     1      -0.298  -1.865  12.883  1.00  0.00     0.049 A 
ATOM     50  C   UNL     1      -4.512  -5.440  11.933  1.00  0.00     0.074 A 
ATOM     51  C   UNL     1      -0.430  -1.030  13.977  1.00  0.00     0.029 A 
ATOM     52  N   UNL     1      -1.435  -2.655  12.837  1.00  0.00    -0.354 N 
ATOM     53  N   UNL     1      -3.631  -4.526  12.257  1.00  0.00    -0.248 NA
ATOM     54  C   UNL     1      -5.643  -5.546  12.865  1.00  0.00     0.031 C 
ATOM     55  C   UNL     1      -1.646  -1.321  14.601  1.00  0.00     0.029 A 
ATOM     56  C   UNL     1      -2.275  -2.328  13.886  1.00  0.00     0.049 A 
ATOM     57  H   UNL     1      -1.619  -3.345  12.159  1.00  0.00     0.167 HD
ATOM     58  C   UNL     1      -4.106  -3.935  13.419  1.00  0.00     0.074 A 
ATOM     59  C   UNL     1      -5.361  -4.586  13.738  1.00  0.00     0.031 C 
ATOM     60  C   UNL     1      -3.543  -2.952  14.160  1.00  0.00     0.034 A 
BRANCH  47  61
ATOM     61  C   UNL     1       1.942  -0.991  12.148  1.00  0.00     0.023 A 
ATOM     62  C   UNL     1       2.014   0.196  11.392  1.00  0.00     0.012 A 
ATOM     63  C   UNL     1       2.887  -1.224  13.166  1.00  0.00     0.148 A 
ATOM     64  C   UNL     1       3.015   1.133  11.641  1.00  0.00     0.002 A 
ATOM     65  C   UNL     1       3.864  -0.272  13.429  1.00  0.00     0.091 A 
ATOM     66  F   UNL     1       2.801  -2.365  13.866  1.00  0.00    -0.205 F 
ATOM     67  C   UNL     1       3.932   0.905  12.665  1.00  0.00     0.022 A 
BRANCH  65  68
ATOM     68  S   UNL     1       5.060  -0.441  14.759  1.00  0.00     0.127 S 
ATOM     69  O   UNL     1       6.318  -0.513  14.017  1.00  0.00    -0.237 OA
ATOM     70  O   UNL     1       4.864   0.801  15.507  1.00  0.00    -0.237 OA
ATOM     71  O   UNL     1       4.698  -1.654  15.478  1.00  0.00    -0.744 OA
ENDBRANCH  65  68
ENDBRANCH  47  61
BRANCH  48  72
ATOM     72  C   UNL     1      -5.641  -7.295  10.485  1.00  0.00     0.023 A 
ATOM     73  C   UNL     1      -6.853  -6.779   9.991  1.00  0.00     0.012 A 
ATOM     74  C   UNL     1      -5.486  -8.688  10.623  1.00  0.00     0.148 A 
ATOM     75  C   UNL     1      -7.895  -7.637   9.638  1.00  0.00     0.002 A 
ATOM     76  C   UNL     1      -6.512  -9.539  10.230  1.00  0.00     0.091 A 
ATOM     77  F   UNL     1      -4.321  -9.152  11.098  1.00  0.00    -0.205 F 
ATOM     78  C   UNL     1      -7.721  -9.015   9.745  1.00  0.00     0.022 A 
BRANCH  76  79
ATOM     79  S   UNL     1      -6.340 -11.327  10.224  1.00  0.00     0.127 S 
ATOM     80  O   UNL     1      -7.334 -11.725  11.219  1.00  0.00    -0.237 OA
ATOM     81  O   UNL     1      -6.686 -11.656   8.841  1.00  0.00    -0.237 OA
ATOM     82  O   UNL     1      -4.955 -11.595  10.582  1.00  0.00    -0.744 OA
ENDBRANCH  76  79
ENDBRANCH  48  72
BRANCH  60  83
ATOM     83  C   UNL     1      -4.268  -2.485  15.389  1.00  0.00     0.023 A 
ATOM     84  C   UNL     1      -4.149  -3.225  16.580  1.00  0.00     0.012 A 
ATOM     85  C   UNL     1      -4.922  -1.238  15.400  1.00  0.00     0.148 A 
ATOM     86  C   UNL     1      -4.669  -2.725  17.773  1.00  0.00     0.002 A 
ATOM     87  C   UNL     1      -5.407  -0.731  16.598  1.00  0.00     0.091 A 
ATOM     88  F   UNL     1      -5.021  -0.560  14.247  1.00  0.00    -0.205 F 
ATOM     89  C   UNL     1      -5.284  -1.474  17.784  1.00  0.00     0.022 A 
BRANCH  87  90
ATOM     90  S   UNL     1      -6.143   0.902  16.732  1.00  0.00     0.127 S 
ATOM     91  O   UNL     1      -7.505   0.580  17.157  1.00  0.00    -0.237 OA
ATOM     92  O   UNL     1      -5.314   1.528  17.762  1.00  0.00    -0.237 OA
ATOM     93  O   UNL     1      -6.038   1.505  15.411  1.00  0.00    -0.744 OA
ENDBRANCH  87  90
ENDBRANCH  60  83
ENDBRANCH  34  35
ENDBRANCH  27  29
ENDBRANCH  26  27
ENDBRANCH   1  26
TORSDOF 17
