REMARK SMILES O=C(OCCOC(=O)c1ccccc1C(=O)Nc1ccc(N2C(=O)[C@H]3[C@@H]4CC[C@@H](C4)[C@@H]3C2=O)cc1)c1ccc(-c2c3nc(c(-c4cccc(S(=O)(=O)[O-])c4F)c4ccc([nH]4)c(-c4cccc(S(=O)(=O)[O-])c4F)c4nc(c(-c5cccc(S(=O)(=O)[O-])c5F)c5ccc2[nH]5)C=C4)C=C3)cc1
REMARK SMILES IDX 4 1 3 2 2 3 1 4 36 5 37 6 98 7 38 8 97 9 39 10 40 11 41 12
REMARK SMILES IDX 91 13 42 14 96 15 90 16 92 17 43 18 95 19 89 20 88 21 44 23
REMARK SMILES IDX 76 24 56 25 75 26 57 27 60 28 74 29 93 30 58 31 59 32 73 34
REMARK SMILES IDX 94 35 61 36 45 37 46 38 54 39 47 40 49 41 55 42 48 43 50 44
REMARK SMILES IDX 51 45 52 46 53 47 77 48 78 49 86 50 79 51 81 52 87 53 80 54
REMARK SMILES IDX 82 55 83 56 84 57 85 58 62 59 63 60 71 61 64 62 66 63 72 64
REMARK SMILES IDX 65 65 67 66 68 67 69 68 70 69 5 70 6 71 7 72 8 73 9 74 10 75
REMARK SMILES IDX 14 76 11 77 13 78 12 79 15 80 16 81 17 82 18 84 19 85 35 86
REMARK SMILES IDX 20 87 34 88 21 89 22 90 23 91 32 92 24 93 25 94 31 95 33 96
REMARK SMILES IDX 26 97 29 98 27 99 30 100 28 101
REMARK H PARENT 92 22 60 33 17 83
REMARK Flexibility Score: inf
ROOT
ATOM      1  C   UNL     1       5.049   1.241  -0.022  1.00  0.00     0.275 C 
ENDROOT
BRANCH   1   2
ATOM      2  O   UNL     1       3.971   1.881  -0.720  1.00  0.00    -0.458 OA
BRANCH   2   3
ATOM      3  C   UNL     1       3.713   1.791  -2.046  1.00  0.00     0.338 C 
ATOM      4  O   UNL     1       2.990   2.605  -2.612  1.00  0.00    -0.246 OA
BRANCH   3   5
ATOM      5  C   UNL     1       4.151   0.576  -2.767  1.00  0.00     0.060 A 
ATOM      6  C   UNL     1       5.456   0.083  -2.708  1.00  0.00     0.016 A 
ATOM      7  C   UNL     1       3.181  -0.112  -3.508  1.00  0.00     0.016 A 
ATOM      8  C   UNL     1       5.755  -1.167  -3.223  1.00  0.00     0.010 A 
ATOM      9  C   UNL     1       3.493  -1.335  -4.098  1.00  0.00     0.010 A 
ATOM     10  C   UNL     1       4.782  -1.860  -3.947  1.00  0.00    -0.014 A 
BRANCH  10  11
ATOM     11  C   UNL     1       5.264  -2.905  -4.859  1.00  0.00     0.031 A 
ATOM     12  C   UNL     1       5.903  -2.411  -6.120  1.00  0.00     0.074 A 
ATOM     13  C   UNL     1       5.200  -4.208  -4.549  1.00  0.00     0.049 A 
ATOM     14  N   UNL     1       6.590  -3.073  -7.004  1.00  0.00    -0.248 NA
ATOM     15  C   UNL     1       5.820  -0.958  -6.381  1.00  0.00     0.031 C 
ATOM     16  C   UNL     1       4.657  -4.761  -3.312  1.00  0.00     0.029 A 
ATOM     17  N   UNL     1       5.574  -5.306  -5.272  1.00  0.00    -0.354 N 
ATOM     18  C   UNL     1       7.064  -2.115  -7.886  1.00  0.00     0.074 A 
ATOM     19  C   UNL     1       6.583  -0.828  -7.451  1.00  0.00     0.031 C 
ATOM     20  C   UNL     1       4.637  -6.103  -3.404  1.00  0.00     0.029 A 
ATOM     21  C   UNL     1       5.183  -6.493  -4.699  1.00  0.00     0.049 A 
ATOM     22  H   UNL     1       6.072  -5.252  -6.119  1.00  0.00     0.167 HD
ATOM     23  C   UNL     1       7.846  -2.301  -8.969  1.00  0.00     0.034 A 
ATOM     24  C   UNL     1       5.245  -7.740  -5.203  1.00  0.00     0.034 A 
ATOM     25  C   UNL     1       8.207  -3.599  -9.446  1.00  0.00     0.049 A 
ATOM     26  C   UNL     1       5.947  -7.921  -6.526  1.00  0.00     0.074 A 
ATOM     27  C   UNL     1       8.966  -3.935 -10.546  1.00  0.00     0.029 A 
ATOM     28  N   UNL     1       7.760  -4.782  -8.874  1.00  0.00    -0.354 N 
ATOM     29  N   UNL     1       6.556  -7.019  -7.263  1.00  0.00    -0.248 NA
ATOM     30  C   UNL     1       6.010  -9.282  -7.072  1.00  0.00     0.031 C 
ATOM     31  C   UNL     1       8.930  -5.328 -10.672  1.00  0.00     0.029 A 
ATOM     32  C   UNL     1       8.176  -5.856  -9.631  1.00  0.00     0.049 A 
ATOM     33  H   UNL     1       7.225  -4.845  -8.049  1.00  0.00     0.167 HD
ATOM     34  C   UNL     1       7.112  -7.706  -8.333  1.00  0.00     0.074 A 
ATOM     35  C   UNL     1       6.767  -9.103  -8.149  1.00  0.00     0.031 C 
ATOM     36  C   UNL     1       7.839  -7.234  -9.376  1.00  0.00     0.034 A 
BRANCH  23  37
ATOM     37  C   UNL     1       8.291  -1.067  -9.690  1.00  0.00     0.023 A 
ATOM     38  C   UNL     1       9.339  -0.291  -9.153  1.00  0.00     0.012 A 
ATOM     39  C   UNL     1       7.625  -0.636 -10.850  1.00  0.00     0.148 A 
ATOM     40  C   UNL     1       9.703   0.914  -9.752  1.00  0.00     0.002 A 
ATOM     41  C   UNL     1       8.008   0.554 -11.453  1.00  0.00     0.091 A 
ATOM     42  F   UNL     1       6.605  -1.374 -11.310  1.00  0.00    -0.205 F 
ATOM     43  C   UNL     1       9.040   1.334 -10.903  1.00  0.00     0.022 A 
BRANCH  41  44
ATOM     44  S   UNL     1       7.222   1.185 -12.938  1.00  0.00     0.127 S 
ATOM     45  O   UNL     1       6.683   2.461 -12.469  1.00  0.00    -0.237 OA
ATOM     46  O   UNL     1       8.357   1.300 -13.853  1.00  0.00    -0.237 OA
ATOM     47  O   UNL     1       6.221   0.198 -13.317  1.00  0.00    -0.744 OA
ENDBRANCH  41  44
ENDBRANCH  23  37
BRANCH  24  48
ATOM     48  C   UNL     1       4.627  -8.884  -4.476  1.00  0.00     0.023 A 
ATOM     49  C   UNL     1       5.431  -9.909  -3.943  1.00  0.00     0.012 A 
ATOM     50  C   UNL     1       3.227  -8.966  -4.319  1.00  0.00     0.148 A 
ATOM     51  C   UNL     1       4.853 -11.006  -3.298  1.00  0.00     0.002 A 
ATOM     52  C   UNL     1       2.660 -10.039  -3.639  1.00  0.00     0.091 A 
ATOM     53  F   UNL     1       2.468  -7.999  -4.855  1.00  0.00    -0.205 F 
ATOM     54  C   UNL     1       3.470 -11.068  -3.139  1.00  0.00     0.022 A 
BRANCH  52  55
ATOM     55  S   UNL     1       0.894 -10.124  -3.316  1.00  0.00     0.127 S 
ATOM     56  O   UNL     1       0.435 -11.008  -4.384  1.00  0.00    -0.237 OA
ATOM     57  O   UNL     1       0.848 -10.705  -1.974  1.00  0.00    -0.237 OA
ATOM     58  O   UNL     1       0.428  -8.743  -3.379  1.00  0.00    -0.744 OA
ENDBRANCH  52  55
ENDBRANCH  24  48
BRANCH  36  59
ATOM     59  C   UNL     1       8.328  -8.230 -10.387  1.00  0.00     0.023 A 
ATOM     60  C   UNL     1       7.433  -8.741 -11.346  1.00  0.00     0.012 A 
ATOM     61  C   UNL     1       9.699  -8.536 -10.471  1.00  0.00     0.148 A 
ATOM     62  C   UNL     1       7.900  -9.555 -12.375  1.00  0.00     0.002 A 
ATOM     63  C   UNL     1      10.163  -9.302 -11.530  1.00  0.00     0.091 A 
ATOM     64  F   UNL     1      10.522  -8.046  -9.533  1.00  0.00    -0.205 F 
ATOM     65  C   UNL     1       9.264  -9.820 -12.477  1.00  0.00     0.022 A 
BRANCH  63  66
ATOM     66  S   UNL     1      11.914  -9.589 -11.805  1.00  0.00     0.127 S 
ATOM     67  O   UNL     1      12.044 -10.999 -11.445  1.00  0.00    -0.237 OA
ATOM     68  O   UNL     1      12.053  -9.306 -13.234  1.00  0.00    -0.237 OA
ATOM     69  O   UNL     1      12.615  -8.654 -10.935  1.00  0.00    -0.744 OA
ENDBRANCH  63  66
ENDBRANCH  36  59
ENDBRANCH  10  11
ENDBRANCH   3   5
ENDBRANCH   2   3
ENDBRANCH   1   2
BRANCH   1  70
ATOM     70  C   UNL     1       4.867  -0.203   0.468  1.00  0.00     0.275 C 
BRANCH  70  71
ATOM     71  O   UNL     1       4.098  -1.161  -0.276  1.00  0.00    -0.458 OA
BRANCH  71  72
ATOM     72  C   UNL     1       2.748  -1.040  -0.216  1.00  0.00     0.339 C 
ATOM     73  O   UNL     1       2.129  -0.063   0.147  1.00  0.00    -0.246 OA
BRANCH  72  74
ATOM     74  C   UNL     1       2.078  -2.242  -0.775  1.00  0.00     0.072 A 
ATOM     75  C   UNL     1       1.112  -1.976  -1.766  1.00  0.00     0.016 A 
ATOM     76  C   UNL     1       2.347  -3.571  -0.415  1.00  0.00     0.054 A 
ATOM     77  C   UNL     1       0.536  -3.009  -2.505  1.00  0.00     0.001 A 
ATOM     78  C   UNL     1       1.752  -4.604  -1.172  1.00  0.00     0.015 A 
ATOM     79  C   UNL     1       0.878  -4.325  -2.225  1.00  0.00     0.001 A 
BRANCH  76  80
ATOM     80  C   UNL     1       3.293  -4.030   0.633  1.00  0.00     0.256 C 
ATOM     81  O   UNL     1       4.064  -4.950   0.350  1.00  0.00    -0.269 OA
ATOM     82  N   UNL     1       3.418  -3.478   1.889  1.00  0.00    -0.322 N 
ATOM     83  H   UNL     1       4.146  -3.869   2.423  1.00  0.00     0.170 HD
BRANCH  82  84
ATOM     84  C   UNL     1       2.712  -2.470   2.551  1.00  0.00     0.041 A 
ATOM     85  C   UNL     1       3.479  -1.591   3.317  1.00  0.00     0.028 A 
ATOM     86  C   UNL     1       1.355  -2.220   2.374  1.00  0.00     0.028 A 
ATOM     87  C   UNL     1       2.982  -0.317   3.602  1.00  0.00     0.029 A 
ATOM     88  C   UNL     1       0.827  -0.980   2.756  1.00  0.00     0.029 A 
ATOM     89  C   UNL     1       1.678   0.027   3.238  1.00  0.00     0.052 A 
BRANCH  89  90
ATOM     90  N   UNL     1       1.290   1.382   3.110  1.00  0.00    -0.250 N 
ATOM     91  C   UNL     1      -0.020   1.843   3.278  1.00  0.00     0.237 C 
ATOM     92  C   UNL     1       2.135   2.383   2.586  1.00  0.00     0.237 C 
ATOM     93  O   UNL     1      -0.945   1.370   3.914  1.00  0.00    -0.274 OA
ATOM     94  C   UNL     1      -0.086   3.025   2.373  1.00  0.00     0.095 C 
ATOM     95  C   UNL     1       1.287   3.617   2.612  1.00  0.00     0.095 C 
ATOM     96  O   UNL     1       3.331   2.362   2.350  1.00  0.00    -0.274 OA
ATOM     97  C   UNL     1      -0.957   4.285   2.293  1.00  0.00     0.002 C 
ATOM     98  C   UNL     1       1.169   4.928   1.839  1.00  0.00     0.002 C 
ATOM     99  C   UNL     1      -1.028   4.587   0.782  1.00  0.00     0.005 C 
ATOM    100  C   UNL     1      -0.022   5.464   2.674  1.00  0.00     0.009 C 
ATOM    101  C   UNL     1       0.475   4.828   0.446  1.00  0.00     0.005 C 
ENDBRANCH  89  90
ENDBRANCH  82  84
ENDBRANCH  76  80
ENDBRANCH  72  74
ENDBRANCH  71  72
ENDBRANCH  70  71
ENDBRANCH   1  70
TORSDOF 17
