REMARK SMILES Cc1c(CCC(=O)N2CCC[C@H]2C(=O)OCCOC(=O)c2ccc(-c3c4nc(c(-c5cccc(S(=O)(=O)[O-])c5F)c5ccc([nH]5)c(-c5cccc(S(=O)(=O)[O-])c5F)c5nc(c(-c6cccc(S(=O)(=O)[O-])c6F)c6ccc3[nH]6)C=C5)C=C4)cc2)c(=O)oc2cc3oc4c(c3cc12)CCCC4
REMARK SMILES IDX 16 1 15 2 13 3 14 4 12 5 8 6 9 7 10 8 11 9 6 10 7 11 5 12
REMARK SMILES IDX 4 13 3 14 1 15 2 16 95 17 84 18 87 19 94 20 85 21 86 22
REMARK SMILES IDX 88 23 93 24 89 25 92 26 90 27 91 28 96 29 99 30 97 31 98 32
REMARK SMILES IDX 17 33 18 34 19 35 20 36 21 37 22 38 83 39 23 40 82 41 24 42
REMARK SMILES IDX 25 43 26 44 76 45 27 46 81 47 75 48 77 49 28 50 80 51 74 52
REMARK SMILES IDX 73 53 29 55 61 56 41 57 60 58 42 59 45 60 59 61 78 62 43 63
REMARK SMILES IDX 44 64 58 66 79 67 46 68 30 69 31 70 39 71 32 72 34 73 40 74
REMARK SMILES IDX 33 75 35 76 36 77 37 78 38 79 62 80 63 81 71 82 64 83 66 84
REMARK SMILES IDX 72 85 65 86 67 87 68 88 69 89 70 90 47 91 48 92 56 93 49 94
REMARK SMILES IDX 51 95 57 96 50 97 52 98 53 99 54 100 55 101
REMARK H PARENT 77 54 45 65
REMARK Flexibility Score: inf
ROOT
ATOM      1  C   UNL     1       2.030  -1.811  -2.653  1.00  0.00     0.274 C 
ENDROOT
BRANCH   1   2
ATOM      2  O   UNL     1       2.224  -1.036  -1.451  1.00  0.00    -0.461 OA
BRANCH   2   3
ATOM      3  C   UNL     1       2.889  -1.664  -0.454  1.00  0.00     0.328 C 
ATOM      4  O   UNL     1       3.192  -2.852  -0.516  1.00  0.00    -0.250 OA
BRANCH   3   5
ATOM      5  C   UNL     1       3.418  -0.737   0.666  1.00  0.00     0.195 C 
ATOM      6  N   UNL     1       2.738   0.479   1.167  1.00  0.00    -0.329 N 
ATOM      7  C   UNL     1       2.725   0.485   2.627  1.00  0.00     0.120 C 
ATOM      8  C   UNL     1       3.607  -0.658   3.081  1.00  0.00     0.024 C 
ATOM      9  C   UNL     1       3.574  -1.622   1.920  1.00  0.00     0.039 C 
BRANCH   6  10
ATOM     10  C   UNL     1       2.489   1.583   0.368  1.00  0.00     0.223 C 
ATOM     11  O   UNL     1       2.675   1.579  -0.850  1.00  0.00    -0.275 OA
BRANCH  10  12
ATOM     12  C   UNL     1       1.914   2.853   1.013  1.00  0.00     0.105 C 
BRANCH  12  13
ATOM     13  C   UNL     1       0.384   2.994   0.916  1.00  0.00     0.053 C 
BRANCH  13  14
ATOM     14  C   UNL     1      -0.311   1.844   1.592  1.00  0.00     0.042 A 
ATOM     15  C   UNL     1      -0.686   0.569  -0.565  1.00  0.00     0.046 C 
ATOM     16  C   UNL     1      -0.605   0.715   0.929  1.00  0.00    -0.030 A 
ATOM     17  C   UNL     1      -0.641  -0.492   1.745  1.00  0.00     0.022 A 
ATOM     18  C   UNL     1      -0.550   1.948   3.062  1.00  0.00     0.339 A 
ATOM     19  C   UNL     1      -0.992  -0.418   3.092  1.00  0.00     0.142 A 
ATOM     20  C   UNL     1      -0.195  -1.701   1.220  1.00  0.00     0.024 A 
ATOM     21  O   UNL     1      -0.321   2.987   3.673  1.00  0.00    -0.246 OA
ATOM     22  O   UNL     1      -1.127   0.847   3.693  1.00  0.00    -0.422 OA
ATOM     23  C   UNL     1      -1.170  -1.553   3.895  1.00  0.00     0.095 A 
ATOM     24  C   UNL     1      -0.290  -2.845   2.008  1.00  0.00     0.025 A 
ATOM     25  C   UNL     1      -0.892  -2.759   3.258  1.00  0.00     0.138 A 
ATOM     26  C   UNL     1      -0.079  -4.208   1.743  1.00  0.00     0.001 A 
ATOM     27  O   UNL     1      -1.287  -4.010   3.655  1.00  0.00    -0.461 OA
ATOM     28  C   UNL     1      -0.930  -4.831   2.628  1.00  0.00     0.108 A 
ATOM     29  C   UNL     1       0.292  -4.882   0.473  1.00  0.00     0.040 C 
ATOM     30  C   UNL     1      -1.832  -5.920   2.157  1.00  0.00     0.076 C 
ATOM     31  C   UNL     1      -1.012  -5.254  -0.256  1.00  0.00     0.005 C 
ATOM     32  C   UNL     1      -2.222  -5.522   0.694  1.00  0.00     0.008 C 
ENDBRANCH  13  14
ENDBRANCH  12  13
ENDBRANCH  10  12
ENDBRANCH   6  10
ENDBRANCH   3   5
ENDBRANCH   2   3
ENDBRANCH   1   2
BRANCH   1  33
ATOM     33  C   UNL     1       3.111  -1.486  -3.689  1.00  0.00     0.275 C 
BRANCH  33  34
ATOM     34  O   UNL     1       4.351  -2.133  -3.363  1.00  0.00    -0.458 OA
BRANCH  34  35
ATOM     35  C   UNL     1       5.267  -1.389  -2.695  1.00  0.00     0.338 C 
ATOM     36  O   UNL     1       5.234  -0.207  -2.437  1.00  0.00    -0.246 OA
BRANCH  35  37
ATOM     37  C   UNL     1       6.299  -2.313  -2.212  1.00  0.00     0.060 A 
ATOM     38  C   UNL     1       7.270  -2.813  -3.075  1.00  0.00     0.016 A 
ATOM     39  C   UNL     1       6.244  -2.727  -0.883  1.00  0.00     0.016 A 
ATOM     40  C   UNL     1       8.165  -3.767  -2.595  1.00  0.00     0.010 A 
ATOM     41  C   UNL     1       7.104  -3.705  -0.416  1.00  0.00     0.010 A 
ATOM     42  C   UNL     1       8.071  -4.232  -1.268  1.00  0.00    -0.014 A 
BRANCH  42  43
ATOM     43  C   UNL     1       9.000  -5.275  -0.796  1.00  0.00     0.031 A 
ATOM     44  C   UNL     1       9.491  -5.134   0.618  1.00  0.00     0.074 A 
ATOM     45  C   UNL     1       8.920  -6.507  -1.342  1.00  0.00     0.049 A 
ATOM     46  N   UNL     1       8.829  -5.548   1.662  1.00  0.00    -0.248 NA
ATOM     47  C   UNL     1      10.629  -4.276   0.951  1.00  0.00     0.031 C 
ATOM     48  C   UNL     1       7.657  -7.101  -1.808  1.00  0.00     0.029 A 
ATOM     49  N   UNL     1       9.821  -7.543  -1.387  1.00  0.00    -0.354 N 
ATOM     50  C   UNL     1       9.425  -4.989   2.782  1.00  0.00     0.074 A 
ATOM     51  C   UNL     1      10.549  -4.222   2.290  1.00  0.00     0.031 C 
ATOM     52  C   UNL     1       7.823  -8.434  -1.923  1.00  0.00     0.029 A 
ATOM     53  C   UNL     1       9.224  -8.767  -1.688  1.00  0.00     0.049 A 
ATOM     54  H   UNL     1      10.786  -7.433  -1.223  1.00  0.00     0.167 HD
ATOM     55  C   UNL     1       8.974  -5.173   4.054  1.00  0.00     0.034 A 
ATOM     56  C   UNL     1       9.671  -9.975  -1.248  1.00  0.00     0.034 A 
ATOM     57  C   UNL     1       7.798  -5.982   4.194  1.00  0.00     0.049 A 
ATOM     58  C   UNL     1       9.306  -9.893   0.216  1.00  0.00     0.074 A 
ATOM     59  C   UNL     1       6.444  -5.785   4.357  1.00  0.00     0.029 A 
ATOM     60  N   UNL     1       7.933  -7.348   4.117  1.00  0.00    -0.354 N 
ATOM     61  N   UNL     1       8.117 -10.084   0.724  1.00  0.00    -0.248 NA
ATOM     62  C   UNL     1      10.242  -9.193   1.098  1.00  0.00     0.031 C 
ATOM     63  C   UNL     1       5.819  -6.990   3.900  1.00  0.00     0.029 A 
ATOM     64  C   UNL     1       6.834  -7.832   3.451  1.00  0.00     0.049 A 
ATOM     65  H   UNL     1       8.679  -7.881   4.473  1.00  0.00     0.167 HD
ATOM     66  C   UNL     1       8.065  -9.270   1.859  1.00  0.00     0.074 A 
ATOM     67  C   UNL     1       9.410  -8.758   2.032  1.00  0.00     0.031 C 
ATOM     68  C   UNL     1       6.910  -8.925   2.505  1.00  0.00     0.034 A 
BRANCH  55  69
ATOM     69  C   UNL     1       9.734  -4.772   5.265  1.00  0.00     0.023 A 
ATOM     70  C   UNL     1      10.578  -5.755   5.822  1.00  0.00     0.012 A 
ATOM     71  C   UNL     1       9.524  -3.568   5.959  1.00  0.00     0.148 A 
ATOM     72  C   UNL     1      11.169  -5.570   7.068  1.00  0.00     0.002 A 
ATOM     73  C   UNL     1      10.130  -3.384   7.203  1.00  0.00     0.091 A 
ATOM     74  F   UNL     1       8.711  -2.648   5.420  1.00  0.00    -0.205 F 
ATOM     75  C   UNL     1      10.940  -4.389   7.761  1.00  0.00     0.022 A 
BRANCH  73  76
ATOM     76  S   UNL     1       9.924  -1.897   8.192  1.00  0.00     0.127 S 
ATOM     77  O   UNL     1       9.147  -2.390   9.327  1.00  0.00    -0.237 OA
ATOM     78  O   UNL     1      11.310  -1.548   8.507  1.00  0.00    -0.237 OA
ATOM     79  O   UNL     1       9.241  -0.938   7.333  1.00  0.00    -0.744 OA
ENDBRANCH  73  76
ENDBRANCH  55  69
BRANCH  56  80
ATOM     80  C   UNL     1      11.036 -10.359  -1.744  1.00  0.00     0.023 A 
ATOM     81  C   UNL     1      11.279 -10.226  -3.134  1.00  0.00     0.012 A 
ATOM     82  C   UNL     1      12.091 -10.831  -0.945  1.00  0.00     0.148 A 
ATOM     83  C   UNL     1      12.544 -10.441  -3.686  1.00  0.00     0.002 A 
ATOM     84  C   UNL     1      13.368 -10.976  -1.484  1.00  0.00     0.091 A 
ATOM     85  F   UNL     1      11.850 -11.142   0.334  1.00  0.00    -0.205 F 
ATOM     86  C   UNL     1      13.599 -10.783  -2.853  1.00  0.00     0.022 A 
BRANCH  84  87
ATOM     87  S   UNL     1      14.812 -11.296  -0.462  1.00  0.00     0.127 S 
ATOM     88  O   UNL     1      15.301 -12.557  -1.016  1.00  0.00    -0.237 OA
ATOM     89  O   UNL     1      15.642 -10.128  -0.758  1.00  0.00    -0.237 OA
ATOM     90  O   UNL     1      14.320 -11.362   0.907  1.00  0.00    -0.744 OA
ENDBRANCH  84  87
ENDBRANCH  56  80
BRANCH  68  91
ATOM     91  C   UNL     1       5.659  -9.620   2.052  1.00  0.00     0.023 A 
ATOM     92  C   UNL     1       5.545 -11.003   2.292  1.00  0.00     0.012 A 
ATOM     93  C   UNL     1       4.578  -8.941   1.452  1.00  0.00     0.148 A 
ATOM     94  C   UNL     1       4.383 -11.696   1.956  1.00  0.00     0.002 A 
ATOM     95  C   UNL     1       3.408  -9.633   1.145  1.00  0.00     0.091 A 
ATOM     96  F   UNL     1       4.682  -7.625   1.213  1.00  0.00    -0.205 F 
ATOM     97  C   UNL     1       3.311 -11.010   1.392  1.00  0.00     0.022 A 
BRANCH  95  98
ATOM     98  S   UNL     1       1.979  -8.808   0.429  1.00  0.00     0.127 S 
ATOM     99  O   UNL     1       1.357  -9.864  -0.374  1.00  0.00    -0.237 OA
ATOM    100  O   UNL     1       1.210  -8.427   1.612  1.00  0.00    -0.237 OA
ATOM    101  O   UNL     1       2.515  -7.710  -0.365  1.00  0.00    -0.744 OA
ENDBRANCH  95  98
ENDBRANCH  68  91
ENDBRANCH  42  43
ENDBRANCH  35  37
ENDBRANCH  34  35
ENDBRANCH  33  34
ENDBRANCH   1  33
TORSDOF 18
