REMARK SMILES CCc1cccc(CC)c1NC(=O)C[C@@](C)(C(=O)OCCOC(=O)c1ccc(-c2c3nc(c(-c4cccc(S(=O)(=O)[O-])c4F)c4ccc([nH]4)c(-c4cccc(S(=O)(=O)[O-])c4F)c4nc(c(-c5cccc(S(=O)(=O)[O-])c5F)c5ccc2[nH]5)C=C4)C=C3)cc1)c1ccccc1
REMARK SMILES IDX 20 1 19 2 17 3 18 4 15 5 16 6 14 7 12 8 11 9 13 11 10 12
REMARK SMILES IDX 3 13 4 14 5 15 7 16 6 17 2 18 1 19 8 20 9 21 88 22 89 23
REMARK SMILES IDX 93 24 90 25 92 26 91 27 21 28 22 29 23 30 24 31 25 32 26 33
REMARK SMILES IDX 87 34 27 35 86 36 28 37 29 38 30 39 80 40 31 41 85 42 79 43
REMARK SMILES IDX 81 44 32 45 84 46 78 47 77 48 33 50 65 51 45 52 64 53 46 54
REMARK SMILES IDX 49 55 63 56 82 57 47 58 48 59 62 61 83 62 50 63 34 64 35 65
REMARK SMILES IDX 43 66 36 67 38 68 44 69 37 70 39 71 40 72 41 73 42 74 66 75
REMARK SMILES IDX 67 76 75 77 68 78 70 79 76 80 69 81 71 82 72 83 73 84 74 85
REMARK SMILES IDX 51 86 52 87 60 88 53 89 55 90 61 91 54 92 56 93 57 94 58 95
REMARK SMILES IDX 59 96
REMARK H PARENT 11 10 81 49 49 60
REMARK Flexibility Score: inf
ROOT
ATOM      1  C   UNL     1       1.155   3.348   7.588  1.00  0.00     0.274 C 
ENDROOT
BRANCH   1   2
ATOM      2  O   UNL     1       0.672   3.463   6.229  1.00  0.00    -0.461 OA
BRANCH   2   3
ATOM      3  C   UNL     1      -0.392   2.683   5.859  1.00  0.00     0.316 C 
ATOM      4  O   UNL     1      -1.098   2.087   6.664  1.00  0.00    -0.251 OA
BRANCH   3   5
ATOM      5  C   UNL     1      -0.547   2.572   4.317  1.00  0.00     0.099 C 
ATOM      6  C   UNL     1      -0.897   1.085   4.047  1.00  0.00     0.029 C 
BRANCH   5   7
ATOM      7  C   UNL     1       0.843   2.907   3.696  1.00  0.00     0.123 C 
BRANCH   7   8
ATOM      8  C   UNL     1       1.245   2.270   2.403  1.00  0.00     0.225 C 
ATOM      9  N   UNL     1       1.555   0.977   2.182  1.00  0.00    -0.326 N 
ATOM     10  H   UNL     1       1.674   0.870   1.211  1.00  0.00     0.169 HD
ATOM     11  O   UNL     1       1.282   2.986   1.390  1.00  0.00    -0.275 OA
BRANCH   9  12
ATOM     12  C   UNL     1       1.779  -0.289   2.771  1.00  0.00     0.047 A 
ATOM     13  C   UNL     1       1.458  -1.376   1.887  1.00  0.00    -0.024 A 
ATOM     14  C   UNL     1       1.774  -2.706   2.230  1.00  0.00     0.006 A 
ATOM     15  C   UNL     1       2.371  -3.002   3.437  1.00  0.00     0.001 A 
ATOM     16  C   UNL     1       2.316  -0.612   4.042  1.00  0.00    -0.024 A 
ATOM     17  C   UNL     1       2.624  -1.972   4.325  1.00  0.00     0.006 A 
BRANCH  13  18
ATOM     18  C   UNL     1       0.612  -1.215   0.622  1.00  0.00     0.034 C 
ATOM     19  C   UNL     1       1.296  -0.586  -0.585  1.00  0.00     0.009 C 
ENDBRANCH  13  18
BRANCH  16  20
ATOM     20  C   UNL     1       2.665   0.297   5.196  1.00  0.00     0.034 C 
ATOM     21  C   UNL     1       1.841  -0.001   6.456  1.00  0.00     0.009 C 
ENDBRANCH  16  20
ENDBRANCH   9  12
ENDBRANCH   7   8
ENDBRANCH   5   7
BRANCH   5  22
ATOM     22  C   UNL     1      -1.735   3.431   3.798  1.00  0.00    -0.030 A 
ATOM     23  C   UNL     1      -1.573   4.689   3.189  1.00  0.00     0.005 A 
ATOM     24  C   UNL     1      -3.065   2.957   3.900  1.00  0.00     0.005 A 
ATOM     25  C   UNL     1      -2.667   5.396   2.662  1.00  0.00     0.000 A 
ATOM     26  C   UNL     1      -4.153   3.653   3.360  1.00  0.00     0.000 A 
ATOM     27  C   UNL     1      -3.953   4.873   2.734  1.00  0.00     0.000 A 
ENDBRANCH   5  22
ENDBRANCH   3   5
ENDBRANCH   2   3
ENDBRANCH   1   2
BRANCH   1  28
ATOM     28  C   UNL     1       1.414   4.723   8.191  1.00  0.00     0.275 C 
BRANCH  28  29
ATOM     29  O   UNL     1       0.151   5.385   8.289  1.00  0.00    -0.458 OA
BRANCH  29  30
ATOM     30  C   UNL     1       0.014   6.506   7.558  1.00  0.00     0.338 C 
ATOM     31  O   UNL     1       0.914   7.224   7.122  1.00  0.00    -0.246 OA
BRANCH  30  32
ATOM     32  C   UNL     1      -1.409   6.678   7.236  1.00  0.00     0.060 A 
ATOM     33  C   UNL     1      -2.145   5.562   6.839  1.00  0.00     0.016 A 
ATOM     34  C   UNL     1      -1.988   7.941   7.194  1.00  0.00     0.016 A 
ATOM     35  C   UNL     1      -3.410   5.717   6.293  1.00  0.00     0.010 A 
ATOM     36  C   UNL     1      -3.307   8.075   6.745  1.00  0.00     0.010 A 
ATOM     37  C   UNL     1      -4.018   6.972   6.231  1.00  0.00    -0.014 A 
BRANCH  37  38
ATOM     38  C   UNL     1      -5.335   7.154   5.553  1.00  0.00     0.031 A 
ATOM     39  C   UNL     1      -5.483   8.244   4.522  1.00  0.00     0.074 A 
ATOM     40  C   UNL     1      -6.401   6.372   5.827  1.00  0.00     0.049 A 
ATOM     41  N   UNL     1      -6.569   8.819   4.078  1.00  0.00    -0.248 NA
ATOM     42  C   UNL     1      -4.241   8.784   3.940  1.00  0.00     0.031 C 
ATOM     43  C   UNL     1      -6.414   5.228   6.738  1.00  0.00     0.029 A 
ATOM     44  N   UNL     1      -7.697   6.439   5.368  1.00  0.00    -0.354 N 
ATOM     45  C   UNL     1      -6.137   9.878   3.289  1.00  0.00     0.074 A 
ATOM     46  C   UNL     1      -4.692   9.829   3.260  1.00  0.00     0.031 C 
ATOM     47  C   UNL     1      -7.639   4.683   6.751  1.00  0.00     0.029 A 
ATOM     48  C   UNL     1      -8.532   5.513   5.954  1.00  0.00     0.049 A 
ATOM     49  H   UNL     1      -7.998   7.084   4.688  1.00  0.00     0.167 HD
ATOM     50  C   UNL     1      -6.885  10.816   2.662  1.00  0.00     0.034 A 
ATOM     51  C   UNL     1      -9.874   5.389   5.925  1.00  0.00     0.034 A 
ATOM     52  C   UNL     1      -8.318  10.768   2.574  1.00  0.00     0.049 A 
ATOM     53  C   UNL     1     -10.684   6.401   5.164  1.00  0.00     0.074 A 
ATOM     54  C   UNL     1      -9.169  11.638   1.914  1.00  0.00     0.029 A 
ATOM     55  N   UNL     1      -9.110   9.777   3.131  1.00  0.00    -0.354 N 
ATOM     56  N   UNL     1     -10.270   7.421   4.452  1.00  0.00    -0.248 NA
ATOM     57  C   UNL     1     -12.145   6.254   5.212  1.00  0.00     0.031 C 
ATOM     58  C   UNL     1     -10.477  11.166   2.067  1.00  0.00     0.029 A 
ATOM     59  C   UNL     1     -10.438  10.004   2.820  1.00  0.00     0.049 A 
ATOM     60  H   UNL     1      -8.776   9.023   3.669  1.00  0.00     0.167 HD
ATOM     61  C   UNL     1     -11.418   8.038   3.970  1.00  0.00     0.074 A 
ATOM     62  C   UNL     1     -12.542   7.252   4.433  1.00  0.00     0.031 C 
ATOM     63  C   UNL     1     -11.535   9.175   3.243  1.00  0.00     0.034 A 
BRANCH  50  64
ATOM     64  C   UNL     1      -6.177  11.975   2.018  1.00  0.00     0.023 A 
ATOM     65  C   UNL     1      -5.544  11.818   0.771  1.00  0.00     0.012 A 
ATOM     66  C   UNL     1      -6.217  13.249   2.622  1.00  0.00     0.148 A 
ATOM     67  C   UNL     1      -4.946  12.910   0.142  1.00  0.00     0.002 A 
ATOM     68  C   UNL     1      -5.654  14.339   1.970  1.00  0.00     0.091 A 
ATOM     69  F   UNL     1      -6.803  13.368   3.822  1.00  0.00    -0.205 F 
ATOM     70  C   UNL     1      -5.012  14.170   0.734  1.00  0.00     0.022 A 
BRANCH  68  71
ATOM     71  S   UNL     1      -5.761  16.012   2.618  1.00  0.00     0.127 S 
ATOM     72  O   UNL     1      -4.385  16.248   3.053  1.00  0.00    -0.237 OA
ATOM     73  O   UNL     1      -6.166  16.775   1.437  1.00  0.00    -0.237 OA
ATOM     74  O   UNL     1      -6.755  15.968   3.681  1.00  0.00    -0.744 OA
ENDBRANCH  68  71
ENDBRANCH  50  64
BRANCH  51  75
ATOM     75  C   UNL     1     -10.533   4.282   6.678  1.00  0.00     0.023 A 
ATOM     76  C   UNL     1     -11.181   3.252   5.971  1.00  0.00     0.012 A 
ATOM     77  C   UNL     1     -10.471   4.210   8.083  1.00  0.00     0.148 A 
ATOM     78  C   UNL     1     -11.764   2.180   6.650  1.00  0.00     0.002 A 
ATOM     79  C   UNL     1     -10.986   3.102   8.747  1.00  0.00     0.091 A 
ATOM     80  F   UNL     1      -9.887   5.215   8.753  1.00  0.00    -0.205 F 
ATOM     81  C   UNL     1     -11.649   2.094   8.036  1.00  0.00     0.022 A 
BRANCH  79  82
ATOM     82  S   UNL     1     -10.693   2.861  10.504  1.00  0.00     0.127 S 
ATOM     83  O   UNL     1     -11.875   3.477  11.098  1.00  0.00    -0.237 OA
ATOM     84  O   UNL     1     -10.636   1.402  10.619  1.00  0.00    -0.237 OA
ATOM     85  O   UNL     1      -9.418   3.521  10.758  1.00  0.00    -0.744 OA
ENDBRANCH  79  82
ENDBRANCH  51  75
BRANCH  63  86
ATOM     86  C   UNL     1     -12.923   9.633   2.892  1.00  0.00     0.023 A 
ATOM     87  C   UNL     1     -13.707  10.269   3.874  1.00  0.00     0.012 A 
ATOM     88  C   UNL     1     -13.420   9.503   1.582  1.00  0.00     0.148 A 
ATOM     89  C   UNL     1     -14.976  10.751   3.562  1.00  0.00     0.002 A 
ATOM     90  C   UNL     1     -14.671  10.020   1.268  1.00  0.00     0.091 A 
ATOM     91  F   UNL     1     -12.666   8.874   0.669  1.00  0.00    -0.205 F 
ATOM     92  C   UNL     1     -15.453  10.637   2.258  1.00  0.00     0.022 A 
BRANCH  90  93
ATOM     93  S   UNL     1     -15.321   9.985  -0.406  1.00  0.00     0.127 S 
ATOM     94  O   UNL     1     -16.234   8.846  -0.349  1.00  0.00    -0.237 OA
ATOM     95  O   UNL     1     -15.977  11.289  -0.519  1.00  0.00    -0.237 OA
ATOM     96  O   UNL     1     -14.162   9.823  -1.274  1.00  0.00    -0.744 OA
ENDBRANCH  90  93
ENDBRANCH  63  86
ENDBRANCH  37  38
ENDBRANCH  30  32
ENDBRANCH  29  30
ENDBRANCH  28  29
ENDBRANCH   1  28
TORSDOF 20
