REMARK SMILES O=C(OCCOC(=O)c1ccc(-c2c3nc(c(-c4cccc(S(=O)(=O)[O-])c4F)c4ccc([nH]4)c(-c4cccc(S(=O)(=O)[O-])c4F)c4nc(c(-c5cccc(S(=O)(=O)[O-])c5F)c5ccc2[nH]5)C=C4)C=C3)cc1)C1=Cc2cc(OC(F)(F)F)ccc2O[C@@H]1C(F)(F)F
REMARK SMILES IDX 5 1 4 2 3 3 2 4 1 5 72 6 73 7 86 8 74 9 85 10 75 11 84 12
REMARK SMILES IDX 76 13 83 14 82 15 87 16 88 17 89 18 90 19 77 20 78 21 79 22
REMARK SMILES IDX 80 23 81 24 6 25 7 26 8 27 9 28 10 29 71 30 11 31 70 32
REMARK SMILES IDX 12 33 13 34 14 35 64 36 15 37 69 38 63 39 65 40 16 41 68 42
REMARK SMILES IDX 62 43 61 44 17 46 49 47 29 48 48 49 30 50 33 51 47 52 66 53
REMARK SMILES IDX 31 54 32 55 46 57 67 58 34 59 18 60 19 61 27 62 20 63 22 64
REMARK SMILES IDX 28 65 21 66 23 67 24 68 25 69 26 70 50 71 51 72 59 73 52 74
REMARK SMILES IDX 54 75 60 76 53 77 55 78 56 79 57 80 58 81 35 82 36 83 44 84
REMARK SMILES IDX 37 85 39 86 45 87 38 88 40 89 41 90 42 91 43 92
REMARK H PARENT 65 45 33 56
REMARK Flexibility Score: inf
ROOT
ATOM      1  C   UNL     1       4.561   0.351   0.874  1.00  0.00     0.275 C 
ENDROOT
BRANCH   1   2
ATOM      2  C   UNL     1       3.789  -1.045  -0.585  1.00  0.00     0.275 C 
BRANCH   2   3
ATOM      3  O   UNL     1       2.894  -2.289  -0.292  1.00  0.00    -0.459 OA
BRANCH   3   4
ATOM      4  C   UNL     1       3.028  -2.753   0.956  1.00  0.00     0.338 C 
ATOM      5  O   UNL     1       2.434  -3.630   1.528  1.00  0.00    -0.246 OA
BRANCH   4   6
ATOM      6  C   UNL     1       3.848  -1.661   1.410  1.00  0.00     0.087 C 
ATOM      7  C   UNL     1       5.235  -1.824   0.966  1.00  0.00     0.027 C 
ATOM      8  C   UNL     1       2.660  -0.238   0.869  1.00  0.00     0.316 C 
ATOM      9  C   UNL     1       5.980  -0.802  -0.304  1.00  0.00     0.021 A 
ATOM     10  O   UNL     1       3.437   0.836  -0.541  1.00  0.00    -0.475 OA
ATOM     11  C   UNL     1       7.201  -1.186  -0.768  1.00  0.00     0.058 A 
ATOM     12  C   UNL     1       5.118   0.443  -1.135  1.00  0.00     0.128 A 
ATOM     13  C   UNL     1       7.655  -0.537  -1.927  1.00  0.00     0.130 A 
ATOM     14  C   UNL     1       5.623   1.039  -2.259  1.00  0.00     0.051 A 
ATOM     15  C   UNL     1       6.908   0.507  -2.634  1.00  0.00     0.050 A 
BRANCH   8  16
ATOM     16  C   UNL     1       2.093   0.073   2.309  1.00  0.00     0.430 C 
ATOM     17  F   UNL     1       0.845   0.560   2.249  1.00  0.00    -0.167 F 
ATOM     18  F   UNL     1       1.949  -1.112   2.979  1.00  0.00    -0.167 F 
ATOM     19  F   UNL     1       2.864   0.787   3.140  1.00  0.00    -0.167 F 
ENDBRANCH   8  16
BRANCH  13  20
ATOM     20  O   UNL     1       8.881  -1.058  -2.258  1.00  0.00    -0.406 OA
BRANCH  20  21
ATOM     21  C   UNL     1       9.537  -0.706  -3.449  1.00  0.00     0.573 C 
ATOM     22  F   UNL     1       8.821  -1.086  -4.525  1.00  0.00    -0.132 F 
ATOM     23  F   UNL     1       9.781   0.617  -3.500  1.00  0.00    -0.132 F 
ATOM     24  F   UNL     1      10.723  -1.357  -3.481  1.00  0.00    -0.132 F 
ENDBRANCH  20  21
ENDBRANCH  13  20
ENDBRANCH   4   6
ENDBRANCH   3   4
ENDBRANCH   2   3
ENDBRANCH   1   2
BRANCH   1  25
ATOM     25  O   UNL     1       3.786   1.810   1.379  1.00  0.00    -0.458 OA
BRANCH  25  26
ATOM     26  C   UNL     1       2.959   2.831   0.983  1.00  0.00     0.338 C 
ATOM     27  O   UNL     1       2.559   3.125  -0.129  1.00  0.00    -0.246 OA
BRANCH  26  28
ATOM     28  C   UNL     1       2.281   3.294   2.236  1.00  0.00     0.060 A 
ATOM     29  C   UNL     1       0.905   3.039   2.381  1.00  0.00     0.016 A 
ATOM     30  C   UNL     1       3.056   3.566   3.364  1.00  0.00     0.016 A 
ATOM     31  C   UNL     1       0.372   2.802   3.662  1.00  0.00     0.010 A 
ATOM     32  C   UNL     1       2.516   3.352   4.635  1.00  0.00     0.010 A 
ATOM     33  C   UNL     1       1.196   2.890   4.794  1.00  0.00    -0.014 A 
BRANCH  33  34
ATOM     34  C   UNL     1       0.643   2.760   6.168  1.00  0.00     0.031 A 
ATOM     35  C   UNL     1       0.137   4.034   6.777  1.00  0.00     0.074 A 
ATOM     36  C   UNL     1       0.675   1.624   6.898  1.00  0.00     0.049 A 
ATOM     37  N   UNL     1      -0.318   4.264   7.977  1.00  0.00    -0.248 NA
ATOM     38  C   UNL     1       0.190   5.222   5.905  1.00  0.00     0.031 C 
ATOM     39  C   UNL     1       1.175   0.322   6.452  1.00  0.00     0.029 A 
ATOM     40  N   UNL     1       0.303   1.395   8.207  1.00  0.00    -0.354 N 
ATOM     41  C   UNL     1      -0.587   5.624   8.007  1.00  0.00     0.074 A 
ATOM     42  C   UNL     1      -0.198   6.175   6.731  1.00  0.00     0.031 C 
ATOM     43  C   UNL     1       1.103  -0.556   7.474  1.00  0.00     0.029 A 
ATOM     44  C   UNL     1       0.560   0.115   8.655  1.00  0.00     0.049 A 
ATOM     45  H   UNL     1      -0.111   2.086   8.773  1.00  0.00     0.167 HD
ATOM     46  C   UNL     1      -1.140   6.359   8.996  1.00  0.00     0.034 A 
ATOM     47  C   UNL     1       0.378  -0.438   9.877  1.00  0.00     0.034 A 
ATOM     48  C   UNL     1      -1.509   5.828  10.271  1.00  0.00     0.049 A 
ATOM     49  C   UNL     1      -0.226   0.412  10.981  1.00  0.00     0.074 A 
ATOM     50  C   UNL     1      -2.089   6.481  11.340  1.00  0.00     0.029 A 
ATOM     51  N   UNL     1      -1.312   4.511  10.655  1.00  0.00    -0.354 N 
ATOM     52  N   UNL     1      -0.627   1.661  10.942  1.00  0.00    -0.248 NA
ATOM     53  C   UNL     1      -0.439  -0.236  12.287  1.00  0.00     0.031 C 
ATOM     54  C   UNL     1      -2.228   5.559  12.383  1.00  0.00     0.029 A 
ATOM     55  C   UNL     1      -1.762   4.327  11.947  1.00  0.00     0.049 A 
ATOM     56  H   UNL     1      -0.911   3.811  10.091  1.00  0.00     0.167 HD
ATOM     57  C   UNL     1      -1.185   1.927  12.191  1.00  0.00     0.074 A 
ATOM     58  C   UNL     1      -1.083   0.707  12.962  1.00  0.00     0.031 C 
ATOM     59  C   UNL     1      -1.724   3.079  12.665  1.00  0.00     0.034 A 
BRANCH  46  60
ATOM     60  C   UNL     1      -1.388   7.806   8.684  1.00  0.00     0.023 A 
ATOM     61  C   UNL     1      -2.386   8.146   7.745  1.00  0.00     0.012 A 
ATOM     62  C   UNL     1      -0.596   8.816   9.256  1.00  0.00     0.148 A 
ATOM     63  C   UNL     1      -2.551   9.465   7.334  1.00  0.00     0.002 A 
ATOM     64  C   UNL     1      -0.802  10.136   8.879  1.00  0.00     0.091 A 
ATOM     65  F   UNL     1       0.366   8.464  10.120  1.00  0.00    -0.205 F 
ATOM     66  C   UNL     1      -1.764  10.460   7.905  1.00  0.00     0.022 A 
BRANCH  64  67
ATOM     67  S   UNL     1       0.114  11.502   9.596  1.00  0.00     0.127 S 
ATOM     68  O   UNL     1       0.898  11.965   8.451  1.00  0.00    -0.237 OA
ATOM     69  O   UNL     1      -0.961  12.405  10.005  1.00  0.00    -0.237 OA
ATOM     70  O   UNL     1       0.888  10.937  10.692  1.00  0.00    -0.744 OA
ENDBRANCH  64  67
ENDBRANCH  46  60
BRANCH  47  71
ATOM     71  C   UNL     1       0.693  -1.880  10.150  1.00  0.00     0.023 A 
ATOM     72  C   UNL     1      -0.365  -2.771  10.435  1.00  0.00     0.012 A 
ATOM     73  C   UNL     1       2.015  -2.362  10.211  1.00  0.00     0.148 A 
ATOM     74  C   UNL     1      -0.113  -4.090  10.825  1.00  0.00     0.002 A 
ATOM     75  C   UNL     1       2.258  -3.692  10.555  1.00  0.00     0.091 A 
ATOM     76  F   UNL     1       3.015  -1.506   9.959  1.00  0.00    -0.205 F 
ATOM     77  C   UNL     1       1.197  -4.551  10.882  1.00  0.00     0.022 A 
BRANCH  75  78
ATOM     78  S   UNL     1       3.907  -4.411  10.577  1.00  0.00     0.127 S 
ATOM     79  O   UNL     1       4.114  -4.647  12.004  1.00  0.00    -0.237 OA
ATOM     80  O   UNL     1       3.720  -5.621   9.776  1.00  0.00    -0.237 OA
ATOM     81  O   UNL     1       4.779  -3.415   9.970  1.00  0.00    -0.744 OA
ENDBRANCH  75  78
ENDBRANCH  47  71
BRANCH  59  82
ATOM     82  C   UNL     1      -2.312   3.078  14.052  1.00  0.00     0.023 A 
ATOM     83  C   UNL     1      -1.468   3.051  15.178  1.00  0.00     0.012 A 
ATOM     84  C   UNL     1      -3.701   3.241  14.231  1.00  0.00     0.148 A 
ATOM     85  C   UNL     1      -2.000   3.164  16.463  1.00  0.00     0.002 A 
ATOM     86  C   UNL     1      -4.217   3.408  15.509  1.00  0.00     0.091 A 
ATOM     87  F   UNL     1      -4.489   3.248  13.145  1.00  0.00    -0.205 F 
ATOM     88  C   UNL     1      -3.370   3.359  16.627  1.00  0.00     0.022 A 
BRANCH  86  89
ATOM     89  S   UNL     1      -5.950   3.783  15.804  1.00  0.00     0.127 S 
ATOM     90  O   UNL     1      -6.438   2.521  16.357  1.00  0.00    -0.237 OA
ATOM     91  O   UNL     1      -5.870   4.881  16.768  1.00  0.00    -0.237 OA
ATOM     92  O   UNL     1      -6.505   4.157  14.511  1.00  0.00    -0.744 OA
ENDBRANCH  86  89
ENDBRANCH  59  82
ENDBRANCH  33  34
ENDBRANCH  26  28
ENDBRANCH  25  26
ENDBRANCH   1  25
TORSDOF 17
