REMARK SMILES CC(C)C(=O)Nc1ccc2c([C@H](C(=O)OCCOC(=O)c3ccc(-c4c5nc(c(-c6cccc(S(=O)(=O)[O-])c6F)c6ccc([nH]6)c(-c6cccc(S(=O)(=O)[O-])c6F)c6nc(c(-c7cccc(S(=O)(=O)[O-])c7F)c7ccc4[nH]7)C=C6)C=C5)cc3)[NH+]3CC[NH+](CC(=O)N(C)C)CC3)c[nH]c2c1
REMARK SMILES IDX 16 1 15 2 13 3 14 4 12 5 11 6 7 7 8 8 99 9 9 10 98 11 10 12
REMARK SMILES IDX 97 13 96 14 6 16 4 17 5 18 2 20 1 21 3 22 84 23 85 24 95 25
REMARK SMILES IDX 86 27 94 28 87 29 88 31 89 32 90 33 91 34 92 35 93 36 17 37
REMARK SMILES IDX 18 38 19 39 20 40 21 41 22 42 83 43 23 44 82 45 24 46 25 47
REMARK SMILES IDX 26 48 76 49 27 50 81 51 75 52 77 53 28 54 80 55 74 56 73 57
REMARK SMILES IDX 29 59 61 60 41 61 60 62 42 63 45 64 59 65 78 66 43 67 44 68
REMARK SMILES IDX 58 70 79 71 46 72 30 73 31 74 39 75 32 76 34 77 40 78 33 79
REMARK SMILES IDX 35 80 36 81 37 82 38 83 62 84 63 85 71 86 64 87 66 88 72 89
REMARK SMILES IDX 65 90 67 91 68 92 69 93 70 94 47 95 48 96 56 97 49 98 51 99
REMARK SMILES IDX 57 100 50 101 52 102 53 103 54 104 55 105
REMARK H PARENT 97 15 6 19 84 26 87 30 77 58 45 69
REMARK Flexibility Score: inf
ROOT
ATOM      1  C   UNL     1      -0.837   4.040   2.278  1.00  0.00     0.274 C 
ENDROOT
BRANCH   1   2
ATOM      2  O   UNL     1       0.415   4.530   1.762  1.00  0.00    -0.457 OA
BRANCH   2   3
ATOM      3  C   UNL     1       0.338   5.145   0.554  1.00  0.00     0.370 C 
ATOM      4  O   UNL     1      -0.699   5.146  -0.112  1.00  0.00    -0.245 OA
BRANCH   3   5
ATOM      5  C   UNL     1       1.649   5.803   0.057  1.00  0.00     0.328 C 
BRANCH   5   6
ATOM      6  C   UNL     1       1.470   7.286  -0.288  1.00  0.00     0.046 A 
ATOM      7  C   UNL     1       3.917  10.174  -2.116  1.00  0.00     0.043 A 
ATOM      8  C   UNL     1       4.580   9.070  -1.603  1.00  0.00     0.027 A 
ATOM      9  C   UNL     1       2.584  10.422  -1.773  1.00  0.00     0.052 A 
ATOM     10  C   UNL     1       3.875   8.040  -0.990  1.00  0.00     0.013 A 
ATOM     11  C   UNL     1       1.893   9.389  -1.118  1.00  0.00     0.048 A 
ATOM     12  C   UNL     1       2.489   8.171  -0.794  1.00  0.00     0.009 A 
ATOM     13  N   UNL     1       0.588   9.312  -0.699  1.00  0.00    -0.361 N 
ATOM     14  C   UNL     1       0.320   8.057  -0.216  1.00  0.00     0.094 A 
ATOM     15  H   UNL     1      -0.062  10.051  -0.738  1.00  0.00     0.166 HD
BRANCH   7  16
ATOM     16  N   UNL     1       4.563  11.044  -2.999  1.00  0.00    -0.326 N 
ATOM     17  C   UNL     1       5.381  10.754  -4.057  1.00  0.00     0.226 C 
ATOM     18  O   UNL     1       5.960  11.701  -4.606  1.00  0.00    -0.274 OA
ATOM     19  H   UNL     1       4.407  12.002  -2.836  1.00  0.00     0.169 HD
BRANCH  17  20
ATOM     20  C   UNL     1       5.524   9.342  -4.664  1.00  0.00     0.072 C 
ATOM     21  C   UNL     1       6.541   8.431  -3.986  1.00  0.00     0.018 C 
ATOM     22  C   UNL     1       4.199   8.637  -4.954  1.00  0.00     0.018 C 
ENDBRANCH  17  20
ENDBRANCH   7  16
ENDBRANCH   5   6
BRANCH   5  23
ATOM     23  N   UNL     1       2.914   5.574   0.797  1.00  0.00    -0.310 N 
ATOM     24  C   UNL     1       3.233   6.439   1.924  1.00  0.00     0.325 C 
ATOM     25  C   UNL     1       3.338   4.198   1.047  1.00  0.00     0.325 C 
ATOM     26  H   UNL     1       3.503   5.905   0.033  1.00  0.00     0.349 HD
ATOM     27  C   UNL     1       2.687   5.913   3.238  1.00  0.00     0.325 C 
ATOM     28  C   UNL     1       3.148   3.623   2.482  1.00  0.00     0.325 C 
ATOM     29  N   UNL     1       3.054   4.549   3.604  1.00  0.00    -0.318 N 
ATOM     30  H   UNL     1       2.251   4.154   4.092  1.00  0.00     0.348 HD
BRANCH  29  31
ATOM     31  C   UNL     1       4.100   4.489   4.633  1.00  0.00     0.364 C 
BRANCH  31  32
ATOM     32  C   UNL     1       5.356   5.279   4.241  1.00  0.00     0.277 C 
ATOM     33  O   UNL     1       5.417   6.490   4.480  1.00  0.00    -0.268 OA
ATOM     34  N   UNL     1       6.356   4.639   3.530  1.00  0.00    -0.344 N 
ATOM     35  C   UNL     1       6.576   3.207   3.505  1.00  0.00     0.146 C 
ATOM     36  C   UNL     1       7.348   5.463   2.863  1.00  0.00     0.146 C 
ENDBRANCH  31  32
ENDBRANCH  29  31
ENDBRANCH   5  23
ENDBRANCH   3   5
ENDBRANCH   2   3
ENDBRANCH   1   2
BRANCH   1  37
ATOM     37  C   UNL     1      -0.647   3.376   3.650  1.00  0.00     0.275 C 
BRANCH  37  38
ATOM     38  O   UNL     1      -0.007   4.216   4.626  1.00  0.00    -0.458 OA
BRANCH  38  39
ATOM     39  C   UNL     1      -0.694   5.308   5.035  1.00  0.00     0.338 C 
ATOM     40  O   UNL     1      -1.836   5.604   4.732  1.00  0.00    -0.246 OA
BRANCH  39  41
ATOM     41  C   UNL     1       0.261   6.198   5.724  1.00  0.00     0.060 A 
ATOM     42  C   UNL     1       0.628   7.360   5.056  1.00  0.00     0.016 A 
ATOM     43  C   UNL     1       0.877   5.863   6.934  1.00  0.00     0.016 A 
ATOM     44  C   UNL     1       1.694   8.118   5.541  1.00  0.00     0.010 A 
ATOM     45  C   UNL     1       1.843   6.723   7.492  1.00  0.00     0.010 A 
ATOM     46  C   UNL     1       2.273   7.868   6.802  1.00  0.00    -0.014 A 
BRANCH  46  47
ATOM     47  C   UNL     1       3.206   8.884   7.399  1.00  0.00     0.031 A 
ATOM     48  C   UNL     1       4.546   8.536   8.009  1.00  0.00     0.074 A 
ATOM     49  C   UNL     1       2.822  10.181   7.397  1.00  0.00     0.049 A 
ATOM     50  N   UNL     1       5.351   9.299   8.712  1.00  0.00    -0.248 NA
ATOM     51  C   UNL     1       5.050   7.169   7.821  1.00  0.00     0.031 C 
ATOM     52  C   UNL     1       1.556  10.682   6.855  1.00  0.00     0.029 A 
ATOM     53  N   UNL     1       3.446  11.319   7.853  1.00  0.00    -0.354 N 
ATOM     54  C   UNL     1       6.425   8.497   9.088  1.00  0.00     0.074 A 
ATOM     55  C   UNL     1       6.179   7.187   8.522  1.00  0.00     0.031 C 
ATOM     56  C   UNL     1       1.535  12.014   6.919  1.00  0.00     0.029 A 
ATOM     57  C   UNL     1       2.691  12.457   7.680  1.00  0.00     0.049 A 
ATOM     58  H   UNL     1       4.342  11.320   8.261  1.00  0.00     0.167 HD
ATOM     59  C   UNL     1       7.513   8.824   9.832  1.00  0.00     0.034 A 
ATOM     60  C   UNL     1       2.832  13.710   8.151  1.00  0.00     0.034 A 
ATOM     61  C   UNL     1       7.784  10.144  10.350  1.00  0.00     0.049 A 
ATOM     62  C   UNL     1       4.002  14.030   9.019  1.00  0.00     0.074 A 
ATOM     63  C   UNL     1       8.870  10.568  11.101  1.00  0.00     0.029 A 
ATOM     64  N   UNL     1       6.974  11.255  10.169  1.00  0.00    -0.354 N 
ATOM     65  N   UNL     1       4.998  13.255   9.369  1.00  0.00    -0.248 NA
ATOM     66  C   UNL     1       4.066  15.389   9.568  1.00  0.00     0.031 C 
ATOM     67  C   UNL     1       8.704  11.928  11.392  1.00  0.00     0.029 A 
ATOM     68  C   UNL     1       7.526  12.357  10.806  1.00  0.00     0.049 A 
ATOM     69  H   UNL     1       6.130  11.260   9.662  1.00  0.00     0.167 HD
ATOM     70  C   UNL     1       5.809  14.029  10.183  1.00  0.00     0.074 A 
ATOM     71  C   UNL     1       5.207  15.347  10.243  1.00  0.00     0.031 C 
ATOM     72  C   UNL     1       6.937  13.670  10.842  1.00  0.00     0.034 A 
BRANCH  59  73
ATOM     73  C   UNL     1       8.530   7.749  10.134  1.00  0.00     0.023 A 
ATOM     74  C   UNL     1       9.471   7.381   9.153  1.00  0.00     0.012 A 
ATOM     75  C   UNL     1       8.634   7.197  11.429  1.00  0.00     0.148 A 
ATOM     76  C   UNL     1      10.492   6.475   9.450  1.00  0.00     0.002 A 
ATOM     77  C   UNL     1       9.672   6.319  11.727  1.00  0.00     0.091 A 
ATOM     78  F   UNL     1       7.722   7.546  12.347  1.00  0.00    -0.205 F 
ATOM     79  C   UNL     1      10.599   5.954  10.738  1.00  0.00     0.022 A 
BRANCH  77  80
ATOM     80  S   UNL     1       9.931   5.651  13.376  1.00  0.00     0.127 S 
ATOM     81  O   UNL     1       9.466   4.274  13.213  1.00  0.00    -0.237 OA
ATOM     82  O   UNL     1      11.378   5.787  13.546  1.00  0.00    -0.237 OA
ATOM     83  O   UNL     1       9.136   6.479  14.272  1.00  0.00    -0.744 OA
ENDBRANCH  77  80
ENDBRANCH  59  73
BRANCH  60  84
ATOM     84  C   UNL     1       1.778  14.717   7.837  1.00  0.00     0.023 A 
ATOM     85  C   UNL     1       2.063  15.779   6.961  1.00  0.00     0.012 A 
ATOM     86  C   UNL     1       0.454  14.536   8.291  1.00  0.00     0.148 A 
ATOM     87  C   UNL     1       1.045  16.632   6.532  1.00  0.00     0.002 A 
ATOM     88  C   UNL     1      -0.566  15.330   7.786  1.00  0.00     0.091 A 
ATOM     89  F   UNL     1       0.205  13.542   9.157  1.00  0.00    -0.205 F 
ATOM     90  C   UNL     1      -0.272  16.391   6.920  1.00  0.00     0.022 A 
BRANCH  88  91
ATOM     91  S   UNL     1      -2.293  14.910   8.060  1.00  0.00     0.127 S 
ATOM     92  O   UNL     1      -2.650  15.796   9.163  1.00  0.00    -0.237 OA
ATOM     93  O   UNL     1      -2.904  15.249   6.773  1.00  0.00    -0.237 OA
ATOM     94  O   UNL     1      -2.293  13.482   8.353  1.00  0.00    -0.744 OA
ENDBRANCH  88  91
ENDBRANCH  60  84
BRANCH  72  95
ATOM     95  C   UNL     1       7.593  14.729  11.682  1.00  0.00     0.023 A 
ATOM     96  C   UNL     1       7.016  15.089  12.916  1.00  0.00     0.012 A 
ATOM     97  C   UNL     1       8.780  15.358  11.261  1.00  0.00     0.148 A 
ATOM     98  C   UNL     1       7.591  16.086  13.702  1.00  0.00     0.002 A 
ATOM     99  C   UNL     1       9.369  16.324  12.068  1.00  0.00     0.091 A 
ATOM    100  F   UNL     1       9.297  15.020  10.071  1.00  0.00    -0.205 F 
ATOM    101  C   UNL     1       8.771  16.697  13.283  1.00  0.00     0.022 A 
BRANCH  99 102
ATOM    102  S   UNL     1      10.925  17.110  11.637  1.00  0.00     0.127 S 
ATOM    103  O   UNL     1      10.476  18.417  11.160  1.00  0.00    -0.237 OA
ATOM    104  O   UNL     1      11.629  17.138  12.919  1.00  0.00    -0.237 OA
ATOM    105  O   UNL     1      11.539  16.250  10.634  1.00  0.00    -0.744 OA
ENDBRANCH  99 102
ENDBRANCH  72  95
ENDBRANCH  46  47
ENDBRANCH  39  41
ENDBRANCH  38  39
ENDBRANCH  37  38
ENDBRANCH   1  37
TORSDOF 20
