REMARK SMILES O=C(OCCOC(=O)c1ccc([S@@](=O)[C@H]2CCOC3(CCCC3)C2)cc1)c1ccc(-c2c3nc(c(-c4cccc(S(=O)(=O)[O-])c4F)c4ccc([nH]4)c(-c4cccc(S(=O)(=O)[O-])c4F)c4nc(c(-c5cccc(S(=O)(=O)[O-])c5F)c5ccc2[nH]5)C=C4)C=C3)cc1
REMARK SMILES IDX 4 1 3 2 2 3 1 4 27 5 28 6 89 7 29 8 88 9 30 10 31 11 32 12
REMARK SMILES IDX 82 13 33 14 87 15 81 16 83 17 34 18 86 19 80 20 79 21 35 23
REMARK SMILES IDX 67 24 47 25 66 26 48 27 51 28 65 29 84 30 49 31 50 32 64 34
REMARK SMILES IDX 85 35 52 36 36 37 37 38 45 39 38 40 40 41 46 42 39 43 41 44
REMARK SMILES IDX 42 45 43 46 44 47 68 48 69 49 77 50 70 51 72 52 78 53 71 54
REMARK SMILES IDX 73 55 74 56 75 57 76 58 53 59 54 60 62 61 55 62 57 63 63 64
REMARK SMILES IDX 56 65 58 66 59 67 60 68 61 69 5 70 6 71 7 72 8 73 9 74 10 75
REMARK SMILES IDX 26 76 11 77 25 78 12 79 13 80 14 81 15 82 16 83 24 84 17 85
REMARK SMILES IDX 19 86 18 87 20 88 23 89 21 90 22 91
REMARK H PARENT 83 22 51 33
REMARK Flexibility Score: inf
ROOT
ATOM      1  C   UNL     1       2.480   9.122  11.561  1.00  0.00     0.275 C 
ENDROOT
BRANCH   1   2
ATOM      2  O   UNL     1       1.324   8.435  11.048  1.00  0.00    -0.458 OA
BRANCH   2   3
ATOM      3  C   UNL     1       0.360   8.849  10.192  1.00  0.00     0.338 C 
ATOM      4  O   UNL     1      -0.630   8.133  10.036  1.00  0.00    -0.246 OA
BRANCH   3   5
ATOM      5  C   UNL     1       0.469  10.068   9.330  1.00  0.00     0.060 A 
ATOM      6  C   UNL     1       1.147  11.244   9.656  1.00  0.00     0.016 A 
ATOM      7  C   UNL     1      -0.215  10.025   8.098  1.00  0.00     0.016 A 
ATOM      8  C   UNL     1       1.185  12.322   8.768  1.00  0.00     0.010 A 
ATOM      9  C   UNL     1      -0.172  11.095   7.200  1.00  0.00     0.010 A 
ATOM     10  C   UNL     1       0.516  12.261   7.544  1.00  0.00    -0.014 A 
BRANCH  10  11
ATOM     11  C   UNL     1       0.404  13.491   6.732  1.00  0.00     0.031 A 
ATOM     12  C   UNL     1      -0.842  14.315   6.860  1.00  0.00     0.074 A 
ATOM     13  C   UNL     1       1.425  13.899   5.956  1.00  0.00     0.049 A 
ATOM     14  N   UNL     1      -1.089  15.509   6.396  1.00  0.00    -0.248 NA
ATOM     15  C   UNL     1      -1.948  13.729   7.639  1.00  0.00     0.031 C 
ATOM     16  C   UNL     1       2.686  13.182   5.782  1.00  0.00     0.029 A 
ATOM     17  N   UNL     1       1.564  15.011   5.168  1.00  0.00    -0.354 N 
ATOM     18  C   UNL     1      -2.369  15.823   6.833  1.00  0.00     0.074 A 
ATOM     19  C   UNL     1      -2.864  14.682   7.568  1.00  0.00     0.031 C 
ATOM     20  C   UNL     1       3.460  13.851   4.910  1.00  0.00     0.029 A 
ATOM     21  C   UNL     1       2.760  15.060   4.489  1.00  0.00     0.049 A 
ATOM     22  H   UNL     1       0.875  15.710   5.095  1.00  0.00     0.167 HD
ATOM     23  C   UNL     1      -3.057  16.975   6.663  1.00  0.00     0.034 A 
ATOM     24  C   UNL     1       3.241  15.993   3.645  1.00  0.00     0.034 A 
ATOM     25  C   UNL     1      -2.557  18.096   5.920  1.00  0.00     0.049 A 
ATOM     26  C   UNL     1       2.434  17.250   3.438  1.00  0.00     0.074 A 
ATOM     27  C   UNL     1      -3.158  19.319   5.694  1.00  0.00     0.029 A 
ATOM     28  N   UNL     1      -1.334  18.119   5.263  1.00  0.00    -0.354 N 
ATOM     29  N   UNL     1       1.293  17.597   3.986  1.00  0.00    -0.248 NA
ATOM     30  C   UNL     1       3.007  18.270   2.550  1.00  0.00     0.031 C 
ATOM     31  C   UNL     1      -2.307  20.074   4.879  1.00  0.00     0.029 A 
ATOM     32  C   UNL     1      -1.166  19.330   4.619  1.00  0.00     0.049 A 
ATOM     33  H   UNL     1      -0.683  17.381   5.257  1.00  0.00     0.167 HD
ATOM     34  C   UNL     1       1.040  18.893   3.555  1.00  0.00     0.074 A 
ATOM     35  C   UNL     1       2.151  19.271   2.704  1.00  0.00     0.031 C 
ATOM     36  C   UNL     1      -0.016  19.699   3.832  1.00  0.00     0.034 A 
BRANCH  23  37
ATOM     37  C   UNL     1      -4.408  17.063   7.313  1.00  0.00     0.023 A 
ATOM     38  C   UNL     1      -4.496  17.223   8.712  1.00  0.00     0.012 A 
ATOM     39  C   UNL     1      -5.587  16.974   6.551  1.00  0.00     0.148 A 
ATOM     40  C   UNL     1      -5.738  17.255   9.346  1.00  0.00     0.002 A 
ATOM     41  C   UNL     1      -6.821  17.043   7.186  1.00  0.00     0.091 A 
ATOM     42  F   UNL     1      -5.480  16.790   5.228  1.00  0.00    -0.205 F 
ATOM     43  C   UNL     1      -6.899  17.172   8.583  1.00  0.00     0.022 A 
BRANCH  41  44
ATOM     44  S   UNL     1      -8.373  16.992   6.284  1.00  0.00     0.127 S 
ATOM     45  O   UNL     1      -8.864  15.656   6.619  1.00  0.00    -0.237 OA
ATOM     46  O   UNL     1      -9.123  18.088   6.898  1.00  0.00    -0.237 OA
ATOM     47  O   UNL     1      -8.030  17.202   4.885  1.00  0.00    -0.744 OA
ENDBRANCH  41  44
ENDBRANCH  23  37
BRANCH  24  48
ATOM     48  C   UNL     1       4.593  15.837   3.031  1.00  0.00     0.023 A 
ATOM     49  C   UNL     1       5.644  16.671   3.461  1.00  0.00     0.012 A 
ATOM     50  C   UNL     1       4.848  14.870   2.037  1.00  0.00     0.148 A 
ATOM     51  C   UNL     1       6.914  16.572   2.890  1.00  0.00     0.002 A 
ATOM     52  C   UNL     1       6.127  14.750   1.500  1.00  0.00     0.091 A 
ATOM     53  F   UNL     1       3.834  14.092   1.635  1.00  0.00    -0.205 F 
ATOM     54  C   UNL     1       7.156  15.609   1.916  1.00  0.00     0.022 A 
BRANCH  52  55
ATOM     55  S   UNL     1       6.573  13.493   0.296  1.00  0.00     0.127 S 
ATOM     56  O   UNL     1       6.875  14.303  -0.882  1.00  0.00    -0.237 OA
ATOM     57  O   UNL     1       7.739  12.874   0.930  1.00  0.00    -0.237 OA
ATOM     58  O   UNL     1       5.413  12.624   0.176  1.00  0.00    -0.744 OA
ENDBRANCH  52  55
ENDBRANCH  24  48
BRANCH  36  59
ATOM     59  C   UNL     1      -0.003  21.087   3.252  1.00  0.00     0.023 A 
ATOM     60  C   UNL     1      -0.252  21.276   1.879  1.00  0.00     0.012 A 
ATOM     61  C   UNL     1       0.162  22.208   4.088  1.00  0.00     0.148 A 
ATOM     62  C   UNL     1      -0.309  22.561   1.341  1.00  0.00     0.002 A 
ATOM     63  C   UNL     1       0.055  23.486   3.555  1.00  0.00     0.091 A 
ATOM     64  F   UNL     1       0.422  22.006   5.389  1.00  0.00    -0.205 F 
ATOM     65  C   UNL     1      -0.170  23.665   2.180  1.00  0.00     0.022 A 
BRANCH  63  66
ATOM     66  S   UNL     1       0.113  24.954   4.589  1.00  0.00     0.127 S 
ATOM     67  O   UNL     1       1.482  25.418   4.373  1.00  0.00    -0.237 OA
ATOM     68  O   UNL     1      -0.920  25.802   3.992  1.00  0.00    -0.237 OA
ATOM     69  O   UNL     1      -0.194  24.498   5.938  1.00  0.00    -0.744 OA
ENDBRANCH  63  66
ENDBRANCH  36  59
ENDBRANCH  10  11
ENDBRANCH   3   5
ENDBRANCH   2   3
ENDBRANCH   1   2
BRANCH   1  70
ATOM     70  C   UNL     1       3.736   9.011  10.696  1.00  0.00     0.275 C 
BRANCH  70  71
ATOM     71  O   UNL     1       3.486   9.217   9.301  1.00  0.00    -0.458 OA
BRANCH  71  72
ATOM     72  C   UNL     1       3.282   8.080   8.586  1.00  0.00     0.338 C 
ATOM     73  O   UNL     1       3.320   6.934   9.005  1.00  0.00    -0.246 OA
BRANCH  72  74
ATOM     74  C   UNL     1       2.856   8.429   7.219  1.00  0.00     0.060 A 
ATOM     75  C   UNL     1       1.729   7.784   6.697  1.00  0.00     0.017 A 
ATOM     76  C   UNL     1       3.537   9.383   6.462  1.00  0.00     0.017 A 
ATOM     77  C   UNL     1       1.255   8.126   5.429  1.00  0.00     0.018 A 
ATOM     78  C   UNL     1       3.089   9.681   5.173  1.00  0.00     0.018 A 
ATOM     79  C   UNL     1       1.948   9.059   4.649  1.00  0.00     0.039 A 
BRANCH  79  80
ATOM     80  S   UNL     1       1.417   9.432   2.958  1.00  0.00     0.056 S 
ATOM     81  O   UNL     1       2.553  10.187   2.342  1.00  0.00    -0.254 OA
BRANCH  80  82
ATOM     82  C   UNL     1       1.445   7.743   2.259  1.00  0.00     0.089 C 
ATOM     83  C   UNL     1       1.255   7.787   0.744  1.00  0.00     0.046 C 
ATOM     84  C   UNL     1       2.739   6.987   2.551  1.00  0.00     0.053 C 
ATOM     85  C   UNL     1       1.267   6.374   0.174  1.00  0.00     0.162 C 
ATOM     86  C   UNL     1       2.646   5.563   1.998  1.00  0.00     0.069 C 
ATOM     87  O   UNL     1       2.398   5.604   0.587  1.00  0.00    -0.375 OA
ATOM     88  C   UNL     1       3.981   4.811   2.219  1.00  0.00     0.035 C 
ATOM     89  C   UNL     1       1.586   4.709   2.736  1.00  0.00     0.035 C 
ATOM     90  C   UNL     1       3.682   3.725   3.245  1.00  0.00     0.003 C 
ATOM     91  C   UNL     1       2.243   3.354   2.949  1.00  0.00     0.003 C 
ENDBRANCH  80  82
ENDBRANCH  79  80
ENDBRANCH  72  74
ENDBRANCH  71  72
ENDBRANCH  70  71
ENDBRANCH   1  70
TORSDOF 16
