REMARK SMILES C[C@H](NC(=O)c1cccc(NC(=O)c2ccccc2C(=O)OCCOC(=O)c2ccc(-c3c4nc(c(-c5cccc(S(=O)(=O)[O-])c5F)c5ccc([nH]5)c(-c5cccc(S(=O)(=O)[O-])c5F)c5nc(c(-c6cccc(S(=O)(=O)[O-])c6F)c6ccc3[nH]6)C=C5)C=C4)cc2)c1)c1ccccc1
REMARK SMILES IDX 23 1 22 2 20 3 21 4 19 5 14 6 15 7 16 8 18 9 17 10 12 11
REMARK SMILES IDX 11 12 13 14 10 15 6 16 7 17 91 18 8 19 9 20 4 21 3 22 5 24
REMARK SMILES IDX 2 25 1 26 92 27 93 28 97 29 94 30 96 31 95 32 24 33 25 34
REMARK SMILES IDX 26 35 27 36 28 37 29 38 90 39 30 40 89 41 31 42 32 43 33 44
REMARK SMILES IDX 83 45 34 46 88 47 82 48 84 49 35 50 87 51 81 52 80 53 36 55
REMARK SMILES IDX 68 56 48 57 67 58 49 59 52 60 66 61 85 62 50 63 51 64 65 66
REMARK SMILES IDX 86 67 53 68 37 69 38 70 46 71 39 72 41 73 47 74 40 75 42 76
REMARK SMILES IDX 43 77 44 78 45 79 69 80 70 81 78 82 71 83 73 84 79 85 72 86
REMARK SMILES IDX 74 87 75 88 76 89 77 90 54 91 55 92 63 93 56 94 58 95 64 96
REMARK SMILES IDX 57 97 59 98 60 99 61 100 62 101
REMARK H PARENT 11 13 3 23 84 54 52 65
REMARK Flexibility Score: inf
ROOT
ATOM      1  C   UNL     1       1.918  -4.950  -0.931  1.00  0.00     0.275 C 
ENDROOT
BRANCH   1   2
ATOM      2  O   UNL     1       3.165  -5.507  -1.390  1.00  0.00    -0.458 OA
BRANCH   2   3
ATOM      3  C   UNL     1       4.219  -5.197  -0.602  1.00  0.00     0.339 C 
ATOM      4  O   UNL     1       4.157  -4.599   0.464  1.00  0.00    -0.246 OA
BRANCH   3   5
ATOM      5  C   UNL     1       5.514  -5.599  -1.176  1.00  0.00     0.072 A 
ATOM      6  C   UNL     1       5.982  -5.070  -2.382  1.00  0.00     0.054 A 
ATOM      7  C   UNL     1       7.277  -5.393  -2.826  1.00  0.00     0.015 A 
ATOM      8  C   UNL     1       8.128  -6.169  -2.036  1.00  0.00     0.001 A 
ATOM      9  C   UNL     1       6.376  -6.390  -0.398  1.00  0.00     0.016 A 
ATOM     10  C   UNL     1       7.680  -6.660  -0.816  1.00  0.00     0.001 A 
BRANCH   6  11
ATOM     11  C   UNL     1       5.173  -4.210  -3.262  1.00  0.00     0.256 C 
ATOM     12  N   UNL     1       4.570  -3.046  -2.846  1.00  0.00    -0.322 N 
ATOM     13  H   UNL     1       3.944  -2.676  -3.510  1.00  0.00     0.170 HD
ATOM     14  O   UNL     1       5.010  -4.582  -4.425  1.00  0.00    -0.269 OA
BRANCH  12  15
ATOM     15  C   UNL     1       4.657  -2.273  -1.674  1.00  0.00     0.042 A 
ATOM     16  C   UNL     1       3.539  -0.668  -0.238  1.00  0.00     0.041 A 
ATOM     17  C   UNL     1       4.541  -0.820   0.724  1.00  0.00     0.014 A 
ATOM     18  C   UNL     1       3.606  -1.373  -1.442  1.00  0.00     0.040 A 
ATOM     19  C   UNL     1       5.620  -1.664   0.469  1.00  0.00     0.003 A 
ATOM     20  C   UNL     1       5.691  -2.365  -0.739  1.00  0.00     0.026 A 
BRANCH  16  21
ATOM     21  C   UNL     1       2.482   0.329   0.012  1.00  0.00     0.251 C 
ATOM     22  N   UNL     1       1.151   0.006  -0.025  1.00  0.00    -0.346 N 
ATOM     23  H   UNL     1       0.542   0.779   0.001  1.00  0.00     0.164 HD
ATOM     24  O   UNL     1       2.810   1.482   0.283  1.00  0.00    -0.269 OA
BRANCH  22  25
ATOM     25  C   UNL     1       0.483  -1.293  -0.097  1.00  0.00     0.109 C 
ATOM     26  C   UNL     1       0.762  -2.084   1.188  1.00  0.00     0.036 C 
BRANCH  25  27
ATOM     27  C   UNL     1      -1.036  -1.204  -0.312  1.00  0.00    -0.026 A 
ATOM     28  C   UNL     1      -1.770  -0.006  -0.269  1.00  0.00     0.006 A 
ATOM     29  C   UNL     1      -1.763  -2.398  -0.496  1.00  0.00     0.006 A 
ATOM     30  C   UNL     1      -3.169  -0.012  -0.329  1.00  0.00     0.000 A 
ATOM     31  C   UNL     1      -3.160  -2.404  -0.547  1.00  0.00     0.000 A 
ATOM     32  C   UNL     1      -3.865  -1.210  -0.448  1.00  0.00     0.000 A 
ENDBRANCH  25  27
ENDBRANCH  22  25
ENDBRANCH  16  21
ENDBRANCH  12  15
ENDBRANCH   6  11
ENDBRANCH   3   5
ENDBRANCH   2   3
ENDBRANCH   1   2
BRANCH   1  33
ATOM     33  C   UNL     1       1.111  -5.890  -0.031  1.00  0.00     0.275 C 
BRANCH  33  34
ATOM     34  O   UNL     1       1.730  -6.088   1.253  1.00  0.00    -0.458 OA
BRANCH  34  35
ATOM     35  C   UNL     1       2.530  -7.176   1.311  1.00  0.00     0.338 C 
ATOM     36  O   UNL     1       2.744  -7.976   0.415  1.00  0.00    -0.246 OA
BRANCH  35  37
ATOM     37  C   UNL     1       3.228  -7.271   2.599  1.00  0.00     0.060 A 
ATOM     38  C   UNL     1       4.493  -6.701   2.695  1.00  0.00     0.016 A 
ATOM     39  C   UNL     1       2.787  -8.161   3.574  1.00  0.00     0.016 A 
ATOM     40  C   UNL     1       5.391  -7.141   3.651  1.00  0.00     0.010 A 
ATOM     41  C   UNL     1       3.650  -8.502   4.621  1.00  0.00     0.010 A 
ATOM     42  C   UNL     1       4.980  -8.044   4.630  1.00  0.00    -0.014 A 
BRANCH  42  43
ATOM     43  C   UNL     1       5.967  -8.549   5.616  1.00  0.00     0.031 A 
ATOM     44  C   UNL     1       6.220 -10.028   5.719  1.00  0.00     0.074 A 
ATOM     45  C   UNL     1       6.644  -7.681   6.394  1.00  0.00     0.049 A 
ATOM     46  N   UNL     1       6.866 -10.693   6.638  1.00  0.00    -0.248 NA
ATOM     47  C   UNL     1       5.656 -10.877   4.653  1.00  0.00     0.031 C 
ATOM     48  C   UNL     1       6.532  -6.220   6.337  1.00  0.00     0.029 A 
ATOM     49  N   UNL     1       7.554  -7.900   7.396  1.00  0.00    -0.354 N 
ATOM     50  C   UNL     1       6.722 -12.036   6.309  1.00  0.00     0.074 A 
ATOM     51  C   UNL     1       5.932 -12.094   5.099  1.00  0.00     0.031 C 
ATOM     52  C   UNL     1       7.344  -5.676   7.254  1.00  0.00     0.029 A 
ATOM     53  C   UNL     1       7.952  -6.746   8.030  1.00  0.00     0.049 A 
ATOM     54  H   UNL     1       7.890  -8.794   7.637  1.00  0.00     0.167 HD
ATOM     55  C   UNL     1       7.210 -13.118   6.960  1.00  0.00     0.034 A 
ATOM     56  C   UNL     1       8.670  -6.571   9.155  1.00  0.00     0.034 A 
ATOM     57  C   UNL     1       8.039 -13.029   8.133  1.00  0.00     0.049 A 
ATOM     58  C   UNL     1       9.160  -7.790   9.881  1.00  0.00     0.074 A 
ATOM     59  C   UNL     1       8.598 -14.055   8.873  1.00  0.00     0.029 A 
ATOM     60  N   UNL     1       8.436 -11.841   8.729  1.00  0.00    -0.354 N 
ATOM     61  N   UNL     1       9.020  -9.054   9.560  1.00  0.00    -0.248 NA
ATOM     62  C   UNL     1       9.916  -7.561  11.118  1.00  0.00     0.031 C 
ATOM     63  C   UNL     1       9.316 -13.486   9.931  1.00  0.00     0.029 A 
ATOM     64  C   UNL     1       9.235 -12.106   9.827  1.00  0.00     0.049 A 
ATOM     65  H   UNL     1       8.186 -10.942   8.417  1.00  0.00     0.167 HD
ATOM     66  C   UNL     1       9.705  -9.770  10.533  1.00  0.00     0.074 A 
ATOM     67  C   UNL     1      10.277  -8.795  11.440  1.00  0.00     0.031 C 
ATOM     68  C   UNL     1       9.838 -11.111  10.676  1.00  0.00     0.034 A 
BRANCH  55  69
ATOM     69  C   UNL     1       6.869 -14.483   6.420  1.00  0.00     0.023 A 
ATOM     70  C   UNL     1       7.451 -14.933   5.218  1.00  0.00     0.012 A 
ATOM     71  C   UNL     1       6.011 -15.345   7.134  1.00  0.00     0.148 A 
ATOM     72  C   UNL     1       7.160 -16.203   4.718  1.00  0.00     0.002 A 
ATOM     73  C   UNL     1       5.763 -16.626   6.655  1.00  0.00     0.091 A 
ATOM     74  F   UNL     1       5.451 -14.894   8.266  1.00  0.00    -0.205 F 
ATOM     75  C   UNL     1       6.327 -17.052   5.441  1.00  0.00     0.022 A 
BRANCH  73  76
ATOM     76  S   UNL     1       4.766 -17.824   7.548  1.00  0.00     0.127 S 
ATOM     77  O   UNL     1       3.616 -17.975   6.658  1.00  0.00    -0.237 OA
ATOM     78  O   UNL     1       5.655 -18.985   7.597  1.00  0.00    -0.237 OA
ATOM     79  O   UNL     1       4.474 -17.223   8.842  1.00  0.00    -0.744 OA
ENDBRANCH  73  76
ENDBRANCH  55  69
BRANCH  56  80
ATOM     80  C   UNL     1       8.950  -5.200   9.668  1.00  0.00     0.023 A 
ATOM     81  C   UNL     1      10.277  -4.728   9.694  1.00  0.00     0.012 A 
ATOM     82  C   UNL     1       7.915  -4.358  10.124  1.00  0.00     0.148 A 
ATOM     83  C   UNL     1      10.572  -3.461  10.199  1.00  0.00     0.002 A 
ATOM     84  C   UNL     1       8.209  -3.074  10.566  1.00  0.00     0.091 A 
ATOM     85  F   UNL     1       6.659  -4.827  10.108  1.00  0.00    -0.205 F 
ATOM     86  C   UNL     1       9.538  -2.631  10.625  1.00  0.00     0.022 A 
BRANCH  84  87
ATOM     87  S   UNL     1       6.928  -1.893  11.002  1.00  0.00     0.127 S 
ATOM     88  O   UNL     1       7.052  -1.841  12.456  1.00  0.00    -0.237 OA
ATOM     89  O   UNL     1       7.375  -0.688  10.301  1.00  0.00    -0.237 OA
ATOM     90  O   UNL     1       5.686  -2.456  10.489  1.00  0.00    -0.744 OA
ENDBRANCH  84  87
ENDBRANCH  56  80
BRANCH  68  91
ATOM     91  C   UNL     1      10.690 -11.597  11.817  1.00  0.00     0.023 A 
ATOM     92  C   UNL     1      10.223 -11.494  13.142  1.00  0.00     0.012 A 
ATOM     93  C   UNL     1      11.934 -12.206  11.562  1.00  0.00     0.148 A 
ATOM     94  C   UNL     1      11.003 -11.954  14.202  1.00  0.00     0.002 A 
ATOM     95  C   UNL     1      12.678 -12.713  12.618  1.00  0.00     0.091 A 
ATOM     96  F   UNL     1      12.365 -12.274  10.295  1.00  0.00    -0.205 F 
ATOM     97  C   UNL     1      12.223 -12.573  13.939  1.00  0.00     0.022 A 
BRANCH  95  98
ATOM     98  S   UNL     1      14.210 -13.615  12.367  1.00  0.00     0.127 S 
ATOM     99  O   UNL     1      15.199 -12.671  12.883  1.00  0.00    -0.237 OA
ATOM    100  O   UNL     1      14.007 -14.802  13.198  1.00  0.00    -0.237 OA
ATOM    101  O   UNL     1      14.290 -13.884  10.938  1.00  0.00    -0.744 OA
ENDBRANCH  95  98
ENDBRANCH  68  91
ENDBRANCH  42  43
ENDBRANCH  35  37
ENDBRANCH  34  35
ENDBRANCH  33  34
ENDBRANCH   1  33
TORSDOF 19
