REMARK SMILES CN1N[C@H](C(=O)N[C@@H](CC2=c3ccccc3=NC2)C(=O)OCCOC(=O)c2ccc(-c3c4nc(c(-c5cccc(S(=O)(=O)[O-])c5F)c5ccc([nH]5)c(-c5cccc(S(=O)(=O)[O-])c5F)c5nc(c(-c6cccc(S(=O)(=O)[O-])c6F)c6ccc3[nH]6)C=C5)C=C4)cc2)c2ccccc2C1=O
REMARK SMILES IDX 23 1 22 2 21 3 19 4 20 5 8 6 7 7 5 8 6 9 4 11 1 12 2 13 3 14
REMARK SMILES IDX 96 15 95 17 97 18 90 19 94 20 91 21 93 22 92 23 9 24 10 25
REMARK SMILES IDX 11 26 18 27 12 28 16 29 17 30 13 31 15 32 14 33 24 34 25 35
REMARK SMILES IDX 26 36 27 37 28 38 89 39 29 40 88 41 30 42 31 43 32 44 82 45
REMARK SMILES IDX 33 46 87 47 81 48 83 49 34 50 86 51 80 52 79 53 35 55 67 56
REMARK SMILES IDX 47 57 66 58 48 59 51 60 65 61 84 62 49 63 50 64 64 66 85 67
REMARK SMILES IDX 52 68 36 69 37 70 45 71 38 72 40 73 46 74 39 75 41 76 42 77
REMARK SMILES IDX 43 78 44 79 68 80 69 81 77 82 70 83 72 84 78 85 71 86 73 87
REMARK SMILES IDX 74 88 75 89 76 90 53 91 54 92 62 93 55 94 57 95 63 96 56 97
REMARK SMILES IDX 58 98 59 99 60 100 61 101
REMARK H PARENT 7 10 3 16 83 54 51 65
REMARK Flexibility Score: inf
ROOT
ATOM      1  C   UNL     1      -2.954   3.876   7.751  1.00  0.00     0.275 C 
ENDROOT
BRANCH   1   2
ATOM      2  C   UNL     1      -1.541   3.470   8.166  1.00  0.00     0.274 C 
BRANCH   2   3
ATOM      3  O   UNL     1      -0.633   3.466   7.046  1.00  0.00    -0.461 OA
BRANCH   3   4
ATOM      4  C   UNL     1      -0.376   2.239   6.520  1.00  0.00     0.329 C 
ATOM      5  O   UNL     1      -0.866   1.195   6.941  1.00  0.00    -0.250 OA
BRANCH   4   6
ATOM      6  C   UNL     1       0.661   2.257   5.391  1.00  0.00     0.196 C 
BRANCH   6   7
ATOM      7  N   UNL     1       1.052   3.574   4.864  1.00  0.00    -0.341 N 
ATOM      8  C   UNL     1       1.391   3.995   3.612  1.00  0.00     0.244 C 
ATOM      9  O   UNL     1       1.960   5.092   3.534  1.00  0.00    -0.273 OA
ATOM     10  H   UNL     1       1.073   4.286   5.544  1.00  0.00     0.164 HD
BRANCH   8  11
ATOM     11  C   UNL     1       0.998   3.235   2.323  1.00  0.00     0.195 C 
ATOM     12  C   UNL     1       1.874   0.127   0.593  1.00  0.00     0.169 C 
ATOM     13  N   UNL     1       1.009   1.058   1.294  1.00  0.00    -0.276 N 
ATOM     14  N   UNL     1       1.522   1.853   2.360  1.00  0.00    -0.215 NA
ATOM     15  C   UNL     1      -0.354   1.051   0.984  1.00  0.00     0.268 C 
ATOM     16  H   UNL     1       2.539   1.885   2.287  1.00  0.00     0.149 HD
ATOM     17  C   UNL     1      -1.123   2.254   1.386  1.00  0.00     0.046 A 
ATOM     18  O   UNL     1      -0.897   0.149   0.356  1.00  0.00    -0.268 OA
ATOM     19  C   UNL     1      -0.484   3.316   2.037  1.00  0.00    -0.007 A 
ATOM     20  C   UNL     1      -2.467   2.358   1.008  1.00  0.00     0.014 A 
ATOM     21  C   UNL     1      -1.216   4.492   2.279  1.00  0.00     0.007 A 
ATOM     22  C   UNL     1      -3.187   3.518   1.285  1.00  0.00     0.001 A 
ATOM     23  C   UNL     1      -2.561   4.585   1.917  1.00  0.00     0.000 A 
ENDBRANCH   8  11
ENDBRANCH   6   7
BRANCH   6  24
ATOM     24  C   UNL     1       1.879   1.437   5.910  1.00  0.00     0.070 C 
BRANCH  24  25
ATOM     25  C   UNL     1       3.031   2.144   6.586  1.00  0.00    -0.037 C 
ATOM     26  C   UNL     1       3.164   3.362   7.113  1.00  0.00     0.001 A 
ATOM     27  C   UNL     1       4.401   1.533   6.459  1.00  0.00     0.174 C 
ATOM     28  C   UNL     1       2.343   4.396   7.657  1.00  0.00     0.010 A 
ATOM     29  C   UNL     1       4.524   3.674   6.612  1.00  0.00     0.065 A 
ATOM     30  N   UNL     1       5.299   2.688   6.272  1.00  0.00    -0.280 NA
ATOM     31  C   UNL     1       2.742   5.674   7.554  1.00  0.00     0.001 A 
ATOM     32  C   UNL     1       4.812   5.106   6.375  1.00  0.00     0.028 A 
ATOM     33  C   UNL     1       3.928   6.025   6.794  1.00  0.00     0.002 A 
ENDBRANCH  24  25
ENDBRANCH   6  24
ENDBRANCH   4   6
ENDBRANCH   3   4
ENDBRANCH   2   3
ENDBRANCH   1   2
BRANCH   1  34
ATOM     34  O   UNL     1      -3.544   2.916   6.856  1.00  0.00    -0.458 OA
BRANCH  34  35
ATOM     35  C   UNL     1      -3.377   3.196   5.544  1.00  0.00     0.338 C 
ATOM     36  O   UNL     1      -2.806   4.175   5.077  1.00  0.00    -0.246 OA
BRANCH  35  37
ATOM     37  C   UNL     1      -3.932   2.113   4.724  1.00  0.00     0.060 A 
ATOM     38  C   UNL     1      -5.282   2.121   4.363  1.00  0.00     0.016 A 
ATOM     39  C   UNL     1      -3.071   1.141   4.215  1.00  0.00     0.016 A 
ATOM     40  C   UNL     1      -5.769   1.142   3.487  1.00  0.00     0.010 A 
ATOM     41  C   UNL     1      -3.551   0.192   3.315  1.00  0.00     0.010 A 
ATOM     42  C   UNL     1      -4.905   0.175   2.946  1.00  0.00    -0.014 A 
BRANCH  42  43
ATOM     43  C   UNL     1      -5.382  -0.871   2.001  1.00  0.00     0.031 A 
ATOM     44  C   UNL     1      -5.331  -2.321   2.410  1.00  0.00     0.074 A 
ATOM     45  C   UNL     1      -5.747  -0.546   0.744  1.00  0.00     0.049 A 
ATOM     46  N   UNL     1      -5.652  -3.384   1.721  1.00  0.00    -0.248 NA
ATOM     47  C   UNL     1      -4.841  -2.614   3.769  1.00  0.00     0.031 C 
ATOM     48  C   UNL     1      -5.758   0.806   0.186  1.00  0.00     0.029 A 
ATOM     49  N   UNL     1      -6.132  -1.335  -0.312  1.00  0.00    -0.354 N 
ATOM     50  C   UNL     1      -5.388  -4.467   2.550  1.00  0.00     0.074 A 
ATOM     51  C   UNL     1      -4.832  -3.939   3.776  1.00  0.00     0.031 C 
ATOM     52  C   UNL     1      -6.061   0.748  -1.122  1.00  0.00     0.029 A 
ATOM     53  C   UNL     1      -6.311  -0.642  -1.488  1.00  0.00     0.049 A 
ATOM     54  H   UNL     1      -6.267  -2.308  -0.236  1.00  0.00     0.167 HD
ATOM     55  C   UNL     1      -5.646  -5.779   2.340  1.00  0.00     0.034 A 
ATOM     56  C   UNL     1      -6.661  -1.072  -2.716  1.00  0.00     0.034 A 
ATOM     57  C   UNL     1      -6.270  -6.294   1.154  1.00  0.00     0.049 A 
ATOM     58  C   UNL     1      -7.020  -2.521  -2.903  1.00  0.00     0.074 A 
ATOM     59  C   UNL     1      -6.693  -7.585   0.896  1.00  0.00     0.029 A 
ATOM     60  N   UNL     1      -6.570  -5.539   0.033  1.00  0.00    -0.354 N 
ATOM     61  N   UNL     1      -6.957  -3.501  -2.035  1.00  0.00    -0.248 NA
ATOM     62  C   UNL     1      -7.571  -2.910  -4.210  1.00  0.00     0.031 C 
ATOM     63  C   UNL     1      -7.270  -7.606  -0.378  1.00  0.00     0.029 A 
ATOM     64  C   UNL     1      -7.193  -6.330  -0.914  1.00  0.00     0.049 A 
ATOM     65  H   UNL     1      -6.370  -4.581  -0.074  1.00  0.00     0.167 HD
ATOM     66  C   UNL     1      -7.494  -4.611  -2.674  1.00  0.00     0.074 A 
ATOM     67  C   UNL     1      -7.888  -4.182  -4.000  1.00  0.00     0.031 C 
ATOM     68  C   UNL     1      -7.638  -5.874  -2.205  1.00  0.00     0.034 A 
BRANCH  55  69
ATOM     69  C   UNL     1      -5.383  -6.727   3.477  1.00  0.00     0.023 A 
ATOM     70  C   UNL     1      -6.288  -6.739   4.558  1.00  0.00     0.012 A 
ATOM     71  C   UNL     1      -4.301  -7.626   3.466  1.00  0.00     0.148 A 
ATOM     72  C   UNL     1      -6.107  -7.612   5.628  1.00  0.00     0.002 A 
ATOM     73  C   UNL     1      -4.141  -8.514   4.525  1.00  0.00     0.091 A 
ATOM     74  F   UNL     1      -3.456  -7.599   2.425  1.00  0.00    -0.205 F 
ATOM     75  C   UNL     1      -5.037  -8.501   5.609  1.00  0.00     0.022 A 
BRANCH  73  76
ATOM     76  S   UNL     1      -2.822  -9.731   4.597  1.00  0.00     0.127 S 
ATOM     77  O   UNL     1      -2.167  -9.387   5.859  1.00  0.00    -0.237 OA
ATOM     78  O   UNL     1      -3.570 -10.987   4.622  1.00  0.00    -0.237 OA
ATOM     79  O   UNL     1      -2.007  -9.517   3.409  1.00  0.00    -0.744 OA
ENDBRANCH  73  76
ENDBRANCH  55  69
BRANCH  56  80
ATOM     80  C   UNL     1      -6.830  -0.097  -3.829  1.00  0.00     0.023 A 
ATOM     81  C   UNL     1      -8.129   0.343  -4.151  1.00  0.00     0.012 A 
ATOM     82  C   UNL     1      -5.731   0.405  -4.552  1.00  0.00     0.148 A 
ATOM     83  C   UNL     1      -8.335   1.248  -5.192  1.00  0.00     0.002 A 
ATOM     84  C   UNL     1      -5.942   1.326  -5.574  1.00  0.00     0.091 A 
ATOM     85  F   UNL     1      -4.506  -0.031  -4.230  1.00  0.00    -0.205 F 
ATOM     86  C   UNL     1      -7.243   1.741  -5.901  1.00  0.00     0.022 A 
BRANCH  84  87
ATOM     87  S   UNL     1      -4.603   2.075  -6.511  1.00  0.00     0.127 S 
ATOM     88  O   UNL     1      -4.821   1.512  -7.843  1.00  0.00    -0.237 OA
ATOM     89  O   UNL     1      -4.912   3.500  -6.390  1.00  0.00    -0.237 OA
ATOM     90  O   UNL     1      -3.374   1.662  -5.848  1.00  0.00    -0.744 OA
ENDBRANCH  84  87
ENDBRANCH  56  80
BRANCH  68  91
ATOM     91  C   UNL     1      -8.260  -6.897  -3.111  1.00  0.00     0.023 A 
ATOM     92  C   UNL     1      -7.474  -7.490  -4.117  1.00  0.00     0.012 A 
ATOM     93  C   UNL     1      -9.571  -7.359  -2.885  1.00  0.00     0.148 A 
ATOM     94  C   UNL     1      -7.986  -8.530  -4.890  1.00  0.00     0.002 A 
ATOM     95  C   UNL     1     -10.063  -8.420  -3.637  1.00  0.00     0.091 A 
ATOM     96  F   UNL     1     -10.305  -6.764  -1.933  1.00  0.00    -0.205 F 
ATOM     97  C   UNL     1      -9.273  -9.004  -4.641  1.00  0.00     0.022 A 
BRANCH  95  98
ATOM     98  S   UNL     1     -11.675  -9.151  -3.331  1.00  0.00     0.127 S 
ATOM     99  O   UNL     1     -12.438  -8.685  -4.488  1.00  0.00    -0.237 OA
ATOM    100  O   UNL     1     -11.374 -10.583  -3.336  1.00  0.00    -0.237 OA
ATOM    101  O   UNL     1     -12.114  -8.632  -2.043  1.00  0.00    -0.744 OA
ENDBRANCH  95  98
ENDBRANCH  68  91
ENDBRANCH  42  43
ENDBRANCH  35  37
ENDBRANCH  34  35
ENDBRANCH   1  34
TORSDOF 18
