REMARK SMILES C[C@@H](CCC(=O)OCCOC(=O)c1ccc(-c2c3nc(c(-c4cccc(S(=O)(=O)[O-])c4F)c4ccc([nH]4)c(-c4cccc(S(=O)(=O)[O-])c4F)c4nc(c(-c5cccc(S(=O)(=O)[O-])c5F)c5ccc2[nH]5)C=C4)C=C3)cc1)[C@@H]1CC[C@H]2[C@@H]3CC[C@H]4CC(=O)CC[C@@]4(C)[C@H]3CC(=O)[C@@]21C
REMARK SMILES IDX 8 1 7 2 5 3 6 4 4 5 3 6 2 7 1 8 76 9 77 10 95 11 78 12 79 13
REMARK SMILES IDX 93 14 96 15 80 16 92 17 94 18 81 19 91 20 82 21 89 22 83 23
REMARK SMILES IDX 88 24 90 25 84 26 87 27 85 28 86 29 9 30 10 31 11 32 12 33
REMARK SMILES IDX 13 34 14 35 75 36 15 37 74 38 16 39 17 40 18 41 68 42 19 43
REMARK SMILES IDX 73 44 67 45 69 46 20 47 72 48 66 49 65 50 21 52 53 53 33 54
REMARK SMILES IDX 52 55 34 56 37 57 51 58 70 59 35 60 36 61 50 63 71 64 38 65
REMARK SMILES IDX 22 66 23 67 31 68 24 69 26 70 32 71 25 72 27 73 28 74 29 75
REMARK SMILES IDX 30 76 54 77 55 78 63 79 56 80 58 81 64 82 57 83 59 84 60 85
REMARK SMILES IDX 61 86 62 87 39 88 40 89 48 90 41 91 43 92 49 93 42 94 44 95
REMARK SMILES IDX 45 96 46 97 47 98
REMARK H PARENT 69 51 37 62
REMARK Flexibility Score: inf
ROOT
ATOM      1  C   UNL     1      -3.143  -1.225  -2.733  1.00  0.00     0.274 C 
ENDROOT
BRANCH   1   2
ATOM      2  O   UNL     1      -3.022   0.209  -2.512  1.00  0.00    -0.462 OA
BRANCH   2   3
ATOM      3  C   UNL     1      -2.477   0.929  -3.531  1.00  0.00     0.305 C 
ATOM      4  O   UNL     1      -2.217   0.427  -4.622  1.00  0.00    -0.252 OA
BRANCH   3   5
ATOM      5  C   UNL     1      -2.345   2.452  -3.308  1.00  0.00     0.123 C 
BRANCH   5   6
ATOM      6  C   UNL     1      -1.676   3.276  -2.155  1.00  0.00     0.015 C 
BRANCH   6   7
ATOM      7  C   UNL     1      -0.736   2.663  -1.037  1.00  0.00    -0.010 C 
ATOM      8  C   UNL     1       0.613   2.383  -1.684  1.00  0.00     0.008 C 
BRANCH   7   9
ATOM      9  C   UNL     1      -1.439   1.475  -0.361  1.00  0.00     0.005 C 
ATOM     10  C   UNL     1      -2.902   1.931  -0.137  1.00  0.00     0.005 C 
ATOM     11  C   UNL     1      -1.107   0.507   0.884  1.00  0.00     0.032 C 
ATOM     12  C   UNL     1      -3.498   0.847   0.666  1.00  0.00     0.005 C 
ATOM     13  C   UNL     1      -2.438   0.666   1.696  1.00  0.00     0.006 C 
ATOM     14  C   UNL     1      -0.138   0.632   2.069  1.00  0.00     0.139 C 
ATOM     15  C   UNL     1      -0.748  -0.899   0.306  1.00  0.00     0.020 C 
ATOM     16  C   UNL     1      -2.855  -0.346   2.749  1.00  0.00    -0.003 C 
ATOM     17  C   UNL     1      -0.343  -0.474   3.196  1.00  0.00     0.080 C 
ATOM     18  O   UNL     1       0.753   1.474   2.123  1.00  0.00    -0.299 OA
ATOM     19  C   UNL     1      -4.161   0.166   3.398  1.00  0.00     0.004 C 
ATOM     20  C   UNL     1      -1.767  -0.443   3.820  1.00  0.00     0.006 C 
ATOM     21  C   UNL     1      -4.616  -0.621   4.596  1.00  0.00     0.005 C 
ATOM     22  C   UNL     1      -2.202  -1.492   4.941  1.00  0.00    -0.025 C 
ATOM     23  C   UNL     1      -3.489  -0.899   5.610  1.00  0.00     0.002 C 
ATOM     24  C   UNL     1      -2.495  -2.959   4.466  1.00  0.00     0.015 C 
ATOM     25  C   UNL     1      -1.043  -1.564   5.963  1.00  0.00     0.012 C 
ATOM     26  C   UNL     1      -4.043  -1.788   6.719  1.00  0.00     0.079 C 
ATOM     27  C   UNL     1      -3.793  -3.658   4.938  1.00  0.00     0.076 C 
ATOM     28  C   UNL     1      -4.520  -3.090   6.143  1.00  0.00     0.133 C 
ATOM     29  O   UNL     1      -5.481  -3.681   6.639  1.00  0.00    -0.300 OA
ENDBRANCH   7   9
ENDBRANCH   6   7
ENDBRANCH   5   6
ENDBRANCH   3   5
ENDBRANCH   2   3
ENDBRANCH   1   2
BRANCH   1  30
ATOM     30  C   UNL     1      -3.987  -1.911  -1.645  1.00  0.00     0.275 C 
BRANCH  30  31
ATOM     31  O   UNL     1      -5.196  -1.159  -1.453  1.00  0.00    -0.458 OA
BRANCH  31  32
ATOM     32  C   UNL     1      -5.740  -1.192  -0.213  1.00  0.00     0.338 C 
ATOM     33  O   UNL     1      -5.441  -1.974   0.686  1.00  0.00    -0.246 OA
BRANCH  32  34
ATOM     34  C   UNL     1      -6.665  -0.040  -0.043  1.00  0.00     0.060 A 
ATOM     35  C   UNL     1      -6.599   1.083  -0.886  1.00  0.00     0.016 A 
ATOM     36  C   UNL     1      -7.582  -0.053   1.012  1.00  0.00     0.016 A 
ATOM     37  C   UNL     1      -7.513   2.129  -0.746  1.00  0.00     0.010 A 
ATOM     38  C   UNL     1      -8.532   0.964   1.117  1.00  0.00     0.010 A 
ATOM     39  C   UNL     1      -8.550   2.021   0.192  1.00  0.00    -0.014 A 
BRANCH  39  40
ATOM     40  C   UNL     1      -9.812   2.794   0.032  1.00  0.00     0.031 A 
ATOM     41  C   UNL     1     -10.321   3.709   1.104  1.00  0.00     0.074 A 
ATOM     42  C   UNL     1     -10.592   2.460  -1.019  1.00  0.00     0.049 A 
ATOM     43  N   UNL     1     -11.511   4.234   1.240  1.00  0.00    -0.248 NA
ATOM     44  C   UNL     1      -9.378   4.068   2.173  1.00  0.00     0.031 C 
ATOM     45  C   UNL     1     -10.211   1.528  -2.088  1.00  0.00     0.029 A 
ATOM     46  N   UNL     1     -11.886   2.797  -1.329  1.00  0.00    -0.354 N 
ATOM     47  C   UNL     1     -11.484   4.944   2.436  1.00  0.00     0.074 A 
ATOM     48  C   UNL     1     -10.148   4.792   2.978  1.00  0.00     0.031 C 
ATOM     49  C   UNL     1     -11.253   1.331  -2.903  1.00  0.00     0.029 A 
ATOM     50  C   UNL     1     -12.392   2.071  -2.386  1.00  0.00     0.049 A 
ATOM     51  H   UNL     1     -12.399   3.485  -0.847  1.00  0.00     0.167 HD
ATOM     52  C   UNL     1     -12.486   5.646   3.022  1.00  0.00     0.034 A 
ATOM     53  C   UNL     1     -13.647   1.958  -2.860  1.00  0.00     0.034 A 
ATOM     54  C   UNL     1     -13.808   5.773   2.458  1.00  0.00     0.049 A 
ATOM     55  C   UNL     1     -14.731   2.755  -2.201  1.00  0.00     0.074 A 
ATOM     56  C   UNL     1     -14.877   6.519   2.923  1.00  0.00     0.029 A 
ATOM     57  N   UNL     1     -14.251   5.115   1.318  1.00  0.00    -0.354 N 
ATOM     58  N   UNL     1     -14.655   3.527  -1.145  1.00  0.00    -0.248 NA
ATOM     59  C   UNL     1     -16.063   2.696  -2.814  1.00  0.00     0.031 C 
ATOM     60  C   UNL     1     -15.975   6.279   2.090  1.00  0.00     0.029 A 
ATOM     61  C   UNL     1     -15.579   5.424   1.074  1.00  0.00     0.049 A 
ATOM     62  H   UNL     1     -13.701   4.517   0.763  1.00  0.00     0.167 HD
ATOM     63  C   UNL     1     -15.918   4.077  -0.986  1.00  0.00     0.074 A 
ATOM     64  C   UNL     1     -16.735   3.559  -2.066  1.00  0.00     0.031 C 
ATOM     65  C   UNL     1     -16.364   4.927  -0.029  1.00  0.00     0.034 A 
BRANCH  52  66
ATOM     66  C   UNL     1     -12.200   6.335   4.337  1.00  0.00     0.023 A 
ATOM     67  C   UNL     1     -11.327   7.442   4.375  1.00  0.00     0.012 A 
ATOM     68  C   UNL     1     -12.841   5.928   5.526  1.00  0.00     0.148 A 
ATOM     69  C   UNL     1     -11.059   8.100   5.577  1.00  0.00     0.002 A 
ATOM     70  C   UNL     1     -12.604   6.617   6.712  1.00  0.00     0.091 A 
ATOM     71  F   UNL     1     -13.664   4.871   5.479  1.00  0.00    -0.205 F 
ATOM     72  C   UNL     1     -11.702   7.692   6.742  1.00  0.00     0.022 A 
BRANCH  70  73
ATOM     73  S   UNL     1     -13.442   6.224   8.253  1.00  0.00     0.127 S 
ATOM     74  O   UNL     1     -12.342   5.693   9.059  1.00  0.00    -0.237 OA
ATOM     75  O   UNL     1     -13.930   7.536   8.680  1.00  0.00    -0.237 OA
ATOM     76  O   UNL     1     -14.484   5.266   7.914  1.00  0.00    -0.744 OA
ENDBRANCH  70  73
ENDBRANCH  52  66
BRANCH  53  77
ATOM     77  C   UNL     1     -13.918   1.079  -4.033  1.00  0.00     0.023 A 
ATOM     78  C   UNL     1     -14.218   1.665  -5.277  1.00  0.00     0.012 A 
ATOM     79  C   UNL     1     -13.809  -0.324  -3.942  1.00  0.00     0.148 A 
ATOM     80  C   UNL     1     -14.434   0.871  -6.404  1.00  0.00     0.002 A 
ATOM     81  C   UNL     1     -13.969  -1.105  -5.081  1.00  0.00     0.091 A 
ATOM     82  F   UNL     1     -13.520  -0.863  -2.750  1.00  0.00    -0.205 F 
ATOM     83  C   UNL     1     -14.298  -0.511  -6.309  1.00  0.00     0.022 A 
BRANCH  81  84
ATOM     84  S   UNL     1     -13.675  -2.878  -5.088  1.00  0.00     0.127 S 
ATOM     85  O   UNL     1     -15.022  -3.403  -5.294  1.00  0.00    -0.237 OA
ATOM     86  O   UNL     1     -12.773  -3.029  -6.231  1.00  0.00    -0.237 OA
ATOM     87  O   UNL     1     -13.067  -3.183  -3.800  1.00  0.00    -0.744 OA
ENDBRANCH  81  84
ENDBRANCH  53  77
BRANCH  65  88
ATOM     88  C   UNL     1     -17.790   5.395  -0.137  1.00  0.00     0.023 A 
ATOM     89  C   UNL     1     -18.851   4.513   0.147  1.00  0.00     0.012 A 
ATOM     90  C   UNL     1     -18.072   6.736  -0.464  1.00  0.00     0.148 A 
ATOM     91  C   UNL     1     -20.173   4.951   0.076  1.00  0.00     0.002 A 
ATOM     92  C   UNL     1     -19.387   7.179  -0.477  1.00  0.00     0.091 A 
ATOM     93  F   UNL     1     -17.047   7.551  -0.754  1.00  0.00    -0.205 F 
ATOM     94  C   UNL     1     -20.439   6.286  -0.222  1.00  0.00     0.022 A 
BRANCH  92  95
ATOM     95  S   UNL     1     -19.819   8.901  -0.749  1.00  0.00     0.127 S 
ATOM     96  O   UNL     1     -20.469   8.841  -2.057  1.00  0.00    -0.237 OA
ATOM     97  O   UNL     1     -20.722   9.171   0.370  1.00  0.00    -0.237 OA
ATOM     98  O   UNL     1     -18.566   9.643  -0.710  1.00  0.00    -0.744 OA
ENDBRANCH  92  95
ENDBRANCH  65  88
ENDBRANCH  39  40
ENDBRANCH  32  34
ENDBRANCH  31  32
ENDBRANCH  30  31
ENDBRANCH   1  30
TORSDOF 17
