REMARK SMILES COc1ccc2cc([C@@H](C)C(=O)OCCOC(=O)c3ccc(-c4c5nc(c(-c6cccc(S(=O)(=O)[O-])c6F)c6ccc([nH]6)c(-c6cccc(S(=O)(=O)[O-])c6F)c6nc(c(-c7cccc(S(=O)(=O)[O-])c7F)c7ccc4[nH]7)C=C6)C=C5)cc3)ccc2c1
REMARK SMILES IDX 15 1 14 2 13 3 11 4 12 5 9 6 10 7 8 8 3 9 4 10 85 11 5 12
REMARK SMILES IDX 84 13 6 14 83 15 7 16 82 17 2 18 1 19 16 20 17 21 18 22
REMARK SMILES IDX 19 23 20 24 81 25 21 26 80 27 22 28 23 29 24 30 74 31 25 32
REMARK SMILES IDX 79 33 73 34 75 35 26 36 78 37 72 38 71 39 27 41 59 42 39 43
REMARK SMILES IDX 58 44 40 45 43 46 57 47 76 48 41 49 42 50 56 52 77 53 44 54
REMARK SMILES IDX 28 55 29 56 37 57 30 58 32 59 38 60 31 61 33 62 34 63 35 64
REMARK SMILES IDX 36 65 60 66 61 67 69 68 62 69 64 70 70 71 63 72 65 73 66 74
REMARK SMILES IDX 67 75 68 76 45 77 46 78 54 79 47 80 49 81 55 82 48 83 50 84
REMARK SMILES IDX 51 85 52 86 53 87
REMARK H PARENT 75 40 43 51
REMARK Flexibility Score: inf
ROOT
ATOM      1  C   UNL     1       4.156  -6.423   6.994  1.00  0.00     0.275 C 
ENDROOT
BRANCH   1   2
ATOM      2  C   UNL     1       4.691  -7.143   5.754  1.00  0.00     0.274 C 
BRANCH   2   3
ATOM      3  O   UNL     1       3.756  -7.069   4.660  1.00  0.00    -0.462 OA
BRANCH   3   4
ATOM      4  C   UNL     1       3.013  -8.179   4.414  1.00  0.00     0.313 C 
ATOM      5  O   UNL     1       3.155  -9.246   5.003  1.00  0.00    -0.252 OA
BRANCH   4   6
ATOM      6  C   UNL     1       2.010  -8.015   3.277  1.00  0.00     0.126 C 
ATOM      7  C   UNL     1       2.546  -8.692   2.017  1.00  0.00     0.025 C 
BRANCH   6   8
ATOM      8  C   UNL     1       1.521  -6.600   3.003  1.00  0.00    -0.033 A 
ATOM      9  C   UNL     1       0.930  -1.757   1.578  1.00  0.00     0.119 A 
ATOM     10  C   UNL     1       2.269  -2.066   1.353  1.00  0.00     0.047 A 
ATOM     11  C   UNL     1       0.085  -2.705   2.156  1.00  0.00     0.055 A 
ATOM     12  C   UNL     1       2.750  -3.342   1.653  1.00  0.00     0.012 A 
ATOM     13  C   UNL     1       0.552  -3.995   2.454  1.00  0.00    -0.015 A 
ATOM     14  C   UNL     1       1.899  -4.322   2.187  1.00  0.00    -0.018 A 
ATOM     15  C   UNL     1      -0.289  -4.971   3.006  1.00  0.00     0.009 A 
ATOM     16  C   UNL     1       2.365  -5.618   2.462  1.00  0.00     0.013 A 
ATOM     17  C   UNL     1       0.189  -6.256   3.275  1.00  0.00     0.005 A 
BRANCH   9  18
ATOM     18  O   UNL     1       0.371  -0.538   1.304  1.00  0.00    -0.497 OA
ATOM     19  C   UNL     1       0.795   0.020   0.063  1.00  0.00     0.278 C 
ENDBRANCH   9  18
ENDBRANCH   6   8
ENDBRANCH   4   6
ENDBRANCH   3   4
ENDBRANCH   2   3
ENDBRANCH   1   2
BRANCH   1  20
ATOM     20  O   UNL     1       3.041  -7.127   7.568  1.00  0.00    -0.458 OA
BRANCH  20  21
ATOM     21  C   UNL     1       1.825  -6.689   7.166  1.00  0.00     0.338 C 
ATOM     22  O   UNL     1       1.584  -5.753   6.425  1.00  0.00    -0.246 OA
BRANCH  21  23
ATOM     23  C   UNL     1       0.783  -7.597   7.665  1.00  0.00     0.060 A 
ATOM     24  C   UNL     1       0.060  -8.341   6.730  1.00  0.00     0.016 A 
ATOM     25  C   UNL     1       0.456  -7.643   9.019  1.00  0.00     0.016 A 
ATOM     26  C   UNL     1      -1.017  -9.120   7.141  1.00  0.00     0.010 A 
ATOM     27  C   UNL     1      -0.621  -8.432   9.433  1.00  0.00     0.010 A 
ATOM     28  C   UNL     1      -1.377  -9.156   8.493  1.00  0.00    -0.014 A 
BRANCH  28  29
ATOM     29  C   UNL     1      -2.584  -9.906   8.912  1.00  0.00     0.031 A 
ATOM     30  C   UNL     1      -3.830  -9.158   9.291  1.00  0.00     0.074 A 
ATOM     31  C   UNL     1      -2.557 -11.251   8.951  1.00  0.00     0.049 A 
ATOM     32  N   UNL     1      -4.968  -9.623   9.734  1.00  0.00    -0.248 NA
ATOM     33  C   UNL     1      -3.790  -7.693   9.156  1.00  0.00     0.031 C 
ATOM     34  C   UNL     1      -1.405 -12.082   8.599  1.00  0.00     0.029 A 
ATOM     35  N   UNL     1      -3.522 -12.153   9.323  1.00  0.00    -0.354 N 
ATOM     36  C   UNL     1      -5.766  -8.511   9.970  1.00  0.00     0.074 A 
ATOM     37  C   UNL     1      -4.982  -7.346   9.621  1.00  0.00     0.031 C 
ATOM     38  C   UNL     1      -1.724 -13.372   8.788  1.00  0.00     0.029 A 
ATOM     39  C   UNL     1      -3.090 -13.457   9.301  1.00  0.00     0.049 A 
ATOM     40  H   UNL     1      -4.435 -11.891   9.580  1.00  0.00     0.167 HD
ATOM     41  C   UNL     1      -7.042  -8.466  10.422  1.00  0.00     0.034 A 
ATOM     42  C   UNL     1      -3.718 -14.590   9.671  1.00  0.00     0.034 A 
ATOM     43  C   UNL     1      -7.831  -9.629  10.728  1.00  0.00     0.049 A 
ATOM     44  C   UNL     1      -5.138 -14.511  10.164  1.00  0.00     0.074 A 
ATOM     45  C   UNL     1      -9.146  -9.688  11.155  1.00  0.00     0.029 A 
ATOM     46  N   UNL     1      -7.379 -10.936  10.639  1.00  0.00    -0.354 N 
ATOM     47  N   UNL     1      -5.911 -13.459  10.286  1.00  0.00    -0.248 NA
ATOM     48  C   UNL     1      -5.782 -15.777  10.544  1.00  0.00     0.031 C 
ATOM     49  C   UNL     1      -9.487 -11.034  11.330  1.00  0.00     0.029 A 
ATOM     50  C   UNL     1      -8.388 -11.812  11.003  1.00  0.00     0.049 A 
ATOM     51  H   UNL     1      -6.474 -11.203  10.357  1.00  0.00     0.167 HD
ATOM     52  C   UNL     1      -7.139 -13.937  10.728  1.00  0.00     0.074 A 
ATOM     53  C   UNL     1      -7.014 -15.377  10.832  1.00  0.00     0.031 C 
ATOM     54  C   UNL     1      -8.263 -13.246  11.040  1.00  0.00     0.034 A 
BRANCH  41  55
ATOM     55  C   UNL     1      -7.678  -7.112  10.578  1.00  0.00     0.023 A 
ATOM     56  C   UNL     1      -8.116  -6.417   9.432  1.00  0.00     0.012 A 
ATOM     57  C   UNL     1      -7.891  -6.551  11.851  1.00  0.00     0.148 A 
ATOM     58  C   UNL     1      -8.733  -5.172   9.550  1.00  0.00     0.002 A 
ATOM     59  C   UNL     1      -8.538  -5.325  11.963  1.00  0.00     0.091 A 
ATOM     60  F   UNL     1      -7.442  -7.214  12.927  1.00  0.00    -0.205 F 
ATOM     61  C   UNL     1      -8.953  -4.632  10.815  1.00  0.00     0.022 A 
BRANCH  59  62
ATOM     62  S   UNL     1      -8.924  -4.583  13.554  1.00  0.00     0.127 S 
ATOM     63  O   UNL     1      -7.906  -3.538  13.647  1.00  0.00    -0.237 OA
ATOM     64  O   UNL     1     -10.286  -4.091  13.347  1.00  0.00    -0.237 OA
ATOM     65  O   UNL     1      -8.814  -5.659  14.530  1.00  0.00    -0.744 OA
ENDBRANCH  59  62
ENDBRANCH  41  55
BRANCH  42  66
ATOM     66  C   UNL     1      -3.020 -15.900   9.540  1.00  0.00     0.023 A 
ATOM     67  C   UNL     1      -3.442 -16.811   8.553  1.00  0.00     0.012 A 
ATOM     68  C   UNL     1      -1.922 -16.231  10.357  1.00  0.00     0.148 A 
ATOM     69  C   UNL     1      -2.795 -18.038   8.396  1.00  0.00     0.002 A 
ATOM     70  C   UNL     1      -1.249 -17.432  10.159  1.00  0.00     0.091 A 
ATOM     71  F   UNL     1      -1.550 -15.362  11.308  1.00  0.00    -0.205 F 
ATOM     72  C   UNL     1      -1.692 -18.343   9.189  1.00  0.00     0.022 A 
BRANCH  70  73
ATOM     73  S   UNL     1       0.258 -17.837  11.050  1.00  0.00     0.127 S 
ATOM     74  O   UNL     1      -0.228 -18.789  12.045  1.00  0.00    -0.237 OA
ATOM     75  O   UNL     1       1.092 -18.419   9.997  1.00  0.00    -0.237 OA
ATOM     76  O   UNL     1       0.754 -16.568  11.567  1.00  0.00    -0.744 OA
ENDBRANCH  70  73
ENDBRANCH  42  66
BRANCH  54  77
ATOM     77  C   UNL     1      -9.460 -14.034  11.501  1.00  0.00     0.023 A 
ATOM     78  C   UNL     1      -9.482 -14.561  12.807  1.00  0.00     0.012 A 
ATOM     79  C   UNL     1     -10.591 -14.182  10.675  1.00  0.00     0.148 A 
ATOM     80  C   UNL     1     -10.603 -15.246  13.276  1.00  0.00     0.002 A 
ATOM     81  C   UNL     1     -11.720 -14.831  11.163  1.00  0.00     0.091 A 
ATOM     82  F   UNL     1     -10.542 -13.694   9.427  1.00  0.00    -0.205 F 
ATOM     83  C   UNL     1     -11.725 -15.370  12.459  1.00  0.00     0.022 A 
BRANCH  81  84
ATOM     84  S   UNL     1     -13.235 -14.954  10.205  1.00  0.00     0.127 S 
ATOM     85  O   UNL     1     -13.158 -16.323   9.698  1.00  0.00    -0.237 OA
ATOM     86  O   UNL     1     -14.269 -14.737  11.219  1.00  0.00    -0.237 OA
ATOM     87  O   UNL     1     -13.153 -13.902   9.200  1.00  0.00    -0.744 OA
ENDBRANCH  81  84
ENDBRANCH  54  77
ENDBRANCH  28  29
ENDBRANCH  21  23
ENDBRANCH  20  21
ENDBRANCH   1  20
TORSDOF 16
