REMARK SMILES Cn1nc(N2CCC(CC(=O)OCCOC(=O)c3ccc(-c4c5nc(c(-c6cccc(S(=O)(=O)[O-])c6F)c6ccc([nH]6)c(-c6cccc(S(=O)(=O)[O-])c6F)c6nc(c(-c7cccc(S(=O)(=O)[O-])c7F)c7ccc4[nH]7)C=C6)C=C5)cc3)CC2)c(=O)n(C)c1=O
REMARK SMILES IDX 14 1 13 2 12 3 10 4 11 5 9 6 8 7 5 8 6 9 82 10 7 11 81 12
REMARK SMILES IDX 4 13 1 14 2 15 3 16 87 17 85 18 88 19 83 20 86 21 84 22
REMARK SMILES IDX 15 23 16 24 17 25 18 26 19 27 80 28 20 29 79 30 21 31 22 32
REMARK SMILES IDX 23 33 73 34 24 35 78 36 72 37 74 38 25 39 77 40 71 41 70 42
REMARK SMILES IDX 26 44 58 45 38 46 57 47 39 48 42 49 56 50 75 51 40 52 41 53
REMARK SMILES IDX 55 55 76 56 43 57 27 58 28 59 36 60 29 61 31 62 37 63 30 64
REMARK SMILES IDX 32 65 33 66 34 67 35 68 59 69 60 70 68 71 61 72 63 73 69 74
REMARK SMILES IDX 62 75 64 76 65 77 66 78 67 79 44 80 45 81 53 82 46 83 48 84
REMARK SMILES IDX 54 85 47 86 49 87 50 88 51 89 52 90
REMARK H PARENT 74 43 42 54
REMARK Flexibility Score: inf
ROOT
ATOM      1  C   UNL     1      -6.141   0.335   7.042  1.00  0.00     0.275 C 
ENDROOT
BRANCH   1   2
ATOM      2  C   UNL     1      -5.710  -0.728   6.030  1.00  0.00     0.274 C 
BRANCH   2   3
ATOM      3  O   UNL     1      -5.178  -0.121   4.837  1.00  0.00    -0.462 OA
BRANCH   3   4
ATOM      4  C   UNL     1      -5.994  -0.064   3.757  1.00  0.00     0.306 C 
ATOM      5  O   UNL     1      -7.121  -0.541   3.709  1.00  0.00    -0.252 OA
BRANCH   4   6
ATOM      6  C   UNL     1      -5.338   0.590   2.556  1.00  0.00     0.126 C 
BRANCH   6   7
ATOM      7  C   UNL     1      -4.448   1.815   2.833  1.00  0.00     0.003 C 
ATOM      8  N   UNL     1      -2.014   3.250   2.211  1.00  0.00    -0.351 N 
ATOM      9  C   UNL     1      -2.128   2.589   3.500  1.00  0.00     0.118 C 
ATOM     10  C   UNL     1      -3.267   3.791   1.696  1.00  0.00     0.118 C 
ATOM     11  C   UNL     1      -3.072   1.401   3.389  1.00  0.00     0.026 C 
ATOM     12  C   UNL     1      -4.277   2.647   1.539  1.00  0.00     0.026 C 
BRANCH   8  13
ATOM     13  C   UNL     1      -0.933   3.006   1.376  1.00  0.00     0.215 A 
ATOM     14  C   UNL     1       0.958   0.213   0.150  1.00  0.00     0.180 C 
ATOM     15  N   UNL     1       0.609   1.600   0.401  1.00  0.00    -0.216 N 
ATOM     16  N   UNL     1      -0.480   1.798   1.202  1.00  0.00    -0.145 NA
ATOM     17  C   UNL     1       1.363   2.609  -0.190  1.00  0.00     0.346 A 
ATOM     18  N   UNL     1       0.933   3.901   0.034  1.00  0.00    -0.259 N 
ATOM     19  O   UNL     1       2.350   2.357  -0.886  1.00  0.00    -0.246 OA
ATOM     20  C   UNL     1      -0.240   4.194   0.698  1.00  0.00     0.299 A 
ATOM     21  C   UNL     1       1.690   5.015  -0.495  1.00  0.00     0.159 C 
ATOM     22  O   UNL     1      -0.719   5.319   0.799  1.00  0.00    -0.265 OA
ENDBRANCH   8  13
ENDBRANCH   6   7
ENDBRANCH   4   6
ENDBRANCH   3   4
ENDBRANCH   2   3
ENDBRANCH   1   2
BRANCH   1  23
ATOM     23  O   UNL     1      -7.330   1.012   6.602  1.00  0.00    -0.458 OA
BRANCH  23  24
ATOM     24  C   UNL     1      -7.126   2.176   5.942  1.00  0.00     0.338 C 
ATOM     25  O   UNL     1      -6.064   2.739   5.745  1.00  0.00    -0.246 OA
BRANCH  24  26
ATOM     26  C   UNL     1      -8.401   2.627   5.367  1.00  0.00     0.060 A 
ATOM     27  C   UNL     1      -8.552   2.598   3.978  1.00  0.00     0.016 A 
ATOM     28  C   UNL     1      -9.415   3.124   6.186  1.00  0.00     0.016 A 
ATOM     29  C   UNL     1      -9.727   3.072   3.398  1.00  0.00     0.010 A 
ATOM     30  C   UNL     1     -10.594   3.596   5.603  1.00  0.00     0.010 A 
ATOM     31  C   UNL     1     -10.752   3.584   4.206  1.00  0.00    -0.014 A 
BRANCH  31  32
ATOM     32  C   UNL     1     -11.977   4.140   3.586  1.00  0.00     0.031 A 
ATOM     33  C   UNL     1     -12.176   5.628   3.532  1.00  0.00     0.074 A 
ATOM     34  C   UNL     1     -12.903   3.309   3.071  1.00  0.00     0.049 A 
ATOM     35  N   UNL     1     -13.196   6.307   3.077  1.00  0.00    -0.248 NA
ATOM     36  C   UNL     1     -11.082   6.463   4.055  1.00  0.00     0.031 C 
ATOM     37  C   UNL     1     -12.803   1.850   3.047  1.00  0.00     0.029 A 
ATOM     38  N   UNL     1     -14.111   3.573   2.478  1.00  0.00    -0.354 N 
ATOM     39  C   UNL     1     -12.879   7.645   3.273  1.00  0.00     0.074 A 
ATOM     40  C   UNL     1     -11.577   7.684   3.904  1.00  0.00     0.031 C 
ATOM     41  C   UNL     1     -13.905   1.346   2.468  1.00  0.00     0.029 A 
ATOM     42  C   UNL     1     -14.804   2.442   2.113  1.00  0.00     0.049 A 
ATOM     43  H   UNL     1     -14.451   4.485   2.327  1.00  0.00     0.167 HD
ATOM     44  C   UNL     1     -13.598   8.741   2.936  1.00  0.00     0.034 A 
ATOM     45  C   UNL     1     -16.029   2.306   1.567  1.00  0.00     0.034 A 
ATOM     46  C   UNL     1     -14.883   8.696   2.292  1.00  0.00     0.049 A 
ATOM     47  C   UNL     1     -16.828   3.542   1.251  1.00  0.00     0.074 A 
ATOM     48  C   UNL     1     -15.690   9.753   1.909  1.00  0.00     0.029 A 
ATOM     49  N   UNL     1     -15.549   7.534   1.931  1.00  0.00    -0.354 N 
ATOM     50  N   UNL     1     -16.486   4.802   1.380  1.00  0.00    -0.248 NA
ATOM     51  C   UNL     1     -18.175   3.341   0.696  1.00  0.00     0.031 C 
ATOM     52  C   UNL     1     -16.848   9.230   1.327  1.00  0.00     0.029 A 
ATOM     53  C   UNL     1     -16.757   7.848   1.333  1.00  0.00     0.049 A 
ATOM     54  H   UNL     1     -15.212   6.621   2.079  1.00  0.00     0.167 HD
ATOM     55  C   UNL     1     -17.559   5.542   0.896  1.00  0.00     0.074 A 
ATOM     56  C   UNL     1     -18.556   4.589   0.451  1.00  0.00     0.031 C 
ATOM     57  C   UNL     1     -17.714   6.888   0.844  1.00  0.00     0.034 A 
BRANCH  44  58
ATOM     58  C   UNL     1     -12.992  10.092   3.210  1.00  0.00     0.023 A 
ATOM     59  C   UNL     1     -11.953  10.559   2.380  1.00  0.00     0.012 A 
ATOM     60  C   UNL     1     -13.497  10.928   4.224  1.00  0.00     0.148 A 
ATOM     61  C   UNL     1     -11.414  11.831   2.565  1.00  0.00     0.002 A 
ATOM     62  C   UNL     1     -12.980  12.210   4.379  1.00  0.00     0.091 A 
ATOM     63  F   UNL     1     -14.470  10.456   5.016  1.00  0.00    -0.205 F 
ATOM     64  C   UNL     1     -11.934  12.659   3.556  1.00  0.00     0.022 A 
BRANCH  62  65
ATOM     65  S   UNL     1     -13.628  13.381   5.577  1.00  0.00     0.127 S 
ATOM     66  O   UNL     1     -12.527  13.460   6.537  1.00  0.00    -0.237 OA
ATOM     67  O   UNL     1     -13.816  14.582   4.764  1.00  0.00    -0.237 OA
ATOM     68  O   UNL     1     -14.859  12.794   6.089  1.00  0.00    -0.744 OA
ENDBRANCH  62  65
ENDBRANCH  44  58
BRANCH  45  69
ATOM     69  C   UNL     1     -16.545   0.949   1.228  1.00  0.00     0.023 A 
ATOM     70  C   UNL     1     -16.684   0.588  -0.126  1.00  0.00     0.012 A 
ATOM     71  C   UNL     1     -16.855   0.003   2.225  1.00  0.00     0.148 A 
ATOM     72  C   UNL     1     -17.138  -0.683  -0.482  1.00  0.00     0.002 A 
ATOM     73  C   UNL     1     -17.253  -1.279   1.864  1.00  0.00     0.091 A 
ATOM     74  F   UNL     1     -16.739   0.372   3.509  1.00  0.00    -0.205 F 
ATOM     75  C   UNL     1     -17.409  -1.620   0.511  1.00  0.00     0.022 A 
BRANCH  73  76
ATOM     76  S   UNL     1     -17.494  -2.588   3.071  1.00  0.00     0.127 S 
ATOM     77  O   UNL     1     -18.948  -2.735   3.067  1.00  0.00    -0.237 OA
ATOM     78  O   UNL     1     -16.761  -3.700   2.465  1.00  0.00    -0.237 OA
ATOM     79  O   UNL     1     -16.911  -2.091   4.309  1.00  0.00    -0.744 OA
ENDBRANCH  73  76
ENDBRANCH  45  69
BRANCH  57  80
ATOM     80  C   UNL     1     -19.000   7.428   0.275  1.00  0.00     0.023 A 
ATOM     81  C   UNL     1     -20.180   7.359   1.041  1.00  0.00     0.012 A 
ATOM     82  C   UNL     1     -19.016   8.102  -0.963  1.00  0.00     0.148 A 
ATOM     83  C   UNL     1     -21.361   7.935   0.577  1.00  0.00     0.002 A 
ATOM     84  C   UNL     1     -20.186   8.714  -1.398  1.00  0.00     0.091 A 
ATOM     85  F   UNL     1     -17.887   8.142  -1.685  1.00  0.00    -0.205 F 
ATOM     86  C   UNL     1     -21.361   8.624  -0.634  1.00  0.00     0.022 A 
BRANCH  84  87
ATOM     87  S   UNL     1     -20.256   9.707  -2.895  1.00  0.00     0.127 S 
ATOM     88  O   UNL     1     -21.001   8.832  -3.798  1.00  0.00    -0.237 OA
ATOM     89  O   UNL     1     -20.989  10.892  -2.449  1.00  0.00    -0.237 OA
ATOM     90  O   UNL     1     -18.871   9.961  -3.271  1.00  0.00    -0.744 OA
ENDBRANCH  84  87
ENDBRANCH  57  80
ENDBRANCH  31  32
ENDBRANCH  24  26
ENDBRANCH  23  24
ENDBRANCH   1  23
TORSDOF 16
