REMARK SMILES CC[NH2+][C@]1(C(=O)OCCOC(=O)c2ccc(-c3c4nc(c(-c5cccc(S(=O)(=O)[O-])c5F)c5ccc([nH]5)c(-c5cccc(S(=O)(=O)[O-])c5F)c5nc(c(-c6cccc(S(=O)(=O)[O-])c6F)c6ccc3[nH]6)C=C5)C=C4)cc2)CCC[C@@H]1CCSc1ccc(C)cc1
REMARK SMILES IDX 8 1 7 2 5 3 6 4 4 5 76 6 79 7 77 8 78 9 3 10 2 13 1 14 80 15
REMARK SMILES IDX 81 16 82 17 83 18 84 19 89 20 85 21 88 22 86 23 87 24 9 25
REMARK SMILES IDX 10 26 11 27 12 28 13 29 14 30 75 31 15 32 74 33 16 34 17 35
REMARK SMILES IDX 18 36 68 37 19 38 73 39 67 40 69 41 20 42 72 43 66 44 65 45
REMARK SMILES IDX 21 47 53 48 33 49 52 50 34 51 37 52 51 53 70 54 35 55 36 56
REMARK SMILES IDX 50 58 71 59 38 60 22 61 23 62 31 63 24 64 26 65 32 66 25 67
REMARK SMILES IDX 27 68 28 69 29 70 30 71 54 72 55 73 63 74 56 75 58 76 64 77
REMARK SMILES IDX 57 78 59 79 60 80 61 81 62 82 39 83 40 84 48 85 41 86 43 87
REMARK SMILES IDX 49 88 42 89 44 90 45 91 46 92 47 93
REMARK H PARENT 3 11 3 12 69 46 37 57
REMARK Flexibility Score: inf
ROOT
ATOM      1  C   UNL     1       1.789   0.418   0.656  1.00  0.00     0.274 C 
ENDROOT
BRANCH   1   2
ATOM      2  O   UNL     1       1.321  -0.398   1.764  1.00  0.00    -0.457 OA
BRANCH   2   3
ATOM      3  C   UNL     1       0.444   0.123   2.689  1.00  0.00     0.368 C 
ATOM      4  O   UNL     1      -0.290   1.036   2.410  1.00  0.00    -0.245 OA
BRANCH   3   5
ATOM      5  C   UNL     1       0.424  -0.593   4.096  1.00  0.00     0.197 C 
ATOM      6  C   UNL     1      -1.037  -0.773   4.476  1.00  0.00     0.081 C 
ATOM      7  C   UNL     1       0.966  -1.953   3.849  1.00  0.00     0.063 C 
ATOM      8  C   UNL     1      -0.988  -1.956   5.415  1.00  0.00     0.008 C 
ATOM      9  C   UNL     1       0.238  -2.795   4.941  1.00  0.00     0.011 C 
BRANCH   5  10
ATOM     10  N   UNL     1       1.134   0.029   5.285  1.00  0.00    -0.332 N 
ATOM     11  H   UNL     1       1.795   0.691   4.879  1.00  0.00     0.347 HD
ATOM     12  H   UNL     1       0.321   0.309   5.833  1.00  0.00     0.347 HD
BRANCH  10  13
ATOM     13  C   UNL     1       1.896  -0.678   6.332  1.00  0.00     0.257 C 
ATOM     14  C   UNL     1       2.933   0.221   7.035  1.00  0.00     0.071 C 
ENDBRANCH  10  13
ENDBRANCH   5  10
BRANCH   7  15
ATOM     15  C   UNL     1       2.513  -1.756   3.650  1.00  0.00     0.022 C 
BRANCH  15  16
ATOM     16  C   UNL     1       3.279  -0.244   3.621  1.00  0.00     0.075 C 
BRANCH  16  17
ATOM     17  S   UNL     1       2.954   1.882   3.652  1.00  0.00    -0.126 SA
BRANCH  17  18
ATOM     18  C   UNL     1       1.352   2.692   4.213  1.00  0.00     0.007 A 
ATOM     19  C   UNL     1       0.873   2.715   5.537  1.00  0.00     0.015 A 
ATOM     20  C   UNL     1       0.525   3.321   3.273  1.00  0.00     0.015 A 
ATOM     21  C   UNL     1      -0.495   2.935   5.822  1.00  0.00     0.004 A 
ATOM     22  C   UNL     1      -0.840   3.584   3.559  1.00  0.00     0.004 A 
ATOM     23  C   UNL     1      -1.386   3.277   4.807  1.00  0.00    -0.051 A 
ATOM     24  C   UNL     1      -2.875   3.210   5.034  1.00  0.00     0.044 C 
ENDBRANCH  17  18
ENDBRANCH  16  17
ENDBRANCH  15  16
ENDBRANCH   7  15
ENDBRANCH   3   5
ENDBRANCH   2   3
ENDBRANCH   1   2
BRANCH   1  25
ATOM     25  C   UNL     1       1.312  -0.055  -0.715  1.00  0.00     0.275 C 
BRANCH  25  26
ATOM     26  O   UNL     1      -0.003   0.456  -0.946  1.00  0.00    -0.458 OA
BRANCH  26  27
ATOM     27  C   UNL     1      -1.002  -0.424  -0.732  1.00  0.00     0.338 C 
ATOM     28  O   UNL     1      -0.908  -1.632  -0.590  1.00  0.00    -0.246 OA
BRANCH  27  29
ATOM     29  C   UNL     1      -2.250   0.321  -0.522  1.00  0.00     0.060 A 
ATOM     30  C   UNL     1      -2.260   1.274   0.485  1.00  0.00     0.016 A 
ATOM     31  C   UNL     1      -3.439  -0.059  -1.125  1.00  0.00     0.016 A 
ATOM     32  C   UNL     1      -3.443   1.632   1.094  1.00  0.00     0.010 A 
ATOM     33  C   UNL     1      -4.631   0.515  -0.673  1.00  0.00     0.010 A 
ATOM     34  C   UNL     1      -4.652   1.318   0.486  1.00  0.00    -0.014 A 
BRANCH  34  35
ATOM     35  C   UNL     1      -5.926   1.811   1.069  1.00  0.00     0.031 A 
ATOM     36  C   UNL     1      -7.052   0.841   1.275  1.00  0.00     0.074 A 
ATOM     37  C   UNL     1      -6.088   3.108   1.406  1.00  0.00     0.049 A 
ATOM     38  N   UNL     1      -8.328   1.075   1.401  1.00  0.00    -0.248 NA
ATOM     39  C   UNL     1      -6.692  -0.588   1.324  1.00  0.00     0.031 C 
ATOM     40  C   UNL     1      -5.050   4.145   1.381  1.00  0.00     0.029 A 
ATOM     41  N   UNL     1      -7.208   3.788   1.819  1.00  0.00    -0.354 N 
ATOM     42  C   UNL     1      -8.936  -0.173   1.429  1.00  0.00     0.074 A 
ATOM     43  C   UNL     1      -7.885  -1.163   1.349  1.00  0.00     0.031 C 
ATOM     44  C   UNL     1      -5.570   5.311   1.782  1.00  0.00     0.029 A 
ATOM     45  C   UNL     1      -7.005   5.145   1.931  1.00  0.00     0.049 A 
ATOM     46  H   UNL     1      -8.068   3.349   2.016  1.00  0.00     0.167 HD
ATOM     47  C   UNL     1     -10.258  -0.453   1.490  1.00  0.00     0.034 A 
ATOM     48  C   UNL     1      -7.883   6.161   2.029  1.00  0.00     0.034 A 
ATOM     49  C   UNL     1     -11.274   0.556   1.618  1.00  0.00     0.049 A 
ATOM     50  C   UNL     1      -9.348   5.835   2.012  1.00  0.00     0.074 A 
ATOM     51  C   UNL     1     -12.646   0.399   1.667  1.00  0.00     0.029 A 
ATOM     52  N   UNL     1     -11.021   1.916   1.724  1.00  0.00    -0.354 N 
ATOM     53  N   UNL     1      -9.931   4.661   1.977  1.00  0.00    -0.248 NA
ATOM     54  C   UNL     1     -10.278   6.971   2.037  1.00  0.00     0.031 C 
ATOM     55  C   UNL     1     -13.224   1.667   1.770  1.00  0.00     0.029 A 
ATOM     56  C   UNL     1     -12.210   2.611   1.834  1.00  0.00     0.049 A 
ATOM     57  H   UNL     1     -10.125   2.326   1.722  1.00  0.00     0.167 HD
ATOM     58  C   UNL     1     -11.296   4.915   2.014  1.00  0.00     0.074 A 
ATOM     59  C   UNL     1     -11.450   6.354   2.090  1.00  0.00     0.031 C 
ATOM     60  C   UNL     1     -12.329   4.040   1.973  1.00  0.00     0.034 A 
BRANCH  47  61
ATOM     61  C   UNL     1     -10.674  -1.893   1.366  1.00  0.00     0.023 A 
ATOM     62  C   UNL     1     -10.440  -2.801   2.416  1.00  0.00     0.012 A 
ATOM     63  C   UNL     1     -11.321  -2.340   0.196  1.00  0.00     0.148 A 
ATOM     64  C   UNL     1     -10.807  -4.141   2.288  1.00  0.00     0.002 A 
ATOM     65  C   UNL     1     -11.729  -3.663   0.095  1.00  0.00     0.091 A 
ATOM     66  F   UNL     1     -11.513  -1.465  -0.802  1.00  0.00    -0.205 F 
ATOM     67  C   UNL     1     -11.459  -4.569   1.133  1.00  0.00     0.022 A 
BRANCH  65  68
ATOM     68  S   UNL     1     -12.641  -4.291  -1.319  1.00  0.00     0.127 S 
ATOM     69  O   UNL     1     -11.669  -5.206  -1.915  1.00  0.00    -0.237 OA
ATOM     70  O   UNL     1     -13.782  -4.946  -0.679  1.00  0.00    -0.237 OA
ATOM     71  O   UNL     1     -12.980  -3.130  -2.130  1.00  0.00    -0.744 OA
ENDBRANCH  65  68
ENDBRANCH  47  61
BRANCH  48  72
ATOM     72  C   UNL     1      -7.407   7.575   2.080  1.00  0.00     0.023 A 
ATOM     73  C   UNL     1      -7.647   8.341   3.236  1.00  0.00     0.012 A 
ATOM     74  C   UNL     1      -6.722   8.165   0.998  1.00  0.00     0.148 A 
ATOM     75  C   UNL     1      -7.250   9.678   3.299  1.00  0.00     0.002 A 
ATOM     76  C   UNL     1      -6.271   9.476   1.092  1.00  0.00     0.091 A 
ATOM     77  F   UNL     1      -6.514   7.429  -0.103  1.00  0.00    -0.205 F 
ATOM     78  C   UNL     1      -6.554  10.242   2.233  1.00  0.00     0.022 A 
BRANCH  76  79
ATOM     79  S   UNL     1      -5.254  10.241  -0.176  1.00  0.00     0.127 S 
ATOM     80  O   UNL     1      -6.172  11.229  -0.738  1.00  0.00    -0.237 OA
ATOM     81  O   UNL     1      -4.156  10.799   0.613  1.00  0.00    -0.237 OA
ATOM     82  O   UNL     1      -4.862   9.162  -1.072  1.00  0.00    -0.744 OA
ENDBRANCH  76  79
ENDBRANCH  48  72
BRANCH  60  83
ATOM     83  C   UNL     1     -13.719   4.603   2.088  1.00  0.00     0.023 A 
ATOM     84  C   UNL     1     -14.298   5.292   1.006  1.00  0.00     0.012 A 
ATOM     85  C   UNL     1     -14.480   4.358   3.248  1.00  0.00     0.148 A 
ATOM     86  C   UNL     1     -15.612   5.750   1.086  1.00  0.00     0.002 A 
ATOM     87  C   UNL     1     -15.805   4.767   3.297  1.00  0.00     0.091 A 
ATOM     88  F   UNL     1     -13.897   3.717   4.271  1.00  0.00    -0.205 F 
ATOM     89  C   UNL     1     -16.369   5.474   2.223  1.00  0.00     0.022 A 
BRANCH  87  90
ATOM     90  S   UNL     1     -16.886   4.362   4.673  1.00  0.00     0.127 S 
ATOM     91  O   UNL     1     -17.128   5.680   5.258  1.00  0.00    -0.237 OA
ATOM     92  O   UNL     1     -18.040   3.774   3.993  1.00  0.00    -0.237 OA
ATOM     93  O   UNL     1     -16.141   3.437   5.516  1.00  0.00    -0.744 OA
ENDBRANCH  87  90
ENDBRANCH  60  83
ENDBRANCH  34  35
ENDBRANCH  27  29
ENDBRANCH  26  27
ENDBRANCH  25  26
ENDBRANCH   1  25
TORSDOF 20
