REMARK SMILES C=C1C=C[C@H](C(=O)OCCOC(=O)c2ccc(-c3c4nc(c(-c5cccc(S(=O)(=O)[O-])c5F)c5ccc([nH]5)c(-c5cccc(S(=O)(=O)[O-])c5F)c5nc(c(-c6cccc(S(=O)(=O)[O-])c6F)c6ccc3[nH]6)C=C5)C=C4)cc2)C(=S)N1
REMARK SMILES IDX 11 1 10 2 9 3 8 4 6 5 7 6 5 7 1 8 2 9 3 10 79 11 4 12 77 13
REMARK SMILES IDX 78 15 12 16 13 17 14 18 15 19 76 20 16 21 75 22 17 23 18 24
REMARK SMILES IDX 19 25 69 26 20 27 74 28 68 29 70 30 21 31 73 32 67 33 66 34
REMARK SMILES IDX 22 36 54 37 34 38 53 39 35 40 38 41 52 42 71 43 36 44 37 45
REMARK SMILES IDX 51 47 72 48 39 49 23 50 24 51 32 52 25 53 27 54 33 55 26 56
REMARK SMILES IDX 28 57 29 58 30 59 31 60 55 61 56 62 64 63 57 64 59 65 65 66
REMARK SMILES IDX 58 67 60 68 61 69 62 70 63 71 40 72 41 73 49 74 42 75 44 76
REMARK SMILES IDX 50 77 43 78 45 79 46 80 47 81 48 82
REMARK H PARENT 79 14 70 35 38 46
REMARK Flexibility Score: inf
ROOT
ATOM      1  O   UNL     1      -1.404  -0.923  -5.695  1.00  0.00    -0.458 OA
ENDROOT
BRANCH   1   2
ATOM      2  C   UNL     1      -2.713  -1.489  -5.877  1.00  0.00     0.275 C 
BRANCH   2   3
ATOM      3  C   UNL     1      -2.715  -2.937  -5.397  1.00  0.00     0.274 C 
BRANCH   3   4
ATOM      4  O   UNL     1      -2.546  -2.990  -3.966  1.00  0.00    -0.461 OA
BRANCH   4   5
ATOM      5  C   UNL     1      -1.379  -3.502  -3.491  1.00  0.00     0.319 C 
ATOM      6  O   UNL     1      -0.497  -3.960  -4.211  1.00  0.00    -0.251 OA
BRANCH   5   7
ATOM      7  C   UNL     1      -1.337  -3.547  -1.958  1.00  0.00     0.180 C 
ATOM      8  C   UNL     1       0.728  -0.375  -0.013  1.00  0.00     0.037 C 
ATOM      9  C   UNL     1       0.077  -1.419  -0.538  1.00  0.00     0.031 C 
ATOM     10  C   UNL     1       0.754  -2.643  -0.895  1.00  0.00     0.022 C 
ATOM     11  N   UNL     1      -1.281  -1.372  -0.717  1.00  0.00    -0.350 N 
ATOM     12  C   UNL     1       0.114  -3.638  -1.526  1.00  0.00    -0.003 C 
ATOM     13  C   UNL     1      -2.042  -2.382  -1.251  1.00  0.00     0.098 C 
ATOM     14  H   UNL     1      -1.747  -0.549  -0.441  1.00  0.00     0.167 HD
ATOM     15  S   UNL     1      -3.710  -2.326  -1.042  1.00  0.00    -0.064 S 
ENDBRANCH   5   7
ENDBRANCH   4   5
ENDBRANCH   3   4
ENDBRANCH   2   3
ENDBRANCH   1   2
BRANCH   1  16
ATOM     16  C   UNL     1      -1.294  -0.011  -4.704  1.00  0.00     0.338 C 
ATOM     17  O   UNL     1      -2.176   0.429  -3.987  1.00  0.00    -0.246 OA
BRANCH  16  18
ATOM     18  C   UNL     1       0.119   0.354  -4.554  1.00  0.00     0.060 A 
ATOM     19  C   UNL     1       0.946  -0.483  -3.809  1.00  0.00     0.016 A 
ATOM     20  C   UNL     1       0.593   1.567  -5.049  1.00  0.00     0.016 A 
ATOM     21  C   UNL     1       2.236  -0.073  -3.483  1.00  0.00     0.010 A 
ATOM     22  C   UNL     1       1.913   1.944  -4.781  1.00  0.00     0.010 A 
ATOM     23  C   UNL     1       2.735   1.147  -3.962  1.00  0.00    -0.014 A 
BRANCH  23  24
ATOM     24  C   UNL     1       4.097   1.605  -3.578  1.00  0.00     0.031 A 
ATOM     25  C   UNL     1       4.273   2.869  -2.777  1.00  0.00     0.074 A 
ATOM     26  C   UNL     1       5.180   0.895  -3.950  1.00  0.00     0.049 A 
ATOM     27  N   UNL     1       5.375   3.492  -2.450  1.00  0.00    -0.248 NA
ATOM     28  C   UNL     1       3.048   3.522  -2.285  1.00  0.00     0.031 C 
ATOM     29  C   UNL     1       5.150  -0.351  -4.717  1.00  0.00     0.029 A 
ATOM     30  N   UNL     1       6.518   1.124  -3.740  1.00  0.00    -0.354 N 
ATOM     31  C   UNL     1       4.979   4.640  -1.774  1.00  0.00     0.074 A 
ATOM     32  C   UNL     1       3.533   4.623  -1.727  1.00  0.00     0.031 C 
ATOM     33  C   UNL     1       6.407  -0.784  -4.903  1.00  0.00     0.029 A 
ATOM     34  C   UNL     1       7.334   0.181  -4.321  1.00  0.00     0.049 A 
ATOM     35  H   UNL     1       6.859   1.889  -3.225  1.00  0.00     0.167 HD
ATOM     36  C   UNL     1       5.748   5.612  -1.228  1.00  0.00     0.034 A 
ATOM     37  C   UNL     1       8.678   0.112  -4.400  1.00  0.00     0.034 A 
ATOM     38  C   UNL     1       7.186   5.596  -1.212  1.00  0.00     0.049 A 
ATOM     39  C   UNL     1       9.508   1.197  -3.772  1.00  0.00     0.074 A 
ATOM     40  C   UNL     1       8.050   6.520  -0.651  1.00  0.00     0.029 A 
ATOM     41  N   UNL     1       7.972   4.600  -1.769  1.00  0.00    -0.354 N 
ATOM     42  N   UNL     1       9.114   2.242  -3.085  1.00  0.00    -0.248 NA
ATOM     43  C   UNL     1      10.966   1.087  -3.917  1.00  0.00     0.031 C 
ATOM     44  C   UNL     1       9.361   6.081  -0.867  1.00  0.00     0.029 A 
ATOM     45  C   UNL     1       9.312   4.883  -1.562  1.00  0.00     0.049 A 
ATOM     46  H   UNL     1       7.629   3.808  -2.243  1.00  0.00     0.167 HD
ATOM     47  C   UNL     1      10.274   2.906  -2.705  1.00  0.00     0.074 A 
ATOM     48  C   UNL     1      11.387   2.128  -3.210  1.00  0.00     0.031 C 
ATOM     49  C   UNL     1      10.407   4.070  -2.022  1.00  0.00     0.034 A 
BRANCH  36  50
ATOM     50  C   UNL     1       5.046   6.765  -0.562  1.00  0.00     0.023 A 
ATOM     51  C   UNL     1       4.495   6.592   0.723  1.00  0.00     0.012 A 
ATOM     52  C   UNL     1       4.982   8.029  -1.180  1.00  0.00     0.148 A 
ATOM     53  C   UNL     1       3.871   7.655   1.375  1.00  0.00     0.002 A 
ATOM     54  C   UNL     1       4.388   9.093  -0.509  1.00  0.00     0.091 A 
ATOM     55  F   UNL     1       5.486   8.167  -2.414  1.00  0.00    -0.205 F 
ATOM     56  C   UNL     1       3.826   8.906   0.764  1.00  0.00     0.022 A 
BRANCH  54  57
ATOM     57  S   UNL     1       4.346  10.753  -1.196  1.00  0.00     0.127 S 
ATOM     58  O   UNL     1       2.982  10.824  -1.716  1.00  0.00    -0.237 OA
ATOM     59  O   UNL     1       4.594  11.587  -0.019  1.00  0.00    -0.237 OA
ATOM     60  O   UNL     1       5.407  10.791  -2.193  1.00  0.00    -0.744 OA
ENDBRANCH  54  57
ENDBRANCH  36  50
BRANCH  37  61
ATOM     61  C   UNL     1       9.318  -1.053  -5.073  1.00  0.00     0.023 A 
ATOM     62  C   UNL     1      10.012  -2.000  -4.297  1.00  0.00     0.012 A 
ATOM     63  C   UNL     1       9.201  -1.257  -6.462  1.00  0.00     0.148 A 
ATOM     64  C   UNL     1      10.589  -3.122  -4.892  1.00  0.00     0.002 A 
ATOM     65  C   UNL     1       9.728  -2.406  -7.040  1.00  0.00     0.091 A 
ATOM     66  F   UNL     1       8.564  -0.330  -7.192  1.00  0.00    -0.205 F 
ATOM     67  C   UNL     1      10.434  -3.334  -6.260  1.00  0.00     0.022 A 
BRANCH  65  68
ATOM     68  S   UNL     1       9.435  -2.814  -8.765  1.00  0.00     0.127 S 
ATOM     69  O   UNL     1      10.682  -2.384  -9.392  1.00  0.00    -0.237 OA
ATOM     70  O   UNL     1       9.239  -4.263  -8.714  1.00  0.00    -0.237 OA
ATOM     71  O   UNL     1       8.239  -2.067  -9.135  1.00  0.00    -0.744 OA
ENDBRANCH  65  68
ENDBRANCH  37  61
BRANCH  49  72
ATOM     72  C   UNL     1      11.802   4.572  -1.770  1.00  0.00     0.023 A 
ATOM     73  C   UNL     1      12.514   5.185  -2.820  1.00  0.00     0.012 A 
ATOM     74  C   UNL     1      12.378   4.506  -0.487  1.00  0.00     0.148 A 
ATOM     75  C   UNL     1      13.789   5.705  -2.602  1.00  0.00     0.002 A 
ATOM     76  C   UNL     1      13.635   5.061  -0.268  1.00  0.00     0.091 A 
ATOM     77  F   UNL     1      11.695   3.898   0.493  1.00  0.00    -0.205 F 
ATOM     78  C   UNL     1      14.344   5.654  -1.325  1.00  0.00     0.022 A 
BRANCH  76  79
ATOM     79  S   UNL     1      14.382   5.105   1.365  1.00  0.00     0.127 S 
ATOM     80  O   UNL     1      15.303   3.972   1.304  1.00  0.00    -0.237 OA
ATOM     81  O   UNL     1      15.031   6.417   1.382  1.00  0.00    -0.237 OA
ATOM     82  O   UNL     1      13.277   4.972   2.305  1.00  0.00    -0.744 OA
ENDBRANCH  76  79
ENDBRANCH  49  72
ENDBRANCH  23  24
ENDBRANCH  16  18
ENDBRANCH   1  16
TORSDOF 14
