REMARK SMILES O=C(OCCOC(=O)C1(CCc2ccccn2)CCCCC1)c1ccc(-c2c3nc(c(-c4cccc(S(=O)(=O)[O-])c4F)c4ccc([nH]4)c(-c4cccc(S(=O)(=O)[O-])c4F)c4nc(c(-c5cccc(S(=O)(=O)[O-])c5F)c5ccc2[nH]5)C=C4)C=C3)cc1
REMARK SMILES IDX 4 1 3 2 2 3 1 4 23 5 24 6 85 7 25 8 84 9 26 10 27 11 28 12
REMARK SMILES IDX 78 13 29 14 83 15 77 16 79 17 30 18 82 19 76 20 75 21 31 23
REMARK SMILES IDX 63 24 43 25 62 26 44 27 47 28 61 29 80 30 45 31 46 32 60 34
REMARK SMILES IDX 81 35 48 36 32 37 33 38 41 39 34 40 36 41 42 42 35 43 37 44
REMARK SMILES IDX 38 45 39 46 40 47 64 48 65 49 73 50 66 51 68 52 74 53 67 54
REMARK SMILES IDX 69 55 70 56 71 57 72 58 49 59 50 60 58 61 51 62 53 63 59 64
REMARK SMILES IDX 52 65 54 66 55 67 56 68 57 69 5 70 6 71 7 72 8 73 9 74 18 75
REMARK SMILES IDX 22 76 19 77 21 78 20 79 10 80 11 81 12 82 13 83 17 84 14 85
REMARK SMILES IDX 16 86 15 87
REMARK H PARENT 79 22 47 33
REMARK Flexibility Score: inf
ROOT
ATOM      1  C   UNL     1       4.460  -1.181  -0.467  1.00  0.00     0.275 C 
ENDROOT
BRANCH   1   2
ATOM      2  O   UNL     1       3.551  -1.210   0.638  1.00  0.00    -0.458 OA
BRANCH   2   3
ATOM      3  C   UNL     1       3.551  -0.426   1.741  1.00  0.00     0.338 C 
ATOM      4  O   UNL     1       2.878  -0.746   2.717  1.00  0.00    -0.246 OA
BRANCH   3   5
ATOM      5  C   UNL     1       4.241   0.894   1.752  1.00  0.00     0.060 A 
ATOM      6  C   UNL     1       5.447   1.185   1.105  1.00  0.00     0.016 A 
ATOM      7  C   UNL     1       3.601   1.920   2.459  1.00  0.00     0.016 A 
ATOM      8  C   UNL     1       5.929   2.489   1.017  1.00  0.00     0.010 A 
ATOM      9  C   UNL     1       4.084   3.228   2.385  1.00  0.00     0.010 A 
ATOM     10  C   UNL     1       5.243   3.523   1.642  1.00  0.00    -0.014 A 
BRANCH  10  11
ATOM     11  C   UNL     1       5.866   4.858   1.754  1.00  0.00     0.031 A 
ATOM     12  C   UNL     1       6.337   5.242   3.121  1.00  0.00     0.074 A 
ATOM     13  C   UNL     1       6.004   5.695   0.707  1.00  0.00     0.049 A 
ATOM     14  N   UNL     1       6.845   6.366   3.535  1.00  0.00    -0.248 NA
ATOM     15  C   UNL     1       6.199   4.215   4.173  1.00  0.00     0.031 C 
ATOM     16  C   UNL     1       5.646   5.400  -0.679  1.00  0.00     0.029 A 
ATOM     17  N   UNL     1       6.444   6.993   0.654  1.00  0.00    -0.354 N 
ATOM     18  C   UNL     1       7.075   6.175   4.888  1.00  0.00     0.074 A 
ATOM     19  C   UNL     1       6.520   4.897   5.255  1.00  0.00     0.031 C 
ATOM     20  C   UNL     1       5.770   6.514  -1.424  1.00  0.00     0.029 A 
ATOM     21  C   UNL     1       6.268   7.589  -0.577  1.00  0.00     0.049 A 
ATOM     22  H   UNL     1       6.847   7.456   1.423  1.00  0.00     0.167 HD
ATOM     23  C   UNL     1       7.785   6.949   5.734  1.00  0.00     0.034 A 
ATOM     24  C   UNL     1       6.503   8.858  -0.965  1.00  0.00     0.034 A 
ATOM     25  C   UNL     1       8.370   8.190   5.338  1.00  0.00     0.049 A 
ATOM     26  C   UNL     1       7.195   9.765   0.021  1.00  0.00     0.074 A 
ATOM     27  C   UNL     1       9.158   9.050   6.072  1.00  0.00     0.029 A 
ATOM     28  N   UNL     1       8.209   8.752   4.079  1.00  0.00    -0.354 N 
ATOM     29  N   UNL     1       7.544   9.517   1.262  1.00  0.00    -0.248 NA
ATOM     30  C   UNL     1       7.614  11.086  -0.468  1.00  0.00     0.031 C 
ATOM     31  C   UNL     1       9.445  10.156   5.264  1.00  0.00     0.029 A 
ATOM     32  C   UNL     1       8.870   9.960   4.014  1.00  0.00     0.049 A 
ATOM     33  H   UNL     1       7.698   8.348   3.340  1.00  0.00     0.167 HD
ATOM     34  C   UNL     1       8.299  10.607   1.673  1.00  0.00     0.074 A 
ATOM     35  C   UNL     1       8.334  11.530   0.555  1.00  0.00     0.031 C 
ATOM     36  C   UNL     1       8.926  10.820   2.858  1.00  0.00     0.034 A 
BRANCH  23  37
ATOM     37  C   UNL     1       7.964   6.410   7.125  1.00  0.00     0.023 A 
ATOM     38  C   UNL     1       8.726   5.236   7.329  1.00  0.00     0.012 A 
ATOM     39  C   UNL     1       7.275   6.985   8.204  1.00  0.00     0.148 A 
ATOM     40  C   UNL     1       8.724   4.596   8.566  1.00  0.00     0.002 A 
ATOM     41  C   UNL     1       7.327   6.373   9.449  1.00  0.00     0.091 A 
ATOM     42  F   UNL     1       6.537   8.081   7.981  1.00  0.00    -0.205 F 
ATOM     43  C   UNL     1       8.027   5.166   9.626  1.00  0.00     0.022 A 
BRANCH  41  44
ATOM     44  S   UNL     1       6.516   7.060  10.893  1.00  0.00     0.127 S 
ATOM     45  O   UNL     1       5.464   6.074  11.139  1.00  0.00    -0.237 OA
ATOM     46  O   UNL     1       7.599   7.056  11.876  1.00  0.00    -0.237 OA
ATOM     47  O   UNL     1       6.052   8.383  10.503  1.00  0.00    -0.744 OA
ENDBRANCH  41  44
ENDBRANCH  23  37
BRANCH  24  48
ATOM     48  C   UNL     1       6.220   9.305  -2.361  1.00  0.00     0.023 A 
ATOM     49  C   UNL     1       7.292   9.493  -3.256  1.00  0.00     0.012 A 
ATOM     50  C   UNL     1       4.906   9.556  -2.808  1.00  0.00     0.148 A 
ATOM     51  C   UNL     1       7.071   9.962  -4.552  1.00  0.00     0.002 A 
ATOM     52  C   UNL     1       4.689   9.996  -4.113  1.00  0.00     0.091 A 
ATOM     53  F   UNL     1       3.896   9.364  -1.949  1.00  0.00    -0.205 F 
ATOM     54  C   UNL     1       5.771  10.213  -4.981  1.00  0.00     0.022 A 
BRANCH  52  55
ATOM     55  S   UNL     1       3.048  10.286  -4.792  1.00  0.00     0.127 S 
ATOM     56  O   UNL     1       3.100  11.716  -5.098  1.00  0.00    -0.237 OA
ATOM     57  O   UNL     1       3.055   9.409  -5.965  1.00  0.00    -0.237 OA
ATOM     58  O   UNL     1       2.113   9.902  -3.751  1.00  0.00    -0.744 OA
ENDBRANCH  52  55
ENDBRANCH  24  48
BRANCH  36  59
ATOM     59  C   UNL     1       9.768  12.056   2.988  1.00  0.00     0.023 A 
ATOM     60  C   UNL     1       9.159  13.317   3.123  1.00  0.00     0.012 A 
ATOM     61  C   UNL     1      11.166  11.937   3.109  1.00  0.00     0.148 A 
ATOM     62  C   UNL     1       9.937  14.449   3.357  1.00  0.00     0.002 A 
ATOM     63  C   UNL     1      11.927  13.057   3.405  1.00  0.00     0.091 A 
ATOM     64  F   UNL     1      11.721  10.725   2.954  1.00  0.00    -0.205 F 
ATOM     65  C   UNL     1      11.315  14.317   3.517  1.00  0.00     0.022 A 
BRANCH  63  66
ATOM     66  S   UNL     1      13.684  12.954   3.758  1.00  0.00     0.127 S 
ATOM     67  O   UNL     1      14.262  13.575   2.568  1.00  0.00    -0.237 OA
ATOM     68  O   UNL     1      13.800  13.749   4.981  1.00  0.00    -0.237 OA
ATOM     69  O   UNL     1      13.978  11.538   3.929  1.00  0.00    -0.744 OA
ENDBRANCH  63  66
ENDBRANCH  36  59
ENDBRANCH  10  11
ENDBRANCH   3   5
ENDBRANCH   2   3
ENDBRANCH   1   2
BRANCH   1  70
ATOM     70  C   UNL     1       4.192  -0.192  -1.613  1.00  0.00     0.274 C 
BRANCH  70  71
ATOM     71  O   UNL     1       3.667   1.124  -1.358  1.00  0.00    -0.462 OA
BRANCH  71  72
ATOM     72  C   UNL     1       2.317   1.190  -1.163  1.00  0.00     0.312 C 
ATOM     73  O   UNL     1       1.657   0.207  -0.846  1.00  0.00    -0.252 OA
BRANCH  72  74
ATOM     74  C   UNL     1       1.715   2.621  -1.286  1.00  0.00     0.068 C 
ATOM     75  C   UNL     1       1.673   3.123   0.166  1.00  0.00     0.019 C 
ATOM     76  C   UNL     1       2.574   3.624  -2.091  1.00  0.00     0.019 C 
ATOM     77  C   UNL     1       1.226   4.560   0.387  1.00  0.00     0.001 C 
ATOM     78  C   UNL     1       2.134   5.088  -1.916  1.00  0.00     0.001 C 
ATOM     79  C   UNL     1       2.047   5.522  -0.455  1.00  0.00     0.000 C 
BRANCH  74  80
ATOM     80  C   UNL     1       0.261   2.534  -1.834  1.00  0.00     0.025 C 
BRANCH  80  81
ATOM     81  C   UNL     1       0.087   2.237  -3.334  1.00  0.00     0.057 C 
BRANCH  81  82
ATOM     82  C   UNL     1       0.627   0.896  -3.749  1.00  0.00     0.040 A 
ATOM     83  C   UNL     1       1.818   0.796  -4.465  1.00  0.00     0.024 A 
ATOM     84  N   UNL     1      -0.035  -0.190  -3.287  1.00  0.00    -0.261 NA
ATOM     85  C   UNL     1       2.375  -0.464  -4.664  1.00  0.00     0.003 A 
ATOM     86  C   UNL     1       0.551  -1.393  -3.450  1.00  0.00     0.111 A 
ATOM     87  C   UNL     1       1.744  -1.581  -4.126  1.00  0.00     0.020 A 
ENDBRANCH  81  82
ENDBRANCH  80  81
ENDBRANCH  74  80
ENDBRANCH  72  74
ENDBRANCH  71  72
ENDBRANCH  70  71
ENDBRANCH   1  70
TORSDOF 17
