REMARK SMILES O=C(CSc1ccnc(C(=O)OCCOC(=O)c2ccc(-c3c4nc(c(-c5cccc(S(=O)(=O)[O-])c5F)c5ccc([nH]5)c(-c5cccc(S(=O)(=O)[O-])c5F)c5nc(c(-c6cccc(S(=O)(=O)[O-])c6F)c6ccc3[nH]6)C=C5)C=C4)cc2)c1)NCC(F)(F)F
REMARK SMILES IDX 13 1 12 2 10 3 11 4 9 5 5 6 6 7 81 8 7 9 8 10 4 11 3 12 2 13
REMARK SMILES IDX 1 14 82 15 83 17 84 18 85 19 86 20 87 21 14 22 15 23 16 24
REMARK SMILES IDX 17 25 18 26 19 27 80 28 20 29 79 30 21 31 22 32 23 33 73 34
REMARK SMILES IDX 24 35 78 36 72 37 74 38 25 39 77 40 71 41 70 42 26 44 58 45
REMARK SMILES IDX 38 46 57 47 39 48 42 49 56 50 75 51 40 52 41 53 55 55 76 56
REMARK SMILES IDX 43 57 27 58 28 59 36 60 29 61 31 62 37 63 30 64 32 65 33 66
REMARK SMILES IDX 34 67 35 68 59 69 60 70 68 71 61 72 63 73 69 74 62 75 64 76
REMARK SMILES IDX 65 77 66 78 67 79 44 80 45 81 53 82 46 83 48 84 54 85 47 86
REMARK SMILES IDX 49 87 50 88 51 89 52 90
REMARK H PARENT 82 16 74 43 42 54
REMARK Flexibility Score: inf
ROOT
ATOM      1  C   UNL     1       1.559  -3.410   5.319  1.00  0.00     0.275 C 
ENDROOT
BRANCH   1   2
ATOM      2  O   UNL     1       1.995  -2.215   4.640  1.00  0.00    -0.457 OA
BRANCH   2   3
ATOM      3  C   UNL     1       1.077  -1.206   4.596  1.00  0.00     0.357 C 
ATOM      4  O   UNL     1      -0.064  -1.278   5.009  1.00  0.00    -0.244 OA
BRANCH   3   5
ATOM      5  C   UNL     1       1.681   0.036   4.012  1.00  0.00     0.149 A 
ATOM      6  C   UNL     1       3.222   1.201   2.619  1.00  0.00     0.012 A 
ATOM      7  C   UNL     1       2.654   2.405   3.028  1.00  0.00     0.035 A 
ATOM      8  C   UNL     1       2.765  -0.005   3.152  1.00  0.00     0.051 A 
ATOM      9  C   UNL     1       1.587   2.352   3.901  1.00  0.00     0.113 A 
ATOM     10  N   UNL     1       1.071   1.198   4.366  1.00  0.00    -0.249 NA
BRANCH   6  11
ATOM     11  S   UNL     1       4.456   1.198   1.329  1.00  0.00    -0.116 SA
BRANCH  11  12
ATOM     12  C   UNL     1       3.324   1.296  -0.112  1.00  0.00     0.174 C 
BRANCH  12  13
ATOM     13  C   UNL     1       2.438   0.063  -0.228  1.00  0.00     0.230 C 
ATOM     14  O   UNL     1       1.256   0.135  -0.553  1.00  0.00    -0.274 OA
ATOM     15  N   UNL     1       3.068  -1.141  -0.006  1.00  0.00    -0.346 N 
ATOM     16  H   UNL     1       4.033  -1.143   0.186  1.00  0.00     0.163 HD
BRANCH  15  17
ATOM     17  C   UNL     1       2.354  -2.417  -0.045  1.00  0.00     0.231 C 
BRANCH  17  18
ATOM     18  C   UNL     1       2.629  -3.261  -1.287  1.00  0.00     0.405 C 
ATOM     19  F   UNL     1       3.954  -3.526  -1.395  1.00  0.00    -0.169 F 
ATOM     20  F   UNL     1       1.988  -4.450  -1.215  1.00  0.00    -0.169 F 
ATOM     21  F   UNL     1       2.240  -2.648  -2.424  1.00  0.00    -0.169 F 
ENDBRANCH  17  18
ENDBRANCH  15  17
ENDBRANCH  12  13
ENDBRANCH  11  12
ENDBRANCH   6  11
ENDBRANCH   3   5
ENDBRANCH   2   3
ENDBRANCH   1   2
BRANCH   1  22
ATOM     22  C   UNL     1       2.113  -3.496   6.747  1.00  0.00     0.275 C 
BRANCH  22  23
ATOM     23  O   UNL     1       1.583  -2.466   7.602  1.00  0.00    -0.458 OA
BRANCH  23  24
ATOM     24  C   UNL     1       2.358  -1.359   7.709  1.00  0.00     0.338 C 
ATOM     25  O   UNL     1       3.451  -1.184   7.191  1.00  0.00    -0.246 OA
BRANCH  24  26
ATOM     26  C   UNL     1       1.636  -0.289   8.420  1.00  0.00     0.060 A 
ATOM     27  C   UNL     1       1.394   0.882   7.704  1.00  0.00     0.016 A 
ATOM     28  C   UNL     1       1.276  -0.371   9.766  1.00  0.00     0.016 A 
ATOM     29  C   UNL     1       0.790   1.975   8.312  1.00  0.00     0.010 A 
ATOM     30  C   UNL     1       0.670   0.736  10.385  1.00  0.00     0.010 A 
ATOM     31  C   UNL     1       0.433   1.921   9.665  1.00  0.00    -0.014 A 
BRANCH  31  32
ATOM     32  C   UNL     1      -0.143   3.142  10.286  1.00  0.00     0.031 A 
ATOM     33  C   UNL     1       0.678   3.978  11.228  1.00  0.00     0.074 A 
ATOM     34  C   UNL     1      -1.379   3.548   9.934  1.00  0.00     0.049 A 
ATOM     35  N   UNL     1       0.377   5.120  11.792  1.00  0.00    -0.248 NA
ATOM     36  C   UNL     1       2.013   3.469  11.580  1.00  0.00     0.031 C 
ATOM     37  C   UNL     1      -2.273   2.829   9.027  1.00  0.00     0.029 A 
ATOM     38  N   UNL     1      -2.089   4.670  10.285  1.00  0.00    -0.354 N 
ATOM     39  C   UNL     1       1.464   5.450  12.591  1.00  0.00     0.074 A 
ATOM     40  C   UNL     1       2.433   4.384  12.443  1.00  0.00     0.031 C 
ATOM     41  C   UNL     1      -3.408   3.532   8.882  1.00  0.00     0.029 A 
ATOM     42  C   UNL     1      -3.332   4.739   9.702  1.00  0.00     0.049 A 
ATOM     43  H   UNL     1      -1.741   5.359  10.896  1.00  0.00     0.167 HD
ATOM     44  C   UNL     1       1.650   6.549  13.362  1.00  0.00     0.034 A 
ATOM     45  C   UNL     1      -4.302   5.668   9.812  1.00  0.00     0.034 A 
ATOM     46  C   UNL     1       0.709   7.633  13.476  1.00  0.00     0.049 A 
ATOM     47  C   UNL     1      -4.059   6.888  10.659  1.00  0.00     0.074 A 
ATOM     48  C   UNL     1       0.832   8.806  14.200  1.00  0.00     0.029 A 
ATOM     49  N   UNL     1      -0.527   7.679  12.851  1.00  0.00    -0.354 N 
ATOM     50  N   UNL     1      -2.980   7.234  11.319  1.00  0.00    -0.248 NA
ATOM     51  C   UNL     1      -5.158   7.861  10.752  1.00  0.00     0.031 C 
ATOM     52  C   UNL     1      -0.336   9.557  14.022  1.00  0.00     0.029 A 
ATOM     53  C   UNL     1      -1.181   8.856  13.177  1.00  0.00     0.049 A 
ATOM     54  H   UNL     1      -0.888   6.978  12.262  1.00  0.00     0.167 HD
ATOM     55  C   UNL     1      -3.263   8.469  11.892  1.00  0.00     0.074 A 
ATOM     56  C   UNL     1      -4.601   8.829  11.469  1.00  0.00     0.031 C 
ATOM     57  C   UNL     1      -2.495   9.225  12.716  1.00  0.00     0.034 A 
BRANCH  44  58
ATOM     58  C   UNL     1       2.946   6.654  14.122  1.00  0.00     0.023 A 
ATOM     59  C   UNL     1       4.128   6.993  13.434  1.00  0.00     0.012 A 
ATOM     60  C   UNL     1       2.985   6.474  15.518  1.00  0.00     0.148 A 
ATOM     61  C   UNL     1       5.335   7.124  14.120  1.00  0.00     0.002 A 
ATOM     62  C   UNL     1       4.185   6.641  16.200  1.00  0.00     0.091 A 
ATOM     63  F   UNL     1       1.855   6.127  16.151  1.00  0.00    -0.205 F 
ATOM     64  C   UNL     1       5.362   6.958  15.502  1.00  0.00     0.022 A 
BRANCH  62  65
ATOM     65  S   UNL     1       4.302   6.516  17.989  1.00  0.00     0.127 S 
ATOM     66  O   UNL     1       4.942   5.211  18.151  1.00  0.00    -0.237 OA
ATOM     67  O   UNL     1       5.154   7.657  18.326  1.00  0.00    -0.237 OA
ATOM     68  O   UNL     1       2.937   6.614  18.485  1.00  0.00    -0.744 OA
ENDBRANCH  62  65
ENDBRANCH  44  58
BRANCH  45  69
ATOM     69  C   UNL     1      -5.575   5.503   9.056  1.00  0.00     0.023 A 
ATOM     70  C   UNL     1      -5.862   6.365   7.980  1.00  0.00     0.012 A 
ATOM     71  C   UNL     1      -6.486   4.477   9.375  1.00  0.00     0.148 A 
ATOM     72  C   UNL     1      -7.043   6.221   7.249  1.00  0.00     0.002 A 
ATOM     73  C   UNL     1      -7.632   4.304   8.608  1.00  0.00     0.091 A 
ATOM     74  F   UNL     1      -6.211   3.684  10.421  1.00  0.00    -0.205 F 
ATOM     75  C   UNL     1      -7.920   5.184   7.554  1.00  0.00     0.022 A 
BRANCH  73  76
ATOM     76  S   UNL     1      -8.741   2.912   8.854  1.00  0.00     0.127 S 
ATOM     77  O   UNL     1      -9.855   3.538   9.560  1.00  0.00    -0.237 OA
ATOM     78  O   UNL     1      -9.034   2.505   7.479  1.00  0.00    -0.237 OA
ATOM     79  O   UNL     1      -7.972   1.935   9.613  1.00  0.00    -0.744 OA
ENDBRANCH  73  76
ENDBRANCH  45  69
BRANCH  57  80
ATOM     80  C   UNL     1      -3.084  10.518  13.217  1.00  0.00     0.023 A 
ATOM     81  C   UNL     1      -4.099  10.482  14.195  1.00  0.00     0.012 A 
ATOM     82  C   UNL     1      -2.605  11.763  12.765  1.00  0.00     0.148 A 
ATOM     83  C   UNL     1      -4.652  11.663  14.688  1.00  0.00     0.002 A 
ATOM     84  C   UNL     1      -3.133  12.937  13.293  1.00  0.00     0.091 A 
ATOM     85  F   UNL     1      -1.655  11.781  11.819  1.00  0.00    -0.205 F 
ATOM     86  C   UNL     1      -4.163  12.889  14.245  1.00  0.00     0.022 A 
BRANCH  84  87
ATOM     87  S   UNL     1      -2.494  14.553  12.836  1.00  0.00     0.127 S 
ATOM     88  O   UNL     1      -3.460  14.984  11.827  1.00  0.00    -0.237 OA
ATOM     89  O   UNL     1      -2.563  15.291  14.098  1.00  0.00    -0.237 OA
ATOM     90  O   UNL     1      -1.139  14.317  12.357  1.00  0.00    -0.744 OA
ENDBRANCH  84  87
ENDBRANCH  57  80
ENDBRANCH  31  32
ENDBRANCH  24  26
ENDBRANCH  23  24
ENDBRANCH  22  23
ENDBRANCH   1  22
TORSDOF 19
