REMARK SMILES C[C@@H](C(=O)OCCOC(=O)c1ccc(-c2c3nc(c(-c4cccc(S(=O)(=O)[O-])c4F)c4ccc([nH]4)c(-c4cccc(S(=O)(=O)[O-])c4F)c4nc(c(-c5cccc(S(=O)(=O)[O-])c5F)c5ccc2[nH]5)C=C4)C=C3)cc1)c1ccc(N[C@H]2CCC[C@@H]2O)cc1F
REMARK SMILES IDX 6 1 5 2 3 3 4 4 2 5 1 6 74 7 75 8 86 9 76 10 85 11 87 12
REMARK SMILES IDX 77 13 78 14 79 16 80 17 83 18 81 19 82 20 84 21 7 23 8 24
REMARK SMILES IDX 9 25 10 26 11 27 12 28 73 29 13 30 72 31 14 32 15 33 16 34
REMARK SMILES IDX 66 35 17 36 71 37 65 38 67 39 18 40 70 41 64 42 63 43 19 45
REMARK SMILES IDX 51 46 31 47 50 48 32 49 35 50 49 51 68 52 33 53 34 54 48 56
REMARK SMILES IDX 69 57 36 58 20 59 21 60 29 61 22 62 24 63 30 64 23 65 25 66
REMARK SMILES IDX 26 67 27 68 28 69 52 70 53 71 61 72 54 73 56 74 62 75 55 76
REMARK SMILES IDX 57 77 58 78 59 79 60 80 37 81 38 82 46 83 39 84 41 85 47 86
REMARK SMILES IDX 40 87 42 88 43 89 44 90 45 91
REMARK H PARENT 78 15 84 22 67 44 35 55
REMARK Flexibility Score: inf
ROOT
ATOM      1  C   UNL     1       2.641  -3.651   1.426  1.00  0.00     0.274 C 
ENDROOT
BRANCH   1   2
ATOM      2  O   UNL     1       2.252  -2.530   0.603  1.00  0.00    -0.462 OA
BRANCH   2   3
ATOM      3  C   UNL     1       1.104  -2.679  -0.122  1.00  0.00     0.313 C 
ATOM      4  O   UNL     1       0.429  -3.700  -0.095  1.00  0.00    -0.252 OA
BRANCH   3   5
ATOM      5  C   UNL     1       0.807  -1.452  -1.017  1.00  0.00     0.129 C 
ATOM      6  C   UNL     1       1.566  -0.208  -0.530  1.00  0.00     0.025 C 
BRANCH   5   7
ATOM      7  C   UNL     1      -0.696  -1.215  -1.192  1.00  0.00     0.002 A 
ATOM      8  C   UNL     1      -1.368  -0.086  -0.705  1.00  0.00     0.010 A 
ATOM      9  C   UNL     1      -1.482  -2.184  -1.825  1.00  0.00     0.129 A 
ATOM     10  C   UNL     1      -2.770   0.011  -0.771  1.00  0.00     0.026 A 
ATOM     11  C   UNL     1      -2.877  -2.107  -1.845  1.00  0.00     0.065 A 
ATOM     12  F   UNL     1      -0.894  -3.238  -2.409  1.00  0.00    -0.207 F 
ATOM     13  C   UNL     1      -3.557  -1.029  -1.266  1.00  0.00     0.037 A 
BRANCH  13  14
ATOM     14  N   UNL     1      -4.933  -1.058  -1.229  1.00  0.00    -0.380 N 
ATOM     15  H   UNL     1      -5.335  -1.911  -1.511  1.00  0.00     0.160 HD
BRANCH  14  16
ATOM     16  C   UNL     1      -5.897  -0.028  -0.840  1.00  0.00     0.107 C 
ATOM     17  C   UNL     1      -5.773   0.520   0.584  1.00  0.00     0.027 C 
ATOM     18  C   UNL     1      -5.865   1.194  -1.771  1.00  0.00     0.136 C 
ATOM     19  C   UNL     1      -5.877   2.044   0.449  1.00  0.00     0.005 C 
ATOM     20  C   UNL     1      -6.501   2.281  -0.920  1.00  0.00     0.034 C 
BRANCH  18  21
ATOM     21  O   UNL     1      -6.591   0.974  -2.972  1.00  0.00    -0.391 OA
ATOM     22  H   UNL     1      -7.508   0.744  -2.757  1.00  0.00     0.211 HD
ENDBRANCH  18  21
ENDBRANCH  14  16
ENDBRANCH  13  14
ENDBRANCH   5   7
ENDBRANCH   3   5
ENDBRANCH   2   3
ENDBRANCH   1   2
BRANCH   1  23
ATOM     23  C   UNL     1       2.230  -3.441   2.883  1.00  0.00     0.275 C 
BRANCH  23  24
ATOM     24  O   UNL     1       0.803  -3.555   3.011  1.00  0.00    -0.458 OA
BRANCH  24  25
ATOM     25  C   UNL     1       0.154  -2.472   3.491  1.00  0.00     0.338 C 
ATOM     26  O   UNL     1       0.641  -1.427   3.894  1.00  0.00    -0.246 OA
BRANCH  25  27
ATOM     27  C   UNL     1      -1.293  -2.695   3.362  1.00  0.00     0.060 A 
ATOM     28  C   UNL     1      -1.866  -2.501   2.111  1.00  0.00     0.016 A 
ATOM     29  C   UNL     1      -2.096  -2.995   4.463  1.00  0.00     0.016 A 
ATOM     30  C   UNL     1      -3.244  -2.567   1.958  1.00  0.00     0.010 A 
ATOM     31  C   UNL     1      -3.486  -3.099   4.295  1.00  0.00     0.010 A 
ATOM     32  C   UNL     1      -4.077  -2.856   3.042  1.00  0.00    -0.014 A 
BRANCH  32  33
ATOM     33  C   UNL     1      -5.551  -2.801   2.840  1.00  0.00     0.031 A 
ATOM     34  C   UNL     1      -6.358  -1.718   3.503  1.00  0.00     0.074 A 
ATOM     35  C   UNL     1      -6.160  -3.641   1.978  1.00  0.00     0.049 A 
ATOM     36  N   UNL     1      -7.651  -1.515   3.469  1.00  0.00    -0.248 NA
ATOM     37  C   UNL     1      -5.615  -0.717   4.285  1.00  0.00     0.031 C 
ATOM     38  C   UNL     1      -5.493  -4.685   1.199  1.00  0.00     0.029 A 
ATOM     39  N   UNL     1      -7.480  -3.743   1.605  1.00  0.00    -0.354 N 
ATOM     40  C   UNL     1      -7.880  -0.395   4.257  1.00  0.00     0.074 A 
ATOM     41  C   UNL     1      -6.593   0.046   4.751  1.00  0.00     0.031 C 
ATOM     42  C   UNL     1      -6.402  -5.314   0.437  1.00  0.00     0.029 A 
ATOM     43  C   UNL     1      -7.726  -4.765   0.717  1.00  0.00     0.049 A 
ATOM     44  H   UNL     1      -8.183  -3.141   1.942  1.00  0.00     0.167 HD
ATOM     45  C   UNL     1      -9.051   0.224   4.535  1.00  0.00     0.034 A 
ATOM     46  C   UNL     1      -8.886  -5.233   0.213  1.00  0.00     0.034 A 
ATOM     47  C   UNL     1     -10.331  -0.173   4.016  1.00  0.00     0.049 A 
ATOM     48  C   UNL     1     -10.183  -4.586   0.619  1.00  0.00     0.074 A 
ATOM     49  C   UNL     1     -11.568   0.404   4.249  1.00  0.00     0.029 A 
ATOM     50  N   UNL     1     -10.543  -1.242   3.162  1.00  0.00    -0.354 N 
ATOM     51  N   UNL     1     -10.379  -3.507   1.336  1.00  0.00    -0.248 NA
ATOM     52  C   UNL     1     -11.421  -5.223   0.142  1.00  0.00     0.031 C 
ATOM     53  C   UNL     1     -12.531  -0.327   3.545  1.00  0.00     0.029 A 
ATOM     54  C   UNL     1     -11.892  -1.352   2.868  1.00  0.00     0.049 A 
ATOM     55  H   UNL     1      -9.839  -1.836   2.815  1.00  0.00     0.167 HD
ATOM     56  C   UNL     1     -11.757  -3.326   1.383  1.00  0.00     0.074 A 
ATOM     57  C   UNL     1     -12.347  -4.388   0.595  1.00  0.00     0.031 C 
ATOM     58  C   UNL     1     -12.470  -2.379   2.041  1.00  0.00     0.034 A 
BRANCH  45  59
ATOM     59  C   UNL     1      -9.001   1.419   5.444  1.00  0.00     0.023 A 
ATOM     60  C   UNL     1      -8.615   2.671   4.928  1.00  0.00     0.012 A 
ATOM     61  C   UNL     1      -9.380   1.308   6.795  1.00  0.00     0.148 A 
ATOM     62  C   UNL     1      -8.591   3.796   5.751  1.00  0.00     0.002 A 
ATOM     63  C   UNL     1      -9.382   2.439   7.602  1.00  0.00     0.091 A 
ATOM     64  F   UNL     1      -9.711   0.099   7.271  1.00  0.00    -0.205 F 
ATOM     65  C   UNL     1      -8.984   3.683   7.083  1.00  0.00     0.022 A 
BRANCH  63  66
ATOM     66  S   UNL     1      -9.924   2.392   9.313  1.00  0.00     0.127 S 
ATOM     67  O   UNL     1      -8.648   2.411  10.027  1.00  0.00    -0.237 OA
ATOM     68  O   UNL     1     -10.705   3.624   9.428  1.00  0.00    -0.237 OA
ATOM     69  O   UNL     1     -10.703   1.169   9.447  1.00  0.00    -0.744 OA
ENDBRANCH  63  66
ENDBRANCH  45  59
BRANCH  46  70
ATOM     70  C   UNL     1      -8.881  -6.385  -0.734  1.00  0.00     0.023 A 
ATOM     71  C   UNL     1      -9.282  -6.187  -2.070  1.00  0.00     0.012 A 
ATOM     72  C   UNL     1      -8.480  -7.670  -0.323  1.00  0.00     0.148 A 
ATOM     73  C   UNL     1      -9.300  -7.252  -2.972  1.00  0.00     0.002 A 
ATOM     74  C   UNL     1      -8.444  -8.713  -1.241  1.00  0.00     0.091 A 
ATOM     75  F   UNL     1      -8.142  -7.852   0.962  1.00  0.00    -0.205 F 
ATOM     76  C   UNL     1      -8.867  -8.511  -2.562  1.00  0.00     0.022 A 
BRANCH  74  77
ATOM     77  S   UNL     1      -7.772 -10.325  -0.817  1.00  0.00     0.127 S 
ATOM     78  O   UNL     1      -8.986 -11.109  -0.605  1.00  0.00    -0.237 OA
ATOM     79  O   UNL     1      -7.017 -10.671  -2.021  1.00  0.00    -0.237 OA
ATOM     80  O   UNL     1      -6.944 -10.096   0.360  1.00  0.00    -0.744 OA
ENDBRANCH  74  77
ENDBRANCH  46  70
BRANCH  58  81
ATOM     81  C   UNL     1     -13.971  -2.432   1.938  1.00  0.00     0.023 A 
ATOM     82  C   UNL     1     -14.679  -3.412   2.661  1.00  0.00     0.012 A 
ATOM     83  C   UNL     1     -14.685  -1.470   1.198  1.00  0.00     0.148 A 
ATOM     84  C   UNL     1     -16.073  -3.448   2.632  1.00  0.00     0.002 A 
ATOM     85  C   UNL     1     -16.076  -1.486   1.207  1.00  0.00     0.091 A 
ATOM     86  F   UNL     1     -13.995  -0.558   0.497  1.00  0.00    -0.205 F 
ATOM     87  C   UNL     1     -16.771  -2.479   1.916  1.00  0.00     0.022 A 
BRANCH  85  88
ATOM     88  S   UNL     1     -17.052  -0.218   0.387  1.00  0.00     0.127 S 
ATOM     89  O   UNL     1     -17.478  -0.909  -0.829  1.00  0.00    -0.237 OA
ATOM     90  O   UNL     1     -18.122   0.031   1.354  1.00  0.00    -0.237 OA
ATOM     91  O   UNL     1     -16.149   0.908   0.189  1.00  0.00    -0.744 OA
ENDBRANCH  85  88
ENDBRANCH  58  81
ENDBRANCH  32  33
ENDBRANCH  25  27
ENDBRANCH  24  25
ENDBRANCH  23  24
ENDBRANCH   1  23
TORSDOF 18
