REMARK SMILES Cc1ccc(-c2c[nH]c(=O)cc2C(=O)OCCOC(=O)c2ccc(-c3c4nc(c(-c5cccc(S(=O)(=O)[O-])c5F)c5ccc([nH]5)c(-c5cccc(S(=O)(=O)[O-])c5F)c5nc(c(-c6cccc(S(=O)(=O)[O-])c6F)c6ccc3[nH]6)C=C5)C=C4)cc2)cc1Cl
REMARK SMILES IDX 17 1 16 2 15 3 13 4 14 5 12 6 6 7 7 8 8 9 11 10 9 11 10 13
REMARK SMILES IDX 5 14 1 15 2 16 3 17 85 18 4 19 84 20 86 21 18 22 19 23 20 24
REMARK SMILES IDX 21 25 22 26 83 27 23 28 82 29 24 30 25 31 26 32 76 33 27 34
REMARK SMILES IDX 81 35 75 36 77 37 28 38 80 39 74 40 73 41 29 43 61 44 41 45
REMARK SMILES IDX 60 46 42 47 45 48 59 49 78 50 43 51 44 52 58 54 79 55 46 56
REMARK SMILES IDX 30 57 31 58 39 59 32 60 34 61 40 62 33 63 35 64 36 65 37 66
REMARK SMILES IDX 38 67 62 68 63 69 71 70 64 71 66 72 72 73 65 74 67 75 68 76
REMARK SMILES IDX 69 77 70 78 47 79 48 80 56 81 49 82 51 83 57 84 50 85 52 86
REMARK SMILES IDX 53 87 54 88 55 89
REMARK H PARENT 8 12 77 42 45 53
REMARK Flexibility Score: inf
ROOT
ATOM      1  C   UNL     1      -5.198  -0.281  -4.306  1.00  0.00     0.275 C 
ENDROOT
BRANCH   1   2
ATOM      2  C   UNL     1      -4.927  -1.781  -4.322  1.00  0.00     0.275 C 
BRANCH   2   3
ATOM      3  O   UNL     1      -4.976  -2.308  -2.977  1.00  0.00    -0.458 OA
BRANCH   3   4
ATOM      4  C   UNL     1      -3.800  -2.775  -2.483  1.00  0.00     0.339 C 
ATOM      5  O   UNL     1      -2.748  -2.855  -3.099  1.00  0.00    -0.246 OA
BRANCH   4   6
ATOM      6  C   UNL     1      -3.960  -3.271  -1.096  1.00  0.00     0.074 A 
ATOM      7  C   UNL     1      -3.199  -2.741   0.044  1.00  0.00     0.013 A 
ATOM      8  C   UNL     1      -3.196  -3.456   1.182  1.00  0.00     0.095 A 
ATOM      9  N   UNL     1      -3.924  -4.619   1.282  1.00  0.00    -0.328 N 
ATOM     10  C   UNL     1      -4.686  -4.396  -1.001  1.00  0.00     0.087 A 
ATOM     11  C   UNL     1      -4.693  -5.143   0.273  1.00  0.00     0.248 A 
ATOM     12  H   UNL     1      -3.890  -5.109   2.135  1.00  0.00     0.169 HD
ATOM     13  O   UNL     1      -5.321  -6.190   0.383  1.00  0.00    -0.270 OA
BRANCH   7  14
ATOM     14  C   UNL     1      -2.279  -1.598  -0.055  1.00  0.00    -0.015 A 
ATOM     15  C   UNL     1       0.956   2.110  -1.778  1.00  0.00     0.046 C 
ATOM     16  C   UNL     1      -0.057   1.065  -1.428  1.00  0.00    -0.032 A 
ATOM     17  C   UNL     1      -1.507   1.562  -0.500  1.00  0.00     0.005 A 
ATOM     18  C   UNL     1       0.242  -0.647  -1.624  1.00  0.00     0.044 A 
ATOM     19  C   UNL     1      -2.705   0.132   0.288  1.00  0.00     0.009 A 
ATOM     20  C   UNL     1      -0.808  -1.919  -0.983  1.00  0.00     0.029 A 
ATOM     21  Cl  UNL     1       1.696  -1.171  -2.394  1.00  0.00    -0.084 Cl
ENDBRANCH   7  14
ENDBRANCH   4   6
ENDBRANCH   3   4
ENDBRANCH   2   3
ENDBRANCH   1   2
BRANCH   1  22
ATOM     22  O   UNL     1      -4.149   0.368  -3.567  1.00  0.00    -0.458 OA
BRANCH  22  23
ATOM     23  C   UNL     1      -4.511   0.746  -2.326  1.00  0.00     0.338 C 
ATOM     24  O   UNL     1      -5.631   0.724  -1.840  1.00  0.00    -0.246 OA
BRANCH  23  25
ATOM     25  C   UNL     1      -3.343   1.096  -1.519  1.00  0.00     0.060 A 
ATOM     26  C   UNL     1      -1.937  -0.017  -1.436  1.00  0.00     0.016 A 
ATOM     27  C   UNL     1      -3.651   2.147  -0.149  1.00  0.00     0.016 A 
ATOM     28  C   UNL     1      -0.835  -0.031   0.263  1.00  0.00     0.010 A 
ATOM     29  C   UNL     1      -2.636   2.180   1.306  1.00  0.00     0.010 A 
ATOM     30  C   UNL     1      -1.223   1.140   1.581  1.00  0.00    -0.014 A 
BRANCH  30  31
ATOM     31  C   UNL     1      -0.235   1.482   2.702  1.00  0.00     0.031 A 
ATOM     32  C   UNL     1      -0.703   2.208   3.962  1.00  0.00     0.074 A 
ATOM     33  C   UNL     1       1.110   1.339   2.556  1.00  0.00     0.049 A 
ATOM     34  N   UNL     1      -0.010   2.905   4.835  1.00  0.00    -0.248 NA
ATOM     35  C   UNL     1      -2.143   2.195   4.254  1.00  0.00     0.031 C 
ATOM     36  C   UNL     1       1.811   0.720   1.441  1.00  0.00     0.029 A 
ATOM     37  N   UNL     1       2.164   1.770   3.347  1.00  0.00    -0.354 N 
ATOM     38  C   UNL     1      -0.937   3.493   5.696  1.00  0.00     0.074 A 
ATOM     39  C   UNL     1      -2.244   3.125   5.194  1.00  0.00     0.031 C 
ATOM     40  C   UNL     1       3.131   0.811   1.580  1.00  0.00     0.029 A 
ATOM     41  C   UNL     1       3.409   1.559   2.779  1.00  0.00     0.049 A 
ATOM     42  H   UNL     1       2.040   2.188   4.229  1.00  0.00     0.167 HD
ATOM     43  C   UNL     1      -0.738   4.210   6.834  1.00  0.00     0.034 A 
ATOM     44  C   UNL     1       4.662   1.917   3.115  1.00  0.00     0.034 A 
ATOM     45  C   UNL     1       0.555   4.421   7.437  1.00  0.00     0.049 A 
ATOM     46  C   UNL     1       4.872   2.619   4.409  1.00  0.00     0.074 A 
ATOM     47  C   UNL     1       0.852   4.979   8.670  1.00  0.00     0.029 A 
ATOM     48  N   UNL     1       1.766   4.052   6.870  1.00  0.00    -0.354 N 
ATOM     49  N   UNL     1       3.972   3.079   5.238  1.00  0.00    -0.248 NA
ATOM     50  C   UNL     1       6.260   2.777   4.856  1.00  0.00     0.031 C 
ATOM     51  C   UNL     1       2.241   4.950   8.846  1.00  0.00     0.029 A 
ATOM     52  C   UNL     1       2.808   4.355   7.732  1.00  0.00     0.049 A 
ATOM     53  H   UNL     1       1.870   3.635   5.985  1.00  0.00     0.167 HD
ATOM     54  C   UNL     1       4.679   3.525   6.341  1.00  0.00     0.074 A 
ATOM     55  C   UNL     1       6.082   3.279   6.069  1.00  0.00     0.031 C 
ATOM     56  C   UNL     1       4.198   4.079   7.478  1.00  0.00     0.034 A 
BRANCH  43  57
ATOM     57  C   UNL     1      -1.957   4.739   7.569  1.00  0.00     0.023 A 
ATOM     58  C   UNL     1      -2.868   3.837   8.159  1.00  0.00     0.012 A 
ATOM     59  C   UNL     1      -2.184   6.125   7.716  1.00  0.00     0.148 A 
ATOM     60  C   UNL     1      -4.017   4.294   8.806  1.00  0.00     0.002 A 
ATOM     61  C   UNL     1      -3.304   6.575   8.412  1.00  0.00     0.091 A 
ATOM     62  F   UNL     1      -1.310   6.979   7.165  1.00  0.00    -0.205 F 
ATOM     63  C   UNL     1      -4.232   5.662   8.936  1.00  0.00     0.022 A 
BRANCH  61  64
ATOM     64  S   UNL     1      -3.630   8.316   8.725  1.00  0.00     0.127 S 
ATOM     65  O   UNL     1      -4.788   8.558   7.865  1.00  0.00    -0.237 OA
ATOM     66  O   UNL     1      -3.925   8.321  10.158  1.00  0.00    -0.237 OA
ATOM     67  O   UNL     1      -2.415   9.026   8.352  1.00  0.00    -0.744 OA
ENDBRANCH  61  64
ENDBRANCH  43  57
BRANCH  44  68
ATOM     68  C   UNL     1       5.806   1.477   2.259  1.00  0.00     0.023 A 
ATOM     69  C   UNL     1       6.581   0.377   2.675  1.00  0.00     0.012 A 
ATOM     70  C   UNL     1       6.055   2.054   0.996  1.00  0.00     0.148 A 
ATOM     71  C   UNL     1       7.599  -0.125   1.865  1.00  0.00     0.002 A 
ATOM     72  C   UNL     1       7.043   1.520   0.174  1.00  0.00     0.091 A 
ATOM     73  F   UNL     1       5.293   3.087   0.608  1.00  0.00    -0.205 F 
ATOM     74  C   UNL     1       7.823   0.439   0.612  1.00  0.00     0.022 A 
BRANCH  72  75
ATOM     75  S   UNL     1       7.323   2.096  -1.507  1.00  0.00     0.127 S 
ATOM     76  O   UNL     1       8.597   2.799  -1.371  1.00  0.00    -0.237 OA
ATOM     77  O   UNL     1       7.392   0.839  -2.253  1.00  0.00    -0.237 OA
ATOM     78  O   UNL     1       6.173   2.927  -1.834  1.00  0.00    -0.744 OA
ENDBRANCH  72  75
ENDBRANCH  44  68
BRANCH  56  79
ATOM     79  C   UNL     1       5.201   4.405   8.545  1.00  0.00     0.023 A 
ATOM     80  C   UNL     1       6.091   5.483   8.373  1.00  0.00     0.012 A 
ATOM     81  C   UNL     1       5.247   3.646   9.729  1.00  0.00     0.148 A 
ATOM     82  C   UNL     1       7.041   5.776   9.350  1.00  0.00     0.002 A 
ATOM     83  C   UNL     1       6.158   3.978  10.722  1.00  0.00     0.091 A 
ATOM     84  F   UNL     1       4.412   2.603   9.854  1.00  0.00    -0.205 F 
ATOM     85  C   UNL     1       7.066   5.032  10.528  1.00  0.00     0.022 A 
BRANCH  83  86
ATOM     86  S   UNL     1       6.196   3.138  12.307  1.00  0.00     0.127 S 
ATOM     87  O   UNL     1       7.430   2.361  12.205  1.00  0.00    -0.237 OA
ATOM     88  O   UNL     1       6.254   4.258  13.247  1.00  0.00    -0.237 OA
ATOM     89  O   UNL     1       4.969   2.355  12.377  1.00  0.00    -0.744 OA
ENDBRANCH  83  86
ENDBRANCH  56  79
ENDBRANCH  30  31
ENDBRANCH  23  25
ENDBRANCH  22  23
ENDBRANCH   1  22
TORSDOF 15
