REMARK SMILES C[C@H]1CC[C@H]([NH2+]Cc2c(C(=O)OCCOC(=O)c3ccc(-c4c5nc(c(-c6cccc(S(=O)(=O)[O-])c6F)c6ccc([nH]6)c(-c6cccc(S(=O)(=O)[O-])c6F)c6nc(c(-c7cccc(S(=O)(=O)[O-])c7F)c7ccc4[nH]7)C=C6)C=C5)cc3)n(Cc3ccccc3F)c3ccccc23)CC1
REMARK SMILES IDX 13 1 12 2 10 3 11 4 9 5 8 6 95 7 81 8 90 9 94 10 91 11 93 12
REMARK SMILES IDX 92 13 7 14 6 15 5 18 1 19 2 20 3 21 97 22 4 23 96 24 82 25
REMARK SMILES IDX 83 26 84 27 88 28 85 29 87 30 89 31 86 32 14 33 15 34 16 35
REMARK SMILES IDX 17 36 18 37 19 38 80 39 20 40 79 41 21 42 22 43 23 44 73 45
REMARK SMILES IDX 24 46 78 47 72 48 74 49 25 50 77 51 71 52 70 53 26 55 58 56
REMARK SMILES IDX 38 57 57 58 39 59 42 60 56 61 75 62 40 63 41 64 55 66 76 67
REMARK SMILES IDX 43 68 27 69 28 70 36 71 29 72 31 73 37 74 30 75 32 76 33 77
REMARK SMILES IDX 34 78 35 79 59 80 60 81 68 82 61 83 63 84 69 85 62 86 64 87
REMARK SMILES IDX 65 88 66 89 67 90 44 91 45 92 53 93 46 94 48 95 54 96 47 97
REMARK SMILES IDX 49 98 50 99 51 100 52 101
REMARK H PARENT 6 16 6 17 74 54 42 65
REMARK Flexibility Score: inf
ROOT
ATOM      1  C   UNL     1      -2.035   0.750   2.927  1.00  0.00     0.275 C 
ENDROOT
BRANCH   1   2
ATOM      2  O   UNL     1      -3.002  -0.238   2.464  1.00  0.00    -0.457 OA
BRANCH   2   3
ATOM      3  C   UNL     1      -2.501  -1.475   2.189  1.00  0.00     0.355 C 
ATOM      4  O   UNL     1      -1.403  -1.828   2.566  1.00  0.00    -0.244 OA
BRANCH   3   5
ATOM      5  C   UNL     1      -3.346  -2.288   1.334  1.00  0.00     0.137 A 
ATOM      6  C   UNL     1      -4.039  -1.934   0.162  1.00  0.00     0.047 A 
ATOM      7  C   UNL     1      -4.613  -3.155  -0.358  1.00  0.00     0.009 A 
ATOM      8  N   UNL     1      -3.389  -3.698   1.434  1.00  0.00    -0.330 N 
ATOM      9  C   UNL     1      -4.093  -4.224   0.364  1.00  0.00     0.050 A 
ATOM     10  C   UNL     1      -5.426  -3.436  -1.481  1.00  0.00     0.011 A 
ATOM     11  C   UNL     1      -4.247  -5.548  -0.088  1.00  0.00     0.027 A 
ATOM     12  C   UNL     1      -5.649  -4.758  -1.877  1.00  0.00     0.001 A 
ATOM     13  C   UNL     1      -5.040  -5.801  -1.205  1.00  0.00     0.002 A 
BRANCH   6  14
ATOM     14  C   UNL     1      -4.181  -0.642  -0.637  1.00  0.00     0.300 C 
BRANCH  14  15
ATOM     15  N   UNL     1      -3.328   0.490  -0.276  1.00  0.00    -0.340 N 
ATOM     16  H   UNL     1      -3.878   1.340  -0.400  1.00  0.00     0.346 HD
ATOM     17  H   UNL     1      -3.033   0.298   0.681  1.00  0.00     0.346 HD
BRANCH  15  18
ATOM     18  C   UNL     1      -2.070   0.664  -1.030  1.00  0.00     0.182 C 
ATOM     19  C   UNL     1       2.355   1.109  -0.651  1.00  0.00     0.007 C 
ATOM     20  C   UNL     1       0.850   0.946  -0.469  1.00  0.00    -0.014 C 
ATOM     21  C   UNL     1       0.327  -0.263  -1.240  1.00  0.00     0.009 C 
ATOM     22  C   UNL     1       0.060   2.168  -0.938  1.00  0.00     0.009 C 
ATOM     23  C   UNL     1      -1.123  -0.522  -0.861  1.00  0.00     0.065 C 
ATOM     24  C   UNL     1      -1.437   2.019  -0.631  1.00  0.00     0.065 C 
ENDBRANCH  15  18
ENDBRANCH  14  15
ENDBRANCH   6  14
BRANCH   8  25
ATOM     25  C   UNL     1      -2.503  -4.538   2.260  1.00  0.00     0.161 C 
BRANCH  25  26
ATOM     26  C   UNL     1      -3.068  -5.380   3.385  1.00  0.00     0.008 A 
ATOM     27  C   UNL     1      -3.496  -6.702   3.181  1.00  0.00     0.008 A 
ATOM     28  C   UNL     1      -2.927  -4.957   4.713  1.00  0.00     0.128 A 
ATOM     29  C   UNL     1      -3.741  -7.568   4.254  1.00  0.00     0.001 A 
ATOM     30  C   UNL     1      -3.152  -5.819   5.790  1.00  0.00     0.039 A 
ATOM     31  F   UNL     1      -2.480  -3.721   4.979  1.00  0.00    -0.207 F 
ATOM     32  C   UNL     1      -3.552  -7.133   5.561  1.00  0.00     0.003 A 
ENDBRANCH  25  26
ENDBRANCH   8  25
ENDBRANCH   3   5
ENDBRANCH   2   3
ENDBRANCH   1   2
BRANCH   1  33
ATOM     33  C   UNL     1      -1.207   0.442   4.189  1.00  0.00     0.275 C 
BRANCH  33  34
ATOM     34  O   UNL     1       0.098  -0.023   3.774  1.00  0.00    -0.458 OA
BRANCH  34  35
ATOM     35  C   UNL     1       0.632  -1.013   4.538  1.00  0.00     0.338 C 
ATOM     36  O   UNL     1       0.484  -1.139   5.742  1.00  0.00    -0.246 OA
BRANCH  35  37
ATOM     37  C   UNL     1       1.144  -2.071   3.622  1.00  0.00     0.060 A 
ATOM     38  C   UNL     1       1.661  -1.770   2.356  1.00  0.00     0.016 A 
ATOM     39  C   UNL     1       0.800  -3.388   3.934  1.00  0.00     0.016 A 
ATOM     40  C   UNL     1       1.657  -2.750   1.355  1.00  0.00     0.010 A 
ATOM     41  C   UNL     1       0.806  -4.358   2.929  1.00  0.00     0.010 A 
ATOM     42  C   UNL     1       1.129  -4.024   1.604  1.00  0.00    -0.014 A 
BRANCH  42  43
ATOM     43  C   UNL     1       0.999  -5.017   0.522  1.00  0.00     0.031 A 
ATOM     44  C   UNL     1       1.396  -6.407   0.807  1.00  0.00     0.074 A 
ATOM     45  C   UNL     1       0.430  -4.903  -0.698  1.00  0.00     0.049 A 
ATOM     46  N   UNL     1       2.586  -6.893   0.716  1.00  0.00    -0.248 NA
ATOM     47  C   UNL     1       0.368  -7.357   1.252  1.00  0.00     0.031 C 
ATOM     48  C   UNL     1      -0.517  -3.912  -1.172  1.00  0.00     0.029 A 
ATOM     49  N   UNL     1       0.559  -5.748  -1.771  1.00  0.00    -0.354 N 
ATOM     50  C   UNL     1       2.439  -8.254   0.920  1.00  0.00     0.074 A 
ATOM     51  C   UNL     1       1.096  -8.463   1.411  1.00  0.00     0.031 C 
ATOM     52  C   UNL     1      -0.951  -4.244  -2.413  1.00  0.00     0.029 A 
ATOM     53  C   UNL     1      -0.216  -5.412  -2.874  1.00  0.00     0.049 A 
ATOM     54  H   UNL     1       1.154  -6.532  -1.761  1.00  0.00     0.167 HD
ATOM     55  C   UNL     1       3.352  -9.156   0.478  1.00  0.00     0.034 A 
ATOM     56  C   UNL     1      -0.226  -6.033  -4.080  1.00  0.00     0.034 A 
ATOM     57  C   UNL     1       4.459  -8.551  -0.209  1.00  0.00     0.049 A 
ATOM     58  C   UNL     1       1.068  -6.755  -4.210  1.00  0.00     0.074 A 
ATOM     59  C   UNL     1       5.480  -7.684   0.117  1.00  0.00     0.029 A 
ATOM     60  N   UNL     1       4.365  -8.549  -1.581  1.00  0.00    -0.354 N 
ATOM     61  N   UNL     1       2.224  -6.163  -4.345  1.00  0.00    -0.248 NA
ATOM     62  C   UNL     1       1.134  -8.196  -4.004  1.00  0.00     0.031 C 
ATOM     63  C   UNL     1       5.740  -6.929  -1.067  1.00  0.00     0.029 A 
ATOM     64  C   UNL     1       4.844  -7.350  -2.052  1.00  0.00     0.049 A 
ATOM     65  H   UNL     1       4.013  -9.284  -2.133  1.00  0.00     0.167 HD
ATOM     66  C   UNL     1       3.144  -7.066  -3.842  1.00  0.00     0.074 A 
ATOM     67  C   UNL     1       2.451  -8.344  -3.842  1.00  0.00     0.031 C 
ATOM     68  C   UNL     1       4.264  -6.644  -3.184  1.00  0.00     0.034 A 
BRANCH  55  69
ATOM     69  C   UNL     1       3.101 -10.624   0.420  1.00  0.00     0.023 A 
ATOM     70  C   UNL     1       4.176 -11.492   0.676  1.00  0.00     0.012 A 
ATOM     71  C   UNL     1       1.874 -11.185   0.019  1.00  0.00     0.148 A 
ATOM     72  C   UNL     1       4.018 -12.877   0.592  1.00  0.00     0.002 A 
ATOM     73  C   UNL     1       1.696 -12.562   0.024  1.00  0.00     0.091 A 
ATOM     74  F   UNL     1       0.900 -10.385  -0.440  1.00  0.00    -0.205 F 
ATOM     75  C   UNL     1       2.768 -13.415   0.298  1.00  0.00     0.022 A 
BRANCH  73  76
ATOM     76  S   UNL     1       0.054 -13.249  -0.202  1.00  0.00     0.127 S 
ATOM     77  O   UNL     1      -0.035 -13.351  -1.654  1.00  0.00    -0.237 OA
ATOM     78  O   UNL     1       0.142 -14.527   0.505  1.00  0.00    -0.237 OA
ATOM     79  O   UNL     1      -0.820 -12.275   0.444  1.00  0.00    -0.744 OA
ENDBRANCH  73  76
ENDBRANCH  55  69
BRANCH  56  80
ATOM     80  C   UNL     1      -1.197  -6.029  -5.205  1.00  0.00     0.023 A 
ATOM     81  C   UNL     1      -0.748  -6.348  -6.506  1.00  0.00     0.012 A 
ATOM     82  C   UNL     1      -2.589  -5.936  -5.004  1.00  0.00     0.148 A 
ATOM     83  C   UNL     1      -1.644  -6.600  -7.552  1.00  0.00     0.002 A 
ATOM     84  C   UNL     1      -3.480  -6.171  -6.056  1.00  0.00     0.091 A 
ATOM     85  F   UNL     1      -3.058  -5.683  -3.775  1.00  0.00    -0.205 F 
ATOM     86  C   UNL     1      -3.013  -6.519  -7.327  1.00  0.00     0.022 A 
BRANCH  84  87
ATOM     87  S   UNL     1      -5.251  -6.057  -5.769  1.00  0.00     0.127 S 
ATOM     88  O   UNL     1      -5.827  -6.275  -7.097  1.00  0.00    -0.237 OA
ATOM     89  O   UNL     1      -5.505  -7.135  -4.820  1.00  0.00    -0.237 OA
ATOM     90  O   UNL     1      -5.420  -4.696  -5.269  1.00  0.00    -0.744 OA
ENDBRANCH  84  87
ENDBRANCH  56  80
BRANCH  68  91
ATOM     91  C   UNL     1       4.711  -5.216  -3.399  1.00  0.00     0.023 A 
ATOM     92  C   UNL     1       3.903  -4.126  -3.015  1.00  0.00     0.012 A 
ATOM     93  C   UNL     1       6.019  -4.961  -3.855  1.00  0.00     0.148 A 
ATOM     94  C   UNL     1       4.371  -2.814  -3.106  1.00  0.00     0.002 A 
ATOM     95  C   UNL     1       6.498  -3.654  -3.902  1.00  0.00     0.091 A 
ATOM     96  F   UNL     1       6.783  -6.005  -4.210  1.00  0.00    -0.205 F 
ATOM     97  C   UNL     1       5.673  -2.579  -3.537  1.00  0.00     0.022 A 
BRANCH  95  98
ATOM     98  S   UNL     1       8.200  -3.268  -4.331  1.00  0.00     0.127 S 
ATOM     99  O   UNL     1       8.047  -2.592  -5.618  1.00  0.00    -0.237 OA
ATOM    100  O   UNL     1       8.608  -2.396  -3.228  1.00  0.00    -0.237 OA
ATOM    101  O   UNL     1       8.905  -4.543  -4.378  1.00  0.00    -0.744 OA
ENDBRANCH  95  98
ENDBRANCH  68  91
ENDBRANCH  42  43
ENDBRANCH  35  37
ENDBRANCH  34  35
ENDBRANCH  33  34
ENDBRANCH   1  33
TORSDOF 19
