REMARK SMILES COc1cc(CC(=O)N[C@@H](CC(=O)OCCOC(=O)c2ccc(-c3c4nc(c(-c5cccc(S(=O)(=O)[O-])c5F)c5ccc([nH]5)c(-c5cccc(S(=O)(=O)[O-])c5F)c5nc(c(-c6cccc(S(=O)(=O)[O-])c6F)c6ccc3[nH]6)C=C5)C=C4)cc2)c2cccs2)ccc1C
REMARK SMILES IDX 15 1 14 2 12 3 13 4 11 5 10 6 9 7 7 8 8 9 6 11 5 12 3 13
REMARK SMILES IDX 4 14 90 15 89 16 91 17 88 18 2 19 1 20 83 21 84 22 87 23
REMARK SMILES IDX 85 24 86 25 16 26 17 27 18 28 19 29 20 30 21 31 82 32 22 33
REMARK SMILES IDX 81 34 23 35 24 36 25 37 75 38 26 39 80 40 74 41 76 42 27 43
REMARK SMILES IDX 79 44 73 45 72 46 28 48 60 49 40 50 59 51 41 52 44 53 58 54
REMARK SMILES IDX 77 55 42 56 43 57 57 59 78 60 45 61 29 62 30 63 38 64 31 65
REMARK SMILES IDX 33 66 39 67 32 68 34 69 35 70 36 71 37 72 61 73 62 74 70 75
REMARK SMILES IDX 63 76 65 77 71 78 64 79 66 80 67 81 68 82 69 83 46 84 47 85
REMARK SMILES IDX 55 86 48 87 50 88 56 89 49 90 51 91 52 92 53 93 54 94
REMARK H PARENT 9 10 76 47 44 58
REMARK Flexibility Score: inf
ROOT
ATOM      1  C   UNL     1       5.415   5.700   7.670  1.00  0.00     0.274 C 
ENDROOT
BRANCH   1   2
ATOM      2  O   UNL     1       4.611   4.558   7.351  1.00  0.00    -0.462 OA
BRANCH   2   3
ATOM      3  C   UNL     1       4.021   4.529   6.032  1.00  0.00     0.308 C 
ATOM      4  O   UNL     1       3.809   5.732   5.734  1.00  0.00    -0.252 OA
BRANCH   3   5
ATOM      5  C   UNL     1       3.775   2.689   4.861  1.00  0.00     0.153 C 
BRANCH   5   6
ATOM      6  C   UNL     1       4.716   1.465   4.080  1.00  0.00     0.133 C 
BRANCH   6   7
ATOM      7  N   UNL     1       5.144   0.393   4.989  1.00  0.00    -0.348 N 
ATOM      8  C   UNL     1       4.750  -0.899   5.127  1.00  0.00     0.224 C 
ATOM      9  O   UNL     1       5.211  -1.518   6.091  1.00  0.00    -0.275 OA
ATOM     10  H   UNL     1       5.851   0.662   5.618  1.00  0.00     0.164 HD
BRANCH   8  11
ATOM     11  C   UNL     1       3.921  -1.610   4.077  1.00  0.00     0.135 C 
BRANCH  11  12
ATOM     12  C   UNL     1       2.517  -1.110   3.857  1.00  0.00    -0.035 A 
ATOM     13  C   UNL     1       0.854  -0.135   2.354  1.00  0.00     0.122 A 
ATOM     14  C   UNL     1       2.134  -0.646   2.586  1.00  0.00     0.051 A 
ATOM     15  C   UNL     1      -0.075  -0.105   3.404  1.00  0.00    -0.009 A 
ATOM     16  C   UNL     1       0.291  -0.616   4.660  1.00  0.00     0.007 A 
ATOM     17  C   UNL     1      -1.462   0.455   3.236  1.00  0.00     0.048 C 
ATOM     18  C   UNL     1       1.573  -1.120   4.885  1.00  0.00     0.005 A 
BRANCH  13  19
ATOM     19  O   UNL     1       0.450   0.403   1.162  1.00  0.00    -0.496 OA
ATOM     20  C   UNL     1       1.121  -0.031  -0.010  1.00  0.00     0.278 C 
ENDBRANCH  13  19
ENDBRANCH  11  12
ENDBRANCH   8  11
ENDBRANCH   6   7
BRANCH   6  21
ATOM     21  C   UNL     1       5.816   1.849   3.090  1.00  0.00     0.027 A 
ATOM     22  C   UNL     1       5.741   2.734   2.023  1.00  0.00     0.017 A 
ATOM     23  S   UNL     1       7.391   1.154   3.167  1.00  0.00    -0.147 S 
ATOM     24  C   UNL     1       7.023   3.038   1.476  1.00  0.00     0.012 A 
ATOM     25  C   UNL     1       8.004   2.226   1.990  1.00  0.00     0.065 A 
ENDBRANCH   6  21
ENDBRANCH   5   6
ENDBRANCH   3   5
ENDBRANCH   2   3
ENDBRANCH   1   2
BRANCH   1  26
ATOM     26  C   UNL     1       6.779   5.534   6.994  1.00  0.00     0.275 C 
BRANCH  26  27
ATOM     27  O   UNL     1       6.855   5.814   5.566  1.00  0.00    -0.458 OA
BRANCH  27  28
ATOM     28  C   UNL     1       6.463   5.097   4.478  1.00  0.00     0.338 C 
ATOM     29  O   UNL     1       6.798   5.443   3.352  1.00  0.00    -0.246 OA
BRANCH  28  30
ATOM     30  C   UNL     1       5.418   4.049   4.631  1.00  0.00     0.060 A 
ATOM     31  C   UNL     1       3.837   4.576   3.924  1.00  0.00     0.016 A 
ATOM     32  C   UNL     1       5.450   2.966   6.072  1.00  0.00     0.016 A 
ATOM     33  C   UNL     1       2.300   4.243   4.827  1.00  0.00     0.010 A 
ATOM     34  C   UNL     1       3.908   2.587   6.941  1.00  0.00     0.010 A 
ATOM     35  C   UNL     1       2.362   3.333   6.355  1.00  0.00    -0.014 A 
BRANCH  35  36
ATOM     36  C   UNL     1       1.437   3.640   7.424  1.00  0.00     0.031 A 
ATOM     37  C   UNL     1       0.735   2.507   8.025  1.00  0.00     0.074 A 
ATOM     38  C   UNL     1       1.470   4.887   7.961  1.00  0.00     0.049 A 
ATOM     39  N   UNL     1      -0.338   2.631   8.718  1.00  0.00    -0.248 NA
ATOM     40  C   UNL     1       1.113   1.107   7.803  1.00  0.00     0.031 C 
ATOM     41  C   UNL     1       1.097   5.283   9.313  1.00  0.00     0.029 A 
ATOM     42  N   UNL     1       1.804   6.115   7.381  1.00  0.00    -0.354 N 
ATOM     43  C   UNL     1      -0.482   1.429   9.370  1.00  0.00     0.074 A 
ATOM     44  C   UNL     1       0.219   0.472   8.565  1.00  0.00     0.031 C 
ATOM     45  C   UNL     1       0.962   6.622   9.362  1.00  0.00     0.029 A 
ATOM     46  C   UNL     1       1.062   7.116   8.001  1.00  0.00     0.049 A 
ATOM     47  H   UNL     1       2.455   6.249   6.654  1.00  0.00     0.167 HD
ATOM     48  C   UNL     1      -0.918   1.451  10.656  1.00  0.00     0.034 A 
ATOM     49  C   UNL     1       0.142   7.895   7.353  1.00  0.00     0.034 A 
ATOM     50  C   UNL     1      -1.372   2.804  11.012  1.00  0.00     0.049 A 
ATOM     51  C   UNL     1      -1.258   7.641   7.896  1.00  0.00     0.074 A 
ATOM     52  C   UNL     1      -0.867   3.801  11.828  1.00  0.00     0.029 A 
ATOM     53  N   UNL     1      -2.344   3.408  10.221  1.00  0.00    -0.354 N 
ATOM     54  N   UNL     1      -1.528   6.698   8.757  1.00  0.00    -0.248 NA
ATOM     55  C   UNL     1      -2.456   8.393   7.536  1.00  0.00     0.031 C 
ATOM     56  C   UNL     1      -1.500   5.027  11.460  1.00  0.00     0.029 A 
ATOM     57  C   UNL     1      -2.422   4.768  10.459  1.00  0.00     0.049 A 
ATOM     58  H   UNL     1      -2.907   2.926   9.572  1.00  0.00     0.167 HD
ATOM     59  C   UNL     1      -2.872   6.608   8.982  1.00  0.00     0.074 A 
ATOM     60  C   UNL     1      -3.404   7.739   8.236  1.00  0.00     0.031 C 
ATOM     61  C   UNL     1      -3.397   5.577   9.720  1.00  0.00     0.034 A 
BRANCH  48  62
ATOM     62  C   UNL     1      -0.746   0.337  11.671  1.00  0.00     0.023 A 
ATOM     63  C   UNL     1      -1.370   0.533  12.921  1.00  0.00     0.012 A 
ATOM     64  C   UNL     1       0.020  -0.851  11.539  1.00  0.00     0.148 A 
ATOM     65  C   UNL     1      -1.252  -0.384  13.971  1.00  0.00     0.002 A 
ATOM     66  C   UNL     1       0.074  -1.805  12.560  1.00  0.00     0.091 A 
ATOM     67  F   UNL     1       0.792  -1.046  10.468  1.00  0.00    -0.205 F 
ATOM     68  C   UNL     1      -0.550  -1.565  13.784  1.00  0.00     0.022 A 
BRANCH  66  69
ATOM     69  S   UNL     1       0.908  -3.393  12.365  1.00  0.00     0.127 S 
ATOM     70  O   UNL     1       2.022  -3.273  13.305  1.00  0.00    -0.237 OA
ATOM     71  O   UNL     1      -0.129  -4.343  12.771  1.00  0.00    -0.237 OA
ATOM     72  O   UNL     1       1.290  -3.487  10.961  1.00  0.00    -0.744 OA
ENDBRANCH  66  69
ENDBRANCH  48  62
BRANCH  49  73
ATOM     73  C   UNL     1       0.507   8.211   5.935  1.00  0.00     0.023 A 
ATOM     74  C   UNL     1       1.721   8.918   5.745  1.00  0.00     0.012 A 
ATOM     75  C   UNL     1      -0.038   7.510   4.846  1.00  0.00     0.148 A 
ATOM     76  C   UNL     1       2.476   8.748   4.583  1.00  0.00     0.002 A 
ATOM     77  C   UNL     1       0.715   7.359   3.679  1.00  0.00     0.091 A 
ATOM     78  F   UNL     1      -1.245   6.949   4.987  1.00  0.00    -0.205 F 
ATOM     79  C   UNL     1       1.994   7.927   3.571  1.00  0.00     0.022 A 
BRANCH  77  80
ATOM     80  S   UNL     1       0.181   6.282   2.334  1.00  0.00     0.127 S 
ATOM     81  O   UNL     1      -0.325   7.248   1.364  1.00  0.00    -0.237 OA
ATOM     82  O   UNL     1       1.425   5.616   1.944  1.00  0.00    -0.237 OA
ATOM     83  O   UNL     1      -0.806   5.396   2.935  1.00  0.00    -0.744 OA
ENDBRANCH  77  80
ENDBRANCH  49  73
BRANCH  61  84
ATOM     84  C   UNL     1      -4.871   5.194   9.824  1.00  0.00     0.023 A 
ATOM     85  C   UNL     1      -5.866   5.756   9.007  1.00  0.00     0.012 A 
ATOM     86  C   UNL     1      -5.298   4.144  10.688  1.00  0.00     0.148 A 
ATOM     87  C   UNL     1      -7.207   5.358   9.084  1.00  0.00     0.002 A 
ATOM     88  C   UNL     1      -6.600   3.657  10.660  1.00  0.00     0.091 A 
ATOM     89  F   UNL     1      -4.457   3.622  11.591  1.00  0.00    -0.205 F 
ATOM     90  C   UNL     1      -7.571   4.290   9.891  1.00  0.00     0.022 A 
BRANCH  88  91
ATOM     91  S   UNL     1      -7.046   2.127  11.495  1.00  0.00     0.127 S 
ATOM     92  O   UNL     1      -7.703   2.625  12.701  1.00  0.00    -0.237 OA
ATOM     93  O   UNL     1      -7.945   1.498  10.524  1.00  0.00    -0.237 OA
ATOM     94  O   UNL     1      -5.793   1.411  11.696  1.00  0.00    -0.744 OA
ENDBRANCH  88  91
ENDBRANCH  61  84
ENDBRANCH  35  36
ENDBRANCH  28  30
ENDBRANCH  27  28
ENDBRANCH  26  27
ENDBRANCH   1  26
TORSDOF 20
