REMARK SMILES Cc1cscc1C(=O)N1C[C@@H](C(=O)OCCOC(=O)c2ccc(-c3c4nc(c(-c5cccc(S(=O)(=O)[O-])c5F)c5ccc([nH]5)c(-c5cccc(S(=O)(=O)[O-])c5F)c5nc(c(-c6cccc(S(=O)(=O)[O-])c6F)c6ccc3[nH]6)C=C5)C=C4)cc2)Oc2ccccc21
REMARK SMILES IDX 16 1 15 2 14 3 12 4 13 5 11 6 9 7 10 8 89 9 84 10 88 11
REMARK SMILES IDX 83 12 85 13 87 14 86 15 7 16 8 17 6 18 1 19 2 20 3 21 4 22
REMARK SMILES IDX 5 23 17 24 18 25 19 26 20 27 21 28 82 29 22 30 81 31 23 32
REMARK SMILES IDX 24 33 25 34 75 35 26 36 80 37 74 38 76 39 27 40 79 41 73 42
REMARK SMILES IDX 72 43 28 45 60 46 40 47 59 48 41 49 44 50 58 51 77 52 42 53
REMARK SMILES IDX 43 54 57 56 78 57 45 58 29 59 30 60 38 61 31 62 33 63 39 64
REMARK SMILES IDX 32 65 34 66 35 67 36 68 37 69 61 70 62 71 70 72 63 73 65 74
REMARK SMILES IDX 71 75 64 76 66 77 67 78 68 79 69 80 46 81 47 82 55 83 48 84
REMARK SMILES IDX 50 85 56 86 49 87 51 88 52 89 53 90 54 91
REMARK H PARENT 76 44 44 55
REMARK Flexibility Score: inf
ROOT
ATOM      1  C   UNL     1       3.378   6.658  -3.511  1.00  0.00     0.275 C 
ENDROOT
BRANCH   1   2
ATOM      2  C   UNL     1       3.024   6.362  -2.046  1.00  0.00     0.274 C 
BRANCH   2   3
ATOM      3  O   UNL     1       3.909   5.397  -1.447  1.00  0.00    -0.459 OA
BRANCH   3   4
ATOM      4  C   UNL     1       3.485   4.110  -1.559  1.00  0.00     0.349 C 
ATOM      5  O   UNL     1       2.446   3.776  -2.123  1.00  0.00    -0.248 OA
BRANCH   4   6
ATOM      6  C   UNL     1       4.481   3.091  -0.997  1.00  0.00     0.302 C 
ATOM      7  N   UNL     1       2.910   2.226   0.655  1.00  0.00    -0.300 N 
ATOM      8  C   UNL     1       3.674   1.870  -0.545  1.00  0.00     0.183 C 
ATOM      9  C   UNL     1       3.662   2.964   1.620  1.00  0.00     0.086 A 
ATOM     10  C   UNL     1       4.918   3.483   1.274  1.00  0.00     0.144 A 
ATOM     11  C   UNL     1       3.200   3.136   2.928  1.00  0.00     0.030 A 
ATOM     12  O   UNL     1       5.417   3.489  -0.002  1.00  0.00    -0.475 OA
ATOM     13  C   UNL     1       5.736   4.072   2.238  1.00  0.00     0.049 A 
ATOM     14  C   UNL     1       4.003   3.761   3.885  1.00  0.00     0.002 A 
ATOM     15  C   UNL     1       5.279   4.207   3.546  1.00  0.00     0.004 A 
BRANCH   7  16
ATOM     16  C   UNL     1       1.514   2.223   0.695  1.00  0.00     0.259 C 
ATOM     17  O   UNL     1       0.896   3.181   1.170  1.00  0.00    -0.269 OA
BRANCH  16  18
ATOM     18  C   UNL     1       0.766   1.045   0.216  1.00  0.00     0.053 A 
ATOM     19  C   UNL     1       2.499  -0.952   0.304  1.00  0.00     0.046 C 
ATOM     20  C   UNL     1       1.152  -0.351   0.080  1.00  0.00    -0.028 A 
ATOM     21  C   UNL     1       0.065  -1.139  -0.266  1.00  0.00     0.069 A 
ATOM     22  S   UNL     1      -1.380  -0.262  -0.443  1.00  0.00    -0.151 S 
ATOM     23  C   UNL     1      -0.587   1.194  -0.067  1.00  0.00     0.079 A 
ENDBRANCH  16  18
ENDBRANCH   7  16
ENDBRANCH   4   6
ENDBRANCH   3   4
ENDBRANCH   2   3
ENDBRANCH   1   2
BRANCH   1  24
ATOM     24  O   UNL     1       3.205   5.527  -4.389  1.00  0.00    -0.458 OA
BRANCH  24  25
ATOM     25  C   UNL     1       4.284   4.714  -4.507  1.00  0.00     0.338 C 
ATOM     26  O   UNL     1       5.367   4.863  -3.964  1.00  0.00    -0.246 OA
BRANCH  25  27
ATOM     27  C   UNL     1       3.942   3.482  -5.247  1.00  0.00     0.060 A 
ATOM     28  C   UNL     1       4.294   2.263  -4.658  1.00  0.00     0.016 A 
ATOM     29  C   UNL     1       3.355   3.499  -6.512  1.00  0.00     0.016 A 
ATOM     30  C   UNL     1       4.041   1.059  -5.301  1.00  0.00     0.010 A 
ATOM     31  C   UNL     1       3.117   2.285  -7.173  1.00  0.00     0.010 A 
ATOM     32  C   UNL     1       3.456   1.061  -6.568  1.00  0.00    -0.014 A 
BRANCH  32  33
ATOM     33  C   UNL     1       3.239  -0.234  -7.248  1.00  0.00     0.031 A 
ATOM     34  C   UNL     1       4.155  -0.661  -8.356  1.00  0.00     0.074 A 
ATOM     35  C   UNL     1       2.245  -1.040  -6.833  1.00  0.00     0.049 A 
ATOM     36  N   UNL     1       4.106  -1.736  -9.096  1.00  0.00    -0.248 NA
ATOM     37  C   UNL     1       5.281   0.235  -8.665  1.00  0.00     0.031 C 
ATOM     38  C   UNL     1       1.326  -0.746  -5.732  1.00  0.00     0.029 A 
ATOM     39  N   UNL     1       1.832  -2.263  -7.297  1.00  0.00    -0.354 N 
ATOM     40  C   UNL     1       5.166  -1.631  -9.987  1.00  0.00     0.074 A 
ATOM     41  C   UNL     1       5.848  -0.389  -9.688  1.00  0.00     0.031 C 
ATOM     42  C   UNL     1       0.439  -1.748  -5.624  1.00  0.00     0.029 A 
ATOM     43  C   UNL     1       0.698  -2.728  -6.674  1.00  0.00     0.049 A 
ATOM     44  H   UNL     1       2.302  -2.759  -8.007  1.00  0.00     0.167 HD
ATOM     45  C   UNL     1       5.537  -2.494 -10.962  1.00  0.00     0.034 A 
ATOM     46  C   UNL     1      -0.068  -3.801  -6.950  1.00  0.00     0.034 A 
ATOM     47  C   UNL     1       4.859  -3.733 -11.241  1.00  0.00     0.049 A 
ATOM     48  C   UNL     1       0.332  -4.710  -8.080  1.00  0.00     0.074 A 
ATOM     49  C   UNL     1       5.176  -4.693 -12.186  1.00  0.00     0.029 A 
ATOM     50  N   UNL     1       3.716  -4.175 -10.592  1.00  0.00    -0.354 N 
ATOM     51  N   UNL     1       1.387  -4.647  -8.857  1.00  0.00    -0.248 NA
ATOM     52  C   UNL     1      -0.553  -5.850  -8.360  1.00  0.00     0.031 C 
ATOM     53  C   UNL     1       4.203  -5.696 -12.133  1.00  0.00     0.029 A 
ATOM     54  C   UNL     1       3.299  -5.380 -11.130  1.00  0.00     0.049 A 
ATOM     55  H   UNL     1       3.266  -3.700  -9.855  1.00  0.00     0.167 HD
ATOM     56  C   UNL     1       1.306  -5.749  -9.701  1.00  0.00     0.074 A 
ATOM     57  C   UNL     1       0.113  -6.478  -9.319  1.00  0.00     0.031 C 
ATOM     58  C   UNL     1       2.131  -6.115 -10.713  1.00  0.00     0.034 A 
BRANCH  45  59
ATOM     59  C   UNL     1       6.729  -2.127 -11.805  1.00  0.00     0.023 A 
ATOM     60  C   UNL     1       8.027  -2.203 -11.260  1.00  0.00     0.012 A 
ATOM     61  C   UNL     1       6.566  -1.755 -13.154  1.00  0.00     0.148 A 
ATOM     62  C   UNL     1       9.141  -1.884 -12.036  1.00  0.00     0.002 A 
ATOM     63  C   UNL     1       7.684  -1.481 -13.933  1.00  0.00     0.091 A 
ATOM     64  F   UNL     1       5.322  -1.668 -13.646  1.00  0.00    -0.205 F 
ATOM     65  C   UNL     1       8.970  -1.534 -13.373  1.00  0.00     0.022 A 
BRANCH  63  66
ATOM     66  S   UNL     1       7.574  -1.092 -15.683  1.00  0.00     0.127 S 
ATOM     67  O   UNL     1       7.955   0.320 -15.695  1.00  0.00    -0.237 OA
ATOM     68  O   UNL     1       8.567  -1.997 -16.261  1.00  0.00    -0.237 OA
ATOM     69  O   UNL     1       6.198  -1.370 -16.072  1.00  0.00    -0.744 OA
ENDBRANCH  63  66
ENDBRANCH  45  59
BRANCH  46  70
ATOM     70  C   UNL     1      -1.295  -4.066  -6.147  1.00  0.00     0.023 A 
ATOM     71  C   UNL     1      -1.349  -5.196  -5.309  1.00  0.00     0.012 A 
ATOM     72  C   UNL     1      -2.402  -3.196  -6.201  1.00  0.00     0.148 A 
ATOM     73  C   UNL     1      -2.494  -5.469  -4.560  1.00  0.00     0.002 A 
ATOM     74  C   UNL     1      -3.517  -3.444  -5.410  1.00  0.00     0.091 A 
ATOM     75  F   UNL     1      -2.339  -2.138  -7.021  1.00  0.00    -0.205 F 
ATOM     76  C   UNL     1      -3.572  -4.589  -4.601  1.00  0.00     0.022 A 
BRANCH  74  77
ATOM     77  S   UNL     1      -4.901  -2.303  -5.313  1.00  0.00     0.127 S 
ATOM     78  O   UNL     1      -5.954  -3.054  -5.993  1.00  0.00    -0.237 OA
ATOM     79  O   UNL     1      -5.078  -2.168  -3.867  1.00  0.00    -0.237 OA
ATOM     80  O   UNL     1      -4.458  -1.088  -5.982  1.00  0.00    -0.744 OA
ENDBRANCH  74  77
ENDBRANCH  46  70
BRANCH  58  81
ATOM     81  C   UNL     1       1.789  -7.373 -11.469  1.00  0.00     0.023 A 
ATOM     82  C   UNL     1       0.688  -7.383 -12.348  1.00  0.00     0.012 A 
ATOM     83  C   UNL     1       2.598  -8.521 -11.361  1.00  0.00     0.148 A 
ATOM     84  C   UNL     1       0.376  -8.527 -13.081  1.00  0.00     0.002 A 
ATOM     85  C   UNL     1       2.312  -9.641 -12.133  1.00  0.00     0.091 A 
ATOM     86  F   UNL     1       3.631  -8.497 -10.507  1.00  0.00    -0.205 F 
ATOM     87  C   UNL     1       1.194  -9.650 -12.983  1.00  0.00     0.022 A 
BRANCH  85  88
ATOM     88  S   UNL     1       3.361 -11.099 -12.147  1.00  0.00     0.127 S 
ATOM     89  O   UNL     1       2.515 -12.081 -11.470  1.00  0.00    -0.237 OA
ATOM     90  O   UNL     1       3.544 -11.334 -13.579  1.00  0.00    -0.237 OA
ATOM     91  O   UNL     1       4.576 -10.727 -11.434  1.00  0.00    -0.744 OA
ENDBRANCH  85  88
ENDBRANCH  58  81
ENDBRANCH  32  33
ENDBRANCH  25  27
ENDBRANCH  24  25
ENDBRANCH   1  24
TORSDOF 16
