REMARK SMILES CCC[C@@](C)(C(=O)OCCOC(=O)c1ccc(-c2c3nc(c(-c4cccc(S(=O)(=O)[O-])c4F)c4ccc([nH]4)c(-c4cccc(S(=O)(=O)[O-])c4F)c4nc(c(-c5cccc(S(=O)(=O)[O-])c5F)c5ccc2[nH]5)C=C4)C=C3)cc1)[C@H]1CCOC1
REMARK SMILES IDX 10 1 9 2 8 3 6 4 7 5 4 6 5 7 3 8 2 9 1 10 77 11 78 12 81 13
REMARK SMILES IDX 79 14 80 15 11 16 12 17 13 18 14 19 15 20 76 21 16 22 75 23
REMARK SMILES IDX 17 24 18 25 19 26 69 27 20 28 74 29 68 30 70 31 21 32 73 33
REMARK SMILES IDX 67 34 66 35 22 37 54 38 34 39 53 40 35 41 38 42 52 43 71 44
REMARK SMILES IDX 36 45 37 46 51 48 72 49 39 50 23 51 24 52 32 53 25 54 27 55
REMARK SMILES IDX 33 56 26 57 28 58 29 59 30 60 31 61 55 62 56 63 64 64 57 65
REMARK SMILES IDX 59 66 65 67 58 68 60 69 61 70 62 71 63 72 40 73 41 74 49 75
REMARK SMILES IDX 42 76 44 77 50 78 43 79 45 80 46 81 47 82 48 83
REMARK H PARENT 70 36 38 47
REMARK Flexibility Score: inf
ROOT
ATOM      1  C   UNL     1      -0.733   5.868  -3.641  1.00  0.00     0.275 C 
ENDROOT
BRANCH   1   2
ATOM      2  C   UNL     1       0.322   5.163  -4.489  1.00  0.00     0.274 C 
BRANCH   2   3
ATOM      3  O   UNL     1       0.187   3.734  -4.324  1.00  0.00    -0.462 OA
BRANCH   3   4
ATOM      4  C   UNL     1       1.273   3.048  -3.881  1.00  0.00     0.312 C 
ATOM      5  O   UNL     1       2.345   3.579  -3.613  1.00  0.00    -0.252 OA
BRANCH   4   6
ATOM      6  C   UNL     1       1.041   1.510  -3.760  1.00  0.00     0.070 C 
ATOM      7  C   UNL     1       2.096   0.880  -4.687  1.00  0.00     0.024 C 
BRANCH   6   8
ATOM      8  C   UNL     1      -0.411   1.125  -4.223  1.00  0.00     0.018 C 
BRANCH   8   9
ATOM      9  C   UNL     1      -0.686  -0.245  -4.874  1.00  0.00    -0.002 C 
ATOM     10  C   UNL     1      -1.170  -1.343  -3.944  1.00  0.00     0.004 C 
ENDBRANCH   8   9
ENDBRANCH   6   8
BRANCH   6  11
ATOM     11  C   UNL     1       1.276   1.166  -2.254  1.00  0.00     0.034 C 
ATOM     12  C   UNL     1       0.977  -0.234  -1.756  1.00  0.00     0.035 C 
ATOM     13  C   UNL     1       2.700   1.346  -1.714  1.00  0.00     0.165 C 
ATOM     14  C   UNL     1       1.633  -0.243  -0.390  1.00  0.00     0.160 C 
ATOM     15  O   UNL     1       2.784   0.596  -0.492  1.00  0.00    -0.381 OA
ENDBRANCH   6  11
ENDBRANCH   4   6
ENDBRANCH   3   4
ENDBRANCH   2   3
ENDBRANCH   1   2
BRANCH   1  16
ATOM     16  O   UNL     1      -0.457   5.568  -2.265  1.00  0.00    -0.458 OA
BRANCH  16  17
ATOM     17  C   UNL     1      -1.481   5.084  -1.530  1.00  0.00     0.338 C 
ATOM     18  O   UNL     1      -2.660   5.024  -1.859  1.00  0.00    -0.246 OA
BRANCH  17  19
ATOM     19  C   UNL     1      -0.957   4.576  -0.247  1.00  0.00     0.060 A 
ATOM     20  C   UNL     1       0.284   3.941  -0.199  1.00  0.00     0.016 A 
ATOM     21  C   UNL     1      -1.736   4.657   0.907  1.00  0.00     0.016 A 
ATOM     22  C   UNL     1       0.705   3.310   0.971  1.00  0.00     0.010 A 
ATOM     23  C   UNL     1      -1.248   4.133   2.111  1.00  0.00     0.010 A 
ATOM     24  C   UNL     1      -0.030   3.431   2.157  1.00  0.00    -0.014 A 
BRANCH  24  25
ATOM     25  C   UNL     1       0.472   2.852   3.441  1.00  0.00     0.031 A 
ATOM     26  C   UNL     1      -0.414   1.967   4.281  1.00  0.00     0.074 A 
ATOM     27  C   UNL     1       1.712   3.144   3.888  1.00  0.00     0.049 A 
ATOM     28  N   UNL     1      -0.269   1.595   5.527  1.00  0.00    -0.248 NA
ATOM     29  C   UNL     1      -1.636   1.447   3.643  1.00  0.00     0.031 C 
ATOM     30  C   UNL     1       2.701   3.960   3.182  1.00  0.00     0.029 A 
ATOM     31  N   UNL     1       2.353   2.794   5.054  1.00  0.00    -0.354 N 
ATOM     32  C   UNL     1      -1.418   0.883   5.851  1.00  0.00     0.074 A 
ATOM     33  C   UNL     1      -2.242   0.851   4.661  1.00  0.00     0.031 C 
ATOM     34  C   UNL     1       3.832   4.008   3.897  1.00  0.00     0.029 A 
ATOM     35  C   UNL     1       3.616   3.330   5.168  1.00  0.00     0.049 A 
ATOM     36  H   UNL     1       1.948   2.216   5.740  1.00  0.00     0.167 HD
ATOM     37  C   UNL     1      -1.753   0.305   7.030  1.00  0.00     0.034 A 
ATOM     38  C   UNL     1       4.489   3.335   6.195  1.00  0.00     0.034 A 
ATOM     39  C   UNL     1      -0.889   0.250   8.180  1.00  0.00     0.049 A 
ATOM     40  C   UNL     1       4.094   2.696   7.493  1.00  0.00     0.074 A 
ATOM     41  C   UNL     1      -1.121  -0.360   9.401  1.00  0.00     0.029 A 
ATOM     42  N   UNL     1       0.379   0.806   8.246  1.00  0.00    -0.354 N 
ATOM     43  N   UNL     1       3.004   2.030   7.785  1.00  0.00    -0.248 NA
ATOM     44  C   UNL     1       5.040   2.825   8.611  1.00  0.00     0.031 C 
ATOM     45  C   UNL     1       0.008  -0.170  10.207  1.00  0.00     0.029 A 
ATOM     46  C   UNL     1       0.941   0.558   9.487  1.00  0.00     0.049 A 
ATOM     47  H   UNL     1       0.815   1.304   7.518  1.00  0.00     0.167 HD
ATOM     48  C   UNL     1       3.127   1.666   9.120  1.00  0.00     0.074 A 
ATOM     49  C   UNL     1       4.417   2.151   9.569  1.00  0.00     0.031 C 
ATOM     50  C   UNL     1       2.238   1.019   9.911  1.00  0.00     0.034 A 
BRANCH  37  51
ATOM     51  C   UNL     1      -3.107  -0.345   7.133  1.00  0.00     0.023 A 
ATOM     52  C   UNL     1      -3.321  -1.610   6.551  1.00  0.00     0.012 A 
ATOM     53  C   UNL     1      -4.147   0.266   7.862  1.00  0.00     0.148 A 
ATOM     54  C   UNL     1      -4.558  -2.245   6.672  1.00  0.00     0.002 A 
ATOM     55  C   UNL     1      -5.365  -0.389   8.007  1.00  0.00     0.091 A 
ATOM     56  F   UNL     1      -3.935   1.482   8.386  1.00  0.00    -0.205 F 
ATOM     57  C   UNL     1      -5.574  -1.640   7.407  1.00  0.00     0.022 A 
BRANCH  55  58
ATOM     58  S   UNL     1      -6.700   0.292   8.999  1.00  0.00     0.127 S 
ATOM     59  O   UNL     1      -7.548   0.902   7.977  1.00  0.00    -0.237 OA
ATOM     60  O   UNL     1      -7.269  -0.902   9.627  1.00  0.00    -0.237 OA
ATOM     61  O   UNL     1      -6.065   1.213   9.931  1.00  0.00    -0.744 OA
ENDBRANCH  55  58
ENDBRANCH  37  51
BRANCH  38  62
ATOM     62  C   UNL     1       5.820   3.986   6.022  1.00  0.00     0.023 A 
ATOM     63  C   UNL     1       6.974   3.183   5.964  1.00  0.00     0.012 A 
ATOM     64  C   UNL     1       5.940   5.376   5.826  1.00  0.00     0.148 A 
ATOM     65  C   UNL     1       8.222   3.752   5.708  1.00  0.00     0.002 A 
ATOM     66  C   UNL     1       7.175   5.927   5.503  1.00  0.00     0.091 A 
ATOM     67  F   UNL     1       4.837   6.132   5.923  1.00  0.00    -0.205 F 
ATOM     68  C   UNL     1       8.320   5.119   5.456  1.00  0.00     0.022 A 
BRANCH  66  69
ATOM     69  S   UNL     1       7.338   7.643   4.994  1.00  0.00     0.127 S 
ATOM     70  O   UNL     1       7.838   8.273   6.212  1.00  0.00    -0.237 OA
ATOM     71  O   UNL     1       8.310   7.553   3.903  1.00  0.00    -0.237 OA
ATOM     72  O   UNL     1       6.004   8.043   4.565  1.00  0.00    -0.744 OA
ENDBRANCH  66  69
ENDBRANCH  38  62
BRANCH  50  73
ATOM     73  C   UNL     1       2.618   0.812  11.351  1.00  0.00     0.023 A 
ATOM     74  C   UNL     1       2.510   1.894  12.247  1.00  0.00     0.012 A 
ATOM     75  C   UNL     1       3.013  -0.451  11.829  1.00  0.00     0.148 A 
ATOM     76  C   UNL     1       2.810   1.727  13.597  1.00  0.00     0.002 A 
ATOM     77  C   UNL     1       3.278  -0.619  13.184  1.00  0.00     0.091 A 
ATOM     78  F   UNL     1       3.127  -1.460  10.954  1.00  0.00    -0.205 F 
ATOM     79  C   UNL     1       3.184   0.470  14.067  1.00  0.00     0.022 A 
BRANCH  77  80
ATOM     80  S   UNL     1       3.699  -2.215  13.893  1.00  0.00     0.127 S 
ATOM     81  O   UNL     1       5.123  -2.049  14.177  1.00  0.00    -0.237 OA
ATOM     82  O   UNL     1       2.842  -2.264  15.079  1.00  0.00    -0.237 OA
ATOM     83  O   UNL     1       3.375  -3.204  12.874  1.00  0.00    -0.744 OA
ENDBRANCH  77  80
ENDBRANCH  50  73
ENDBRANCH  24  25
ENDBRANCH  17  19
ENDBRANCH  16  17
ENDBRANCH   1  16
TORSDOF 17
