REMARK SMILES COc1cccc(Cn2c(=O)c(=O)n(CC(=O)OCCOC(=O)c3ccc(-c4c5nc(c(-c6cccc(S(=O)(=O)[O-])c6F)c6ccc([nH]6)c(-c6cccc(S(=O)(=O)[O-])c6F)c6nc(c(-c7cccc(S(=O)(=O)[O-])c7F)c7ccc4[nH]7)C=C6)C=C5)cc3)c3ccccc32)c1
REMARK SMILES IDX 19 1 18 2 16 3 17 4 15 5 14 6 9 7 10 8 92 9 11 10 12 11
REMARK SMILES IDX 87 12 91 13 13 14 88 15 90 16 89 17 8 18 7 19 3 20 4 21
REMARK SMILES IDX 93 22 5 23 6 24 2 25 1 26 20 27 21 28 22 29 23 30 24 31
REMARK SMILES IDX 25 32 86 33 26 34 85 35 27 36 28 37 29 38 79 39 30 40 84 41
REMARK SMILES IDX 78 42 80 43 31 44 83 45 77 46 76 47 32 49 64 50 44 51 63 52
REMARK SMILES IDX 45 53 48 54 62 55 81 56 46 57 47 58 61 60 82 61 49 62 33 63
REMARK SMILES IDX 34 64 42 65 35 66 37 67 43 68 36 69 38 70 39 71 40 72 41 73
REMARK SMILES IDX 65 74 66 75 74 76 67 77 69 78 75 79 68 80 70 81 71 82 72 83
REMARK SMILES IDX 73 84 50 85 51 86 59 87 52 88 54 89 60 90 53 91 55 92 56 93
REMARK SMILES IDX 57 94 58 95
REMARK H PARENT 80 48 48 59
REMARK Flexibility Score: inf
ROOT
ATOM      1  C   UNL     1       0.661   8.174  -2.403  1.00  0.00     0.274 C 
ENDROOT
BRANCH   1   2
ATOM      2  O   UNL     1       1.543   7.540  -1.468  1.00  0.00    -0.461 OA
BRANCH   2   3
ATOM      3  C   UNL     1       2.358   6.617  -2.043  1.00  0.00     0.326 C 
ATOM      4  O   UNL     1       2.189   6.117  -3.151  1.00  0.00    -0.250 OA
BRANCH   3   5
ATOM      5  C   UNL     1       3.688   6.543  -1.322  1.00  0.00     0.248 C 
BRANCH   5   6
ATOM      6  N   UNL     1       3.675   6.458   0.114  1.00  0.00    -0.291 N 
ATOM      7  N   UNL     1       4.942   4.712   1.904  1.00  0.00    -0.298 N 
ATOM      8  C   UNL     1       4.171   4.248   0.855  1.00  0.00     0.317 A 
ATOM      9  C   UNL     1       5.459   6.031   1.766  1.00  0.00     0.068 A 
ATOM     10  O   UNL     1       4.298   3.191   0.254  1.00  0.00    -0.263 OA
ATOM     11  C   UNL     1       3.100   5.253   0.476  1.00  0.00     0.317 A 
ATOM     12  C   UNL     1       4.853   6.890   0.808  1.00  0.00     0.069 A 
ATOM     13  C   UNL     1       6.644   6.435   2.387  1.00  0.00     0.028 A 
ATOM     14  O   UNL     1       1.931   4.934   0.321  1.00  0.00    -0.263 OA
ATOM     15  C   UNL     1       5.404   8.151   0.544  1.00  0.00     0.028 A 
ATOM     16  C   UNL     1       7.221   7.671   2.058  1.00  0.00     0.002 A 
ATOM     17  C   UNL     1       6.596   8.531   1.155  1.00  0.00     0.002 A 
BRANCH   7  18
ATOM     18  C   UNL     1       5.089   3.831   3.051  1.00  0.00     0.162 C 
BRANCH  18  19
ATOM     19  C   UNL     1       3.691   3.280   3.397  1.00  0.00    -0.024 A 
ATOM     20  C   UNL     1       1.805   2.023   2.481  1.00  0.00     0.119 A 
ATOM     21  C   UNL     1       0.936   2.859   3.183  1.00  0.00     0.046 A 
ATOM     22  C   UNL     1       3.181   2.182   2.656  1.00  0.00     0.052 A 
ATOM     23  C   UNL     1       1.426   3.848   4.038  1.00  0.00     0.004 A 
ATOM     24  C   UNL     1       2.799   4.075   4.130  1.00  0.00     0.006 A 
BRANCH  20  25
ATOM     25  O   UNL     1       1.179   1.195   1.592  1.00  0.00    -0.497 OA
ATOM     26  C   UNL     1       1.945   0.239   0.874  1.00  0.00     0.278 C 
ENDBRANCH  20  25
ENDBRANCH  18  19
ENDBRANCH   7  18
ENDBRANCH   5   6
ENDBRANCH   3   5
ENDBRANCH   2   3
ENDBRANCH   1   2
BRANCH   1  27
ATOM     27  C   UNL     1       1.390   9.360  -3.046  1.00  0.00     0.275 C 
BRANCH  27  28
ATOM     28  O   UNL     1       2.481   8.926  -3.895  1.00  0.00    -0.458 OA
BRANCH  28  29
ATOM     29  C   UNL     1       3.731   9.236  -3.477  1.00  0.00     0.338 C 
ATOM     30  O   UNL     1       4.034   9.832  -2.454  1.00  0.00    -0.246 OA
BRANCH  29  31
ATOM     31  C   UNL     1       4.758   8.694  -4.386  1.00  0.00     0.060 A 
ATOM     32  C   UNL     1       5.254   7.399  -4.207  1.00  0.00     0.016 A 
ATOM     33  C   UNL     1       5.361   9.542  -5.310  1.00  0.00     0.016 A 
ATOM     34  C   UNL     1       6.389   6.970  -4.887  1.00  0.00     0.010 A 
ATOM     35  C   UNL     1       6.443   9.078  -6.064  1.00  0.00     0.010 A 
ATOM     36  C   UNL     1       6.978   7.795  -5.846  1.00  0.00    -0.014 A 
BRANCH  36  37
ATOM     37  C   UNL     1       8.115   7.309  -6.666  1.00  0.00     0.031 A 
ATOM     38  C   UNL     1       9.430   8.032  -6.639  1.00  0.00     0.074 A 
ATOM     39  C   UNL     1       7.924   6.270  -7.503  1.00  0.00     0.049 A 
ATOM     40  N   UNL     1      10.448   7.920  -7.449  1.00  0.00    -0.248 NA
ATOM     41  C   UNL     1       9.617   9.026  -5.569  1.00  0.00     0.031 C 
ATOM     42  C   UNL     1       6.691   5.487  -7.611  1.00  0.00     0.029 A 
ATOM     43  N   UNL     1       8.748   5.725  -8.455  1.00  0.00    -0.354 N 
ATOM     44  C   UNL     1      11.366   8.879  -7.039  1.00  0.00     0.074 A 
ATOM     45  C   UNL     1      10.793   9.549  -5.890  1.00  0.00     0.031 C 
ATOM     46  C   UNL     1       6.825   4.587  -8.594  1.00  0.00     0.029 A 
ATOM     47  C   UNL     1       8.123   4.774  -9.229  1.00  0.00     0.049 A 
ATOM     48  H   UNL     1       9.690   5.987  -8.573  1.00  0.00     0.167 HD
ATOM     49  C   UNL     1      12.574   9.171  -7.576  1.00  0.00     0.034 A 
ATOM     50  C   UNL     1       8.520   4.164 -10.361  1.00  0.00     0.034 A 
ATOM     51  C   UNL     1      13.154   8.457  -8.682  1.00  0.00     0.049 A 
ATOM     52  C   UNL     1       9.870   4.492 -10.926  1.00  0.00     0.074 A 
ATOM     53  C   UNL     1      14.402   8.623  -9.256  1.00  0.00     0.029 A 
ATOM     54  N   UNL     1      12.524   7.440  -9.385  1.00  0.00    -0.354 N 
ATOM     55  N   UNL     1      10.764   5.340 -10.477  1.00  0.00    -0.248 NA
ATOM     56  C   UNL     1      10.278   3.768 -12.137  1.00  0.00     0.031 C 
ATOM     57  C   UNL     1      14.520   7.716 -10.315  1.00  0.00     0.029 A 
ATOM     58  C   UNL     1      13.352   6.975 -10.392  1.00  0.00     0.049 A 
ATOM     59  H   UNL     1      11.620   7.099  -9.195  1.00  0.00     0.167 HD
ATOM     60  C   UNL     1      11.848   5.240 -11.339  1.00  0.00     0.074 A 
ATOM     61  C   UNL     1      11.508   4.229 -12.321  1.00  0.00     0.031 C 
ATOM     62  C   UNL     1      13.012   5.936 -11.331  1.00  0.00     0.034 A 
BRANCH  49  63
ATOM     63  C   UNL     1      13.362  10.299  -6.965  1.00  0.00     0.023 A 
ATOM     64  C   UNL     1      14.009  10.112  -5.727  1.00  0.00     0.012 A 
ATOM     65  C   UNL     1      13.509  11.526  -7.643  1.00  0.00     0.148 A 
ATOM     66  C   UNL     1      14.768  11.137  -5.162  1.00  0.00     0.002 A 
ATOM     67  C   UNL     1      14.297  12.529  -7.090  1.00  0.00     0.091 A 
ATOM     68  F   UNL     1      12.863  11.697  -8.805  1.00  0.00    -0.205 F 
ATOM     69  C   UNL     1      14.921  12.339  -5.847  1.00  0.00     0.022 A 
BRANCH  67  70
ATOM     70  S   UNL     1      14.605  14.085  -7.935  1.00  0.00     0.127 S 
ATOM     71  O   UNL     1      13.722  14.996  -7.208  1.00  0.00    -0.237 OA
ATOM     72  O   UNL     1      16.032  14.296  -7.690  1.00  0.00    -0.237 OA
ATOM     73  O   UNL     1      14.261  13.853  -9.331  1.00  0.00    -0.744 OA
ENDBRANCH  67  70
ENDBRANCH  49  63
BRANCH  50  74
ATOM     74  C   UNL     1       7.614   3.176 -11.012  1.00  0.00     0.023 A 
ATOM     75  C   UNL     1       7.928   1.806 -10.946  1.00  0.00     0.012 A 
ATOM     76  C   UNL     1       6.404   3.577 -11.612  1.00  0.00     0.148 A 
ATOM     77  C   UNL     1       7.057   0.853 -11.475  1.00  0.00     0.002 A 
ATOM     78  C   UNL     1       5.514   2.620 -12.084  1.00  0.00     0.091 A 
ATOM     79  F   UNL     1       6.132   4.888 -11.680  1.00  0.00    -0.205 F 
ATOM     80  C   UNL     1       5.844   1.258 -12.028  1.00  0.00     0.022 A 
BRANCH  78  81
ATOM     81  S   UNL     1       3.870   3.048 -12.671  1.00  0.00     0.127 S 
ATOM     82  O   UNL     1       4.020   2.898 -14.116  1.00  0.00    -0.237 OA
ATOM     83  O   UNL     1       3.040   2.027 -12.029  1.00  0.00    -0.237 OA
ATOM     84  O   UNL     1       3.626   4.402 -12.193  1.00  0.00    -0.744 OA
ENDBRANCH  78  81
ENDBRANCH  50  74
BRANCH  62  85
ATOM     85  C   UNL     1      14.012   5.617 -12.408  1.00  0.00     0.023 A 
ATOM     86  C   UNL     1      13.792   6.082 -13.719  1.00  0.00     0.012 A 
ATOM     87  C   UNL     1      15.197   4.919 -12.109  1.00  0.00     0.148 A 
ATOM     88  C   UNL     1      14.725   5.834 -14.724  1.00  0.00     0.002 A 
ATOM     89  C   UNL     1      16.143   4.713 -13.106  1.00  0.00     0.091 A 
ATOM     90  F   UNL     1      15.376   4.465 -10.860  1.00  0.00    -0.205 F 
ATOM     91  C   UNL     1      15.905   5.160 -14.415  1.00  0.00     0.022 A 
BRANCH  89  92
ATOM     92  S   UNL     1      17.727   3.933 -12.773  1.00  0.00     0.127 S 
ATOM     93  O   UNL     1      17.522   2.594 -13.323  1.00  0.00    -0.237 OA
ATOM     94  O   UNL     1      18.655   4.769 -13.534  1.00  0.00    -0.237 OA
ATOM     95  O   UNL     1      17.907   3.999 -11.329  1.00  0.00    -0.744 OA
ENDBRANCH  89  92
ENDBRANCH  62  85
ENDBRANCH  36  37
ENDBRANCH  29  31
ENDBRANCH  28  29
ENDBRANCH  27  28
ENDBRANCH   1  27
TORSDOF 18
