REMARK SMILES NS(=O)(=O)c1ccc(-n2nc(NC(=O)NCCCCCCCCCCC(=O)OCCOC(=O)c3ccc(-c4c5nc(c(-c6cccc(S(=O)(=O)[O-])c6F)c6ccc([nH]6)c(-c6cccc(S(=O)(=O)[O-])c6F)c6nc(c(-c7cccc(S(=O)(=O)[O-])c7F)c7ccc4[nH]7)C=C6)C=C5)cc3)cc2-c2ccccc2)cc1
REMARK SMILES IDX 23 1 22 2 21 3 20 4 19 5 18 6 17 7 16 8 15 9 12 10 13 11
REMARK SMILES IDX 14 13 11 15 9 16 10 17 98 18 97 19 8 20 5 21 6 22 106 23
REMARK SMILES IDX 7 24 105 25 2 26 3 27 4 28 1 29 99 32 100 33 104 34 101 35
REMARK SMILES IDX 103 36 102 37 24 38 25 39 26 40 27 41 28 42 29 43 30 44
REMARK SMILES IDX 31 45 32 46 33 47 34 48 35 49 96 50 36 51 95 52 37 53 38 54
REMARK SMILES IDX 39 55 89 56 40 57 94 58 88 59 90 60 41 61 93 62 87 63 86 64
REMARK SMILES IDX 42 66 74 67 54 68 73 69 55 70 58 71 72 72 91 73 56 74 57 75
REMARK SMILES IDX 71 77 92 78 59 79 43 80 44 81 52 82 45 83 47 84 53 85 46 86
REMARK SMILES IDX 48 87 49 88 50 89 51 90 75 91 76 92 84 93 77 94 79 95 85 96
REMARK SMILES IDX 78 97 80 98 81 99 82 100 83 101 60 102 61 103 69 104 62 105
REMARK SMILES IDX 64 106 70 107 63 108 65 109 66 110 67 111 68 112
REMARK H PARENT 12 12 15 14 1 30 1 31 90 65 58 76
REMARK Flexibility Score: inf
ROOT
ATOM      1  C   UNL     1       5.432  -2.244   4.716  1.00  0.00     0.001 C 
ENDROOT
BRANCH   1   2
ATOM      2  C   UNL     1       4.949  -3.643   5.089  1.00  0.00     0.000 C 
BRANCH   2   3
ATOM      3  C   UNL     1       3.959  -4.199   4.070  1.00  0.00     0.000 C 
BRANCH   3   4
ATOM      4  C   UNL     1       4.581  -4.416   2.690  1.00  0.00     0.000 C 
BRANCH   4   5
ATOM      5  C   UNL     1       5.833  -5.303   2.695  1.00  0.00     0.000 C 
BRANCH   5   6
ATOM      6  C   UNL     1       5.627  -6.690   3.317  1.00  0.00     0.002 C 
BRANCH   6   7
ATOM      7  C   UNL     1       4.438  -7.473   2.765  1.00  0.00     0.021 C 
BRANCH   7   8
ATOM      8  C   UNL     1       4.395  -7.572   1.249  1.00  0.00     0.117 C 
BRANCH   8   9
ATOM      9  N   UNL     1       5.393  -8.444   0.671  1.00  0.00    -0.338 N 
ATOM     10  N   UNL     1       4.256  -9.202  -1.276  1.00  0.00    -0.291 N 
ATOM     11  C   UNL     1       5.320  -9.210  -0.440  1.00  0.00     0.320 C 
ATOM     12  H   UNL     1       4.152 -10.023  -1.809  1.00  0.00     0.173 HD
ATOM     13  O   UNL     1       6.214 -10.041  -0.629  1.00  0.00    -0.248 OA
ATOM     14  H   UNL     1       6.248  -8.486   1.156  1.00  0.00     0.165 HD
BRANCH  10  15
ATOM     15  C   UNL     1       3.293  -8.246  -1.510  1.00  0.00     0.157 A 
ATOM     16  N   UNL     1       2.163  -6.469  -1.287  1.00  0.00    -0.231 N 
ATOM     17  N   UNL     1       3.428  -6.939  -1.282  1.00  0.00    -0.149 NA
ATOM     18  C   UNL     1       1.312  -7.336  -1.965  1.00  0.00     0.076 A 
ATOM     19  C   UNL     1       2.024  -8.517  -2.072  1.00  0.00     0.078 A 
BRANCH  16  20
ATOM     20  C   UNL     1       1.833  -5.272  -0.593  1.00  0.00     0.065 A 
ATOM     21  C   UNL     1       1.099  -2.871   0.616  1.00  0.00     0.082 A 
ATOM     22  C   UNL     1       0.236  -3.967   0.683  1.00  0.00     0.024 A 
ATOM     23  C   UNL     1       2.347  -2.981  -0.008  1.00  0.00     0.024 A 
ATOM     24  C   UNL     1       0.605  -5.168   0.080  1.00  0.00     0.030 A 
ATOM     25  C   UNL     1       2.727  -4.194  -0.595  1.00  0.00     0.030 A 
BRANCH  21  26
ATOM     26  S   UNL     1       0.561  -1.327   1.293  1.00  0.00     0.238 S 
ATOM     27  O   UNL     1       1.242  -1.120   2.542  1.00  0.00    -0.207 OA
ATOM     28  O   UNL     1      -0.881  -1.256   1.165  1.00  0.00    -0.207 OA
BRANCH  26  29
ATOM     29  N   UNL     1       1.153  -0.192   0.208  1.00  0.00    -0.225 NA
ATOM     30  H   UNL     1       0.890   0.743   0.517  1.00  0.00     0.137 HD
ATOM     31  H   UNL     1       0.759  -0.368  -0.716  1.00  0.00     0.137 HD
ENDBRANCH  26  29
ENDBRANCH  21  26
ENDBRANCH  16  20
BRANCH  18  32
ATOM     32  C   UNL     1      -0.024  -6.962  -2.425  1.00  0.00     0.000 A 
ATOM     33  C   UNL     1      -0.207  -5.736  -3.084  1.00  0.00     0.010 A 
ATOM     34  C   UNL     1      -1.138  -7.760  -2.149  1.00  0.00     0.010 A 
ATOM     35  C   UNL     1      -1.484  -5.284  -3.407  1.00  0.00     0.001 A 
ATOM     36  C   UNL     1      -2.418  -7.311  -2.486  1.00  0.00     0.001 A 
ATOM     37  C   UNL     1      -2.590  -6.070  -3.103  1.00  0.00     0.000 A 
ENDBRANCH  18  32
ENDBRANCH  10  15
ENDBRANCH   8   9
ENDBRANCH   7   8
ENDBRANCH   6   7
ENDBRANCH   5   6
ENDBRANCH   4   5
ENDBRANCH   3   4
ENDBRANCH   2   3
ENDBRANCH   1   2
BRANCH   1  38
ATOM     38  C   UNL     1       4.345  -1.181   4.892  1.00  0.00     0.012 C 
BRANCH  38  39
ATOM     39  C   UNL     1       3.662  -1.121   6.263  1.00  0.00     0.123 C 
BRANCH  39  40
ATOM     40  C   UNL     1       4.521  -0.974   7.508  1.00  0.00     0.305 C 
ATOM     41  O   UNL     1       4.168  -0.311   8.477  1.00  0.00    -0.252 OA
BRANCH  40  42
ATOM     42  O   UNL     1       5.665  -1.703   7.459  1.00  0.00    -0.462 OA
BRANCH  42  43
ATOM     43  C   UNL     1       6.664  -1.453   8.468  1.00  0.00     0.274 C 
BRANCH  43  44
ATOM     44  C   UNL     1       7.609  -0.338   8.043  1.00  0.00     0.275 C 
BRANCH  44  45
ATOM     45  O   UNL     1       6.877   0.873   7.893  1.00  0.00    -0.458 OA
BRANCH  45  46
ATOM     46  C   UNL     1       6.527   1.146   6.620  1.00  0.00     0.338 C 
ATOM     47  O   UNL     1       6.707   0.444   5.639  1.00  0.00    -0.246 OA
BRANCH  46  48
ATOM     48  C   UNL     1       6.048   2.518   6.520  1.00  0.00     0.060 A 
ATOM     49  C   UNL     1       5.351   2.878   5.359  1.00  0.00     0.016 A 
ATOM     50  C   UNL     1       6.687   3.448   7.343  1.00  0.00     0.016 A 
ATOM     51  C   UNL     1       5.500   4.163   4.892  1.00  0.00     0.010 A 
ATOM     52  C   UNL     1       6.870   4.709   6.854  1.00  0.00     0.010 A 
ATOM     53  C   UNL     1       6.349   5.016   5.598  1.00  0.00    -0.014 A 
BRANCH  53  54
ATOM     54  C   UNL     1       6.651   6.315   5.050  1.00  0.00     0.031 A 
ATOM     55  C   UNL     1       5.568   7.286   5.307  1.00  0.00     0.074 A 
ATOM     56  C   UNL     1       7.873   6.585   4.552  1.00  0.00     0.049 A 
ATOM     57  N   UNL     1       4.769   7.824   4.448  1.00  0.00    -0.248 NA
ATOM     58  C   UNL     1       5.178   7.508   6.711  1.00  0.00     0.031 C 
ATOM     59  C   UNL     1       9.061   5.722   4.571  1.00  0.00     0.029 A 
ATOM     60  N   UNL     1       8.358   7.760   4.076  1.00  0.00    -0.354 N 
ATOM     61  C   UNL     1       3.956   8.662   5.206  1.00  0.00     0.074 A 
ATOM     62  C   UNL     1       4.055   8.207   6.563  1.00  0.00     0.031 C 
ATOM     63  C   UNL     1      10.162   6.483   4.380  1.00  0.00     0.029 A 
ATOM     64  C   UNL     1       9.747   7.848   4.110  1.00  0.00     0.049 A 
ATOM     65  H   UNL     1       7.781   8.483   3.738  1.00  0.00     0.167 HD
ATOM     66  C   UNL     1       3.554   9.867   4.724  1.00  0.00     0.034 A 
ATOM     67  C   UNL     1      10.479   8.988   4.032  1.00  0.00     0.034 A 
ATOM     68  C   UNL     1       3.736   9.942   3.296  1.00  0.00     0.049 A 
ATOM     69  C   UNL     1       9.597  10.037   3.465  1.00  0.00     0.074 A 
ATOM     70  C   UNL     1       3.267   9.231   2.211  1.00  0.00     0.029 A 
ATOM     71  N   UNL     1       4.841  10.631   2.861  1.00  0.00    -0.354 N 
ATOM     72  N   UNL     1       9.126   9.999   2.250  1.00  0.00    -0.248 NA
ATOM     73  C   UNL     1       8.865  10.885   4.393  1.00  0.00     0.031 C 
ATOM     74  C   UNL     1       4.361   9.188   1.297  1.00  0.00     0.029 A 
ATOM     75  C   UNL     1       5.417   9.923   1.841  1.00  0.00     0.049 A 
ATOM     76  H   UNL     1       5.164  11.489   3.221  1.00  0.00     0.167 HD
ATOM     77  C   UNL     1       7.808  10.423   2.378  1.00  0.00     0.074 A 
ATOM     78  C   UNL     1       7.744  11.067   3.689  1.00  0.00     0.031 C 
ATOM     79  C   UNL     1       6.835   9.939   1.550  1.00  0.00     0.034 A 
BRANCH  66  80
ATOM     80  C   UNL     1       3.412  11.119   5.565  1.00  0.00     0.023 A 
ATOM     81  C   UNL     1       2.861  12.250   4.924  1.00  0.00     0.012 A 
ATOM     82  C   UNL     1       4.029  11.336   6.821  1.00  0.00     0.148 A 
ATOM     83  C   UNL     1       2.978  13.532   5.470  1.00  0.00     0.002 A 
ATOM     84  C   UNL     1       4.070  12.599   7.398  1.00  0.00     0.091 A 
ATOM     85  F   UNL     1       4.710  10.359   7.422  1.00  0.00    -0.205 F 
ATOM     86  C   UNL     1       3.578  13.707   6.710  1.00  0.00     0.022 A 
BRANCH  84  87
ATOM     87  S   UNL     1       4.802  12.870   9.019  1.00  0.00     0.127 S 
ATOM     88  O   UNL     1       6.044  13.551   8.667  1.00  0.00    -0.237 OA
ATOM     89  O   UNL     1       3.792  13.711   9.662  1.00  0.00    -0.237 OA
ATOM     90  O   UNL     1       4.943  11.547   9.614  1.00  0.00    -0.744 OA
ENDBRANCH  84  87
ENDBRANCH  66  80
BRANCH  67  91
ATOM     91  C   UNL     1      11.765   9.319   4.692  1.00  0.00     0.023 A 
ATOM     92  C   UNL     1      12.568  10.361   4.188  1.00  0.00     0.012 A 
ATOM     93  C   UNL     1      12.077   8.799   5.969  1.00  0.00     0.148 A 
ATOM     94  C   UNL     1      13.634  10.879   4.936  1.00  0.00     0.002 A 
ATOM     95  C   UNL     1      13.144   9.307   6.704  1.00  0.00     0.091 A 
ATOM     96  F   UNL     1      11.273   7.868   6.499  1.00  0.00    -0.205 F 
ATOM     97  C   UNL     1      13.919  10.356   6.195  1.00  0.00     0.022 A 
BRANCH  95  98
ATOM     98  S   UNL     1      13.558   8.696   8.344  1.00  0.00     0.127 S 
ATOM     99  O   UNL     1      14.984   8.402   8.204  1.00  0.00    -0.237 OA
ATOM    100  O   UNL     1      13.251   9.852   9.184  1.00  0.00    -0.237 OA
ATOM    101  O   UNL     1      12.721   7.523   8.558  1.00  0.00    -0.744 OA
ENDBRANCH  95  98
ENDBRANCH  67  91
BRANCH  79 102
ATOM    102  C   UNL     1       7.270   9.139   0.346  1.00  0.00     0.023 A 
ATOM    103  C   UNL     1       7.891   7.877   0.458  1.00  0.00     0.012 A 
ATOM    104  C   UNL     1       6.871   9.588  -0.922  1.00  0.00     0.148 A 
ATOM    105  C   UNL     1       8.125   7.089  -0.673  1.00  0.00     0.002 A 
ATOM    106  C   UNL     1       7.059   8.782  -2.037  1.00  0.00     0.091 A 
ATOM    107  F   UNL     1       6.273  10.786  -1.008  1.00  0.00    -0.205 F 
ATOM    108  C   UNL     1       7.696   7.536  -1.919  1.00  0.00     0.022 A 
BRANCH 106 109
ATOM    109  S   UNL     1       6.408   9.237  -3.645  1.00  0.00     0.127 S 
ATOM    110  O   UNL     1       7.624   9.561  -4.387  1.00  0.00    -0.237 OA
ATOM    111  O   UNL     1       5.741   8.005  -4.071  1.00  0.00    -0.237 OA
ATOM    112  O   UNL     1       5.501  10.354  -3.412  1.00  0.00    -0.744 OA
ENDBRANCH 106 109
ENDBRANCH  79 102
ENDBRANCH  53  54
ENDBRANCH  46  48
ENDBRANCH  45  46
ENDBRANCH  44  45
ENDBRANCH  43  44
ENDBRANCH  42  43
ENDBRANCH  40  42
ENDBRANCH  39  40
ENDBRANCH  38  39
ENDBRANCH   1  38
TORSDOF 29
