REMARK SMILES O=C(OCCOC(=O)c1ccc2c(c1)=N[C@H](C(F)(F)F)N=2)c1ccc(-c2c3nc(c(-c4cccc(S(=O)(=O)[O-])c4F)c4ccc([nH]4)c(-c4cccc(S(=O)(=O)[O-])c4F)c4nc(c(-c5cccc(S(=O)(=O)[O-])c5F)c5ccc2[nH]5)C=C4)C=C3)cc1
REMARK SMILES IDX 4 1 3 2 2 3 1 4 22 5 23 6 84 7 24 8 83 9 25 10 26 11 27 12
REMARK SMILES IDX 77 13 28 14 82 15 76 16 78 17 29 18 81 19 75 20 74 21 30 23
REMARK SMILES IDX 62 24 42 25 61 26 43 27 46 28 60 29 79 30 44 31 45 32 59 34
REMARK SMILES IDX 80 35 47 36 31 37 32 38 40 39 33 40 35 41 41 42 34 43 36 44
REMARK SMILES IDX 37 45 38 46 39 47 63 48 64 49 72 50 65 51 67 52 73 53 66 54
REMARK SMILES IDX 68 55 69 56 70 57 71 58 48 59 49 60 57 61 50 62 52 63 58 64
REMARK SMILES IDX 51 65 53 66 54 67 55 68 56 69 5 70 6 71 7 72 8 73 9 74 10 75
REMARK SMILES IDX 14 76 11 77 13 78 12 79 15 80 21 81 16 82 17 83 18 84 19 85
REMARK SMILES IDX 20 86
REMARK H PARENT 78 22 46 33
REMARK Flexibility Score: inf
ROOT
ATOM      1  C   UNL     1       4.252  -0.720  -1.265  1.00  0.00     0.275 C 
ENDROOT
BRANCH   1   2
ATOM      2  O   UNL     1       3.147  -1.099  -0.425  1.00  0.00    -0.458 OA
BRANCH   2   3
ATOM      3  C   UNL     1       2.956  -0.840   0.893  1.00  0.00     0.338 C 
ATOM      4  O   UNL     1       2.143  -1.510   1.526  1.00  0.00    -0.246 OA
BRANCH   3   5
ATOM      5  C   UNL     1       3.528   0.373   1.548  1.00  0.00     0.060 A 
ATOM      6  C   UNL     1       2.665   1.087   2.397  1.00  0.00     0.016 A 
ATOM      7  C   UNL     1       4.843   0.823   1.417  1.00  0.00     0.016 A 
ATOM      8  C   UNL     1       3.070   2.285   2.992  1.00  0.00     0.010 A 
ATOM      9  C   UNL     1       5.255   2.020   2.016  1.00  0.00     0.010 A 
ATOM     10  C   UNL     1       4.365   2.776   2.784  1.00  0.00    -0.014 A 
BRANCH  10  11
ATOM     11  C   UNL     1       4.823   3.989   3.498  1.00  0.00     0.031 A 
ATOM     12  C   UNL     1       5.029   5.296   2.795  1.00  0.00     0.074 A 
ATOM     13  C   UNL     1       5.074   3.891   4.815  1.00  0.00     0.049 A 
ATOM     14  N   UNL     1       5.151   6.488   3.317  1.00  0.00    -0.248 NA
ATOM     15  C   UNL     1       5.091   5.278   1.326  1.00  0.00     0.031 C 
ATOM     16  C   UNL     1       4.994   2.652   5.591  1.00  0.00     0.029 A 
ATOM     17  N   UNL     1       5.457   4.837   5.727  1.00  0.00    -0.354 N 
ATOM     18  C   UNL     1       5.237   7.367   2.247  1.00  0.00     0.074 A 
ATOM     19  C   UNL     1       5.202   6.571   1.040  1.00  0.00     0.031 C 
ATOM     20  C   UNL     1       5.318   2.915   6.865  1.00  0.00     0.029 A 
ATOM     21  C   UNL     1       5.628   4.336   6.994  1.00  0.00     0.049 A 
ATOM     22  H   UNL     1       5.596   5.784   5.497  1.00  0.00     0.167 HD
ATOM     23  C   UNL     1       5.315   8.717   2.279  1.00  0.00     0.034 A 
ATOM     24  C   UNL     1       5.985   4.952   8.136  1.00  0.00     0.034 A 
ATOM     25  C   UNL     1       5.461   9.485   3.484  1.00  0.00     0.049 A 
ATOM     26  C   UNL     1       6.195   6.436   8.131  1.00  0.00     0.074 A 
ATOM     27  C   UNL     1       5.496  10.860   3.631  1.00  0.00     0.029 A 
ATOM     28  N   UNL     1       5.671   8.940   4.741  1.00  0.00    -0.354 N 
ATOM     29  N   UNL     1       6.013   7.282   7.145  1.00  0.00    -0.248 NA
ATOM     30  C   UNL     1       6.633   7.057   9.387  1.00  0.00     0.031 C 
ATOM     31  C   UNL     1       5.789  11.145   4.968  1.00  0.00     0.029 A 
ATOM     32  C   UNL     1       5.911   9.947   5.657  1.00  0.00     0.049 A 
ATOM     33  H   UNL     1       5.653   7.978   4.950  1.00  0.00     0.167 HD
ATOM     34  C   UNL     1       6.295   8.538   7.665  1.00  0.00     0.074 A 
ATOM     35  C   UNL     1       6.659   8.343   9.054  1.00  0.00     0.031 C 
ATOM     36  C   UNL     1       6.258   9.740   7.040  1.00  0.00     0.034 A 
BRANCH  23  37
ATOM     37  C   UNL     1       5.204   9.466   0.982  1.00  0.00     0.023 A 
ATOM     38  C   UNL     1       3.919   9.743   0.472  1.00  0.00     0.012 A 
ATOM     39  C   UNL     1       6.337   9.990   0.334  1.00  0.00     0.148 A 
ATOM     40  C   UNL     1       3.763  10.532  -0.667  1.00  0.00     0.002 A 
ATOM     41  C   UNL     1       6.173  10.787  -0.793  1.00  0.00     0.091 A 
ATOM     42  F   UNL     1       7.546   9.699   0.833  1.00  0.00    -0.205 F 
ATOM     43  C   UNL     1       4.888  11.060  -1.294  1.00  0.00     0.022 A 
BRANCH  41  44
ATOM     44  S   UNL     1       7.553  11.534  -1.667  1.00  0.00     0.127 S 
ATOM     45  O   UNL     1       7.489  10.844  -2.956  1.00  0.00    -0.237 OA
ATOM     46  O   UNL     1       7.166  12.943  -1.709  1.00  0.00    -0.237 OA
ATOM     47  O   UNL     1       8.738  11.244  -0.872  1.00  0.00    -0.744 OA
ENDBRANCH  41  44
ENDBRANCH  23  37
BRANCH  24  48
ATOM     48  C   UNL     1       6.080   4.137   9.374  1.00  0.00     0.023 A 
ATOM     49  C   UNL     1       5.022   4.170  10.301  1.00  0.00     0.012 A 
ATOM     50  C   UNL     1       7.132   3.216   9.552  1.00  0.00     0.148 A 
ATOM     51  C   UNL     1       5.003   3.287  11.380  1.00  0.00     0.002 A 
ATOM     52  C   UNL     1       7.086   2.313  10.605  1.00  0.00     0.091 A 
ATOM     53  F   UNL     1       8.124   3.209   8.650  1.00  0.00    -0.205 F 
ATOM     54  C   UNL     1       6.025   2.350  11.524  1.00  0.00     0.022 A 
BRANCH  52  55
ATOM     55  S   UNL     1       8.286   0.990  10.799  1.00  0.00     0.127 S 
ATOM     56  O   UNL     1       8.928   1.352  12.060  1.00  0.00    -0.237 OA
ATOM     57  O   UNL     1       7.424  -0.190  10.861  1.00  0.00    -0.237 OA
ATOM     58  O   UNL     1       9.141   1.053   9.621  1.00  0.00    -0.744 OA
ENDBRANCH  52  55
ENDBRANCH  24  48
BRANCH  36  59
ATOM     59  C   UNL     1       6.645  10.961   7.826  1.00  0.00     0.023 A 
ATOM     60  C   UNL     1       8.010  11.257   7.998  1.00  0.00     0.012 A 
ATOM     61  C   UNL     1       5.670  11.888   8.241  1.00  0.00     0.148 A 
ATOM     62  C   UNL     1       8.401  12.466   8.571  1.00  0.00     0.002 A 
ATOM     63  C   UNL     1       6.068  13.106   8.777  1.00  0.00     0.091 A 
ATOM     64  F   UNL     1       4.378  11.575   8.064  1.00  0.00    -0.205 F 
ATOM     65  C   UNL     1       7.432  13.395   8.946  1.00  0.00     0.022 A 
BRANCH  63  66
ATOM     66  S   UNL     1       4.903  14.402   9.208  1.00  0.00     0.127 S 
ATOM     67  O   UNL     1       5.122  14.533  10.648  1.00  0.00    -0.237 OA
ATOM     68  O   UNL     1       5.389  15.528   8.412  1.00  0.00    -0.237 OA
ATOM     69  O   UNL     1       3.586  13.908   8.829  1.00  0.00    -0.744 OA
ENDBRANCH  63  66
ENDBRANCH  36  59
ENDBRANCH  10  11
ENDBRANCH   3   5
ENDBRANCH   2   3
ENDBRANCH   1   2
BRANCH   1  70
ATOM     70  C   UNL     1       4.013   0.545  -2.090  1.00  0.00     0.275 C 
BRANCH  70  71
ATOM     71  O   UNL     1       3.434   1.613  -1.329  1.00  0.00    -0.458 OA
BRANCH  71  72
ATOM     72  C   UNL     1       2.085   1.744  -1.461  1.00  0.00     0.338 C 
ATOM     73  O   UNL     1       1.358   1.078  -2.172  1.00  0.00    -0.246 OA
BRANCH  72  74
ATOM     74  C   UNL     1       1.594   2.776  -0.512  1.00  0.00     0.062 A 
ATOM     75  C   UNL     1       2.188   4.101  -0.435  1.00  0.00     0.018 A 
ATOM     76  C   UNL     1       0.581   2.378   0.276  1.00  0.00     0.046 A 
ATOM     77  C   UNL     1       1.793   5.028   0.452  1.00  0.00     0.031 A 
ATOM     78  C   UNL     1       0.136   3.310   1.312  1.00  0.00     0.087 A 
ATOM     79  C   UNL     1       0.741   4.654   1.399  1.00  0.00     0.086 A 
ATOM     80  N   UNL     1      -0.731   3.101   2.241  1.00  0.00    -0.247 NA
ATOM     81  N   UNL     1       0.247   5.346   2.363  1.00  0.00    -0.247 NA
ATOM     82  C   UNL     1      -0.766   4.420   2.972  1.00  0.00     0.326 C 
BRANCH  82  83
ATOM     83  C   UNL     1      -2.194   5.033   2.960  1.00  0.00     0.431 C 
ATOM     84  F   UNL     1      -3.090   4.210   3.558  1.00  0.00    -0.167 F 
ATOM     85  F   UNL     1      -2.248   6.216   3.614  1.00  0.00    -0.167 F 
ATOM     86  F   UNL     1      -2.631   5.247   1.692  1.00  0.00    -0.167 F 
ENDBRANCH  82  83
ENDBRANCH  72  74
ENDBRANCH  71  72
ENDBRANCH  70  71
ENDBRANCH   1  70
TORSDOF 15
