REMARK SMILES C[C@@H]1C[N@@H+](C[C@]2(C(=O)OCCOC(=O)c3ccc(-c4c5nc(c(-c6cccc(S(=O)(=O)[O-])c6F)c6ccc([nH]6)c(-c6cccc(S(=O)(=O)[O-])c6F)c6nc(c(-c7cccc(S(=O)(=O)[O-])c7F)c7ccc4[nH]7)C=C6)C=C5)cc3)CCOC2)C[C@@H]1C
REMARK SMILES IDX 11 1 10 2 9 3 7 4 8 5 6 6 78 7 81 8 79 9 80 10 5 11 4 12
REMARK SMILES IDX 1 13 2 14 3 15 83 16 82 17 84 18 12 20 13 21 14 22 15 23
REMARK SMILES IDX 16 24 77 25 17 26 76 27 18 28 19 29 20 30 70 31 21 32 75 33
REMARK SMILES IDX 69 34 71 35 22 36 74 37 68 38 67 39 23 41 55 42 35 43 54 44
REMARK SMILES IDX 36 45 39 46 53 47 72 48 37 49 38 50 52 52 73 53 40 54 24 55
REMARK SMILES IDX 25 56 33 57 26 58 28 59 34 60 27 61 29 62 30 63 31 64 32 65
REMARK SMILES IDX 56 66 57 67 65 68 58 69 60 70 66 71 59 72 61 73 62 74 63 75
REMARK SMILES IDX 64 76 41 77 42 78 50 79 43 80 45 81 51 82 44 83 46 84 47 85
REMARK SMILES IDX 48 86 49 87
REMARK H PARENT 4 19 71 40 39 51
REMARK Flexibility Score: inf
ROOT
ATOM      1  C   UNL     1      -3.646  -4.868   0.530  1.00  0.00     0.275 C 
ENDROOT
BRANCH   1   2
ATOM      2  C   UNL     1      -3.579  -3.343   0.499  1.00  0.00     0.274 C 
BRANCH   2   3
ATOM      3  O   UNL     1      -3.203  -2.878  -0.815  1.00  0.00    -0.461 OA
BRANCH   3   4
ATOM      4  C   UNL     1      -1.879  -2.585  -0.977  1.00  0.00     0.320 C 
ATOM      5  O   UNL     1      -1.066  -2.628  -0.062  1.00  0.00    -0.251 OA
BRANCH   4   6
ATOM      6  C   UNL     1      -1.554  -2.099  -2.398  1.00  0.00     0.142 C 
ATOM      7  C   UNL     1      -1.737  -0.586  -2.391  1.00  0.00     0.055 C 
ATOM      8  C   UNL     1      -0.046  -2.262  -2.622  1.00  0.00     0.185 C 
ATOM      9  C   UNL     1      -0.529  -0.038  -3.112  1.00  0.00     0.161 C 
ATOM     10  O   UNL     1       0.514  -0.994  -2.987  1.00  0.00    -0.380 OA
BRANCH   6  11
ATOM     11  C   UNL     1      -2.446  -2.863  -3.431  1.00  0.00     0.283 C 
BRANCH  11  12
ATOM     12  N   UNL     1      -2.288  -2.770  -4.875  1.00  0.00    -0.333 N 
ATOM     13  C   UNL     1       0.483  -2.935  -7.335  1.00  0.00     0.014 C 
ATOM     14  C   UNL     1      -0.433  -2.410  -6.241  1.00  0.00     0.049 C 
ATOM     15  C   UNL     1      -1.240  -3.507  -5.559  1.00  0.00     0.265 C 
ATOM     16  C   UNL     1      -1.502  -1.386  -6.657  1.00  0.00     0.049 C 
ATOM     17  C   UNL     1      -2.606  -1.553  -5.596  1.00  0.00     0.265 C 
ATOM     18  C   UNL     1      -2.049  -1.572  -8.071  1.00  0.00     0.014 C 
ATOM     19  H   UNL     1      -3.129  -3.344  -4.925  1.00  0.00     0.348 HD
ENDBRANCH  11  12
ENDBRANCH   6  11
ENDBRANCH   4   6
ENDBRANCH   3   4
ENDBRANCH   2   3
ENDBRANCH   1   2
BRANCH   1  20
ATOM     20  O   UNL     1      -2.372  -5.409   0.149  1.00  0.00    -0.458 OA
BRANCH  20  21
ATOM     21  C   UNL     1      -2.414  -6.469  -0.689  1.00  0.00     0.338 C 
ATOM     22  O   UNL     1      -3.402  -7.054  -1.093  1.00  0.00    -0.246 OA
BRANCH  21  23
ATOM     23  C   UNL     1      -1.042  -6.817  -1.089  1.00  0.00     0.060 A 
ATOM     24  C   UNL     1      -0.312  -5.931  -1.883  1.00  0.00     0.016 A 
ATOM     25  C   UNL     1      -0.522  -8.070  -0.768  1.00  0.00     0.016 A 
ATOM     26  C   UNL     1       0.924  -6.311  -2.403  1.00  0.00     0.010 A 
ATOM     27  C   UNL     1       0.739  -8.433  -1.250  1.00  0.00     0.010 A 
ATOM     28  C   UNL     1       1.455  -7.573  -2.103  1.00  0.00    -0.014 A 
BRANCH  28  29
ATOM     29  C   UNL     1       2.708  -8.032  -2.759  1.00  0.00     0.031 A 
ATOM     30  C   UNL     1       2.655  -9.166  -3.749  1.00  0.00     0.074 A 
ATOM     31  C   UNL     1       3.885  -7.437  -2.487  1.00  0.00     0.049 A 
ATOM     32  N   UNL     1       3.638  -9.780  -4.356  1.00  0.00    -0.248 NA
ATOM     33  C   UNL     1       1.321  -9.683  -4.094  1.00  0.00     0.031 C 
ATOM     34  C   UNL     1       4.075  -6.319  -1.563  1.00  0.00     0.029 A 
ATOM     35  N   UNL     1       5.148  -7.698  -2.959  1.00  0.00    -0.354 N 
ATOM     36  C   UNL     1       3.048 -10.792  -5.103  1.00  0.00     0.074 A 
ATOM     37  C   UNL     1       1.621 -10.707  -4.880  1.00  0.00     0.031 C 
ATOM     38  C   UNL     1       5.375  -5.984  -1.542  1.00  0.00     0.029 A 
ATOM     39  C   UNL     1       6.118  -6.889  -2.415  1.00  0.00     0.049 A 
ATOM     40  H   UNL     1       5.340  -8.397  -3.625  1.00  0.00     0.167 HD
ATOM     41  C   UNL     1       3.637 -11.702  -5.915  1.00  0.00     0.034 A 
ATOM     42  C   UNL     1       7.455  -6.889  -2.586  1.00  0.00     0.034 A 
ATOM     43  C   UNL     1       5.045 -11.745  -6.199  1.00  0.00     0.049 A 
ATOM     44  C   UNL     1       8.081  -7.893  -3.518  1.00  0.00     0.074 A 
ATOM     45  C   UNL     1       5.728 -12.611  -7.035  1.00  0.00     0.029 A 
ATOM     46  N   UNL     1       5.985 -10.875  -5.670  1.00  0.00    -0.354 N 
ATOM     47  N   UNL     1       7.500  -8.802  -4.263  1.00  0.00    -0.248 NA
ATOM     48  C   UNL     1       9.546  -7.860  -3.644  1.00  0.00     0.031 C 
ATOM     49  C   UNL     1       7.083 -12.262  -7.014  1.00  0.00     0.029 A 
ATOM     50  C   UNL     1       7.242 -11.178  -6.166  1.00  0.00     0.049 A 
ATOM     51  H   UNL     1       5.788 -10.148  -5.036  1.00  0.00     0.167 HD
ATOM     52  C   UNL     1       8.524  -9.436  -4.958  1.00  0.00     0.074 A 
ATOM     53  C   UNL     1       9.759  -8.786  -4.570  1.00  0.00     0.031 C 
ATOM     54  C   UNL     1       8.454 -10.483  -5.817  1.00  0.00     0.034 A 
BRANCH  41  55
ATOM     55  C   UNL     1       2.746 -12.708  -6.590  1.00  0.00     0.023 A 
ATOM     56  C   UNL     1       1.981 -12.319  -7.707  1.00  0.00     0.012 A 
ATOM     57  C   UNL     1       2.699 -14.044  -6.148  1.00  0.00     0.148 A 
ATOM     58  C   UNL     1       1.163 -13.239  -8.361  1.00  0.00     0.002 A 
ATOM     59  C   UNL     1       1.907 -14.964  -6.826  1.00  0.00     0.091 A 
ATOM     60  F   UNL     1       3.410 -14.387  -5.065  1.00  0.00    -0.205 F 
ATOM     61  C   UNL     1       1.134 -14.563  -7.927  1.00  0.00     0.022 A 
BRANCH  59  62
ATOM     62  S   UNL     1       1.862 -16.703  -6.375  1.00  0.00     0.127 S 
ATOM     63  O   UNL     1       0.608 -16.783  -5.629  1.00  0.00    -0.237 OA
ATOM     64  O   UNL     1       1.838 -17.366  -7.680  1.00  0.00    -0.237 OA
ATOM     65  O   UNL     1       3.075 -16.941  -5.604  1.00  0.00    -0.744 OA
ENDBRANCH  59  62
ENDBRANCH  41  55
BRANCH  42  66
ATOM     66  C   UNL     1       8.292  -5.872  -1.889  1.00  0.00     0.023 A 
ATOM     67  C   UNL     1       8.903  -4.850  -2.642  1.00  0.00     0.012 A 
ATOM     68  C   UNL     1       8.463  -5.890  -0.492  1.00  0.00     0.148 A 
ATOM     69  C   UNL     1       9.684  -3.877  -2.017  1.00  0.00     0.002 A 
ATOM     70  C   UNL     1       9.197  -4.886   0.130  1.00  0.00     0.091 A 
ATOM     71  F   UNL     1       7.901  -6.887   0.207  1.00  0.00    -0.205 F 
ATOM     72  C   UNL     1       9.820  -3.886  -0.632  1.00  0.00     0.022 A 
BRANCH  70  73
ATOM     73  S   UNL     1       9.301  -4.760   1.919  1.00  0.00     0.127 S 
ATOM     74  O   UNL     1      10.605  -5.357   2.188  1.00  0.00    -0.237 OA
ATOM     75  O   UNL     1       9.229  -3.314   2.135  1.00  0.00    -0.237 OA
ATOM     76  O   UNL     1       8.144  -5.492   2.420  1.00  0.00    -0.744 OA
ENDBRANCH  70  73
ENDBRANCH  42  66
BRANCH  54  77
ATOM     77  C   UNL     1       9.742 -10.989  -6.406  1.00  0.00     0.023 A 
ATOM     78  C   UNL     1      10.603 -11.770  -5.610  1.00  0.00     0.012 A 
ATOM     79  C   UNL     1      10.067 -10.761  -7.757  1.00  0.00     0.148 A 
ATOM     80  C   UNL     1      11.780 -12.296  -6.143  1.00  0.00     0.002 A 
ATOM     81  C   UNL     1      11.223 -11.319  -8.292  1.00  0.00     0.091 A 
ATOM     82  F   UNL     1       9.248  -9.995  -8.494  1.00  0.00    -0.205 F 
ATOM     83  C   UNL     1      12.084 -12.080  -7.485  1.00  0.00     0.022 A 
BRANCH  81  84
ATOM     84  S   UNL     1      11.637 -11.153 -10.033  1.00  0.00     0.127 S 
ATOM     85  O   UNL     1      12.577 -10.034 -10.013  1.00  0.00    -0.237 OA
ATOM     86  O   UNL     1      12.241 -12.450 -10.343  1.00  0.00    -0.237 OA
ATOM     87  O   UNL     1      10.371 -10.908 -10.711  1.00  0.00    -0.744 OA
ENDBRANCH  81  84
ENDBRANCH  54  77
ENDBRANCH  28  29
ENDBRANCH  21  23
ENDBRANCH  20  21
ENDBRANCH   1  20
TORSDOF 16
