REMARK SMILES CCc1nc(=O)n([C@@H](CC)C(C)C)c(CC)c1CC(=O)OCCOC(=O)c1ccc(-c2c3nc(c(-c4cccc(S(=O)(=O)[O-])c4F)c4ccc([nH]4)c(-c4cccc(S(=O)(=O)[O-])c4F)c4nc(c(-c5cccc(S(=O)(=O)[O-])c5F)c5ccc2[nH]5)C=C4)C=C3)cc1
REMARK SMILES IDX 22 1 21 2 19 3 20 4 18 5 17 6 3 7 4 8 5 9 14 10 6 11 7 12
REMARK SMILES IDX 2 13 1 14 15 15 16 16 8 17 9 18 10 19 11 20 12 21 13 22
REMARK SMILES IDX 23 23 24 24 25 25 26 26 27 27 28 28 89 29 29 30 88 31 30 32
REMARK SMILES IDX 31 33 32 34 82 35 33 36 87 37 81 38 83 39 34 40 86 41 80 42
REMARK SMILES IDX 79 43 35 45 67 46 47 47 66 48 48 49 51 50 65 51 84 52 49 53
REMARK SMILES IDX 50 54 64 56 85 57 52 58 36 59 37 60 45 61 38 62 40 63 46 64
REMARK SMILES IDX 39 65 41 66 42 67 43 68 44 69 68 70 69 71 77 72 70 73 72 74
REMARK SMILES IDX 78 75 71 76 73 77 74 78 75 79 76 80 53 81 54 82 62 83 55 84
REMARK SMILES IDX 57 85 63 86 56 87 58 88 59 89 60 90 61 91
REMARK H PARENT 83 44 51 55
REMARK Flexibility Score: inf
ROOT
ATOM      1  C   UNL     1      -2.127  -2.248  -3.446  1.00  0.00     0.274 C 
ENDROOT
BRANCH   1   2
ATOM      2  O   UNL     1      -0.968  -1.385  -3.388  1.00  0.00    -0.462 OA
BRANCH   2   3
ATOM      3  C   UNL     1      -0.167  -1.555  -2.306  1.00  0.00     0.310 C 
ATOM      4  O   UNL     1      -0.439  -2.267  -1.344  1.00  0.00    -0.252 OA
BRANCH   3   5
ATOM      5  C   UNL     1       1.192  -0.890  -2.442  1.00  0.00     0.162 C 
BRANCH   5   6
ATOM      6  C   UNL     1       1.289   0.490  -3.026  1.00  0.00     0.005 A 
ATOM      7  C   UNL     1       0.864   1.631  -2.163  1.00  0.00     0.051 A 
ATOM      8  N   UNL     1       1.100   2.868  -2.429  1.00  0.00    -0.198 NA
ATOM      9  C   UNL     1       1.753   3.212  -3.576  1.00  0.00     0.348 A 
ATOM     10  C   UNL     1       1.877   0.836  -4.201  1.00  0.00     0.028 A 
ATOM     11  O   UNL     1       2.018   4.394  -3.773  1.00  0.00    -0.246 OA
ATOM     12  N   UNL     1       2.078   2.204  -4.501  1.00  0.00    -0.293 N 
BRANCH   7  13
ATOM     13  C   UNL     1       0.090   1.389  -0.864  1.00  0.00     0.053 C 
ATOM     14  C   UNL     1       0.974   0.956   0.295  1.00  0.00     0.011 C 
ENDBRANCH   7  13
BRANCH  10  15
ATOM     15  C   UNL     1       2.473  -0.213  -5.157  1.00  0.00     0.051 C 
ATOM     16  C   UNL     1       1.784  -0.385  -6.513  1.00  0.00     0.010 C 
ENDBRANCH  10  15
BRANCH  12  17
ATOM     17  C   UNL     1       2.613   2.636  -5.823  1.00  0.00     0.094 C 
BRANCH  17  18
ATOM     18  C   UNL     1       1.472   3.125  -6.754  1.00  0.00     0.022 C 
ATOM     19  C   UNL     1       0.937   4.527  -6.519  1.00  0.00     0.006 C 
ENDBRANCH  17  18
BRANCH  17  20
ATOM     20  C   UNL     1       3.916   3.490  -5.804  1.00  0.00     0.006 C 
ATOM     21  C   UNL     1       5.002   2.806  -4.960  1.00  0.00     0.009 C 
ATOM     22  C   UNL     1       4.462   3.674  -7.230  1.00  0.00     0.009 C 
ENDBRANCH  17  20
ENDBRANCH  12  17
ENDBRANCH   5   6
ENDBRANCH   3   5
ENDBRANCH   2   3
ENDBRANCH   1   2
BRANCH   1  23
ATOM     23  C   UNL     1      -1.965  -3.287  -4.556  1.00  0.00     0.275 C 
BRANCH  23  24
ATOM     24  O   UNL     1      -0.742  -4.032  -4.372  1.00  0.00    -0.458 OA
BRANCH  24  25
ATOM     25  C   UNL     1       0.270  -3.577  -5.144  1.00  0.00     0.338 C 
ATOM     26  O   UNL     1       0.195  -2.673  -5.959  1.00  0.00    -0.246 OA
BRANCH  25  27
ATOM     27  C   UNL     1       1.533  -4.294  -4.927  1.00  0.00     0.060 A 
ATOM     28  C   UNL     1       2.108  -4.943  -6.021  1.00  0.00     0.016 A 
ATOM     29  C   UNL     1       2.243  -4.160  -3.734  1.00  0.00     0.016 A 
ATOM     30  C   UNL     1       3.384  -5.497  -5.906  1.00  0.00     0.010 A 
ATOM     31  C   UNL     1       3.560  -4.617  -3.659  1.00  0.00     0.010 A 
ATOM     32  C   UNL     1       4.125  -5.337  -4.724  1.00  0.00    -0.014 A 
BRANCH  32  33
ATOM     33  C   UNL     1       5.420  -6.046  -4.551  1.00  0.00     0.031 A 
ATOM     34  C   UNL     1       5.507  -7.168  -3.547  1.00  0.00     0.074 A 
ATOM     35  C   UNL     1       6.501  -5.723  -5.291  1.00  0.00     0.049 A 
ATOM     36  N   UNL     1       6.506  -7.973  -3.295  1.00  0.00    -0.248 NA
ATOM     37  C   UNL     1       4.323  -7.409  -2.701  1.00  0.00     0.031 C 
ATOM     38  C   UNL     1       6.579  -4.622  -6.254  1.00  0.00     0.029 A 
ATOM     39  N   UNL     1       7.745  -6.303  -5.352  1.00  0.00    -0.354 N 
ATOM     40  C   UNL     1       6.078  -8.791  -2.256  1.00  0.00     0.074 A 
ATOM     41  C   UNL     1       4.753  -8.357  -1.884  1.00  0.00     0.031 C 
ATOM     42  C   UNL     1       7.793  -4.630  -6.834  1.00  0.00     0.029 A 
ATOM     43  C   UNL     1       8.578  -5.736  -6.290  1.00  0.00     0.049 A 
ATOM     44  H   UNL     1       8.016  -7.056  -4.778  1.00  0.00     0.167 HD
ATOM     45  C   UNL     1       6.700  -9.852  -1.697  1.00  0.00     0.034 A 
ATOM     46  C   UNL     1       9.816  -6.094  -6.691  1.00  0.00     0.034 A 
ATOM     47  C   UNL     1       7.973 -10.354  -2.119  1.00  0.00     0.049 A 
ATOM     48  C   UNL     1      10.465  -7.315  -6.092  1.00  0.00     0.074 A 
ATOM     49  C   UNL     1       8.647 -11.472  -1.666  1.00  0.00     0.029 A 
ATOM     50  N   UNL     1       8.751  -9.781  -3.109  1.00  0.00    -0.354 N 
ATOM     51  N   UNL     1       9.983  -8.153  -5.207  1.00  0.00    -0.248 NA
ATOM     52  C   UNL     1      11.810  -7.665  -6.577  1.00  0.00     0.031 C 
ATOM     53  C   UNL     1       9.831 -11.587  -2.398  1.00  0.00     0.029 A 
ATOM     54  C   UNL     1       9.895 -10.532  -3.295  1.00  0.00     0.049 A 
ATOM     55  H   UNL     1       8.524  -8.962  -3.606  1.00  0.00     0.167 HD
ATOM     56  C   UNL     1      10.947  -9.144  -5.055  1.00  0.00     0.074 A 
ATOM     57  C   UNL     1      12.039  -8.809  -5.945  1.00  0.00     0.031 C 
ATOM     58  C   UNL     1      10.935 -10.224  -4.239  1.00  0.00     0.034 A 
BRANCH  45  59
ATOM     59  C   UNL     1       5.952 -10.616  -0.643  1.00  0.00     0.023 A 
ATOM     60  C   UNL     1       4.957 -11.527  -1.048  1.00  0.00     0.012 A 
ATOM     61  C   UNL     1       6.263 -10.481   0.722  1.00  0.00     0.148 A 
ATOM     62  C   UNL     1       4.267 -12.286  -0.107  1.00  0.00     0.002 A 
ATOM     63  C   UNL     1       5.589 -11.260   1.654  1.00  0.00     0.091 A 
ATOM     64  F   UNL     1       7.208  -9.598   1.077  1.00  0.00    -0.205 F 
ATOM     65  C   UNL     1       4.587 -12.157   1.242  1.00  0.00     0.022 A 
BRANCH  63  66
ATOM     66  S   UNL     1       5.942 -11.204   3.413  1.00  0.00     0.127 S 
ATOM     67  O   UNL     1       4.643 -10.820   3.964  1.00  0.00    -0.237 OA
ATOM     68  O   UNL     1       6.337 -12.585   3.686  1.00  0.00    -0.237 OA
ATOM     69  O   UNL     1       6.995 -10.213   3.583  1.00  0.00    -0.744 OA
ENDBRANCH  63  66
ENDBRANCH  45  59
BRANCH  46  70
ATOM     70  C   UNL     1      10.476  -5.371  -7.814  1.00  0.00     0.023 A 
ATOM     71  C   UNL     1      10.513  -5.983  -9.083  1.00  0.00     0.012 A 
ATOM     72  C   UNL     1      11.053  -4.099  -7.647  1.00  0.00     0.148 A 
ATOM     73  C   UNL     1      11.130  -5.351 -10.162  1.00  0.00     0.002 A 
ATOM     74  C   UNL     1      11.639  -3.459  -8.735  1.00  0.00     0.091 A 
ATOM     75  F   UNL     1      11.024  -3.543  -6.428  1.00  0.00    -0.205 F 
ATOM     76  C   UNL     1      11.687  -4.087  -9.991  1.00  0.00     0.022 A 
BRANCH  74  77
ATOM     77  S   UNL     1      12.309  -1.795  -8.632  1.00  0.00     0.127 S 
ATOM     78  O   UNL     1      13.747  -2.048  -8.677  1.00  0.00    -0.237 OA
ATOM     79  O   UNL     1      11.755  -1.169  -9.833  1.00  0.00    -0.237 OA
ATOM     80  O   UNL     1      11.800  -1.248  -7.381  1.00  0.00    -0.744 OA
ENDBRANCH  74  77
ENDBRANCH  46  70
BRANCH  58  81
ATOM     81  C   UNL     1      12.114 -11.154  -4.263  1.00  0.00     0.023 A 
ATOM     82  C   UNL     1      13.259 -10.822  -3.514  1.00  0.00     0.012 A 
ATOM     83  C   UNL     1      12.024 -12.415  -4.882  1.00  0.00     0.148 A 
ATOM     84  C   UNL     1      14.302 -11.737  -3.380  1.00  0.00     0.002 A 
ATOM     85  C   UNL     1      13.053 -13.334  -4.718  1.00  0.00     0.091 A 
ATOM     86  F   UNL     1      10.924 -12.699  -5.595  1.00  0.00    -0.205 F 
ATOM     87  C   UNL     1      14.193 -12.995  -3.969  1.00  0.00     0.022 A 
BRANCH  85  88
ATOM     88  S   UNL     1      12.968 -15.007  -5.367  1.00  0.00     0.127 S 
ATOM     89  O   UNL     1      13.964 -14.962  -6.436  1.00  0.00    -0.237 OA
ATOM     90  O   UNL     1      13.353 -15.810  -4.206  1.00  0.00    -0.237 OA
ATOM     91  O   UNL     1      11.592 -15.199  -5.806  1.00  0.00    -0.744 OA
ENDBRANCH  85  88
ENDBRANCH  58  81
ENDBRANCH  32  33
ENDBRANCH  25  27
ENDBRANCH  24  25
ENDBRANCH  23  24
ENDBRANCH   1  23
TORSDOF 20
