REMARK SMILES O=C(CCC(=O)OCCOC(=O)c1ccc(-c2c3nc(c(-c4cccc(S(=O)(=O)[O-])c4F)c4ccc([nH]4)c(-c4cccc(S(=O)(=O)[O-])c4F)c4nc(c(-c5cccc(S(=O)(=O)[O-])c5F)c5ccc2[nH]5)C=C4)C=C3)cc1)Nc1ncc([N+](=O)[O-])s1
REMARK SMILES IDX 8 1 7 2 5 3 6 4 4 5 3 6 2 7 1 8 76 9 77 11 78 12 84 13 79 14
REMARK SMILES IDX 80 15 81 16 82 17 83 18 9 19 10 20 11 21 12 22 13 23 14 24
REMARK SMILES IDX 75 25 15 26 74 27 16 28 17 29 18 30 68 31 19 32 73 33 67 34
REMARK SMILES IDX 69 35 20 36 72 37 66 38 65 39 21 41 53 42 33 43 52 44 34 45
REMARK SMILES IDX 37 46 51 47 70 48 35 49 36 50 50 52 71 53 38 54 22 55 23 56
REMARK SMILES IDX 31 57 24 58 26 59 32 60 25 61 27 62 28 63 29 64 30 65 54 66
REMARK SMILES IDX 55 67 63 68 56 69 58 70 64 71 57 72 59 73 60 74 61 75 62 76
REMARK SMILES IDX 39 77 40 78 48 79 41 80 43 81 49 82 42 83 44 84 45 85 46 86
REMARK SMILES IDX 47 87
REMARK H PARENT 76 10 69 40 37 51
REMARK Flexibility Score: inf
ROOT
ATOM      1  C   UNL     1       5.809  -2.165   0.845  1.00  0.00     0.274 C 
ENDROOT
BRANCH   1   2
ATOM      2  O   UNL     1       4.630  -1.327   0.936  1.00  0.00    -0.462 OA
BRANCH   2   3
ATOM      3  C   UNL     1       4.619  -0.369   1.902  1.00  0.00     0.306 C 
ATOM      4  O   UNL     1       5.526  -0.186   2.702  1.00  0.00    -0.252 OA
BRANCH   3   5
ATOM      5  C   UNL     1       3.314   0.405   1.945  1.00  0.00     0.132 C 
BRANCH   5   6
ATOM      6  C   UNL     1       2.805   0.971   0.620  1.00  0.00     0.112 C 
BRANCH   6   7
ATOM      7  C   UNL     1       1.861   0.015  -0.089  1.00  0.00     0.226 C 
ATOM      8  O   UNL     1       0.649   0.198  -0.066  1.00  0.00    -0.275 OA
ATOM      9  N   UNL     1       2.517  -1.064  -0.630  1.00  0.00    -0.302 N 
ATOM     10  H   UNL     1       3.501  -1.048  -0.672  1.00  0.00     0.172 HD
BRANCH   9  11
ATOM     11  C   UNL     1       1.857  -2.155  -1.110  1.00  0.00     0.195 A 
ATOM     12  N   UNL     1       0.627  -2.274  -1.542  1.00  0.00    -0.221 NA
ATOM     13  S   UNL     1       2.777  -3.597  -1.024  1.00  0.00    -0.024 S 
ATOM     14  C   UNL     1       0.348  -3.613  -1.752  1.00  0.00     0.212 A 
ATOM     15  C   UNL     1       1.369  -4.465  -1.409  1.00  0.00     0.345 A 
BRANCH  15  16
ATOM     16  N   UNL     1       1.328  -5.888  -1.357  1.00  0.00     0.076 N 
ATOM     17  O   UNL     1       2.231  -6.474  -0.746  1.00  0.00    -0.257 OA
ATOM     18  O   UNL     1       0.361  -6.432  -1.905  1.00  0.00    -0.257 OA
ENDBRANCH  15  16
ENDBRANCH   9  11
ENDBRANCH   6   7
ENDBRANCH   5   6
ENDBRANCH   3   5
ENDBRANCH   2   3
ENDBRANCH   1   2
BRANCH   1  19
ATOM     19  C   UNL     1       6.644  -1.812  -0.389  1.00  0.00     0.275 C 
BRANCH  19  20
ATOM     20  O   UNL     1       7.349  -0.578  -0.184  1.00  0.00    -0.458 OA
BRANCH  20  21
ATOM     21  C   UNL     1       6.650   0.534  -0.511  1.00  0.00     0.338 C 
ATOM     22  O   UNL     1       5.555   0.568  -1.044  1.00  0.00    -0.246 OA
BRANCH  21  23
ATOM     23  C   UNL     1       7.340   1.714   0.031  1.00  0.00     0.060 A 
ATOM     24  C   UNL     1       6.688   2.490   0.995  1.00  0.00     0.016 A 
ATOM     25  C   UNL     1       8.604   2.073  -0.437  1.00  0.00     0.016 A 
ATOM     26  C   UNL     1       7.293   3.644   1.485  1.00  0.00     0.010 A 
ATOM     27  C   UNL     1       9.211   3.227   0.062  1.00  0.00     0.010 A 
ATOM     28  C   UNL     1       8.553   4.030   1.011  1.00  0.00    -0.014 A 
BRANCH  28  29
ATOM     29  C   UNL     1       9.159   5.308   1.454  1.00  0.00     0.031 A 
ATOM     30  C   UNL     1       9.258   6.451   0.483  1.00  0.00     0.074 A 
ATOM     31  C   UNL     1       9.636   5.433   2.707  1.00  0.00     0.049 A 
ATOM     32  N   UNL     1       9.844   7.610   0.628  1.00  0.00    -0.248 NA
ATOM     33  C   UNL     1       8.620   6.261  -0.831  1.00  0.00     0.031 C 
ATOM     34  C   UNL     1       9.591   4.394   3.737  1.00  0.00     0.029 A 
ATOM     35  N   UNL     1      10.283   6.479   3.316  1.00  0.00    -0.354 N 
ATOM     36  C   UNL     1       9.678   8.274  -0.582  1.00  0.00     0.074 A 
ATOM     37  C   UNL     1       8.946   7.383  -1.457  1.00  0.00     0.031 C 
ATOM     38  C   UNL     1      10.209   4.845   4.841  1.00  0.00     0.029 A 
ATOM     39  C   UNL     1      10.728   6.185   4.584  1.00  0.00     0.049 A 
ATOM     40  H   UNL     1      10.415   7.355   2.887  1.00  0.00     0.167 HD
ATOM     41  C   UNL     1      10.085   9.518  -0.927  1.00  0.00     0.034 A 
ATOM     42  C   UNL     1      11.497   6.902   5.426  1.00  0.00     0.034 A 
ATOM     43  C   UNL     1      10.791  10.406  -0.043  1.00  0.00     0.049 A 
ATOM     44  C   UNL     1      11.954   8.275   5.006  1.00  0.00     0.074 A 
ATOM     45  C   UNL     1      11.224  11.697  -0.288  1.00  0.00     0.029 A 
ATOM     46  N   UNL     1      11.170  10.096   1.253  1.00  0.00    -0.354 N 
ATOM     47  N   UNL     1      11.713   8.921   3.890  1.00  0.00    -0.248 NA
ATOM     48  C   UNL     1      12.761   9.033   5.974  1.00  0.00     0.031 C 
ATOM     49  C   UNL     1      11.887  12.159   0.853  1.00  0.00     0.029 A 
ATOM     50  C   UNL     1      11.831  11.171   1.821  1.00  0.00     0.049 A 
ATOM     51  H   UNL     1      10.994   9.239   1.703  1.00  0.00     0.167 HD
ATOM     52  C   UNL     1      12.297  10.174   4.042  1.00  0.00     0.074 A 
ATOM     53  C   UNL     1      12.887  10.203   5.364  1.00  0.00     0.031 C 
ATOM     54  C   UNL     1      12.352  11.205   3.163  1.00  0.00     0.034 A 
BRANCH  41  55
ATOM     55  C   UNL     1       9.752  10.011  -2.311  1.00  0.00     0.023 A 
ATOM     56  C   UNL     1       8.423  10.358  -2.627  1.00  0.00     0.012 A 
ATOM     57  C   UNL     1      10.765  10.206  -3.270  1.00  0.00     0.148 A 
ATOM     58  C   UNL     1       8.102  10.867  -3.884  1.00  0.00     0.002 A 
ATOM     59  C   UNL     1      10.445  10.757  -4.506  1.00  0.00     0.091 A 
ATOM     60  F   UNL     1      12.019   9.854  -2.955  1.00  0.00    -0.205 F 
ATOM     61  C   UNL     1       9.114  11.078  -4.818  1.00  0.00     0.022 A 
BRANCH  59  62
ATOM     62  S   UNL     1      11.682  11.140  -5.750  1.00  0.00     0.127 S 
ATOM     63  O   UNL     1      11.323  10.209  -6.819  1.00  0.00    -0.237 OA
ATOM     64  O   UNL     1      11.396  12.544  -6.043  1.00  0.00    -0.237 OA
ATOM     65  O   UNL     1      12.974  10.896  -5.125  1.00  0.00    -0.744 OA
ENDBRANCH  59  62
ENDBRANCH  41  55
BRANCH  42  66
ATOM     66  C   UNL     1      11.879   6.350   6.758  1.00  0.00     0.023 A 
ATOM     67  C   UNL     1      11.387   6.955   7.931  1.00  0.00     0.012 A 
ATOM     68  C   UNL     1      12.741   5.242   6.868  1.00  0.00     0.148 A 
ATOM     69  C   UNL     1      11.785   6.498   9.188  1.00  0.00     0.002 A 
ATOM     70  C   UNL     1      13.085   4.754   8.123  1.00  0.00     0.091 A 
ATOM     71  F   UNL     1      13.212   4.688   5.742  1.00  0.00    -0.205 F 
ATOM     72  C   UNL     1      12.627   5.393   9.284  1.00  0.00     0.022 A 
BRANCH  70  73
ATOM     73  S   UNL     1      14.061   3.261   8.337  1.00  0.00     0.127 S 
ATOM     74  O   UNL     1      15.341   3.802   8.784  1.00  0.00    -0.237 OA
ATOM     75  O   UNL     1      13.300   2.546   9.363  1.00  0.00    -0.237 OA
ATOM     76  O   UNL     1      14.067   2.608   7.034  1.00  0.00    -0.744 OA
ENDBRANCH  70  73
ENDBRANCH  42  66
BRANCH  54  77
ATOM     77  C   UNL     1      13.011  12.481   3.620  1.00  0.00     0.023 A 
ATOM     78  C   UNL     1      14.409  12.540   3.781  1.00  0.00     0.012 A 
ATOM     79  C   UNL     1      12.241  13.644   3.822  1.00  0.00     0.148 A 
ATOM     80  C   UNL     1      15.026  13.727   4.173  1.00  0.00     0.002 A 
ATOM     81  C   UNL     1      12.868  14.836   4.158  1.00  0.00     0.091 A 
ATOM     82  F   UNL     1      10.910  13.562   3.680  1.00  0.00    -0.205 F 
ATOM     83  C   UNL     1      14.259  14.877   4.348  1.00  0.00     0.022 A 
BRANCH  81  84
ATOM     84  S   UNL     1      11.974  16.387   4.305  1.00  0.00     0.127 S 
ATOM     85  O   UNL     1      12.012  16.617   5.748  1.00  0.00    -0.237 OA
ATOM     86  O   UNL     1      12.806  17.299   3.520  1.00  0.00    -0.237 OA
ATOM     87  O   UNL     1      10.651  16.143   3.746  1.00  0.00    -0.744 OA
ENDBRANCH  81  84
ENDBRANCH  54  77
ENDBRANCH  28  29
ENDBRANCH  21  23
ENDBRANCH  20  21
ENDBRANCH  19  20
ENDBRANCH   1  19
TORSDOF 18
