REMARK SMILES Cc1ccc2c(c1)C=C(C(=O)OCCOC(=O)c1ccc(-c3c4nc(c(-c5cccc(S(=O)(=O)[O-])c5F)c5ccc([nH]5)c(-c5cccc(S(=O)(=O)[O-])c5F)c5nc(c(-c6cccc(S(=O)(=O)[O-])c6F)c6ccc3[nH]6)C=C5)C=C4)cc1)[C@@H](C(F)(F)F)O2
REMARK SMILES IDX 14 1 13 2 12 3 10 4 11 5 9 6 1 7 2 8 3 9 7 10 4 11 6 12 5 13
REMARK SMILES IDX 8 14 86 15 81 16 82 17 83 18 84 19 85 20 15 21 16 22 17 23
REMARK SMILES IDX 18 24 19 25 80 26 20 27 79 28 21 29 22 30 23 31 73 32 24 33
REMARK SMILES IDX 78 34 72 35 74 36 25 37 77 38 71 39 70 40 26 42 58 43 38 44
REMARK SMILES IDX 57 45 39 46 42 47 56 48 75 49 40 50 41 51 55 53 76 54 43 55
REMARK SMILES IDX 27 56 28 57 36 58 29 59 31 60 37 61 30 62 32 63 33 64 34 65
REMARK SMILES IDX 35 66 59 67 60 68 68 69 61 70 63 71 69 72 62 73 64 74 65 75
REMARK SMILES IDX 66 76 67 77 44 78 45 79 53 80 46 81 48 82 54 83 47 84 49 85
REMARK SMILES IDX 50 86 51 87 52 88
REMARK H PARENT 74 41 42 52
REMARK Flexibility Score: inf
ROOT
ATOM      1  C   UNL     1      -2.940   5.607  -7.217  1.00  0.00     0.275 C 
ENDROOT
BRANCH   1   2
ATOM      2  C   UNL     1      -1.959   4.629  -7.865  1.00  0.00     0.275 C 
BRANCH   2   3
ATOM      3  O   UNL     1      -1.840   3.403  -7.108  1.00  0.00    -0.459 OA
BRANCH   3   4
ATOM      4  C   UNL     1      -0.696   3.265  -6.396  1.00  0.00     0.338 C 
ATOM      5  O   UNL     1       0.217   4.075  -6.331  1.00  0.00    -0.246 OA
BRANCH   4   6
ATOM      6  C   UNL     1      -0.696   1.992  -5.648  1.00  0.00     0.087 C 
ATOM      7  C   UNL     1       0.810  -0.332  -0.150  1.00  0.00     0.044 C 
ATOM      8  C   UNL     1       0.313  -0.374  -1.566  1.00  0.00    -0.050 A 
ATOM      9  C   UNL     1       0.037  -1.586  -2.210  1.00  0.00     0.007 A 
ATOM     10  C   UNL     1       0.185   0.814  -2.289  1.00  0.00     0.015 A 
ATOM     11  C   UNL     1      -0.400  -1.602  -3.541  1.00  0.00     0.047 A 
ATOM     12  C   UNL     1      -0.223   0.792  -3.628  1.00  0.00     0.017 A 
ATOM     13  C   UNL     1      -0.536  -0.410  -4.252  1.00  0.00     0.128 A 
ATOM     14  C   UNL     1      -0.291   2.027  -4.374  1.00  0.00     0.027 C 
ATOM     15  O   UNL     1      -0.983  -0.497  -5.541  1.00  0.00    -0.475 OA
ATOM     16  C   UNL     1      -1.011   0.709  -6.362  1.00  0.00     0.316 C 
BRANCH  16  17
ATOM     17  C   UNL     1      -0.061   0.504  -7.554  1.00  0.00     0.430 C 
ATOM     18  F   UNL     1      -0.314  -0.662  -8.196  1.00  0.00    -0.167 F 
ATOM     19  F   UNL     1      -0.202   1.485  -8.480  1.00  0.00    -0.167 F 
ATOM     20  F   UNL     1       1.239   0.487  -7.182  1.00  0.00    -0.167 F 
ENDBRANCH  16  17
ENDBRANCH   4   6
ENDBRANCH   3   4
ENDBRANCH   2   3
ENDBRANCH   1   2
BRANCH   1  21
ATOM     21  O   UNL     1      -2.410   6.111  -5.979  1.00  0.00    -0.458 OA
BRANCH  21  22
ATOM     22  C   UNL     1      -2.981   5.608  -4.859  1.00  0.00     0.338 C 
ATOM     23  O   UNL     1      -3.907   4.820  -4.791  1.00  0.00    -0.246 OA
BRANCH  22  24
ATOM     24  C   UNL     1      -2.229   6.068  -3.683  1.00  0.00     0.060 A 
ATOM     25  C   UNL     1      -2.727   7.029  -2.815  1.00  0.00     0.016 A 
ATOM     26  C   UNL     1      -1.051   5.400  -3.376  1.00  0.00     0.016 A 
ATOM     27  C   UNL     1      -2.011   7.321  -1.645  1.00  0.00     0.010 A 
ATOM     28  C   UNL     1      -0.424   5.582  -2.148  1.00  0.00     0.010 A 
ATOM     29  C   UNL     1      -0.867   6.577  -1.276  1.00  0.00    -0.014 A 
BRANCH  29  30
ATOM     30  C   UNL     1      -0.149   6.839   0.007  1.00  0.00     0.031 A 
ATOM     31  C   UNL     1       1.336   7.130   0.040  1.00  0.00     0.074 A 
ATOM     32  C   UNL     1      -0.832   6.782   1.171  1.00  0.00     0.049 A 
ATOM     33  N   UNL     1       2.082   7.461   1.065  1.00  0.00    -0.248 NA
ATOM     34  C   UNL     1       2.098   6.995  -1.215  1.00  0.00     0.031 C 
ATOM     35  C   UNL     1      -2.229   6.362   1.312  1.00  0.00     0.029 A 
ATOM     36  N   UNL     1      -0.454   7.095   2.454  1.00  0.00    -0.354 N 
ATOM     37  C   UNL     1       3.387   7.530   0.588  1.00  0.00     0.074 A 
ATOM     38  C   UNL     1       3.348   7.155  -0.805  1.00  0.00     0.031 C 
ATOM     39  C   UNL     1      -2.613   6.525   2.588  1.00  0.00     0.029 A 
ATOM     40  C   UNL     1      -1.486   7.036   3.362  1.00  0.00     0.049 A 
ATOM     41  H   UNL     1       0.468   7.339   2.700  1.00  0.00     0.167 HD
ATOM     42  C   UNL     1       4.511   7.930   1.227  1.00  0.00     0.034 A 
ATOM     43  C   UNL     1      -1.537   7.387   4.662  1.00  0.00     0.034 A 
ATOM     44  C   UNL     1       4.534   8.417   2.576  1.00  0.00     0.049 A 
ATOM     45  C   UNL     1      -0.312   7.955   5.320  1.00  0.00     0.074 A 
ATOM     46  C   UNL     1       5.594   8.980   3.265  1.00  0.00     0.029 A 
ATOM     47  N   UNL     1       3.447   8.417   3.433  1.00  0.00    -0.354 N 
ATOM     48  N   UNL     1       0.868   8.178   4.797  1.00  0.00    -0.248 NA
ATOM     49  C   UNL     1      -0.427   8.344   6.734  1.00  0.00     0.031 C 
ATOM     50  C   UNL     1       5.145   9.323   4.543  1.00  0.00     0.029 A 
ATOM     51  C   UNL     1       3.808   8.972   4.646  1.00  0.00     0.049 A 
ATOM     52  H   UNL     1       2.552   8.074   3.212  1.00  0.00     0.167 HD
ATOM     53  C   UNL     1       1.633   8.742   5.810  1.00  0.00     0.074 A 
ATOM     54  C   UNL     1       0.778   8.847   6.974  1.00  0.00     0.031 C 
ATOM     55  C   UNL     1       2.934   9.116   5.780  1.00  0.00     0.034 A 
BRANCH  42  56
ATOM     56  C   UNL     1       5.797   7.980   0.445  1.00  0.00     0.023 A 
ATOM     57  C   UNL     1       5.993   9.027  -0.478  1.00  0.00     0.012 A 
ATOM     58  C   UNL     1       6.842   7.069   0.693  1.00  0.00     0.148 A 
ATOM     59  C   UNL     1       7.201   9.156  -1.160  1.00  0.00     0.002 A 
ATOM     60  C   UNL     1       8.057   7.224   0.034  1.00  0.00     0.091 A 
ATOM     61  F   UNL     1       6.632   6.079   1.572  1.00  0.00    -0.205 F 
ATOM     62  C   UNL     1       8.235   8.262  -0.897  1.00  0.00     0.022 A 
BRANCH  60  63
ATOM     63  S   UNL     1       9.479   6.169   0.339  1.00  0.00     0.127 S 
ATOM     64  O   UNL     1       9.653   5.525  -0.963  1.00  0.00    -0.237 OA
ATOM     65  O   UNL     1      10.514   7.143   0.681  1.00  0.00    -0.237 OA
ATOM     66  O   UNL     1       9.094   5.275   1.423  1.00  0.00    -0.744 OA
ENDBRANCH  60  63
ENDBRANCH  42  56
BRANCH  43  67
ATOM     67  C   UNL     1      -2.840   7.322   5.380  1.00  0.00     0.023 A 
ATOM     68  C   UNL     1      -3.560   8.513   5.598  1.00  0.00     0.012 A 
ATOM     69  C   UNL     1      -3.409   6.093   5.762  1.00  0.00     0.148 A 
ATOM     70  C   UNL     1      -4.823   8.482   6.189  1.00  0.00     0.002 A 
ATOM     71  C   UNL     1      -4.684   6.065   6.314  1.00  0.00     0.091 A 
ATOM     72  F   UNL     1      -2.703   4.975   5.544  1.00  0.00    -0.205 F 
ATOM     73  C   UNL     1      -5.390   7.259   6.536  1.00  0.00     0.022 A 
BRANCH  71  74
ATOM     74  S   UNL     1      -5.544   4.534   6.696  1.00  0.00     0.127 S 
ATOM     75  O   UNL     1      -5.670   4.617   8.149  1.00  0.00    -0.237 OA
ATOM     76  O   UNL     1      -6.796   4.704   5.958  1.00  0.00    -0.237 OA
ATOM     77  O   UNL     1      -4.688   3.465   6.201  1.00  0.00    -0.744 OA
ENDBRANCH  71  74
ENDBRANCH  43  67
BRANCH  55  78
ATOM     78  C   UNL     1       3.549   9.674   7.031  1.00  0.00     0.023 A 
ATOM     79  C   UNL     1       4.000   8.783   8.022  1.00  0.00     0.012 A 
ATOM     80  C   UNL     1       3.838  11.048   7.139  1.00  0.00     0.148 A 
ATOM     81  C   UNL     1       4.739   9.252   9.106  1.00  0.00     0.002 A 
ATOM     82  C   UNL     1       4.603  11.503   8.206  1.00  0.00     0.091 A 
ATOM     83  F   UNL     1       3.395  11.870   6.177  1.00  0.00    -0.205 F 
ATOM     84  C   UNL     1       5.052  10.607   9.191  1.00  0.00     0.022 A 
BRANCH  82  85
ATOM     85  S   UNL     1       5.129  13.213   8.363  1.00  0.00     0.127 S 
ATOM     86  O   UNL     1       4.471  13.614   9.606  1.00  0.00    -0.237 OA
ATOM     87  O   UNL     1       6.582  13.080   8.457  1.00  0.00    -0.237 OA
ATOM     88  O   UNL     1       4.652  13.896   7.168  1.00  0.00    -0.744 OA
ENDBRANCH  82  85
ENDBRANCH  55  78
ENDBRANCH  29  30
ENDBRANCH  22  24
ENDBRANCH  21  22
ENDBRANCH   1  21
TORSDOF 15
