REMARK SMILES Cc1ccc2c(CC(=O)N3CCC(C(=O)OCCOC(=O)c4ccc(-c5c6nc(c(-c7cccc(S(=O)(=O)[O-])c7F)c7ccc([nH]7)c(-c7cccc(S(=O)(=O)[O-])c7F)c7nc(c(-c8cccc(S(=O)(=O)[O-])c8F)c8ccc5[nH]8)C=C7)C=C6)cc4)CC3)coc2c1
REMARK SMILES IDX 18 1 17 2 16 3 14 4 15 5 13 6 8 7 9 8 10 9 11 10 86 11 12 12
REMARK SMILES IDX 85 13 7 14 6 15 1 16 2 17 3 18 90 19 4 20 89 21 5 22 88 23
REMARK SMILES IDX 87 24 19 25 20 26 21 27 22 28 23 29 84 30 24 31 83 32 25 33
REMARK SMILES IDX 26 34 27 35 77 36 28 37 82 38 76 39 78 40 29 41 81 42 75 43
REMARK SMILES IDX 74 44 30 46 62 47 42 48 61 49 43 50 46 51 60 52 79 53 44 54
REMARK SMILES IDX 45 55 59 57 80 58 47 59 31 60 32 61 40 62 33 63 35 64 41 65
REMARK SMILES IDX 34 66 36 67 37 68 38 69 39 70 63 71 64 72 72 73 65 74 67 75
REMARK SMILES IDX 73 76 66 77 68 78 69 79 70 80 71 81 48 82 49 83 57 84 50 85
REMARK SMILES IDX 52 86 58 87 51 88 53 89 54 90 55 91 56 92
REMARK H PARENT 78 45 46 56
REMARK Flexibility Score: inf
ROOT
ATOM      1  C   UNL     1      -1.307  -7.037   9.627  1.00  0.00     0.275 C 
ENDROOT
BRANCH   1   2
ATOM      2  C   UNL     1      -2.388  -6.614   8.628  1.00  0.00     0.274 C 
BRANCH   2   3
ATOM      3  O   UNL     1      -1.897  -6.842   7.294  1.00  0.00    -0.462 OA
BRANCH   3   4
ATOM      4  C   UNL     1      -1.540  -5.742   6.579  1.00  0.00     0.309 C 
ATOM      5  O   UNL     1      -1.792  -4.588   6.901  1.00  0.00    -0.252 OA
BRANCH   4   6
ATOM      6  C   UNL     1      -0.652  -6.104   5.409  1.00  0.00     0.103 C 
ATOM      7  C   UNL     1      -0.690  -7.662   1.868  1.00  0.00     0.227 C 
ATOM      8  O   UNL     1      -1.133  -8.805   2.032  1.00  0.00    -0.275 OA
ATOM      9  N   UNL     1       0.093  -7.054   2.843  1.00  0.00    -0.342 N 
ATOM     10  C   UNL     1       0.508  -7.842   3.993  1.00  0.00     0.120 C 
ATOM     11  C   UNL     1       0.119  -5.617   3.101  1.00  0.00     0.120 C 
ATOM     12  C   UNL     1      -0.464  -7.609   5.149  1.00  0.00     0.037 C 
ATOM     13  C   UNL     1      -0.972  -5.320   4.136  1.00  0.00     0.037 C 
BRANCH   7  14
ATOM     14  C   UNL     1      -0.895  -6.976   0.525  1.00  0.00     0.139 C 
BRANCH  14  15
ATOM     15  C   UNL     1      -1.668  -5.705   0.536  1.00  0.00     0.008 A 
ATOM     16  C   UNL     1      -0.647  -0.258  -0.767  1.00  0.00     0.044 C 
ATOM     17  C   UNL     1      -0.858  -1.705  -0.440  1.00  0.00    -0.047 A 
ATOM     18  C   UNL     1       0.186  -2.612  -0.657  1.00  0.00     0.004 A 
ATOM     19  C   UNL     1      -2.079  -2.153   0.080  1.00  0.00     0.051 A 
ATOM     20  C   UNL     1       0.061  -3.972  -0.371  1.00  0.00     0.012 A 
ATOM     21  C   UNL     1      -2.188  -3.519   0.333  1.00  0.00     0.134 A 
ATOM     22  C   UNL     1      -1.169  -4.435   0.116  1.00  0.00     0.024 A 
ATOM     23  O   UNL     1      -3.286  -4.157   0.828  1.00  0.00    -0.464 OA
ATOM     24  C   UNL     1      -2.969  -5.475   0.934  1.00  0.00     0.200 A 
ENDBRANCH  14  15
ENDBRANCH   7  14
ENDBRANCH   4   6
ENDBRANCH   3   4
ENDBRANCH   2   3
ENDBRANCH   1   2
BRANCH   1  25
ATOM     25  O   UNL     1      -0.210  -6.111   9.536  1.00  0.00    -0.458 OA
BRANCH  25  26
ATOM     26  C   UNL     1       0.958  -6.594   9.050  1.00  0.00     0.338 C 
ATOM     27  O   UNL     1       1.298  -7.771   8.997  1.00  0.00    -0.246 OA
BRANCH  26  28
ATOM     28  C   UNL     1       1.620  -5.501   8.303  1.00  0.00     0.060 A 
ATOM     29  C   UNL     1       1.447  -4.157   8.655  1.00  0.00     0.016 A 
ATOM     30  C   UNL     1       2.252  -5.836   7.101  1.00  0.00     0.016 A 
ATOM     31  C   UNL     1       1.781  -3.158   7.740  1.00  0.00     0.010 A 
ATOM     32  C   UNL     1       2.548  -4.836   6.175  1.00  0.00     0.010 A 
ATOM     33  C   UNL     1       2.264  -3.497   6.468  1.00  0.00    -0.014 A 
BRANCH  33  34
ATOM     34  C   UNL     1       2.817  -2.465   5.591  1.00  0.00     0.031 A 
ATOM     35  C   UNL     1       4.154  -2.043   6.044  1.00  0.00     0.074 A 
ATOM     36  C   UNL     1       2.328  -1.867   4.484  1.00  0.00     0.049 A 
ATOM     37  N   UNL     1       4.377  -1.005   6.780  1.00  0.00    -0.248 NA
ATOM     38  C   UNL     1       5.313  -2.903   5.810  1.00  0.00     0.031 C 
ATOM     39  C   UNL     1       1.031  -2.021   3.835  1.00  0.00     0.029 A 
ATOM     40  N   UNL     1       2.962  -0.949   3.681  1.00  0.00    -0.354 N 
ATOM     41  C   UNL     1       5.750  -0.936   6.895  1.00  0.00     0.074 A 
ATOM     42  C   UNL     1       6.262  -2.208   6.441  1.00  0.00     0.031 C 
ATOM     43  C   UNL     1       1.021  -1.334   2.665  1.00  0.00     0.029 A 
ATOM     44  C   UNL     1       2.292  -0.637   2.507  1.00  0.00     0.049 A 
ATOM     45  H   UNL     1       3.826  -0.544   3.921  1.00  0.00     0.167 HD
ATOM     46  C   UNL     1       6.370   0.250   7.118  1.00  0.00     0.034 A 
ATOM     47  C   UNL     1       2.552   0.376   1.638  1.00  0.00     0.034 A 
ATOM     48  C   UNL     1       5.468   1.283   7.564  1.00  0.00     0.049 A 
ATOM     49  C   UNL     1       3.134   1.473   2.431  1.00  0.00     0.074 A 
ATOM     50  C   UNL     1       4.560   1.420   8.598  1.00  0.00     0.029 A 
ATOM     51  N   UNL     1       5.154   2.280   6.674  1.00  0.00    -0.354 N 
ATOM     52  N   UNL     1       2.459   2.192   3.281  1.00  0.00    -0.248 NA
ATOM     53  C   UNL     1       4.578   1.553   2.523  1.00  0.00     0.031 C 
ATOM     54  C   UNL     1       3.471   2.161   8.047  1.00  0.00     0.029 A 
ATOM     55  C   UNL     1       3.795   2.448   6.722  1.00  0.00     0.049 A 
ATOM     56  H   UNL     1       5.786   2.780   6.107  1.00  0.00     0.167 HD
ATOM     57  C   UNL     1       3.374   2.471   4.283  1.00  0.00     0.074 A 
ATOM     58  C   UNL     1       4.676   2.127   3.721  1.00  0.00     0.031 C 
ATOM     59  C   UNL     1       2.975   2.716   5.562  1.00  0.00     0.034 A 
BRANCH  46  60
ATOM     60  C   UNL     1       7.739   0.553   6.591  1.00  0.00     0.023 A 
ATOM     61  C   UNL     1       8.443   1.632   7.158  1.00  0.00     0.012 A 
ATOM     62  C   UNL     1       8.261  -0.022   5.410  1.00  0.00     0.148 A 
ATOM     63  C   UNL     1       9.618   2.114   6.575  1.00  0.00     0.002 A 
ATOM     64  C   UNL     1       9.473   0.401   4.887  1.00  0.00     0.091 A 
ATOM     65  F   UNL     1       7.520  -0.890   4.709  1.00  0.00    -0.205 F 
ATOM     66  C   UNL     1      10.146   1.485   5.452  1.00  0.00     0.022 A 
BRANCH  64  67
ATOM     67  S   UNL     1      10.216  -0.418   3.473  1.00  0.00     0.127 S 
ATOM     68  O   UNL     1       9.947   0.541   2.408  1.00  0.00    -0.237 OA
ATOM     69  O   UNL     1      11.617  -0.515   3.886  1.00  0.00    -0.237 OA
ATOM     70  O   UNL     1       9.535  -1.703   3.375  1.00  0.00    -0.744 OA
ENDBRANCH  64  67
ENDBRANCH  46  60
BRANCH  47  71
ATOM     71  C   UNL     1       2.789   0.306   0.171  1.00  0.00     0.023 A 
ATOM     72  C   UNL     1       2.684   1.483  -0.604  1.00  0.00     0.012 A 
ATOM     73  C   UNL     1       3.223  -0.869  -0.473  1.00  0.00     0.148 A 
ATOM     74  C   UNL     1       2.954   1.479  -1.979  1.00  0.00     0.002 A 
ATOM     75  C   UNL     1       3.438  -0.883  -1.853  1.00  0.00     0.091 A 
ATOM     76  F   UNL     1       3.414  -1.970   0.266  1.00  0.00    -0.205 F 
ATOM     77  C   UNL     1       3.313   0.292  -2.607  1.00  0.00     0.022 A 
BRANCH  75  78
ATOM     78  S   UNL     1       3.707  -2.410  -2.772  1.00  0.00     0.127 S 
ATOM     79  O   UNL     1       2.692  -2.305  -3.822  1.00  0.00    -0.237 OA
ATOM     80  O   UNL     1       5.083  -2.262  -3.233  1.00  0.00    -0.237 OA
ATOM     81  O   UNL     1       3.463  -3.488  -1.822  1.00  0.00    -0.744 OA
ENDBRANCH  75  78
ENDBRANCH  47  71
BRANCH  59  82
ATOM     82  C   UNL     1       1.525   3.023   5.818  1.00  0.00     0.023 A 
ATOM     83  C   UNL     1       0.511   2.054   5.681  1.00  0.00     0.012 A 
ATOM     84  C   UNL     1       1.211   4.269   6.386  1.00  0.00     0.148 A 
ATOM     85  C   UNL     1      -0.792   2.324   6.112  1.00  0.00     0.002 A 
ATOM     86  C   UNL     1      -0.075   4.521   6.847  1.00  0.00     0.091 A 
ATOM     87  F   UNL     1       2.195   5.174   6.503  1.00  0.00    -0.205 F 
ATOM     88  C   UNL     1      -1.081   3.551   6.709  1.00  0.00     0.022 A 
BRANCH  86  89
ATOM     89  S   UNL     1      -0.493   6.032   7.721  1.00  0.00     0.127 S 
ATOM     90  O   UNL     1      -1.478   6.641   6.829  1.00  0.00    -0.237 OA
ATOM     91  O   UNL     1      -1.040   5.519   8.977  1.00  0.00    -0.237 OA
ATOM     92  O   UNL     1       0.751   6.778   7.865  1.00  0.00    -0.744 OA
ENDBRANCH  86  89
ENDBRANCH  59  82
ENDBRANCH  33  34
ENDBRANCH  26  28
ENDBRANCH  25  26
ENDBRANCH   1  25
TORSDOF 16
