REMARK SMILES CS(=O)(=O)c1ccc(C2=NN(c3ccc(C(=O)OCCOC(=O)c4ccc(-c5c6nc(c(-c7cccc(S(=O)(=O)[O-])c7F)c7ccc([nH]7)c(-c7cccc(S(=O)(=O)[O-])c7F)c7nc(c(-c8cccc(S(=O)(=O)[O-])c8F)c8ccc5[nH]8)C=C7)C=C6)cc4)cc3)[C@H](c3ccccc3)C2)cc1
REMARK SMILES IDX 19 1 18 2 16 3 17 4 15 5 12 6 13 7 88 8 14 9 87 10 11 11
REMARK SMILES IDX 9 12 10 13 96 14 89 15 8 16 5 17 6 18 98 19 7 20 97 21 2 22
REMARK SMILES IDX 1 23 3 24 4 25 90 26 91 27 95 28 92 29 94 30 93 31 20 32
REMARK SMILES IDX 21 33 22 34 23 35 24 36 25 37 86 38 26 39 85 40 27 41 28 42
REMARK SMILES IDX 29 43 79 44 30 45 84 46 78 47 80 48 31 49 83 50 77 51 76 52
REMARK SMILES IDX 32 54 64 55 44 56 63 57 45 58 48 59 62 60 81 61 46 62 47 63
REMARK SMILES IDX 61 65 82 66 49 67 33 68 34 69 42 70 35 71 37 72 43 73 36 74
REMARK SMILES IDX 38 75 39 76 40 77 41 78 65 79 66 80 74 81 67 82 69 83 75 84
REMARK SMILES IDX 68 85 70 86 71 87 72 88 73 89 50 90 51 91 59 92 52 93 54 94
REMARK SMILES IDX 60 95 53 96 55 97 56 98 57 99 58 100
REMARK H PARENT 80 53 48 64
REMARK Flexibility Score: inf
ROOT
ATOM      1  C   UNL     1       8.810   6.558  11.437  1.00  0.00     0.275 C 
ENDROOT
BRANCH   1   2
ATOM      2  O   UNL     1       7.621   6.125  10.747  1.00  0.00    -0.458 OA
BRANCH   2   3
ATOM      3  C   UNL     1       7.164   6.961   9.780  1.00  0.00     0.338 C 
ATOM      4  O   UNL     1       7.623   8.048   9.490  1.00  0.00    -0.246 OA
BRANCH   3   5
ATOM      5  C   UNL     1       6.031   6.347   9.041  1.00  0.00     0.060 A 
ATOM      6  C   UNL     1       3.833   5.354   7.599  1.00  0.00     0.060 A 
ATOM      7  C   UNL     1       4.726   6.243   6.996  1.00  0.00     0.029 A 
ATOM      8  C   UNL     1       4.083   4.926   8.911  1.00  0.00     0.029 A 
ATOM      9  C   UNL     1       5.793   6.765   7.724  1.00  0.00     0.018 A 
ATOM     10  C   UNL     1       5.180   5.411   9.630  1.00  0.00     0.018 A 
BRANCH   6  11
ATOM     11  N   UNL     1       2.632   5.003   6.967  1.00  0.00    -0.257 N 
ATOM     12  C   UNL     1       1.696   4.643   5.079  1.00  0.00     0.071 C 
ATOM     13  N   UNL     1       2.703   4.287   5.812  1.00  0.00    -0.176 NA
ATOM     14  C   UNL     1       0.818   5.725   5.644  1.00  0.00     0.091 C 
ATOM     15  C   UNL     1       1.569   6.026   6.948  1.00  0.00     0.144 C 
BRANCH  12  16
ATOM     16  C   UNL     1       1.384   3.987   3.798  1.00  0.00    -0.002 A 
ATOM     17  C   UNL     1       0.726   2.626   1.459  1.00  0.00     0.067 A 
ATOM     18  C   UNL     1       1.168   1.907   2.570  1.00  0.00     0.021 A 
ATOM     19  C   UNL     1       0.640   4.024   1.502  1.00  0.00     0.021 A 
ATOM     20  C   UNL     1       1.509   2.593   3.736  1.00  0.00     0.011 A 
ATOM     21  C   UNL     1       0.958   4.708   2.681  1.00  0.00     0.011 A 
BRANCH  17  22
ATOM     22  S   UNL     1       0.239   1.800  -0.040  1.00  0.00     0.175 S 
ATOM     23  C   UNL     1       1.046   0.223  -0.050  1.00  0.00     0.163 C 
ATOM     24  O   UNL     1       0.783   2.571  -1.140  1.00  0.00    -0.224 OA
ATOM     25  O   UNL     1      -1.188   1.568   0.077  1.00  0.00    -0.224 OA
ENDBRANCH  17  22
ENDBRANCH  12  16
BRANCH  15  26
ATOM     26  C   UNL     1       0.801   5.988   8.262  1.00  0.00    -0.023 A 
ATOM     27  C   UNL     1      -0.317   5.174   8.485  1.00  0.00     0.006 A 
ATOM     28  C   UNL     1       1.318   6.713   9.357  1.00  0.00     0.006 A 
ATOM     29  C   UNL     1      -0.891   5.083   9.758  1.00  0.00     0.000 A 
ATOM     30  C   UNL     1       0.766   6.596  10.632  1.00  0.00     0.000 A 
ATOM     31  C   UNL     1      -0.341   5.780  10.832  1.00  0.00     0.000 A 
ENDBRANCH  15  26
ENDBRANCH   6  11
ENDBRANCH   3   5
ENDBRANCH   2   3
ENDBRANCH   1   2
BRANCH   1  32
ATOM     32  C   UNL     1      10.036   5.785  10.951  1.00  0.00     0.275 C 
BRANCH  32  33
ATOM     33  O   UNL     1      10.349   6.138   9.592  1.00  0.00    -0.458 OA
BRANCH  33  34
ATOM     34  C   UNL     1      10.001   5.220   8.661  1.00  0.00     0.338 C 
ATOM     35  O   UNL     1       9.502   4.123   8.850  1.00  0.00    -0.246 OA
BRANCH  34  36
ATOM     36  C   UNL     1      10.251   5.762   7.320  1.00  0.00     0.060 A 
ATOM     37  C   UNL     1       9.299   6.609   6.761  1.00  0.00     0.016 A 
ATOM     38  C   UNL     1      11.339   5.334   6.565  1.00  0.00     0.016 A 
ATOM     39  C   UNL     1       9.373   6.965   5.418  1.00  0.00     0.010 A 
ATOM     40  C   UNL     1      11.465   5.771   5.241  1.00  0.00     0.010 A 
ATOM     41  C   UNL     1      10.467   6.564   4.641  1.00  0.00    -0.014 A 
BRANCH  41  42
ATOM     42  C   UNL     1      10.563   6.952   3.206  1.00  0.00     0.031 A 
ATOM     43  C   UNL     1      10.688   5.889   2.145  1.00  0.00     0.074 A 
ATOM     44  C   UNL     1      10.576   8.253   2.852  1.00  0.00     0.049 A 
ATOM     45  N   UNL     1      11.000   6.014   0.881  1.00  0.00    -0.248 NA
ATOM     46  C   UNL     1      10.445   4.499   2.566  1.00  0.00     0.031 C 
ATOM     47  C   UNL     1      10.440   9.384   3.772  1.00  0.00     0.029 A 
ATOM     48  N   UNL     1      10.737   8.848   1.623  1.00  0.00    -0.354 N 
ATOM     49  C   UNL     1      11.069   4.721   0.375  1.00  0.00     0.074 A 
ATOM     50  C   UNL     1      10.754   3.825   1.467  1.00  0.00     0.031 C 
ATOM     51  C   UNL     1      10.527  10.530   3.082  1.00  0.00     0.029 A 
ATOM     52  C   UNL     1      10.811  10.221   1.686  1.00  0.00     0.049 A 
ATOM     53  H   UNL     1      10.794   8.341   0.780  1.00  0.00     0.167 HD
ATOM     54  C   UNL     1      11.362   4.319  -0.885  1.00  0.00     0.034 A 
ATOM     55  C   UNL     1      11.131  11.131   0.745  1.00  0.00     0.034 A 
ATOM     56  C   UNL     1      11.608   5.220  -1.980  1.00  0.00     0.049 A 
ATOM     57  C   UNL     1      11.459  10.660  -0.643  1.00  0.00     0.074 A 
ATOM     58  C   UNL     1      11.869   4.913  -3.304  1.00  0.00     0.029 A 
ATOM     59  N   UNL     1      11.617   6.603  -1.881  1.00  0.00    -0.354 N 
ATOM     60  N   UNL     1      11.475   9.438  -1.116  1.00  0.00    -0.248 NA
ATOM     61  C   UNL     1      11.799  11.692  -1.633  1.00  0.00     0.031 C 
ATOM     62  C   UNL     1      12.056   6.111  -4.001  1.00  0.00     0.029 A 
ATOM     63  C   UNL     1      11.884   7.164  -3.118  1.00  0.00     0.049 A 
ATOM     64  H   UNL     1      11.458   7.111  -1.053  1.00  0.00     0.167 HD
ATOM     65  C   UNL     1      11.798   9.554  -2.462  1.00  0.00     0.074 A 
ATOM     66  C   UNL     1      11.949  10.969  -2.735  1.00  0.00     0.031 C 
ATOM     67  C   UNL     1      11.973   8.577  -3.385  1.00  0.00     0.034 A 
BRANCH  54  68
ATOM     68  C   UNL     1      11.417   2.837  -1.160  1.00  0.00     0.023 A 
ATOM     69  C   UNL     1      10.227   2.084  -1.205  1.00  0.00     0.012 A 
ATOM     70  C   UNL     1      12.646   2.202  -1.436  1.00  0.00     0.148 A 
ATOM     71  C   UNL     1      10.260   0.718  -1.486  1.00  0.00     0.002 A 
ATOM     72  C   UNL     1      12.667   0.850  -1.759  1.00  0.00     0.091 A 
ATOM     73  F   UNL     1      13.770   2.929  -1.371  1.00  0.00    -0.205 F 
ATOM     74  C   UNL     1      11.477   0.104  -1.773  1.00  0.00     0.022 A 
BRANCH  72  75
ATOM     75  S   UNL     1      14.173  -0.014  -2.223  1.00  0.00     0.127 S 
ATOM     76  O   UNL     1      14.395  -0.867  -1.056  1.00  0.00    -0.237 OA
ATOM     77  O   UNL     1      13.759  -0.730  -3.430  1.00  0.00    -0.237 OA
ATOM     78  O   UNL     1      15.176   1.018  -2.443  1.00  0.00    -0.744 OA
ENDBRANCH  72  75
ENDBRANCH  54  68
BRANCH  55  79
ATOM     79  C   UNL     1      11.163  12.580   1.097  1.00  0.00     0.023 A 
ATOM     80  C   UNL     1      10.195  13.448   0.556  1.00  0.00     0.012 A 
ATOM     81  C   UNL     1      12.118  13.094   1.997  1.00  0.00     0.148 A 
ATOM     82  C   UNL     1      10.191  14.804   0.888  1.00  0.00     0.002 A 
ATOM     83  C   UNL     1      12.070  14.431   2.372  1.00  0.00     0.091 A 
ATOM     84  F   UNL     1      13.045  12.257   2.485  1.00  0.00    -0.205 F 
ATOM     85  C   UNL     1      11.119  15.292   1.806  1.00  0.00     0.022 A 
BRANCH  83  86
ATOM     86  S   UNL     1      13.132  15.107   3.654  1.00  0.00     0.127 S 
ATOM     87  O   UNL     1      14.053  15.931   2.876  1.00  0.00    -0.237 OA
ATOM     88  O   UNL     1      12.178  15.855   4.474  1.00  0.00    -0.237 OA
ATOM     89  O   UNL     1      13.721  13.955   4.324  1.00  0.00    -0.744 OA
ENDBRANCH  83  86
ENDBRANCH  55  79
BRANCH  67  90
ATOM     90  C   UNL     1      12.300   8.997  -4.793  1.00  0.00     0.023 A 
ATOM     91  C   UNL     1      13.590   9.470  -5.102  1.00  0.00     0.012 A 
ATOM     92  C   UNL     1      11.353   8.840  -5.823  1.00  0.00     0.148 A 
ATOM     93  C   UNL     1      13.925   9.805  -6.413  1.00  0.00     0.002 A 
ATOM     94  C   UNL     1      11.708   9.130  -7.135  1.00  0.00     0.091 A 
ATOM     95  F   UNL     1      10.125   8.405  -5.502  1.00  0.00    -0.205 F 
ATOM     96  C   UNL     1      12.989   9.623  -7.430  1.00  0.00     0.022 A 
BRANCH  94  97
ATOM     97  S   UNL     1      10.604   8.837  -8.521  1.00  0.00     0.127 S 
ATOM     98  O   UNL     1      10.279  10.201  -8.936  1.00  0.00    -0.237 OA
ATOM     99  O   UNL     1      11.463   8.104  -9.451  1.00  0.00    -0.237 OA
ATOM    100  O   UNL     1       9.487   8.065  -7.991  1.00  0.00    -0.744 OA
ENDBRANCH  94  97
ENDBRANCH  67  90
ENDBRANCH  41  42
ENDBRANCH  34  36
ENDBRANCH  33  34
ENDBRANCH  32  33
ENDBRANCH   1  32
TORSDOF 18
