REMARK SMILES Cc1ccc(-c2nc(NC(=O)[C@H]3[C@@H](C(=O)OCCOC(=O)c4ccc(-c5c6nc(c(-c7cccc(S(=O)(=O)[O-])c7F)c7ccc([nH]7)c(-c7cccc(S(=O)(=O)[O-])c7F)c7nc(c(-c8cccc(S(=O)(=O)[O-])c8F)c8ccc5[nH]8)C=C7)C=C6)cc4)[C@@H]4CC[C@H]3O4)sc2C)cc1
REMARK SMILES IDX 17 1 16 2 14 3 15 4 13 5 12 6 88 7 85 8 87 9 89 10 86 11
REMARK SMILES IDX 10 12 9 13 11 15 8 16 6 17 7 18 91 19 90 20 92 21 5 22 1 23
REMARK SMILES IDX 2 24 3 25 94 26 4 27 93 28 18 29 19 30 20 31 21 32 22 33
REMARK SMILES IDX 23 34 84 35 24 36 83 37 25 38 26 39 27 40 77 41 28 42 82 43
REMARK SMILES IDX 76 44 78 45 29 46 81 47 75 48 74 49 30 51 62 52 42 53 61 54
REMARK SMILES IDX 43 55 46 56 60 57 79 58 44 59 45 60 59 62 80 63 47 64 31 65
REMARK SMILES IDX 32 66 40 67 33 68 35 69 41 70 34 71 36 72 37 73 38 74 39 75
REMARK SMILES IDX 63 76 64 77 72 78 65 79 67 80 73 81 66 82 68 83 69 84 70 85
REMARK SMILES IDX 71 86 48 87 49 88 57 89 50 90 52 91 58 92 51 93 53 94 54 95
REMARK SMILES IDX 55 96 56 97
REMARK H PARENT 9 14 78 50 46 61
REMARK Flexibility Score: inf
ROOT
ATOM      1  C   UNL     1      -4.702   1.347  -2.484  1.00  0.00     0.274 C 
ENDROOT
BRANCH   1   2
ATOM      2  O   UNL     1      -4.662   0.337  -1.117  1.00  0.00    -0.462 OA
BRANCH   2   3
ATOM      3  C   UNL     1      -5.422   0.247   0.111  1.00  0.00     0.312 C 
ATOM      4  O   UNL     1      -5.231   0.976   1.076  1.00  0.00    -0.252 OA
BRANCH   3   5
ATOM      5  C   UNL     1      -6.528  -0.951   0.149  1.00  0.00     0.143 C 
ATOM      6  C   UNL     1      -6.734  -1.385  -1.274  1.00  0.00     0.124 C 
ATOM      7  C   UNL     1      -8.164  -1.827  -1.417  1.00  0.00     0.132 C 
ATOM      8  C   UNL     1      -8.072  -0.861   0.536  1.00  0.00     0.133 C 
ATOM      9  C   UNL     1      -8.507  -2.974  -0.477  1.00  0.00     0.035 C 
ATOM     10  O   UNL     1      -8.750  -0.683  -0.758  1.00  0.00    -0.373 OA
ATOM     11  C   UNL     1      -8.763  -2.209   0.818  1.00  0.00     0.036 C 
BRANCH   6  12
ATOM     12  C   UNL     1      -6.608  -0.195  -2.197  1.00  0.00     0.232 C 
ATOM     13  N   UNL     1      -6.850   1.147  -1.495  1.00  0.00    -0.302 N 
ATOM     14  H   UNL     1      -7.421   0.957  -0.716  1.00  0.00     0.172 HD
ATOM     15  O   UNL     1      -6.250  -0.535  -3.324  1.00  0.00    -0.274 OA
BRANCH  13  16
ATOM     16  C   UNL     1      -6.566   2.775  -1.482  1.00  0.00     0.190 A 
ATOM     17  C   UNL     1      -6.537   4.881  -0.517  1.00  0.00     0.086 A 
ATOM     18  N   UNL     1      -5.983   3.534  -0.525  1.00  0.00    -0.220 NA
ATOM     19  C   UNL     1      -7.708   4.957  -1.254  1.00  0.00     0.031 A 
ATOM     20  S   UNL     1      -7.392   3.954  -2.559  1.00  0.00    -0.101 S 
ATOM     21  C   UNL     1      -8.906   5.838  -1.310  1.00  0.00     0.059 C 
BRANCH  17  22
ATOM     22  C   UNL     1      -6.063   6.134   0.115  1.00  0.00     0.001 A 
ATOM     23  C   UNL     1      -6.079  10.086   1.923  1.00  0.00     0.044 C 
ATOM     24  C   UNL     1      -5.899   8.740   1.277  1.00  0.00    -0.051 A 
ATOM     25  C   UNL     1      -6.158   8.599  -0.080  1.00  0.00     0.004 A 
ATOM     26  C   UNL     1      -5.607   7.581   2.018  1.00  0.00     0.004 A 
ATOM     27  C   UNL     1      -6.192   7.324  -0.651  1.00  0.00     0.010 A 
ATOM     28  C   UNL     1      -5.696   6.283   1.448  1.00  0.00     0.010 A 
ENDBRANCH  17  22
ENDBRANCH  13  16
ENDBRANCH   6  12
ENDBRANCH   3   5
ENDBRANCH   2   3
ENDBRANCH   1   2
BRANCH   1  29
ATOM     29  C   UNL     1      -6.111   1.697  -3.692  1.00  0.00     0.275 C 
BRANCH  29  30
ATOM     30  O   UNL     1      -7.903   1.585  -3.422  1.00  0.00    -0.458 OA
BRANCH  30  31
ATOM     31  C   UNL     1      -9.207   1.770  -2.664  1.00  0.00     0.338 C 
ATOM     32  O   UNL     1     -10.215   1.647  -3.367  1.00  0.00    -0.246 OA
BRANCH  31  33
ATOM     33  C   UNL     1      -9.544   2.159  -1.002  1.00  0.00     0.060 A 
ATOM     34  C   UNL     1     -10.791   2.549  -0.487  1.00  0.00     0.016 A 
ATOM     35  C   UNL     1      -8.642   2.107   0.078  1.00  0.00     0.016 A 
ATOM     36  C   UNL     1     -10.977   2.942   0.927  1.00  0.00     0.010 A 
ATOM     37  C   UNL     1      -8.754   2.493   1.385  1.00  0.00     0.010 A 
ATOM     38  C   UNL     1      -9.928   2.949   1.863  1.00  0.00    -0.014 A 
BRANCH  38  39
ATOM     39  C   UNL     1      -9.625   3.620   3.149  1.00  0.00     0.031 A 
ATOM     40  C   UNL     1      -8.969   2.938   4.328  1.00  0.00     0.074 A 
ATOM     41  C   UNL     1      -9.200   4.888   2.913  1.00  0.00     0.049 A 
ATOM     42  N   UNL     1      -8.621   3.533   5.424  1.00  0.00    -0.248 NA
ATOM     43  C   UNL     1      -8.530   1.543   4.312  1.00  0.00     0.031 C 
ATOM     44  C   UNL     1      -8.278   5.747   3.651  1.00  0.00     0.029 A 
ATOM     45  N   UNL     1      -9.579   5.697   1.834  1.00  0.00    -0.354 N 
ATOM     46  C   UNL     1      -7.676   2.751   6.078  1.00  0.00     0.074 A 
ATOM     47  C   UNL     1      -7.722   1.490   5.378  1.00  0.00     0.031 C 
ATOM     48  C   UNL     1      -8.481   7.017   3.255  1.00  0.00     0.029 A 
ATOM     49  C   UNL     1      -9.608   7.000   2.336  1.00  0.00     0.049 A 
ATOM     50  H   UNL     1      -9.782   5.407   0.915  1.00  0.00     0.167 HD
ATOM     51  C   UNL     1      -6.872   3.309   7.042  1.00  0.00     0.034 A 
ATOM     52  C   UNL     1     -10.835   7.544   2.577  1.00  0.00     0.034 A 
ATOM     53  C   UNL     1      -7.186   4.754   7.198  1.00  0.00     0.049 A 
ATOM     54  C   UNL     1     -11.058   7.734   4.059  1.00  0.00     0.074 A 
ATOM     55  C   UNL     1      -6.489   5.922   6.928  1.00  0.00     0.029 A 
ATOM     56  N   UNL     1      -8.497   5.154   7.474  1.00  0.00    -0.354 N 
ATOM     57  N   UNL     1     -10.325   7.146   4.969  1.00  0.00    -0.248 NA
ATOM     58  C   UNL     1     -12.001   8.670   4.654  1.00  0.00     0.031 C 
ATOM     59  C   UNL     1      -7.428   6.997   6.891  1.00  0.00     0.029 A 
ATOM     60  C   UNL     1      -8.691   6.496   7.175  1.00  0.00     0.049 A 
ATOM     61  H   UNL     1      -9.195   4.561   7.836  1.00  0.00     0.167 HD
ATOM     62  C   UNL     1     -10.633   7.594   6.212  1.00  0.00     0.074 A 
ATOM     63  C   UNL     1     -11.698   8.556   5.963  1.00  0.00     0.031 C 
ATOM     64  C   UNL     1     -10.007   7.125   7.334  1.00  0.00     0.034 A 
BRANCH  51  65
ATOM     65  C   UNL     1      -5.631   2.671   7.722  1.00  0.00     0.023 A 
ATOM     66  C   UNL     1      -4.800   3.514   8.506  1.00  0.00     0.012 A 
ATOM     67  C   UNL     1      -5.201   1.318   7.664  1.00  0.00     0.148 A 
ATOM     68  C   UNL     1      -3.601   3.083   9.105  1.00  0.00     0.002 A 
ATOM     69  C   UNL     1      -3.986   0.890   8.233  1.00  0.00     0.091 A 
ATOM     70  F   UNL     1      -5.995   0.390   7.132  1.00  0.00    -0.205 F 
ATOM     71  C   UNL     1      -3.179   1.775   8.948  1.00  0.00     0.022 A 
BRANCH  69  72
ATOM     72  S   UNL     1      -3.365  -0.801   8.068  1.00  0.00     0.127 S 
ATOM     73  O   UNL     1      -1.989  -0.587   7.617  1.00  0.00    -0.237 OA
ATOM     74  O   UNL     1      -3.481  -1.314   9.431  1.00  0.00    -0.237 OA
ATOM     75  O   UNL     1      -4.219  -1.452   7.081  1.00  0.00    -0.744 OA
ENDBRANCH  69  72
ENDBRANCH  51  65
BRANCH  52  76
ATOM     76  C   UNL     1     -11.794   7.317   1.442  1.00  0.00     0.023 A 
ATOM     77  C   UNL     1     -11.451   7.991   0.238  1.00  0.00     0.012 A 
ATOM     78  C   UNL     1     -12.721   6.254   1.352  1.00  0.00     0.148 A 
ATOM     79  C   UNL     1     -11.930   7.578  -1.009  1.00  0.00     0.002 A 
ATOM     80  C   UNL     1     -13.221   5.861   0.097  1.00  0.00     0.091 A 
ATOM     81  F   UNL     1     -13.053   5.595   2.471  1.00  0.00    -0.205 F 
ATOM     82  C   UNL     1     -12.795   6.498  -1.082  1.00  0.00     0.022 A 
BRANCH  80  83
ATOM     83  S   UNL     1     -14.381   4.497  -0.153  1.00  0.00     0.127 S 
ATOM     84  O   UNL     1     -15.619   5.198  -0.404  1.00  0.00    -0.237 OA
ATOM     85  O   UNL     1     -13.813   3.809  -1.314  1.00  0.00    -0.237 OA
ATOM     86  O   UNL     1     -14.332   3.710   1.087  1.00  0.00    -0.744 OA
ENDBRANCH  80  83
ENDBRANCH  52  76
BRANCH  64  87
ATOM     87  C   UNL     1     -10.635   7.189   8.705  1.00  0.00     0.023 A 
ATOM     88  C   UNL     1     -12.029   7.326   8.864  1.00  0.00     0.012 A 
ATOM     89  C   UNL     1      -9.886   6.858   9.858  1.00  0.00     0.148 A 
ATOM     90  C   UNL     1     -12.651   7.167  10.102  1.00  0.00     0.002 A 
ATOM     91  C   UNL     1     -10.526   6.571  11.059  1.00  0.00     0.091 A 
ATOM     92  F   UNL     1      -8.547   6.810   9.802  1.00  0.00    -0.205 F 
ATOM     93  C   UNL     1     -11.904   6.752  11.194  1.00  0.00     0.022 A 
BRANCH  91  94
ATOM     94  S   UNL     1      -9.630   5.749  12.382  1.00  0.00     0.127 S 
ATOM     95  O   UNL     1      -9.104   6.878  13.144  1.00  0.00    -0.237 OA
ATOM     96  O   UNL     1     -10.685   4.993  13.060  1.00  0.00    -0.237 OA
ATOM     97  O   UNL     1      -8.650   4.915  11.697  1.00  0.00    -0.744 OA
ENDBRANCH  91  94
ENDBRANCH  64  87
ENDBRANCH  38  39
ENDBRANCH  31  33
ENDBRANCH  30  31
ENDBRANCH  29  30
ENDBRANCH   1  29
TORSDOF 17
