REMARK SMILES O=C(OCCOC(=O)[C@H]1CCCN(C(=O)C2CC[NH+](Cc3ccco3)CC2)C1)c1ccc(-c2c3nc(c(-c4cccc(S(=O)(=O)[O-])c4F)c4ccc([nH]4)c(-c4cccc(S(=O)(=O)[O-])c4F)c4nc(c(-c5cccc(S(=O)(=O)[O-])c5F)c5ccc2[nH]5)C=C4)C=C3)cc1
REMARK SMILES IDX 5 1 4 2 3 3 2 4 1 5 29 6 30 7 91 8 31 9 90 10 32 11 33 12
REMARK SMILES IDX 34 13 84 14 35 15 89 16 83 17 85 18 36 19 88 20 82 21 81 22
REMARK SMILES IDX 37 24 69 25 49 26 68 27 50 28 53 29 67 30 86 31 51 32 52 33
REMARK SMILES IDX 66 35 87 36 54 37 38 38 39 39 47 40 40 41 42 42 48 43 41 44
REMARK SMILES IDX 43 45 44 46 45 47 46 48 70 49 71 50 79 51 72 52 74 53 80 54
REMARK SMILES IDX 73 55 75 56 76 57 77 58 78 59 55 60 56 61 64 62 57 63 59 64
REMARK SMILES IDX 65 65 58 66 60 67 61 68 62 69 63 70 6 71 7 72 8 73 9 74
REMARK SMILES IDX 10 75 28 76 11 77 13 78 12 79 14 80 15 81 16 82 17 83 27 84
REMARK SMILES IDX 18 85 26 86 19 87 20 89 21 90 22 91 25 92 23 93 24 94
REMARK H PARENT 85 23 53 34 19 88
REMARK Flexibility Score: inf
ROOT
ATOM      1  C   UNL     1       4.248   0.096  -6.195  1.00  0.00     0.274 C 
ENDROOT
BRANCH   1   2
ATOM      2  C   UNL     1       5.365   1.103  -5.894  1.00  0.00     0.275 C 
BRANCH   2   3
ATOM      3  O   UNL     1       5.831   1.034  -4.537  1.00  0.00    -0.458 OA
BRANCH   3   4
ATOM      4  C   UNL     1       5.801   2.087  -3.679  1.00  0.00     0.338 C 
ATOM      5  O   UNL     1       6.729   2.280  -2.900  1.00  0.00    -0.246 OA
BRANCH   4   6
ATOM      6  C   UNL     1       4.520   2.820  -3.467  1.00  0.00     0.060 A 
ATOM      7  C   UNL     1       3.914   3.669  -4.402  1.00  0.00     0.016 A 
ATOM      8  C   UNL     1       3.975   2.747  -2.182  1.00  0.00     0.016 A 
ATOM      9  C   UNL     1       2.753   4.403  -4.071  1.00  0.00     0.010 A 
ATOM     10  C   UNL     1       2.800   3.431  -1.869  1.00  0.00     0.010 A 
ATOM     11  C   UNL     1       2.186   4.298  -2.797  1.00  0.00    -0.014 A 
BRANCH  11  12
ATOM     12  C   UNL     1       1.111   5.189  -2.264  1.00  0.00     0.031 A 
ATOM     13  C   UNL     1       1.500   6.124  -1.155  1.00  0.00     0.074 A 
ATOM     14  C   UNL     1      -0.195   5.103  -2.599  1.00  0.00     0.049 A 
ATOM     15  N   UNL     1       0.732   6.808  -0.355  1.00  0.00    -0.248 NA
ATOM     16  C   UNL     1       2.945   6.334  -0.937  1.00  0.00     0.031 C 
ATOM     17  C   UNL     1      -0.752   4.387  -3.734  1.00  0.00     0.029 A 
ATOM     18  N   UNL     1      -1.319   5.507  -1.900  1.00  0.00    -0.354 N 
ATOM     19  C   UNL     1       1.594   7.613   0.370  1.00  0.00     0.074 A 
ATOM     20  C   UNL     1       2.941   7.181   0.078  1.00  0.00     0.031 C 
ATOM     21  C   UNL     1      -2.068   4.183  -3.525  1.00  0.00     0.029 A 
ATOM     22  C   UNL     1      -2.446   4.782  -2.255  1.00  0.00     0.049 A 
ATOM     23  H   UNL     1      -1.318   6.227  -1.228  1.00  0.00     0.167 HD
ATOM     24  C   UNL     1       1.286   8.728   1.070  1.00  0.00     0.034 A 
ATOM     25  C   UNL     1      -3.591   4.559  -1.570  1.00  0.00     0.034 A 
ATOM     26  C   UNL     1      -0.061   9.143   1.316  1.00  0.00     0.049 A 
ATOM     27  C   UNL     1      -3.883   5.480  -0.421  1.00  0.00     0.074 A 
ATOM     28  C   UNL     1      -0.538  10.335   1.824  1.00  0.00     0.029 A 
ATOM     29  N   UNL     1      -1.161   8.331   1.088  1.00  0.00    -0.354 N 
ATOM     30  N   UNL     1      -3.093   6.370   0.123  1.00  0.00    -0.248 NA
ATOM     31  C   UNL     1      -5.264   5.501   0.083  1.00  0.00     0.031 C 
ATOM     32  C   UNL     1      -1.933  10.229   1.927  1.00  0.00     0.029 A 
ATOM     33  C   UNL     1      -2.317   8.978   1.468  1.00  0.00     0.049 A 
ATOM     34  H   UNL     1      -1.122   7.423   0.709  1.00  0.00     0.167 HD
ATOM     35  C   UNL     1      -3.926   7.189   0.869  1.00  0.00     0.074 A 
ATOM     36  C   UNL     1      -5.244   6.587   0.846  1.00  0.00     0.031 C 
ATOM     37  C   UNL     1      -3.634   8.398   1.403  1.00  0.00     0.034 A 
BRANCH  24  38
ATOM     38  C   UNL     1       2.446   9.608   1.428  1.00  0.00     0.023 A 
ATOM     39  C   UNL     1       3.133  10.263   0.378  1.00  0.00     0.012 A 
ATOM     40  C   UNL     1       2.924   9.714   2.741  1.00  0.00     0.148 A 
ATOM     41  C   UNL     1       4.324  10.941   0.619  1.00  0.00     0.002 A 
ATOM     42  C   UNL     1       4.096  10.424   2.980  1.00  0.00     0.091 A 
ATOM     43  F   UNL     1       2.266   9.072   3.717  1.00  0.00    -0.205 F 
ATOM     44  C   UNL     1       4.806  11.019   1.921  1.00  0.00     0.022 A 
BRANCH  42  45
ATOM     45  S   UNL     1       4.794  10.610   4.622  1.00  0.00     0.127 S 
ATOM     46  O   UNL     1       5.965   9.738   4.543  1.00  0.00    -0.237 OA
ATOM     47  O   UNL     1       5.100  12.040   4.664  1.00  0.00    -0.237 OA
ATOM     48  O   UNL     1       3.755  10.184   5.548  1.00  0.00    -0.744 OA
ENDBRANCH  42  45
ENDBRANCH  24  38
BRANCH  25  49
ATOM     49  C   UNL     1      -4.583   3.501  -1.941  1.00  0.00     0.023 A 
ATOM     50  C   UNL     1      -5.340   3.597  -3.120  1.00  0.00     0.012 A 
ATOM     51  C   UNL     1      -4.818   2.405  -1.077  1.00  0.00     0.148 A 
ATOM     52  C   UNL     1      -6.281   2.616  -3.450  1.00  0.00     0.002 A 
ATOM     53  C   UNL     1      -5.749   1.423  -1.415  1.00  0.00     0.091 A 
ATOM     54  F   UNL     1      -4.120   2.347   0.067  1.00  0.00    -0.205 F 
ATOM     55  C   UNL     1      -6.482   1.528  -2.604  1.00  0.00     0.022 A 
BRANCH  53  56
ATOM     56  S   UNL     1      -6.066  -0.034  -0.403  1.00  0.00     0.127 S 
ATOM     57  O   UNL     1      -7.525  -0.045  -0.321  1.00  0.00    -0.237 OA
ATOM     58  O   UNL     1      -5.487  -1.089  -1.231  1.00  0.00    -0.237 OA
ATOM     59  O   UNL     1      -5.383   0.213   0.862  1.00  0.00    -0.744 OA
ENDBRANCH  53  56
ENDBRANCH  25  49
BRANCH  37  60
ATOM     60  C   UNL     1      -4.779   9.253   1.845  1.00  0.00     0.023 A 
ATOM     61  C   UNL     1      -5.405   9.046   3.085  1.00  0.00     0.012 A 
ATOM     62  C   UNL     1      -5.144  10.356   1.046  1.00  0.00     0.148 A 
ATOM     63  C   UNL     1      -6.379   9.939   3.528  1.00  0.00     0.002 A 
ATOM     64  C   UNL     1      -6.068  11.271   1.520  1.00  0.00     0.091 A 
ATOM     65  F   UNL     1      -4.557  10.499  -0.152  1.00  0.00    -0.205 F 
ATOM     66  C   UNL     1      -6.694  11.060   2.759  1.00  0.00     0.022 A 
BRANCH  64  67
ATOM     67  S   UNL     1      -6.430  12.803   0.656  1.00  0.00     0.127 S 
ATOM     68  O   UNL     1      -7.827  12.607   0.270  1.00  0.00    -0.237 OA
ATOM     69  O   UNL     1      -6.220  13.801   1.705  1.00  0.00    -0.237 OA
ATOM     70  O   UNL     1      -5.486  12.880  -0.450  1.00  0.00    -0.744 OA
ENDBRANCH  64  67
ENDBRANCH  37  60
ENDBRANCH  11  12
ENDBRANCH   4   6
ENDBRANCH   3   4
ENDBRANCH   2   3
ENDBRANCH   1   2
BRANCH   1  71
ATOM     71  O   UNL     1       3.498  -0.178  -5.007  1.00  0.00    -0.462 OA
BRANCH  71  72
ATOM     72  C   UNL     1       3.214  -1.483  -4.728  1.00  0.00     0.310 C 
ATOM     73  O   UNL     1       3.224  -2.380  -5.563  1.00  0.00    -0.252 OA
BRANCH  72  74
ATOM     74  C   UNL     1       2.982  -1.707  -3.236  1.00  0.00     0.119 C 
ATOM     75  C   UNL     1       3.560  -0.545  -2.437  1.00  0.00     0.019 C 
ATOM     76  C   UNL     1       1.508  -1.975  -2.904  1.00  0.00     0.134 C 
ATOM     77  C   UNL     1       3.296  -0.714  -0.965  1.00  0.00     0.022 C 
ATOM     78  N   UNL     1       1.133  -1.819  -1.474  1.00  0.00    -0.342 N 
ATOM     79  C   UNL     1       1.801  -0.751  -0.752  1.00  0.00     0.119 C 
BRANCH  78  80
ATOM     80  C   UNL     1      -0.046  -2.443  -1.063  1.00  0.00     0.226 C 
ATOM     81  O   UNL     1      -0.471  -3.392  -1.748  1.00  0.00    -0.275 OA
BRANCH  80  82
ATOM     82  C   UNL     1      -0.915  -2.058   0.191  1.00  0.00     0.090 C 
ATOM     83  C   UNL     1      -2.319  -1.661  -0.315  1.00  0.00     0.075 C 
ATOM     84  C   UNL     1      -0.565  -0.985   1.241  1.00  0.00     0.075 C 
ATOM     85  C   UNL     1      -2.269  -0.293  -0.994  1.00  0.00     0.263 C 
ATOM     86  C   UNL     1      -0.766   0.455   0.725  1.00  0.00     0.263 C 
ATOM     87  N   UNL     1      -1.003   0.390  -0.711  1.00  0.00    -0.329 N 
ATOM     88  H   UNL     1      -0.246  -0.174  -1.098  1.00  0.00     0.348 HD
BRANCH  87  89
ATOM     89  C   UNL     1      -0.851   1.651  -1.420  1.00  0.00     0.338 C 
BRANCH  89  90
ATOM     90  C   UNL     1      -0.589   1.396  -2.879  1.00  0.00     0.157 A 
ATOM     91  C   UNL     1      -1.398   1.050  -3.947  1.00  0.00     0.052 A 
ATOM     92  O   UNL     1       0.692   1.569  -3.326  1.00  0.00    -0.463 OA
ATOM     93  C   UNL     1      -0.582   1.048  -5.100  1.00  0.00     0.042 A 
ATOM     94  C   UNL     1       0.677   1.386  -4.670  1.00  0.00     0.195 A 
ENDBRANCH  89  90
ENDBRANCH  87  89
ENDBRANCH  80  82
ENDBRANCH  78  80
ENDBRANCH  72  74
ENDBRANCH  71  72
ENDBRANCH   1  71
TORSDOF 18
