REMARK SMILES COc1ccc(Cl)cc1-c1cnc(OC)c(C(=O)OCCOC(=O)c2ccc(-c3c4nc(c(-c5cccc(S(=O)(=O)[O-])c5F)c5ccc([nH]5)c(-c5cccc(S(=O)(=O)[O-])c5F)c5nc(c(-c6cccc(S(=O)(=O)[O-])c6F)c6ccc3[nH]6)C=C5)C=C4)cc2)c1
REMARK SMILES IDX 21 1 20 2 19 3 17 4 18 5 16 6 10 7 11 8 88 9 12 10 13 11
REMARK SMILES IDX 9 12 3 13 4 14 5 15 8 16 6 17 7 18 2 19 1 20 14 21 15 22
REMARK SMILES IDX 22 23 23 24 24 25 25 26 26 27 87 28 27 29 86 30 28 31 29 32
REMARK SMILES IDX 30 33 80 34 31 35 85 36 79 37 81 38 32 39 84 40 78 41 77 42
REMARK SMILES IDX 33 44 65 45 45 46 64 47 46 48 49 49 63 50 82 51 47 52 48 53
REMARK SMILES IDX 62 55 83 56 50 57 34 58 35 59 43 60 36 61 38 62 44 63 37 64
REMARK SMILES IDX 39 65 40 66 41 67 42 68 66 69 67 70 75 71 68 72 70 73 76 74
REMARK SMILES IDX 69 75 71 76 72 77 73 78 74 79 51 80 52 81 60 82 53 83 55 84
REMARK SMILES IDX 61 85 54 86 56 87 57 88 58 89 59 90
REMARK H PARENT 81 43 49 54
REMARK Flexibility Score: inf
ROOT
ATOM      1  C   UNL     1      -5.982   1.088   2.538  1.00  0.00     0.275 C 
ENDROOT
BRANCH   1   2
ATOM      2  C   UNL     1      -4.858   0.128   2.147  1.00  0.00     0.275 C 
BRANCH   2   3
ATOM      3  O   UNL     1      -4.036   0.767   1.159  1.00  0.00    -0.458 OA
BRANCH   3   4
ATOM      4  C   UNL     1      -3.491  -0.041   0.223  1.00  0.00     0.343 C 
ATOM      5  O   UNL     1      -3.430  -1.254   0.244  1.00  0.00    -0.246 OA
BRANCH   4   6
ATOM      6  C   UNL     1      -2.972   0.818  -0.844  1.00  0.00     0.122 A 
ATOM      7  C   UNL     1      -1.192   2.351  -1.484  1.00  0.00     0.005 A 
ATOM      8  C   UNL     1      -1.816   2.421  -2.720  1.00  0.00     0.124 A 
ATOM      9  C   UNL     1      -1.824   1.560  -0.523  1.00  0.00     0.032 A 
ATOM     10  N   UNL     1      -2.943   1.743  -3.042  1.00  0.00    -0.221 NA
ATOM     11  C   UNL     1      -3.504   0.914  -2.123  1.00  0.00     0.227 A 
BRANCH   7  12
ATOM     12  C   UNL     1       0.118   2.962  -1.232  1.00  0.00     0.027 A 
ATOM     13  C   UNL     1       1.251   2.151  -1.003  1.00  0.00     0.126 A 
ATOM     14  C   UNL     1       2.514   2.709  -0.795  1.00  0.00     0.048 A 
ATOM     15  C   UNL     1       2.663   4.094  -0.790  1.00  0.00     0.024 A 
ATOM     16  C   UNL     1       0.288   4.355  -1.226  1.00  0.00     0.033 A 
ATOM     17  C   UNL     1       1.552   4.910  -1.005  1.00  0.00     0.041 A 
ATOM     18  Cl  UNL     1       1.752   6.620  -1.012  1.00  0.00    -0.084 Cl
BRANCH  13  19
ATOM     19  O   UNL     1       1.116   0.788  -1.107  1.00  0.00    -0.496 OA
ATOM     20  C   UNL     1       1.396   0.122   0.122  1.00  0.00     0.278 C 
ENDBRANCH  13  19
ENDBRANCH   7  12
BRANCH  11  21
ATOM     21  O   UNL     1      -4.585   0.304  -2.668  1.00  0.00    -0.480 OA
ATOM     22  C   UNL     1      -5.391  -0.592  -1.929  1.00  0.00     0.280 C 
ENDBRANCH  11  21
ENDBRANCH   4   6
ENDBRANCH   3   4
ENDBRANCH   2   3
ENDBRANCH   1   2
BRANCH   1  23
ATOM     23  O   UNL     1      -6.814   1.367   1.395  1.00  0.00    -0.458 OA
BRANCH  23  24
ATOM     24  C   UNL     1      -6.441   2.438   0.646  1.00  0.00     0.338 C 
ATOM     25  O   UNL     1      -5.542   3.225   0.895  1.00  0.00    -0.246 OA
BRANCH  24  26
ATOM     26  C   UNL     1      -7.205   2.442  -0.622  1.00  0.00     0.060 A 
ATOM     27  C   UNL     1      -6.544   2.839  -1.790  1.00  0.00     0.016 A 
ATOM     28  C   UNL     1      -8.546   2.049  -0.673  1.00  0.00     0.016 A 
ATOM     29  C   UNL     1      -7.215   2.825  -3.014  1.00  0.00     0.010 A 
ATOM     30  C   UNL     1      -9.224   2.061  -1.894  1.00  0.00     0.010 A 
ATOM     31  C   UNL     1      -8.563   2.454  -3.069  1.00  0.00    -0.014 A 
BRANCH  31  32
ATOM     32  C   UNL     1      -9.311   2.563  -4.341  1.00  0.00     0.031 A 
ATOM     33  C   UNL     1      -9.987   3.859  -4.682  1.00  0.00     0.074 A 
ATOM     34  C   UNL     1      -9.403   1.510  -5.172  1.00  0.00     0.049 A 
ATOM     35  N   UNL     1     -10.657   4.184  -5.755  1.00  0.00    -0.248 NA
ATOM     36  C   UNL     1      -9.891   4.934  -3.679  1.00  0.00     0.031 C 
ATOM     37  C   UNL     1      -8.791   0.202  -4.946  1.00  0.00     0.029 A 
ATOM     38  N   UNL     1     -10.064   1.371  -6.366  1.00  0.00    -0.354 N 
ATOM     39  C   UNL     1     -11.060   5.499  -5.564  1.00  0.00     0.074 A 
ATOM     40  C   UNL     1     -10.576   5.907  -4.262  1.00  0.00     0.031 C 
ATOM     41  C   UNL     1      -9.123  -0.616  -5.960  1.00  0.00     0.029 A 
ATOM     42  C   UNL     1      -9.976   0.107  -6.901  1.00  0.00     0.049 A 
ATOM     43  H   UNL     1     -10.555   2.106  -6.799  1.00  0.00     0.167 HD
ATOM     44  C   UNL     1     -11.755   6.301  -6.404  1.00  0.00     0.034 A 
ATOM     45  C   UNL     1     -10.524  -0.403  -8.021  1.00  0.00     0.034 A 
ATOM     46  C   UNL     1     -12.252   5.888  -7.688  1.00  0.00     0.049 A 
ATOM     47  C   UNL     1     -11.344   0.497  -8.911  1.00  0.00     0.074 A 
ATOM     48  C   UNL     1     -12.947   6.634  -8.623  1.00  0.00     0.029 A 
ATOM     49  N   UNL     1     -12.128   4.608  -8.207  1.00  0.00    -0.354 N 
ATOM     50  N   UNL     1     -11.587   1.780  -8.792  1.00  0.00    -0.248 NA
ATOM     51  C   UNL     1     -11.940  -0.116 -10.108  1.00  0.00     0.031 C 
ATOM     52  C   UNL     1     -13.264   5.796  -9.699  1.00  0.00     0.029 A 
ATOM     53  C   UNL     1     -12.753   4.534  -9.440  1.00  0.00     0.049 A 
ATOM     54  H   UNL     1     -11.663   3.862  -7.764  1.00  0.00     0.167 HD
ATOM     55  C   UNL     1     -12.329   2.136  -9.912  1.00  0.00     0.074 A 
ATOM     56  C   UNL     1     -12.484   0.935 -10.708  1.00  0.00     0.031 C 
ATOM     57  C   UNL     1     -12.849   3.344 -10.246  1.00  0.00     0.034 A 
BRANCH  44  58
ATOM     58  C   UNL     1     -11.989   7.718  -5.961  1.00  0.00     0.023 A 
ATOM     59  C   UNL     1     -10.924   8.641  -6.019  1.00  0.00     0.012 A 
ATOM     60  C   UNL     1     -13.251   8.143  -5.507  1.00  0.00     0.148 A 
ATOM     61  C   UNL     1     -11.105   9.959  -5.603  1.00  0.00     0.002 A 
ATOM     62  C   UNL     1     -13.432   9.467  -5.124  1.00  0.00     0.091 A 
ATOM     63  F   UNL     1     -14.241   7.242  -5.431  1.00  0.00    -0.205 F 
ATOM     64  C   UNL     1     -12.360  10.374  -5.164  1.00  0.00     0.022 A 
BRANCH  62  65
ATOM     65  S   UNL     1     -15.025  10.102  -4.590  1.00  0.00     0.127 S 
ATOM     66  O   UNL     1     -14.847  10.164  -3.140  1.00  0.00    -0.237 OA
ATOM     67  O   UNL     1     -15.081  11.405  -5.253  1.00  0.00    -0.237 OA
ATOM     68  O   UNL     1     -16.013   9.142  -5.063  1.00  0.00    -0.744 OA
ENDBRANCH  62  65
ENDBRANCH  44  58
BRANCH  45  69
ATOM     69  C   UNL     1     -10.266  -1.820  -8.403  1.00  0.00     0.023 A 
ATOM     70  C   UNL     1      -9.460  -2.095  -9.524  1.00  0.00     0.012 A 
ATOM     71  C   UNL     1     -10.800  -2.893  -7.662  1.00  0.00     0.148 A 
ATOM     72  C   UNL     1      -9.212  -3.411  -9.918  1.00  0.00     0.002 A 
ATOM     73  C   UNL     1     -10.510  -4.202  -8.031  1.00  0.00     0.091 A 
ATOM     74  F   UNL     1     -11.583  -2.612  -6.611  1.00  0.00    -0.205 F 
ATOM     75  C   UNL     1      -9.728  -4.463  -9.167  1.00  0.00     0.022 A 
BRANCH  73  76
ATOM     76  S   UNL     1     -11.041  -5.615  -7.056  1.00  0.00     0.127 S 
ATOM     77  O   UNL     1     -12.118  -6.159  -7.878  1.00  0.00    -0.237 OA
ATOM     78  O   UNL     1      -9.827  -6.431  -7.013  1.00  0.00    -0.237 OA
ATOM     79  O   UNL     1     -11.440  -5.069  -5.765  1.00  0.00    -0.744 OA
ENDBRANCH  73  76
ENDBRANCH  45  69
BRANCH  57  80
ATOM     80  C   UNL     1     -13.622   3.443 -11.536  1.00  0.00     0.023 A 
ATOM     81  C   UNL     1     -14.920   2.901 -11.611  1.00  0.00     0.012 A 
ATOM     82  C   UNL     1     -13.102   4.149 -12.639  1.00  0.00     0.148 A 
ATOM     83  C   UNL     1     -15.681   3.042 -12.771  1.00  0.00     0.002 A 
ATOM     84  C   UNL     1     -13.883   4.324 -13.775  1.00  0.00     0.091 A 
ATOM     85  F   UNL     1     -11.856   4.639 -12.556  1.00  0.00    -0.205 F 
ATOM     86  C   UNL     1     -15.168   3.764 -13.847  1.00  0.00     0.022 A 
BRANCH  84  87
ATOM     87  S   UNL     1     -13.339   5.322 -15.168  1.00  0.00     0.127 S 
ATOM     88  O   UNL     1     -12.976   4.298 -16.145  1.00  0.00    -0.237 OA
ATOM     89  O   UNL     1     -14.546   6.081 -15.501  1.00  0.00    -0.237 OA
ATOM     90  O   UNL     1     -12.238   6.134 -14.669  1.00  0.00    -0.744 OA
ENDBRANCH  84  87
ENDBRANCH  57  80
ENDBRANCH  31  32
ENDBRANCH  24  26
ENDBRANCH  23  24
ENDBRANCH   1  23
TORSDOF 17
