REMARK SMILES CC[C@@H](C)[C@H](NC(=O)NCc1ccc(C)cc1)C(=O)OCCOC(=O)c1ccc(-c2c3nc(c(-c4cccc(S(=O)(=O)[O-])c4F)c4ccc([nH]4)c(-c4cccc(S(=O)(=O)[O-])c4F)c4nc(c(-c5cccc(S(=O)(=O)[O-])c5F)c5ccc2[nH]5)C=C4)C=C3)cc1
REMARK SMILES IDX 21 1 20 2 18 3 19 4 5 5 3 6 4 7 2 8 1 9 6 10 7 11 8 13 9 14
REMARK SMILES IDX 10 16 11 17 12 18 17 19 13 20 16 21 14 22 15 23 22 24 23 25
REMARK SMILES IDX 24 26 25 27 26 28 27 29 88 30 28 31 87 32 29 33 30 34 31 35
REMARK SMILES IDX 81 36 32 37 86 38 80 39 82 40 33 41 85 42 79 43 78 44 34 46
REMARK SMILES IDX 66 47 46 48 65 49 47 50 50 51 64 52 83 53 48 54 49 55 63 57
REMARK SMILES IDX 84 58 51 59 35 60 36 61 44 62 37 63 39 64 45 65 38 66 40 67
REMARK SMILES IDX 41 68 42 69 43 70 67 71 68 72 76 73 69 74 71 75 77 76 70 77
REMARK SMILES IDX 72 78 73 79 74 80 75 81 52 82 53 83 61 84 54 85 56 86 62 87
REMARK SMILES IDX 55 88 57 89 58 90 59 91 60 92
REMARK H PARENT 6 12 9 15 82 45 50 56
REMARK Flexibility Score: inf
ROOT
ATOM      1  C   UNL     1       3.446   5.119  -1.807  1.00  0.00     0.274 C 
ENDROOT
BRANCH   1   2
ATOM      2  O   UNL     1       2.566   4.515  -0.844  1.00  0.00    -0.461 OA
BRANCH   2   3
ATOM      3  C   UNL     1       2.425   3.168  -0.900  1.00  0.00     0.329 C 
ATOM      4  O   UNL     1       3.030   2.467  -1.705  1.00  0.00    -0.250 OA
BRANCH   3   5
ATOM      5  C   UNL     1       1.383   2.647   0.127  1.00  0.00     0.196 C 
BRANCH   5   6
ATOM      6  C   UNL     1       1.741   2.922   1.611  1.00  0.00     0.019 C 
ATOM      7  C   UNL     1       3.120   2.373   1.996  1.00  0.00     0.010 C 
BRANCH   6   8
ATOM      8  C   UNL     1       0.632   2.389   2.549  1.00  0.00     0.002 C 
ATOM      9  C   UNL     1       0.764   2.826   4.004  1.00  0.00     0.004 C 
ENDBRANCH   6   8
ENDBRANCH   5   6
BRANCH   5  10
ATOM     10  N   UNL     1       1.234   1.217  -0.142  1.00  0.00    -0.324 N 
ATOM     11  C   UNL     1       0.281   0.461  -0.676  1.00  0.00     0.315 C 
ATOM     12  H   UNL     1       2.021   0.695   0.137  1.00  0.00     0.166 HD
ATOM     13  O   UNL     1       0.618  -0.649  -1.103  1.00  0.00    -0.249 OA
ATOM     14  N   UNL     1      -1.006   0.775  -0.774  1.00  0.00    -0.334 N 
ATOM     15  H   UNL     1      -1.490   0.126  -1.334  1.00  0.00     0.165 HD
BRANCH  14  16
ATOM     16  C   UNL     1      -1.900   1.817  -0.281  1.00  0.00     0.153 C 
BRANCH  16  17
ATOM     17  C   UNL     1      -3.168   1.954  -1.114  1.00  0.00    -0.029 A 
ATOM     18  C   UNL     1      -4.187   2.801  -0.654  1.00  0.00     0.006 A 
ATOM     19  C   UNL     1      -3.375   1.310  -2.343  1.00  0.00     0.006 A 
ATOM     20  C   UNL     1      -5.359   3.010  -1.386  1.00  0.00     0.004 A 
ATOM     21  C   UNL     1      -4.564   1.486  -3.063  1.00  0.00     0.004 A 
ATOM     22  C   UNL     1      -5.566   2.339  -2.591  1.00  0.00    -0.051 A 
ATOM     23  C   UNL     1      -6.828   2.562  -3.365  1.00  0.00     0.044 C 
ENDBRANCH  16  17
ENDBRANCH  14  16
ENDBRANCH   5  10
ENDBRANCH   3   5
ENDBRANCH   2   3
ENDBRANCH   1   2
BRANCH   1  24
ATOM     24  C   UNL     1       2.934   5.132  -3.267  1.00  0.00     0.275 C 
BRANCH  24  25
ATOM     25  O   UNL     1       1.700   5.786  -3.695  1.00  0.00    -0.458 OA
BRANCH  25  26
ATOM     26  C   UNL     1       0.484   5.654  -3.089  1.00  0.00     0.338 C 
ATOM     27  O   UNL     1      -0.517   5.265  -3.639  1.00  0.00    -0.246 OA
BRANCH  26  28
ATOM     28  C   UNL     1       0.484   6.261  -1.749  1.00  0.00     0.060 A 
ATOM     29  C   UNL     1      -0.234   5.680  -0.696  1.00  0.00     0.016 A 
ATOM     30  C   UNL     1       1.377   7.304  -1.540  1.00  0.00     0.016 A 
ATOM     31  C   UNL     1       0.090   6.024   0.617  1.00  0.00     0.010 A 
ATOM     32  C   UNL     1       1.775   7.556  -0.257  1.00  0.00     0.010 A 
ATOM     33  C   UNL     1       1.132   6.925   0.825  1.00  0.00    -0.014 A 
BRANCH  33  34
ATOM     34  C   UNL     1       1.418   7.583   2.089  1.00  0.00     0.031 A 
ATOM     35  C   UNL     1       2.324   7.078   3.127  1.00  0.00     0.074 A 
ATOM     36  C   UNL     1       1.011   8.868   2.028  1.00  0.00     0.049 A 
ATOM     37  N   UNL     1       2.279   7.488   4.348  1.00  0.00    -0.248 NA
ATOM     38  C   UNL     1       3.345   6.062   2.898  1.00  0.00     0.031 C 
ATOM     39  C   UNL     1       1.508  10.048   2.695  1.00  0.00     0.029 A 
ATOM     40  N   UNL     1      -0.054   9.333   1.246  1.00  0.00    -0.354 N 
ATOM     41  C   UNL     1       3.408   7.011   4.987  1.00  0.00     0.074 A 
ATOM     42  C   UNL     1       3.957   6.020   4.091  1.00  0.00     0.031 C 
ATOM     43  C   UNL     1       0.630  11.049   2.482  1.00  0.00     0.029 A 
ATOM     44  C   UNL     1      -0.562  10.464   1.864  1.00  0.00     0.049 A 
ATOM     45  H   UNL     1      -0.383   8.929   0.410  1.00  0.00     0.167 HD
ATOM     46  C   UNL     1       3.874   7.661   6.094  1.00  0.00     0.034 A 
ATOM     47  C   UNL     1      -1.840  10.490   2.351  1.00  0.00     0.034 A 
ATOM     48  C   UNL     1       3.097   8.892   6.304  1.00  0.00     0.049 A 
ATOM     49  C   UNL     1      -1.813  10.700   3.852  1.00  0.00     0.074 A 
ATOM     50  C   UNL     1       3.329  10.183   5.857  1.00  0.00     0.029 A 
ATOM     51  N   UNL     1       1.783   8.854   6.752  1.00  0.00    -0.354 N 
ATOM     52  N   UNL     1      -0.764  10.498   4.595  1.00  0.00    -0.248 NA
ATOM     53  C   UNL     1      -2.984  11.091   4.626  1.00  0.00     0.031 C 
ATOM     54  C   UNL     1       2.118  10.908   5.966  1.00  0.00     0.029 A 
ATOM     55  C   UNL     1       1.160  10.073   6.515  1.00  0.00     0.049 A 
ATOM     56  H   UNL     1       1.355   8.076   7.177  1.00  0.00     0.167 HD
ATOM     57  C   UNL     1      -1.102  10.617   5.911  1.00  0.00     0.074 A 
ATOM     58  C   UNL     1      -2.491  11.049   5.875  1.00  0.00     0.031 C 
ATOM     59  C   UNL     1      -0.227  10.294   6.910  1.00  0.00     0.034 A 
BRANCH  46  60
ATOM     60  C   UNL     1       5.237   7.464   6.754  1.00  0.00     0.023 A 
ATOM     61  C   UNL     1       5.738   8.547   7.519  1.00  0.00     0.012 A 
ATOM     62  C   UNL     1       6.079   6.331   6.670  1.00  0.00     0.148 A 
ATOM     63  C   UNL     1       7.027   8.567   8.060  1.00  0.00     0.002 A 
ATOM     64  C   UNL     1       7.389   6.365   7.172  1.00  0.00     0.091 A 
ATOM     65  F   UNL     1       5.601   5.191   6.160  1.00  0.00    -0.205 F 
ATOM     66  C   UNL     1       7.867   7.487   7.858  1.00  0.00     0.022 A 
BRANCH  64  67
ATOM     67  S   UNL     1       8.576   5.028   6.931  1.00  0.00     0.127 S 
ATOM     68  O   UNL     1       9.661   5.708   6.221  1.00  0.00    -0.237 OA
ATOM     69  O   UNL     1       8.900   4.640   8.303  1.00  0.00    -0.237 OA
ATOM     70  O   UNL     1       7.889   4.012   6.144  1.00  0.00    -0.744 OA
ENDBRANCH  64  67
ENDBRANCH  46  60
BRANCH  47  71
ATOM     71  C   UNL     1      -2.783   9.510   1.688  1.00  0.00     0.023 A 
ATOM     72  C   UNL     1      -2.922   9.533   0.275  1.00  0.00     0.012 A 
ATOM     73  C   UNL     1      -3.167   8.345   2.372  1.00  0.00     0.148 A 
ATOM     74  C   UNL     1      -3.285   8.379  -0.433  1.00  0.00     0.002 A 
ATOM     75  C   UNL     1      -3.472   7.189   1.661  1.00  0.00     0.091 A 
ATOM     76  F   UNL     1      -3.171   8.348   3.710  1.00  0.00    -0.205 F 
ATOM     77  C   UNL     1      -3.521   7.195   0.259  1.00  0.00     0.022 A 
BRANCH  75  78
ATOM     78  S   UNL     1      -3.546   5.606   2.511  1.00  0.00     0.127 S 
ATOM     79  O   UNL     1      -2.863   4.721   1.567  1.00  0.00    -0.237 OA
ATOM     80  O   UNL     1      -2.814   5.804   3.751  1.00  0.00    -0.237 OA
ATOM     81  O   UNL     1      -4.986   5.399   2.629  1.00  0.00    -0.744 OA
ENDBRANCH  75  78
ENDBRANCH  47  71
BRANCH  59  82
ATOM     82  C   UNL     1      -0.596  10.191   8.369  1.00  0.00     0.023 A 
ATOM     83  C   UNL     1      -1.908   9.908   8.787  1.00  0.00     0.012 A 
ATOM     84  C   UNL     1       0.404  10.237   9.372  1.00  0.00     0.148 A 
ATOM     85  C   UNL     1      -2.236   9.771  10.138  1.00  0.00     0.002 A 
ATOM     86  C   UNL     1       0.094   9.975  10.701  1.00  0.00     0.091 A 
ATOM     87  F   UNL     1       1.666  10.558   9.049  1.00  0.00    -0.205 F 
ATOM     88  C   UNL     1      -1.231   9.783  11.095  1.00  0.00     0.022 A 
BRANCH  86  89
ATOM     89  S   UNL     1       1.396   9.719  11.911  1.00  0.00     0.127 S 
ATOM     90  O   UNL     1       1.577  11.063  12.455  1.00  0.00    -0.237 OA
ATOM     91  O   UNL     1       0.784   8.765  12.838  1.00  0.00    -0.237 OA
ATOM     92  O   UNL     1       2.514   9.175  11.152  1.00  0.00    -0.744 OA
ENDBRANCH  86  89
ENDBRANCH  59  82
ENDBRANCH  33  34
ENDBRANCH  26  28
ENDBRANCH  25  26
ENDBRANCH  24  25
ENDBRANCH   1  24
TORSDOF 19
