REMARK SMILES Cc1nccn1CCC[NH+]1CCC2(CC1)[C@@H](C(=O)OCCOC(=O)c1ccc(-c3c4nc(c(-c5cccc(S(=O)(=O)[O-])c5F)c5ccc([nH]5)c(-c5cccc(S(=O)(=O)[O-])c5F)c5nc(c(-c6cccc(S(=O)(=O)[O-])c6F)c6ccc3[nH]6)C=C5)C=C4)cc1)CC(=O)N2C
REMARK SMILES IDX 20 1 19 2 17 3 18 4 16 5 10 6 11 7 15 8 12 10 14 11 13 12
REMARK SMILES IDX 91 13 88 14 89 15 92 16 90 17 9 18 8 19 7 20 6 21 1 22 2 23
REMARK SMILES IDX 3 24 4 25 5 26 21 27 22 28 23 29 24 30 25 31 26 32 87 33
REMARK SMILES IDX 27 34 86 35 28 36 29 37 30 38 80 39 31 40 85 41 79 42 81 43
REMARK SMILES IDX 32 44 84 45 78 46 77 47 33 49 65 50 45 51 64 52 46 53 49 54
REMARK SMILES IDX 63 55 82 56 47 57 48 58 62 60 83 61 50 62 34 63 35 64 43 65
REMARK SMILES IDX 36 66 38 67 44 68 37 69 39 70 40 71 41 72 42 73 66 74 67 75
REMARK SMILES IDX 75 76 68 77 70 78 76 79 69 80 71 81 72 82 73 83 74 84 51 85
REMARK SMILES IDX 52 86 60 87 53 88 55 89 61 90 54 91 56 92 57 93 58 94 59 95
REMARK H PARENT 10 9 81 48 49 59
REMARK Flexibility Score: inf
ROOT
ATOM      1  C   UNL     1      -2.981   4.062   1.308  1.00  0.00     0.274 C 
ENDROOT
BRANCH   1   2
ATOM      2  O   UNL     1      -2.128   5.203   1.558  1.00  0.00    -0.462 OA
BRANCH   2   3
ATOM      3  C   UNL     1      -1.470   5.722   0.487  1.00  0.00     0.311 C 
ATOM      4  O   UNL     1      -1.437   5.213  -0.628  1.00  0.00    -0.252 OA
BRANCH   3   5
ATOM      5  C   UNL     1      -0.714   6.998   0.796  1.00  0.00     0.134 C 
ATOM      6  N   UNL     1       3.351   5.386   0.790  1.00  0.00    -0.335 N 
ATOM      7  C   UNL     1       3.183   6.840   0.574  1.00  0.00     0.264 C 
ATOM      8  C   UNL     1       2.490   4.964   1.896  1.00  0.00     0.264 C 
ATOM      9  H   UNL     1       4.295   5.141   1.089  1.00  0.00     0.348 HD
ATOM     10  C   UNL     1       1.735   7.275   0.322  1.00  0.00     0.091 C 
ATOM     11  C   UNL     1       1.008   5.303   1.737  1.00  0.00     0.091 C 
ATOM     12  C   UNL     1       0.716   6.780   1.382  1.00  0.00     0.067 C 
ATOM     13  N   UNL     1       0.707   7.670   2.562  1.00  0.00    -0.339 N 
ATOM     14  C   UNL     1      -1.456   7.970   1.710  1.00  0.00     0.118 C 
ATOM     15  C   UNL     1      -0.466   8.385   2.737  1.00  0.00     0.223 C 
ATOM     16  C   UNL     1       1.696   7.706   3.616  1.00  0.00     0.147 C 
ATOM     17  O   UNL     1      -0.689   9.190   3.631  1.00  0.00    -0.275 OA
BRANCH   6  18
ATOM     18  C   UNL     1       3.186   4.675  -0.489  1.00  0.00     0.264 C 
BRANCH  18  19
ATOM     19  C   UNL     1       3.580   3.194  -0.599  1.00  0.00     0.083 C 
BRANCH  19  20
ATOM     20  C   UNL     1       2.710   2.086   0.004  1.00  0.00     0.129 C 
BRANCH  20  21
ATOM     21  N   UNL     1       1.363   1.848  -0.480  1.00  0.00    -0.335 N 
ATOM     22  C   UNL     1       1.148  -0.557   0.359  1.00  0.00     0.087 C 
ATOM     23  C   UNL     1       0.628   0.694  -0.248  1.00  0.00     0.105 A 
ATOM     24  N   UNL     1      -0.621   0.845  -0.644  1.00  0.00    -0.242 NA
ATOM     25  C   UNL     1      -0.681   2.078  -1.219  1.00  0.00     0.131 A 
ATOM     26  C   UNL     1       0.546   2.692  -1.169  1.00  0.00     0.107 A 
ENDBRANCH  20  21
ENDBRANCH  19  20
ENDBRANCH  18  19
ENDBRANCH   6  18
ENDBRANCH   3   5
ENDBRANCH   2   3
ENDBRANCH   1   2
BRANCH   1  27
ATOM     27  C   UNL     1      -4.407   4.459   0.920  1.00  0.00     0.275 C 
BRANCH  27  28
ATOM     28  O   UNL     1      -4.430   5.083  -0.364  1.00  0.00    -0.458 OA
BRANCH  28  29
ATOM     29  C   UNL     1      -4.230   6.414  -0.291  1.00  0.00     0.338 C 
ATOM     30  O   UNL     1      -4.011   7.070   0.716  1.00  0.00    -0.246 OA
BRANCH  29  31
ATOM     31  C   UNL     1      -4.387   7.062  -1.581  1.00  0.00     0.060 A 
ATOM     32  C   UNL     1      -3.726   8.287  -1.734  1.00  0.00     0.016 A 
ATOM     33  C   UNL     1      -5.511   6.700  -2.325  1.00  0.00     0.016 A 
ATOM     34  C   UNL     1      -4.348   9.267  -2.466  1.00  0.00     0.010 A 
ATOM     35  C   UNL     1      -6.139   7.688  -3.039  1.00  0.00     0.010 A 
ATOM     36  C   UNL     1      -5.596   8.975  -3.017  1.00  0.00    -0.014 A 
BRANCH  36  37
ATOM     37  C   UNL     1      -6.341  10.068  -3.592  1.00  0.00     0.031 A 
ATOM     38  C   UNL     1      -5.895  10.443  -4.945  1.00  0.00     0.074 A 
ATOM     39  C   UNL     1      -7.426  10.581  -2.986  1.00  0.00     0.049 A 
ATOM     40  N   UNL     1      -5.378  11.563  -5.326  1.00  0.00    -0.248 NA
ATOM     41  C   UNL     1      -5.887   9.385  -5.965  1.00  0.00     0.031 C 
ATOM     42  C   UNL     1      -8.121  10.066  -1.802  1.00  0.00     0.029 A 
ATOM     43  N   UNL     1      -8.241  11.578  -3.420  1.00  0.00    -0.354 N 
ATOM     44  C   UNL     1      -5.191  11.420  -6.695  1.00  0.00     0.074 A 
ATOM     45  C   UNL     1      -5.318  10.016  -6.990  1.00  0.00     0.031 C 
ATOM     46  C   UNL     1      -9.374  10.572  -1.781  1.00  0.00     0.029 A 
ATOM     47  C   UNL     1      -9.517  11.518  -2.875  1.00  0.00     0.049 A 
ATOM     48  H   UNL     1      -7.955  12.273  -4.056  1.00  0.00     0.167 HD
ATOM     49  C   UNL     1      -5.216  12.486  -7.535  1.00  0.00     0.034 A 
ATOM     50  C   UNL     1     -10.623  12.117  -3.379  1.00  0.00     0.034 A 
ATOM     51  C   UNL     1      -5.066  13.735  -6.841  1.00  0.00     0.049 A 
ATOM     52  C   UNL     1     -10.168  13.187  -4.303  1.00  0.00     0.074 A 
ATOM     53  C   UNL     1      -4.117  14.266  -5.989  1.00  0.00     0.029 A 
ATOM     54  N   UNL     1      -6.190  14.511  -6.687  1.00  0.00    -0.354 N 
ATOM     55  N   UNL     1      -9.560  14.273  -3.916  1.00  0.00    -0.248 NA
ATOM     56  C   UNL     1     -10.025  12.863  -5.715  1.00  0.00     0.031 C 
ATOM     57  C   UNL     1      -4.860  15.021  -5.036  1.00  0.00     0.029 A 
ATOM     58  C   UNL     1      -6.209  14.937  -5.384  1.00  0.00     0.049 A 
ATOM     59  H   UNL     1      -6.856  14.721  -7.381  1.00  0.00     0.167 HD
ATOM     60  C   UNL     1      -8.611  14.513  -4.902  1.00  0.00     0.074 A 
ATOM     61  C   UNL     1      -9.029  13.693  -6.036  1.00  0.00     0.031 C 
ATOM     62  C   UNL     1      -7.418  15.113  -4.608  1.00  0.00     0.034 A 
BRANCH  49  63
ATOM     63  C   UNL     1      -5.718  12.407  -8.949  1.00  0.00     0.023 A 
ATOM     64  C   UNL     1      -5.415  13.474  -9.817  1.00  0.00     0.012 A 
ATOM     65  C   UNL     1      -6.663  11.456  -9.398  1.00  0.00     0.148 A 
ATOM     66  C   UNL     1      -6.029  13.590 -11.068  1.00  0.00     0.002 A 
ATOM     67  C   UNL     1      -7.189  11.518 -10.680  1.00  0.00     0.091 A 
ATOM     68  F   UNL     1      -7.175  10.561  -8.544  1.00  0.00    -0.205 F 
ATOM     69  C   UNL     1      -6.899  12.599 -11.511  1.00  0.00     0.022 A 
BRANCH  67  70
ATOM     70  S   UNL     1      -8.233  10.199 -11.308  1.00  0.00     0.127 S 
ATOM     71  O   UNL     1      -9.567  10.753 -11.103  1.00  0.00    -0.237 OA
ATOM     72  O   UNL     1      -7.805  10.109 -12.704  1.00  0.00    -0.237 OA
ATOM     73  O   UNL     1      -7.883   9.031 -10.507  1.00  0.00    -0.744 OA
ENDBRANCH  67  70
ENDBRANCH  49  63
BRANCH  50  74
ATOM     74  C   UNL     1     -12.037  11.678  -3.322  1.00  0.00     0.023 A 
ATOM     75  C   UNL     1     -13.057  12.612  -3.590  1.00  0.00     0.012 A 
ATOM     76  C   UNL     1     -12.389  10.310  -3.259  1.00  0.00     0.148 A 
ATOM     77  C   UNL     1     -14.375  12.197  -3.818  1.00  0.00     0.002 A 
ATOM     78  C   UNL     1     -13.704   9.905  -3.468  1.00  0.00     0.091 A 
ATOM     79  F   UNL     1     -11.425   9.396  -3.095  1.00  0.00    -0.205 F 
ATOM     80  C   UNL     1     -14.698  10.845  -3.761  1.00  0.00     0.022 A 
BRANCH  78  81
ATOM     81  S   UNL     1     -14.181   8.171  -3.412  1.00  0.00     0.127 S 
ATOM     82  O   UNL     1     -15.451   8.223  -2.686  1.00  0.00    -0.237 OA
ATOM     83  O   UNL     1     -14.300   7.844  -4.830  1.00  0.00    -0.237 OA
ATOM     84  O   UNL     1     -13.112   7.494  -2.689  1.00  0.00    -0.744 OA
ENDBRANCH  78  81
ENDBRANCH  50  74
BRANCH  62  85
ATOM     85  C   UNL     1      -7.243  15.731  -3.240  1.00  0.00     0.023 A 
ATOM     86  C   UNL     1      -7.342  14.962  -2.060  1.00  0.00     0.012 A 
ATOM     87  C   UNL     1      -6.777  17.054  -3.145  1.00  0.00     0.148 A 
ATOM     88  C   UNL     1      -7.014  15.505  -0.816  1.00  0.00     0.002 A 
ATOM     89  C   UNL     1      -6.402  17.575  -1.911  1.00  0.00     0.091 A 
ATOM     90  F   UNL     1      -6.677  17.776  -4.271  1.00  0.00    -0.205 F 
ATOM     91  C   UNL     1      -6.529  16.808  -0.743  1.00  0.00     0.022 A 
BRANCH  89  92
ATOM     92  S   UNL     1      -5.636  19.193  -1.771  1.00  0.00     0.127 S 
ATOM     93  O   UNL     1      -6.747  20.019  -1.305  1.00  0.00    -0.237 OA
ATOM     94  O   UNL     1      -4.585  18.964  -0.777  1.00  0.00    -0.237 OA
ATOM     95  O   UNL     1      -5.130  19.508  -3.102  1.00  0.00    -0.744 OA
ENDBRANCH  89  92
ENDBRANCH  62  85
ENDBRANCH  36  37
ENDBRANCH  29  31
ENDBRANCH  28  29
ENDBRANCH  27  28
ENDBRANCH   1  27
TORSDOF 18
