REMARK SMILES O=C(OCCOC(=O)c1[nH]ncc1C[NH+]1CCC([N@H+]2CCC[C@@H](C(=O)N3CCCC3)C2)CC1)c1ccc(-c2c3nc(c(-c4cccc(S(=O)(=O)[O-])c4F)c4ccc([nH]4)c(-c4cccc(S(=O)(=O)[O-])c4F)c4nc(c(-c5cccc(S(=O)(=O)[O-])c5F)c5ccc2[nH]5)C=C4)C=C3)cc1
REMARK SMILES IDX 5 1 4 2 3 3 2 4 1 5 34 6 35 7 96 8 36 9 95 10 37 11 38 12
REMARK SMILES IDX 39 13 89 14 40 15 94 16 88 17 90 18 41 19 93 20 87 21 86 22
REMARK SMILES IDX 42 24 74 25 54 26 73 27 55 28 58 29 72 30 91 31 56 32 57 33
REMARK SMILES IDX 71 35 92 36 59 37 43 38 44 39 52 40 45 41 47 42 53 43 46 44
REMARK SMILES IDX 48 45 49 46 50 47 51 48 75 49 76 50 84 51 77 52 79 53 85 54
REMARK SMILES IDX 78 55 80 56 81 57 82 58 83 59 60 60 61 61 69 62 62 63 64 64
REMARK SMILES IDX 70 65 63 66 65 67 66 68 67 69 68 70 6 71 7 72 8 73 9 74
REMARK SMILES IDX 10 75 13 76 11 77 12 79 14 80 15 81 16 82 33 83 17 85 32 86
REMARK SMILES IDX 18 87 19 88 20 89 31 90 21 92 23 93 22 94 24 95 25 96 26 97
REMARK SMILES IDX 27 98 30 99 28 100 29 101
REMARK H PARENT 90 23 58 34 10 78 15 84 19 91
REMARK Flexibility Score: inf
ROOT
ATOM      1  C   UNL     1       4.025   1.487  -1.545  1.00  0.00     0.275 C 
ENDROOT
BRANCH   1   2
ATOM      2  C   UNL     1       4.362  -0.004  -1.475  1.00  0.00     0.275 C 
BRANCH   2   3
ATOM      3  O   UNL     1       3.297  -0.803  -0.925  1.00  0.00    -0.458 OA
BRANCH   3   4
ATOM      4  C   UNL     1       2.943  -1.117   0.343  1.00  0.00     0.338 C 
ATOM      5  O   UNL     1       1.890  -1.743   0.482  1.00  0.00    -0.246 OA
BRANCH   4   6
ATOM      6  C   UNL     1       3.686  -0.731   1.596  1.00  0.00     0.060 A 
ATOM      7  C   UNL     1       4.935  -0.115   1.680  1.00  0.00     0.016 A 
ATOM      8  C   UNL     1       3.031  -1.014   2.815  1.00  0.00     0.016 A 
ATOM      9  C   UNL     1       5.517   0.190   2.922  1.00  0.00     0.010 A 
ATOM     10  C   UNL     1       3.592  -0.684   4.057  1.00  0.00     0.010 A 
ATOM     11  C   UNL     1       4.856  -0.098   4.120  1.00  0.00    -0.014 A 
BRANCH  11  12
ATOM     12  C   UNL     1       5.530   0.157   5.420  1.00  0.00     0.031 A 
ATOM     13  C   UNL     1       6.121  -0.986   6.177  1.00  0.00     0.074 A 
ATOM     14  C   UNL     1       5.656   1.407   5.902  1.00  0.00     0.049 A 
ATOM     15  N   UNL     1       6.840  -0.954   7.266  1.00  0.00    -0.248 NA
ATOM     16  C   UNL     1       5.877  -2.336   5.645  1.00  0.00     0.031 C 
ATOM     17  C   UNL     1       5.086   2.580   5.267  1.00  0.00     0.029 A 
ATOM     18  N   UNL     1       6.285   1.915   7.010  1.00  0.00    -0.354 N 
ATOM     19  C   UNL     1       7.134  -2.275   7.556  1.00  0.00     0.074 A 
ATOM     20  C   UNL     1       6.494  -3.088   6.544  1.00  0.00     0.031 C 
ATOM     21  C   UNL     1       5.417   3.681   5.955  1.00  0.00     0.029 A 
ATOM     22  C   UNL     1       6.163   3.282   7.133  1.00  0.00     0.049 A 
ATOM     23  H   UNL     1       6.776   1.357   7.655  1.00  0.00     0.167 HD
ATOM     24  C   UNL     1       7.891  -2.762   8.565  1.00  0.00     0.034 A 
ATOM     25  C   UNL     1       6.580   4.128   8.093  1.00  0.00     0.034 A 
ATOM     26  C   UNL     1       8.509  -1.946   9.573  1.00  0.00     0.049 A 
ATOM     27  C   UNL     1       7.383   3.560   9.220  1.00  0.00     0.074 A 
ATOM     28  C   UNL     1       9.312  -2.339  10.626  1.00  0.00     0.029 A 
ATOM     29  N   UNL     1       8.371  -0.568   9.665  1.00  0.00    -0.354 N 
ATOM     30  N   UNL     1       7.754   2.317   9.407  1.00  0.00    -0.248 NA
ATOM     31  C   UNL     1       7.859   4.501  10.240  1.00  0.00     0.031 C 
ATOM     32  C   UNL     1       9.649  -1.198  11.365  1.00  0.00     0.029 A 
ATOM     33  C   UNL     1       9.068  -0.093  10.763  1.00  0.00     0.049 A 
ATOM     34  H   UNL     1       7.853  -0.009   9.041  1.00  0.00     0.167 HD
ATOM     35  C   UNL     1       8.534   2.327  10.551  1.00  0.00     0.074 A 
ATOM     36  C   UNL     1       8.592   3.704  11.006  1.00  0.00     0.031 C 
ATOM     37  C   UNL     1       9.140   1.287  11.171  1.00  0.00     0.034 A 
BRANCH  24  38
ATOM     38  C   UNL     1       8.095  -4.248   8.586  1.00  0.00     0.023 A 
ATOM     39  C   UNL     1       8.976  -4.836   7.654  1.00  0.00     0.012 A 
ATOM     40  C   UNL     1       7.392  -5.064   9.489  1.00  0.00     0.148 A 
ATOM     41  C   UNL     1       9.126  -6.220   7.597  1.00  0.00     0.002 A 
ATOM     42  C   UNL     1       7.569  -6.441   9.446  1.00  0.00     0.091 A 
ATOM     43  F   UNL     1       6.537  -4.484  10.342  1.00  0.00    -0.205 F 
ATOM     44  C   UNL     1       8.427  -7.021   8.495  1.00  0.00     0.022 A 
BRANCH  42  45
ATOM     45  S   UNL     1       6.741  -7.559  10.580  1.00  0.00     0.127 S 
ATOM     46  O   UNL     1       5.789  -8.226   9.693  1.00  0.00    -0.237 OA
ATOM     47  O   UNL     1       7.844  -8.404  11.038  1.00  0.00    -0.237 OA
ATOM     48  O   UNL     1       6.150  -6.719  11.612  1.00  0.00    -0.744 OA
ENDBRANCH  42  45
ENDBRANCH  24  38
BRANCH  25  49
ATOM     49  C   UNL     1       6.276   5.585   8.013  1.00  0.00     0.023 A 
ATOM     50  C   UNL     1       7.293   6.491   7.660  1.00  0.00     0.012 A 
ATOM     51  C   UNL     1       4.983   6.076   8.280  1.00  0.00     0.148 A 
ATOM     52  C   UNL     1       7.034   7.862   7.596  1.00  0.00     0.002 A 
ATOM     53  C   UNL     1       4.726   7.441   8.195  1.00  0.00     0.091 A 
ATOM     54  F   UNL     1       4.028   5.200   8.625  1.00  0.00    -0.205 F 
ATOM     55  C   UNL     1       5.751   8.337   7.858  1.00  0.00     0.022 A 
BRANCH  53  56
ATOM     56  S   UNL     1       3.083   8.116   8.470  1.00  0.00     0.127 S 
ATOM     57  O   UNL     1       3.160   8.527   9.869  1.00  0.00    -0.237 OA
ATOM     58  O   UNL     1       3.034   9.219   7.509  1.00  0.00    -0.237 OA
ATOM     59  O   UNL     1       2.172   7.018   8.174  1.00  0.00    -0.744 OA
ENDBRANCH  53  56
ENDBRANCH  25  49
BRANCH  37  60
ATOM     60  C   UNL     1       9.945   1.607  12.395  1.00  0.00     0.023 A 
ATOM     61  C   UNL     1       9.290   1.879  13.611  1.00  0.00     0.012 A 
ATOM     62  C   UNL     1      11.351   1.578  12.348  1.00  0.00     0.148 A 
ATOM     63  C   UNL     1      10.028   2.137  14.764  1.00  0.00     0.002 A 
ATOM     64  C   UNL     1      12.078   1.791  13.511  1.00  0.00     0.091 A 
ATOM     65  F   UNL     1      11.948   1.352  11.169  1.00  0.00    -0.205 F 
ATOM     66  C   UNL     1      11.420   2.079  14.718  1.00  0.00     0.022 A 
BRANCH  64  67
ATOM     67  S   UNL     1      13.867   1.644  13.550  1.00  0.00     0.127 S 
ATOM     68  O   UNL     1      14.282   3.045  13.556  1.00  0.00    -0.237 OA
ATOM     69  O   UNL     1      14.095   0.932  14.808  1.00  0.00    -0.237 OA
ATOM     70  O   UNL     1      14.227   0.885  12.359  1.00  0.00    -0.744 OA
ENDBRANCH  64  67
ENDBRANCH  37  60
ENDBRANCH  11  12
ENDBRANCH   4   6
ENDBRANCH   3   4
ENDBRANCH   2   3
ENDBRANCH   1   2
BRANCH   1  71
ATOM     71  O   UNL     1       3.496   1.970  -0.306  1.00  0.00    -0.457 OA
BRANCH  71  72
ATOM     72  C   UNL     1       2.135   1.985  -0.211  1.00  0.00     0.356 C 
ATOM     73  O   UNL     1       1.358   1.774  -1.133  1.00  0.00    -0.244 OA
BRANCH  72  74
ATOM     74  C   UNL     1       1.762   2.091   1.164  1.00  0.00     0.152 A 
ATOM     75  N   UNL     1       0.719   1.373   1.679  1.00  0.00    -0.271 N 
ATOM     76  C   UNL     1       2.310   2.788   2.233  1.00  0.00     0.059 A 
ATOM     77  N   UNL     1       0.630   1.432   3.014  1.00  0.00    -0.183 NA
ATOM     78  H   UNL     1       0.092   0.859   1.120  1.00  0.00     0.190 HD
ATOM     79  C   UNL     1       1.611   2.270   3.354  1.00  0.00     0.145 A 
BRANCH  76  80
ATOM     80  C   UNL     1       3.402   3.808   2.197  1.00  0.00     0.303 C 
BRANCH  80  81
ATOM     81  N   UNL     1       2.986   5.142   2.632  1.00  0.00    -0.331 N 
ATOM     82  C   UNL     1       2.002   5.734   1.735  1.00  0.00     0.268 C 
ATOM     83  C   UNL     1       2.571   5.251   4.038  1.00  0.00     0.268 C 
ATOM     84  H   UNL     1       3.844   5.691   2.577  1.00  0.00     0.348 HD
ATOM     85  C   UNL     1       1.794   7.201   2.079  1.00  0.00     0.126 C 
ATOM     86  C   UNL     1       2.391   6.709   4.459  1.00  0.00     0.126 C 
ATOM     87  C   UNL     1       1.345   7.359   3.547  1.00  0.00     0.195 C 
BRANCH  87  88
ATOM     88  N   UNL     1       0.980   8.735   3.943  1.00  0.00    -0.331 N 
ATOM     89  C   UNL     1       2.080   9.699   3.890  1.00  0.00     0.262 C 
ATOM     90  C   UNL     1      -0.212   9.165   3.221  1.00  0.00     0.275 C 
ATOM     91  H   UNL     1       0.755   8.706   4.938  1.00  0.00     0.348 HD
ATOM     92  C   UNL     1       1.625  11.117   4.253  1.00  0.00     0.062 C 
ATOM     93  C   UNL     1      -0.700  10.586   3.531  1.00  0.00     0.134 C 
ATOM     94  C   UNL     1       0.457  11.569   3.376  1.00  0.00     0.025 C 
BRANCH  93  95
ATOM     95  C   UNL     1      -1.830  10.786   2.525  1.00  0.00     0.231 C 
ATOM     96  O   UNL     1      -1.635  11.282   1.414  1.00  0.00    -0.274 OA
ATOM     97  N   UNL     1      -3.012  10.132   2.823  1.00  0.00    -0.342 N 
ATOM     98  C   UNL     1      -3.593   9.898   4.135  1.00  0.00     0.119 C 
ATOM     99  C   UNL     1      -3.728   9.410   1.789  1.00  0.00     0.119 C 
ATOM    100  C   UNL     1      -4.421   8.639   3.954  1.00  0.00     0.023 C 
ATOM    101  C   UNL     1      -4.889   8.733   2.506  1.00  0.00     0.023 C 
ENDBRANCH  93  95
ENDBRANCH  87  88
ENDBRANCH  80  81
ENDBRANCH  76  80
ENDBRANCH  72  74
ENDBRANCH  71  72
ENDBRANCH   1  71
TORSDOF 18
