REMARK SMILES O=C(CS(=O)(=O)NCc1ccc(N2CCOCC2)nc1)OCCOC(=O)c1ccc(-c2c3nc(c(-c4cccc(S(=O)(=O)[O-])c4F)c4ccc([nH]4)c(-c4cccc(S(=O)(=O)[O-])c4F)c4nc(c(-c5cccc(S(=O)(=O)[O-])c5F)c5ccc2[nH]5)C=C4)C=C3)cc1
REMARK SMILES IDX 22 1 21 2 2 3 1 4 3 5 4 6 5 7 6 8 7 9 8 11 9 12 10 13 20 14
REMARK SMILES IDX 11 15 19 16 12 17 13 18 14 19 18 20 15 21 17 22 16 23 23 24
REMARK SMILES IDX 24 25 25 26 26 27 27 28 28 29 89 30 29 31 88 32 30 33 31 34
REMARK SMILES IDX 32 35 82 36 33 37 87 38 81 39 83 40 34 41 86 42 80 43 79 44
REMARK SMILES IDX 35 46 67 47 47 48 66 49 48 50 51 51 65 52 84 53 49 54 50 55
REMARK SMILES IDX 64 57 85 58 52 59 36 60 37 61 45 62 38 63 40 64 46 65 39 66
REMARK SMILES IDX 41 67 42 68 43 69 44 70 68 71 69 72 77 73 70 74 72 75 78 76
REMARK SMILES IDX 71 77 73 78 74 79 75 80 76 81 53 82 54 83 62 84 55 85 57 86
REMARK SMILES IDX 63 87 56 88 58 89 59 90 60 91 61 92
REMARK H PARENT 7 10 83 45 51 56
REMARK Flexibility Score: inf
ROOT
ATOM      1  C   UNL     1       4.524  -1.075   0.346  1.00  0.00     0.274 C 
ENDROOT
BRANCH   1   2
ATOM      2  O   UNL     1       3.181  -0.613   0.607  1.00  0.00    -0.461 OA
BRANCH   2   3
ATOM      3  C   UNL     1       2.593   0.472   0.060  1.00  0.00     0.322 C 
ATOM      4  O   UNL     1       1.401   0.677   0.293  1.00  0.00    -0.251 OA
BRANCH   3   5
ATOM      5  C   UNL     1       3.346   1.375  -0.844  1.00  0.00     0.276 C 
BRANCH   5   6
ATOM      6  S   UNL     1       4.192   2.651   0.020  1.00  0.00     0.222 S 
ATOM      7  O   UNL     1       5.125   2.057   0.947  1.00  0.00    -0.212 OA
ATOM      8  O   UNL     1       4.681   3.566  -0.989  1.00  0.00    -0.212 OA
BRANCH   6   9
ATOM      9  N   UNL     1       3.038   3.523   0.831  1.00  0.00    -0.210 NA
ATOM     10  H   UNL     1       2.306   3.702   0.144  1.00  0.00     0.141 HD
BRANCH   9  11
ATOM     11  C   UNL     1       2.334   3.099   2.042  1.00  0.00     0.135 C 
BRANCH  11  12
ATOM     12  C   UNL     1       3.170   2.399   3.067  1.00  0.00    -0.015 A 
ATOM     13  C   UNL     1       4.240   3.047   3.677  1.00  0.00     0.010 A 
ATOM     14  C   UNL     1       2.974   1.061   3.387  1.00  0.00     0.118 A 
ATOM     15  C   UNL     1       5.069   2.334   4.534  1.00  0.00     0.047 A 
ATOM     16  N   UNL     1       3.780   0.347   4.207  1.00  0.00    -0.239 NA
ATOM     17  C   UNL     1       4.820   0.986   4.774  1.00  0.00     0.128 A 
BRANCH  17  18
ATOM     18  N   UNL     1       5.625   0.275   5.618  1.00  0.00    -0.352 N 
ATOM     19  C   UNL     1       5.709   0.607   7.028  1.00  0.00     0.146 C 
ATOM     20  C   UNL     1       6.550  -0.722   5.103  1.00  0.00     0.146 C 
ATOM     21  C   UNL     1       7.166   0.915   7.389  1.00  0.00     0.181 C 
ATOM     22  C   UNL     1       7.976  -0.372   5.574  1.00  0.00     0.181 C 
ATOM     23  O   UNL     1       8.042  -0.160   7.000  1.00  0.00    -0.378 OA
ENDBRANCH  17  18
ENDBRANCH  11  12
ENDBRANCH   9  11
ENDBRANCH   6   9
ENDBRANCH   5   6
ENDBRANCH   3   5
ENDBRANCH   2   3
ENDBRANCH   1   2
BRANCH   1  24
ATOM     24  C   UNL     1       4.535  -2.137  -0.755  1.00  0.00     0.275 C 
BRANCH  24  25
ATOM     25  O   UNL     1       4.055  -1.575  -1.990  1.00  0.00    -0.458 OA
BRANCH  25  26
ATOM     26  C   UNL     1       2.734  -1.765  -2.260  1.00  0.00     0.338 C 
ATOM     27  O   UNL     1       1.957  -2.462  -1.644  1.00  0.00    -0.246 OA
BRANCH  26  28
ATOM     28  C   UNL     1       2.336  -0.779  -3.296  1.00  0.00     0.060 A 
ATOM     29  C   UNL     1       1.144  -0.063  -3.115  1.00  0.00     0.016 A 
ATOM     30  C   UNL     1       3.164  -0.500  -4.386  1.00  0.00     0.016 A 
ATOM     31  C   UNL     1       0.785   0.943  -4.019  1.00  0.00     0.010 A 
ATOM     32  C   UNL     1       2.796   0.494  -5.295  1.00  0.00     0.010 A 
ATOM     33  C   UNL     1       1.602   1.217  -5.123  1.00  0.00    -0.014 A 
BRANCH  33  34
ATOM     34  C   UNL     1       1.180   2.172  -6.178  1.00  0.00     0.031 A 
ATOM     35  C   UNL     1       0.565   1.628  -7.437  1.00  0.00     0.074 A 
ATOM     36  C   UNL     1       1.423   3.491  -6.063  1.00  0.00     0.049 A 
ATOM     37  N   UNL     1       0.237   2.255  -8.535  1.00  0.00    -0.248 NA
ATOM     38  C   UNL     1       0.293   0.180  -7.464  1.00  0.00     0.031 C 
ATOM     39  C   UNL     1       2.027   4.144  -4.903  1.00  0.00     0.029 A 
ATOM     40  N   UNL     1       1.235   4.513  -6.964  1.00  0.00    -0.354 N 
ATOM     41  C   UNL     1      -0.236   1.278  -9.401  1.00  0.00     0.074 A 
ATOM     42  C   UNL     1      -0.166   0.016  -8.697  1.00  0.00     0.031 C 
ATOM     43  C   UNL     1       2.207   5.448  -5.182  1.00  0.00     0.029 A 
ATOM     44  C   UNL     1       1.762   5.715  -6.549  1.00  0.00     0.049 A 
ATOM     45  H   UNL     1       0.768   4.396  -7.823  1.00  0.00     0.167 HD
ATOM     46  C   UNL     1      -0.688   1.418 -10.668  1.00  0.00     0.034 A 
ATOM     47  C   UNL     1       1.909   6.882  -7.211  1.00  0.00     0.034 A 
ATOM     48  C   UNL     1      -0.775   2.672 -11.365  1.00  0.00     0.049 A 
ATOM     49  C   UNL     1       1.418   7.000  -8.635  1.00  0.00     0.074 A 
ATOM     50  C   UNL     1      -1.307   2.917 -12.619  1.00  0.00     0.029 A 
ATOM     51  N   UNL     1      -0.292   3.879 -10.891  1.00  0.00    -0.354 N 
ATOM     52  N   UNL     1       0.812   6.106  -9.378  1.00  0.00    -0.248 NA
ATOM     53  C   UNL     1       1.612   8.297  -9.305  1.00  0.00     0.031 C 
ATOM     54  C   UNL     1      -1.098   4.264 -12.925  1.00  0.00     0.029 A 
ATOM     55  C   UNL     1      -0.478   4.866 -11.843  1.00  0.00     0.049 A 
ATOM     56  H   UNL     1       0.122   4.015 -10.009  1.00  0.00     0.167 HD
ATOM     57  C   UNL     1       0.528   6.740 -10.585  1.00  0.00     0.074 A 
ATOM     58  C   UNL     1       1.001   8.102 -10.466  1.00  0.00     0.031 C 
ATOM     59  C   UNL     1      -0.056   6.235 -11.699  1.00  0.00     0.034 A 
BRANCH  46  60
ATOM     60  C   UNL     1      -1.131   0.183 -11.402  1.00  0.00     0.023 A 
ATOM     61  C   UNL     1      -2.361  -0.422 -11.081  1.00  0.00     0.012 A 
ATOM     62  C   UNL     1      -0.371  -0.311 -12.480  1.00  0.00     0.148 A 
ATOM     63  C   UNL     1      -2.823  -1.514 -11.814  1.00  0.00     0.002 A 
ATOM     64  C   UNL     1      -0.859  -1.371 -13.233  1.00  0.00     0.091 A 
ATOM     65  F   UNL     1       0.806   0.269 -12.751  1.00  0.00    -0.205 F 
ATOM     66  C   UNL     1      -2.079  -1.978 -12.897  1.00  0.00     0.022 A 
BRANCH  64  67
ATOM     67  S   UNL     1      -0.018  -1.988 -14.695  1.00  0.00     0.127 S 
ATOM     68  O   UNL     1       0.369  -3.332 -14.265  1.00  0.00    -0.237 OA
ATOM     69  O   UNL     1      -1.082  -1.951 -15.697  1.00  0.00    -0.237 OA
ATOM     70  O   UNL     1       1.088  -1.074 -14.942  1.00  0.00    -0.744 OA
ENDBRANCH  64  67
ENDBRANCH  46  60
BRANCH  47  71
ATOM     71  C   UNL     1       2.567   8.049  -6.552  1.00  0.00     0.023 A 
ATOM     72  C   UNL     1       1.820   9.213  -6.285  1.00  0.00     0.012 A 
ATOM     73  C   UNL     1       3.938   8.027  -6.228  1.00  0.00     0.148 A 
ATOM     74  C   UNL     1       2.434  10.348  -5.751  1.00  0.00     0.002 A 
ATOM     75  C   UNL     1       4.531   9.139  -5.642  1.00  0.00     0.091 A 
ATOM     76  F   UNL     1       4.640   6.920  -6.510  1.00  0.00    -0.205 F 
ATOM     77  C   UNL     1       3.786  10.308  -5.423  1.00  0.00     0.022 A 
BRANCH  75  78
ATOM     78  S   UNL     1       6.236   9.139  -5.077  1.00  0.00     0.127 S 
ATOM     79  O   UNL     1       6.870  10.035  -6.040  1.00  0.00    -0.237 OA
ATOM     80  O   UNL     1       6.103   9.682  -3.724  1.00  0.00    -0.237 OA
ATOM     81  O   UNL     1       6.665   7.748  -5.127  1.00  0.00    -0.744 OA
ENDBRANCH  75  78
ENDBRANCH  47  71
BRANCH  59  82
ATOM     82  C   UNL     1      -0.257   7.152 -12.880  1.00  0.00     0.023 A 
ATOM     83  C   UNL     1       0.849   7.554 -13.654  1.00  0.00     0.012 A 
ATOM     84  C   UNL     1      -1.555   7.530 -13.282  1.00  0.00     0.148 A 
ATOM     85  C   UNL     1       0.671   8.338 -14.793  1.00  0.00     0.002 A 
ATOM     86  C   UNL     1      -1.729   8.269 -14.446  1.00  0.00     0.091 A 
ATOM     87  F   UNL     1      -2.594   7.147 -12.526  1.00  0.00    -0.205 F 
ATOM     88  C   UNL     1      -0.617   8.684 -15.196  1.00  0.00     0.022 A 
BRANCH  86  89
ATOM     89  S   UNL     1      -3.352   8.679 -15.100  1.00  0.00     0.127 S 
ATOM     90  O   UNL     1      -3.379  10.133 -14.941  1.00  0.00    -0.237 OA
ATOM     91  O   UNL     1      -3.252   8.219 -16.485  1.00  0.00    -0.237 OA
ATOM     92  O   UNL     1      -4.314   7.949 -14.284  1.00  0.00    -0.744 OA
ENDBRANCH  86  89
ENDBRANCH  59  82
ENDBRANCH  33  34
ENDBRANCH  26  28
ENDBRANCH  25  26
ENDBRANCH  24  25
ENDBRANCH   1  24
TORSDOF 19
