REMARK SMILES CN(C)C(=O)CCNC(=O)NC[C@H]1CC[C@@H](C(=O)OCCOC(=O)c2ccc(-c3c4nc(c(-c5cccc(S(=O)(=O)[O-])c5F)c5ccc([nH]5)c(-c5cccc(S(=O)(=O)[O-])c5F)c5nc(c(-c6cccc(S(=O)(=O)[O-])c6F)c6ccc3[nH]6)C=C5)C=C4)cc2)CC1
REMARK SMILES IDX 20 1 19 2 17 3 18 4 16 5 13 6 14 7 89 8 15 9 88 10 12 11
REMARK SMILES IDX 11 12 8 13 9 14 10 16 7 18 6 19 4 20 1 21 2 22 3 23 5 24
REMARK SMILES IDX 21 25 22 26 23 27 24 28 25 29 26 30 87 31 27 32 86 33 28 34
REMARK SMILES IDX 29 35 30 36 80 37 31 38 85 39 79 40 81 41 32 42 84 43 78 44
REMARK SMILES IDX 77 45 33 47 65 48 45 49 64 50 46 51 49 52 63 53 82 54 47 55
REMARK SMILES IDX 48 56 62 58 83 59 50 60 34 61 35 62 43 63 36 64 38 65 44 66
REMARK SMILES IDX 37 67 39 68 40 69 41 70 42 71 66 72 67 73 75 74 68 75 70 76
REMARK SMILES IDX 76 77 69 78 71 79 72 80 73 81 74 82 51 83 52 84 60 85 53 86
REMARK SMILES IDX 55 87 61 88 54 89 56 90 57 91 58 92 59 93
REMARK H PARENT 8 15 11 17 81 46 49 57
REMARK Flexibility Score: inf
ROOT
ATOM      1  C   UNL     1      -3.213   2.194  10.503  1.00  0.00     0.274 C 
ENDROOT
BRANCH   1   2
ATOM      2  O   UNL     1      -1.830   2.046  10.127  1.00  0.00    -0.462 OA
BRANCH   2   3
ATOM      3  C   UNL     1      -0.963   2.997  10.561  1.00  0.00     0.309 C 
ATOM      4  O   UNL     1      -1.282   3.981  11.215  1.00  0.00    -0.252 OA
BRANCH   3   5
ATOM      5  C   UNL     1       0.465   2.768  10.066  1.00  0.00     0.099 C 
ATOM      6  C   UNL     1       0.217   1.600   7.333  1.00  0.00     0.008 C 
ATOM      7  C   UNL     1      -0.058   3.084   7.636  1.00  0.00     0.006 C 
ATOM      8  C   UNL     1       0.241   0.690   8.573  1.00  0.00     0.006 C 
ATOM      9  C   UNL     1       0.727   3.610   8.826  1.00  0.00     0.015 C 
ATOM     10  C   UNL     1       0.872   1.314   9.815  1.00  0.00     0.015 C 
BRANCH   6  11
ATOM     11  C   UNL     1      -0.826   1.052   6.337  1.00  0.00     0.121 C 
BRANCH  11  12
ATOM     12  N   UNL     1      -1.012   1.909   5.183  1.00  0.00    -0.338 N 
ATOM     13  N   UNL     1       0.933   1.595   3.898  1.00  0.00    -0.338 N 
ATOM     14  C   UNL     1      -0.164   2.295   4.220  1.00  0.00     0.314 C 
ATOM     15  H   UNL     1       1.611   2.112   3.406  1.00  0.00     0.165 HD
ATOM     16  O   UNL     1      -0.420   3.319   3.585  1.00  0.00    -0.249 OA
ATOM     17  H   UNL     1      -1.922   2.272   5.090  1.00  0.00     0.165 HD
BRANCH  13  18
ATOM     18  C   UNL     1       1.302   0.212   4.143  1.00  0.00     0.127 C 
BRANCH  18  19
ATOM     19  C   UNL     1       0.394  -0.780   3.424  1.00  0.00     0.121 C 
BRANCH  19  20
ATOM     20  C   UNL     1       0.830  -0.915   1.979  1.00  0.00     0.223 C 
ATOM     21  C   UNL     1       0.938  -0.047  -0.291  1.00  0.00     0.146 C 
ATOM     22  N   UNL     1       0.335  -0.036   1.030  1.00  0.00    -0.349 N 
ATOM     23  C   UNL     1      -0.788   0.876   1.203  1.00  0.00     0.146 C 
ATOM     24  O   UNL     1       1.674  -1.770   1.693  1.00  0.00    -0.275 OA
ENDBRANCH  19  20
ENDBRANCH  18  19
ENDBRANCH  13  18
ENDBRANCH  11  12
ENDBRANCH   6  11
ENDBRANCH   3   5
ENDBRANCH   2   3
ENDBRANCH   1   2
BRANCH   1  25
ATOM     25  C   UNL     1      -3.596   1.195  11.596  1.00  0.00     0.275 C 
BRANCH  25  26
ATOM     26  O   UNL     1      -2.901   1.482  12.821  1.00  0.00    -0.458 OA
BRANCH  26  27
ATOM     27  C   UNL     1      -1.738   0.814  12.986  1.00  0.00     0.338 C 
ATOM     28  O   UNL     1      -1.278  -0.061  12.264  1.00  0.00    -0.246 OA
BRANCH  27  29
ATOM     29  C   UNL     1      -0.987   1.412  14.098  1.00  0.00     0.060 A 
ATOM     30  C   UNL     1       0.238   2.016  13.805  1.00  0.00     0.016 A 
ATOM     31  C   UNL     1      -1.443   1.327  15.413  1.00  0.00     0.016 A 
ATOM     32  C   UNL     1       1.022   2.539  14.826  1.00  0.00     0.010 A 
ATOM     33  C   UNL     1      -0.650   1.844  16.441  1.00  0.00     0.010 A 
ATOM     34  C   UNL     1       0.593   2.437  16.153  1.00  0.00    -0.014 A 
BRANCH  34  35
ATOM     35  C   UNL     1       1.496   2.871  17.242  1.00  0.00     0.031 A 
ATOM     36  C   UNL     1       2.234   1.837  18.041  1.00  0.00     0.074 A 
ATOM     37  C   UNL     1       1.668   4.182  17.492  1.00  0.00     0.049 A 
ATOM     38  N   UNL     1       3.033   1.997  19.062  1.00  0.00    -0.248 NA
ATOM     39  C   UNL     1       2.047   0.433  17.636  1.00  0.00     0.031 C 
ATOM     40  C   UNL     1       1.023   5.272  16.760  1.00  0.00     0.029 A 
ATOM     41  N   UNL     1       2.429   4.816  18.440  1.00  0.00    -0.354 N 
ATOM     42  C   UNL     1       3.412   0.719  19.450  1.00  0.00     0.074 A 
ATOM     43  C   UNL     1       2.756  -0.209  18.553  1.00  0.00     0.031 C 
ATOM     44  C   UNL     1       1.406   6.443  17.295  1.00  0.00     0.029 A 
ATOM     45  C   UNL     1       2.296   6.184  18.424  1.00  0.00     0.049 A 
ATOM     46  H   UNL     1       3.014   4.338  19.071  1.00  0.00     0.167 HD
ATOM     47  C   UNL     1       4.242   0.352  20.454  1.00  0.00     0.034 A 
ATOM     48  C   UNL     1       2.819   7.118  19.242  1.00  0.00     0.034 A 
ATOM     49  C   UNL     1       4.921   1.281  21.315  1.00  0.00     0.049 A 
ATOM     50  C   UNL     1       3.733   6.681  20.356  1.00  0.00     0.074 A 
ATOM     51  C   UNL     1       5.805   1.013  22.345  1.00  0.00     0.029 A 
ATOM     52  N   UNL     1       4.794   2.660  21.246  1.00  0.00    -0.354 N 
ATOM     53  N   UNL     1       4.147   5.474  20.659  1.00  0.00    -0.248 NA
ATOM     54  C   UNL     1       4.271   7.737  21.226  1.00  0.00     0.031 C 
ATOM     55  C   UNL     1       6.206   2.232  22.904  1.00  0.00     0.029 A 
ATOM     56  C   UNL     1       5.580   3.258  22.215  1.00  0.00     0.049 A 
ATOM     57  H   UNL     1       4.227   3.143  20.602  1.00  0.00     0.167 HD
ATOM     58  C   UNL     1       5.016   5.627  21.733  1.00  0.00     0.074 A 
ATOM     59  C   UNL     1       5.085   7.047  22.014  1.00  0.00     0.031 C 
ATOM     60  C   UNL     1       5.680   4.678  22.438  1.00  0.00     0.034 A 
BRANCH  47  61
ATOM     61  C   UNL     1       4.482  -1.120  20.652  1.00  0.00     0.023 A 
ATOM     62  C   UNL     1       5.323  -1.813  19.758  1.00  0.00     0.012 A 
ATOM     63  C   UNL     1       3.908  -1.808  21.738  1.00  0.00     0.148 A 
ATOM     64  C   UNL     1       5.565  -3.176  19.926  1.00  0.00     0.002 A 
ATOM     65  C   UNL     1       4.183  -3.159  21.919  1.00  0.00     0.091 A 
ATOM     66  F   UNL     1       3.087  -1.138  22.559  1.00  0.00    -0.205 F 
ATOM     67  C   UNL     1       5.004  -3.846  21.010  1.00  0.00     0.022 A 
BRANCH  65  68
ATOM     68  S   UNL     1       3.555  -4.086  23.324  1.00  0.00     0.127 S 
ATOM     69  O   UNL     1       2.468  -4.848  22.713  1.00  0.00    -0.237 OA
ATOM     70  O   UNL     1       4.716  -4.887  23.713  1.00  0.00    -0.237 OA
ATOM     71  O   UNL     1       3.153  -3.091  24.308  1.00  0.00    -0.744 OA
ENDBRANCH  65  68
ENDBRANCH  47  61
BRANCH  48  72
ATOM     72  C   UNL     1       2.528   8.560  19.006  1.00  0.00     0.023 A 
ATOM     73  C   UNL     1       3.556   9.407  18.548  1.00  0.00     0.012 A 
ATOM     74  C   UNL     1       1.238   9.091  19.201  1.00  0.00     0.148 A 
ATOM     75  C   UNL     1       3.310  10.759  18.309  1.00  0.00     0.002 A 
ATOM     76  C   UNL     1       0.987  10.428  18.910  1.00  0.00     0.091 A 
ATOM     77  F   UNL     1       0.277   8.277  19.662  1.00  0.00    -0.205 F 
ATOM     78  C   UNL     1       2.025  11.267  18.478  1.00  0.00     0.022 A 
BRANCH  76  79
ATOM     79  S   UNL     1      -0.667  11.126  18.979  1.00  0.00     0.127 S 
ATOM     80  O   UNL     1      -0.617  11.895  20.219  1.00  0.00    -0.237 OA
ATOM     81  O   UNL     1      -0.712  11.931  17.757  1.00  0.00    -0.237 OA
ATOM     82  O   UNL     1      -1.571   9.983  18.973  1.00  0.00    -0.744 OA
ENDBRANCH  76  79
ENDBRANCH  48  72
BRANCH  60  83
ATOM     83  C   UNL     1       6.563   5.142  23.566  1.00  0.00     0.023 A 
ATOM     84  C   UNL     1       5.979   5.573  24.773  1.00  0.00     0.012 A 
ATOM     85  C   UNL     1       7.966   5.080  23.458  1.00  0.00     0.148 A 
ATOM     86  C   UNL     1       6.779   5.962  25.847  1.00  0.00     0.002 A 
ATOM     87  C   UNL     1       8.756   5.429  24.547  1.00  0.00     0.091 A 
ATOM     88  F   UNL     1       8.504   4.689  22.293  1.00  0.00    -0.205 F 
ATOM     89  C   UNL     1       8.165   5.879  25.738  1.00  0.00     0.022 A 
BRANCH  87  90
ATOM     90  S   UNL     1      10.545   5.263  24.517  1.00  0.00     0.127 S 
ATOM     91  O   UNL     1      10.970   6.640  24.276  1.00  0.00    -0.237 OA
ATOM     92  O   UNL     1      10.838   4.761  25.861  1.00  0.00    -0.237 OA
ATOM     93  O   UNL     1      10.835   4.316  23.448  1.00  0.00    -0.744 OA
ENDBRANCH  87  90
ENDBRANCH  60  83
ENDBRANCH  34  35
ENDBRANCH  27  29
ENDBRANCH  26  27
ENDBRANCH  25  26
ENDBRANCH   1  25
TORSDOF 19
