REMARK SMILES Cc1nnc(SCC[C@H]2CCC[C@]2([NH3+])C(=O)OCCOC(=O)c2ccc(-c3c4nc(c(-c5cccc(S(=O)(=O)[O-])c5F)c5ccc([nH]5)c(-c5cccc(S(=O)(=O)[O-])c5F)c5nc(c(-c6cccc(S(=O)(=O)[O-])c6F)c6ccc3[nH]6)C=C5)C=C4)cc2)o1
REMARK SMILES IDX 18 1 17 2 15 3 16 4 13 5 9 6 10 7 11 8 12 9 8 10 7 11 6 12
REMARK SMILES IDX 5 13 1 14 2 15 3 16 86 17 4 18 14 19 19 23 20 24 21 25 22 26
REMARK SMILES IDX 23 27 24 28 85 29 25 30 84 31 26 32 27 33 28 34 78 35 29 36
REMARK SMILES IDX 83 37 77 38 79 39 30 40 82 41 76 42 75 43 31 45 63 46 43 47
REMARK SMILES IDX 62 48 44 49 47 50 61 51 80 52 45 53 46 54 60 56 81 57 48 58
REMARK SMILES IDX 32 59 33 60 41 61 34 62 36 63 42 64 35 65 37 66 38 67 39 68
REMARK SMILES IDX 40 69 64 70 65 71 73 72 66 73 68 74 74 75 67 76 69 77 70 78
REMARK SMILES IDX 71 79 72 80 49 81 50 82 58 83 51 84 53 85 59 86 52 87 54 88
REMARK SMILES IDX 55 89 56 90 57 91
REMARK H PARENT 14 20 14 21 14 22 79 44 47 55
REMARK Flexibility Score: inf
ROOT
ATOM      1  C   UNL     1       6.075  -1.787   3.447  1.00  0.00     0.274 C 
ENDROOT
BRANCH   1   2
ATOM      2  O   UNL     1       4.833  -1.553   2.748  1.00  0.00    -0.457 OA
BRANCH   2   3
ATOM      3  C   UNL     1       4.077  -2.647   2.460  1.00  0.00     0.368 C 
ATOM      4  O   UNL     1       4.258  -3.758   2.954  1.00  0.00    -0.245 OA
BRANCH   3   5
ATOM      5  C   UNL     1       2.934  -2.378   1.423  1.00  0.00     0.195 C 
ATOM      6  C   UNL     1       3.170  -1.074   0.607  1.00  0.00     0.063 C 
ATOM      7  C   UNL     1       2.055  -0.106   1.076  1.00  0.00     0.011 C 
ATOM      8  C   UNL     1       1.518  -0.682   2.379  1.00  0.00     0.008 C 
ATOM      9  C   UNL     1       1.580  -2.169   2.119  1.00  0.00     0.081 C 
BRANCH   6  10
ATOM     10  C   UNL     1       3.229  -1.205  -0.929  1.00  0.00     0.022 C 
BRANCH  10  11
ATOM     11  C   UNL     1       4.611  -1.618  -1.478  1.00  0.00     0.080 C 
BRANCH  11  12
ATOM     12  S   UNL     1       4.866  -3.389  -1.821  1.00  0.00    -0.065 SA
BRANCH  12  13
ATOM     13  C   UNL     1       5.770  -3.892  -0.421  1.00  0.00     0.276 A 
ATOM     14  C   UNL     1       6.254  -5.957   2.398  1.00  0.00     0.113 C 
ATOM     15  C   UNL     1       6.392  -4.973   1.306  1.00  0.00     0.214 A 
ATOM     16  N   UNL     1       7.205  -3.942   1.204  1.00  0.00    -0.112 NA
ATOM     17  O   UNL     1       5.492  -5.040   0.278  1.00  0.00    -0.416 OA
ATOM     18  N   UNL     1       6.794  -3.236   0.089  1.00  0.00    -0.101 NA
ENDBRANCH  12  13
ENDBRANCH  11  12
ENDBRANCH  10  11
ENDBRANCH   6  10
BRANCH   5  19
ATOM     19  N   UNL     1       2.796  -3.604   0.612  1.00  0.00    -0.343 N 
ATOM     20  H   UNL     1       2.058  -3.473  -0.080  1.00  0.00     0.345 HD
ATOM     21  H   UNL     1       2.556  -4.388   1.219  1.00  0.00     0.345 HD
ATOM     22  H   UNL     1       3.677  -3.800   0.137  1.00  0.00     0.345 HD
ENDBRANCH   5  19
ENDBRANCH   3   5
ENDBRANCH   2   3
ENDBRANCH   1   2
BRANCH   1  23
ATOM     23  C   UNL     1       6.038  -1.218   4.859  1.00  0.00     0.275 C 
BRANCH  23  24
ATOM     24  O   UNL     1       4.981  -1.859   5.588  1.00  0.00    -0.458 OA
BRANCH  24  25
ATOM     25  C   UNL     1       3.968  -1.056   5.974  1.00  0.00     0.338 C 
ATOM     26  O   UNL     1       3.929   0.169   5.922  1.00  0.00    -0.246 OA
BRANCH  25  27
ATOM     27  C   UNL     1       2.818  -1.873   6.390  1.00  0.00     0.060 A 
ATOM     28  C   UNL     1       2.365  -2.880   5.544  1.00  0.00     0.016 A 
ATOM     29  C   UNL     1       2.077  -1.529   7.516  1.00  0.00     0.016 A 
ATOM     30  C   UNL     1       1.105  -3.434   5.719  1.00  0.00     0.010 A 
ATOM     31  C   UNL     1       0.868  -2.186   7.766  1.00  0.00     0.010 A 
ATOM     32  C   UNL     1       0.337  -3.099   6.834  1.00  0.00    -0.014 A 
BRANCH  32  33
ATOM     33  C   UNL     1      -1.049  -3.621   6.983  1.00  0.00     0.031 A 
ATOM     34  C   UNL     1      -2.178  -2.647   7.190  1.00  0.00     0.074 A 
ATOM     35  C   UNL     1      -1.310  -4.942   6.922  1.00  0.00     0.049 A 
ATOM     36  N   UNL     1      -3.382  -2.862   7.645  1.00  0.00    -0.248 NA
ATOM     37  C   UNL     1      -1.903  -1.235   6.868  1.00  0.00     0.031 C 
ATOM     38  C   UNL     1      -0.330  -5.995   6.647  1.00  0.00     0.029 A 
ATOM     39  N   UNL     1      -2.487  -5.629   7.100  1.00  0.00    -0.354 N 
ATOM     40  C   UNL     1      -3.964  -1.607   7.779  1.00  0.00     0.074 A 
ATOM     41  C   UNL     1      -2.997  -0.636   7.318  1.00  0.00     0.031 C 
ATOM     42  C   UNL     1      -0.946  -7.186   6.645  1.00  0.00     0.029 A 
ATOM     43  C   UNL     1      -2.335  -6.996   7.040  1.00  0.00     0.049 A 
ATOM     44  H   UNL     1      -3.353  -5.187   7.255  1.00  0.00     0.167 HD
ATOM     45  C   UNL     1      -5.194  -1.298   8.254  1.00  0.00     0.034 A 
ATOM     46  C   UNL     1      -3.194  -7.989   7.340  1.00  0.00     0.034 A 
ATOM     47  C   UNL     1      -6.178  -2.285   8.606  1.00  0.00     0.049 A 
ATOM     48  C   UNL     1      -4.562  -7.626   7.844  1.00  0.00     0.074 A 
ATOM     49  C   UNL     1      -7.462  -2.092   9.083  1.00  0.00     0.029 A 
ATOM     50  N   UNL     1      -5.995  -3.655   8.487  1.00  0.00    -0.354 N 
ATOM     51  N   UNL     1      -5.090  -6.436   8.011  1.00  0.00    -0.248 NA
ATOM     52  C   UNL     1      -5.451  -8.737   8.207  1.00  0.00     0.031 C 
ATOM     53  C   UNL     1      -8.056  -3.349   9.252  1.00  0.00     0.029 A 
ATOM     54  C   UNL     1      -7.145  -4.322   8.868  1.00  0.00     0.049 A 
ATOM     55  H   UNL     1      -5.168  -4.089   8.178  1.00  0.00     0.167 HD
ATOM     56  C   UNL     1      -6.376  -6.654   8.487  1.00  0.00     0.074 A 
ATOM     57  C   UNL     1      -6.558  -8.091   8.550  1.00  0.00     0.031 C 
ATOM     58  C   UNL     1      -7.314  -5.752   8.865  1.00  0.00     0.034 A 
BRANCH  45  59
ATOM     59  C   UNL     1      -5.540   0.157   8.419  1.00  0.00     0.023 A 
ATOM     60  C   UNL     1      -5.834   0.949   7.292  1.00  0.00     0.012 A 
ATOM     61  C   UNL     1      -5.610   0.732   9.704  1.00  0.00     0.148 A 
ATOM     62  C   UNL     1      -6.163   2.297   7.439  1.00  0.00     0.002 A 
ATOM     63  C   UNL     1      -5.978   2.065   9.846  1.00  0.00     0.091 A 
ATOM     64  F   UNL     1      -5.298  -0.029  10.763  1.00  0.00    -0.205 F 
ATOM     65  C   UNL     1      -6.245   2.852   8.714  1.00  0.00     0.022 A 
BRANCH  63  66
ATOM     66  S   UNL     1      -6.181   2.844  11.453  1.00  0.00     0.127 S 
ATOM     67  O   UNL     1      -4.987   3.684  11.527  1.00  0.00    -0.237 OA
ATOM     68  O   UNL     1      -7.434   3.581  11.284  1.00  0.00    -0.237 OA
ATOM     69  O   UNL     1      -6.247   1.756  12.418  1.00  0.00    -0.744 OA
ENDBRANCH  63  66
ENDBRANCH  45  59
BRANCH  46  70
ATOM     70  C   UNL     1      -2.770  -9.411   7.188  1.00  0.00     0.023 A 
ATOM     71  C   UNL     1      -3.366 -10.208   6.193  1.00  0.00     0.012 A 
ATOM     72  C   UNL     1      -1.738  -9.959   7.976  1.00  0.00     0.148 A 
ATOM     73  C   UNL     1      -2.949 -11.526   5.993  1.00  0.00     0.002 A 
ATOM     74  C   UNL     1      -1.281 -11.248   7.725  1.00  0.00     0.091 A 
ATOM     75  F   UNL     1      -1.201  -9.201   8.943  1.00  0.00    -0.205 F 
ATOM     76  C   UNL     1      -1.896 -12.039   6.745  1.00  0.00     0.022 A 
BRANCH  74  77
ATOM     77  S   UNL     1       0.181 -11.909   8.535  1.00  0.00     0.127 S 
ATOM     78  O   UNL     1      -0.405 -12.786   9.544  1.00  0.00    -0.237 OA
ATOM     79  O   UNL     1       0.857 -12.600   7.435  1.00  0.00    -0.237 OA
ATOM     80  O   UNL     1       0.902 -10.746   9.035  1.00  0.00    -0.744 OA
ENDBRANCH  74  77
ENDBRANCH  46  70
BRANCH  58  81
ATOM     81  C   UNL     1      -8.630  -6.292   9.350  1.00  0.00     0.023 A 
ATOM     82  C   UNL     1      -8.722  -6.842  10.643  1.00  0.00     0.012 A 
ATOM     83  C   UNL     1      -9.784  -6.191   8.552  1.00  0.00     0.148 A 
ATOM     84  C   UNL     1      -9.943  -7.308  11.126  1.00  0.00     0.002 A 
ATOM     85  C   UNL     1     -11.006  -6.619   9.055  1.00  0.00     0.091 A 
ATOM     86  F   UNL     1      -9.667  -5.686   7.315  1.00  0.00    -0.205 F 
ATOM     87  C   UNL     1     -11.085  -7.187  10.338  1.00  0.00     0.022 A 
BRANCH  85  88
ATOM     88  S   UNL     1     -12.537  -6.418   8.139  1.00  0.00     0.127 S 
ATOM     89  O   UNL     1     -12.766  -7.771   7.638  1.00  0.00    -0.237 OA
ATOM     90  O   UNL     1     -13.471  -5.986   9.180  1.00  0.00    -0.237 OA
ATOM     91  O   UNL     1     -12.262  -5.408   7.125  1.00  0.00    -0.744 OA
ENDBRANCH  85  88
ENDBRANCH  58  81
ENDBRANCH  32  33
ENDBRANCH  25  27
ENDBRANCH  24  25
ENDBRANCH  23  24
ENDBRANCH   1  23
TORSDOF 19
