REMARK SMILES CC[N@@H+](Cc1cccc(C)n1)[C@H](C(=O)OCCOC(=O)c1ccc(-c2c3nc(c(-c4cccc(S(=O)(=O)[O-])c4F)c4ccc([nH]4)c(-c4cccc(S(=O)(=O)[O-])c4F)c4nc(c(-c5cccc(S(=O)(=O)[O-])c5F)c5ccc2[nH]5)C=C4)C=C3)cc1)C(C)C
REMARK SMILES IDX 16 1 15 2 13 3 14 4 12 5 3 6 2 8 1 9 4 10 5 11 6 12 11 13
REMARK SMILES IDX 7 14 9 15 8 16 10 17 84 18 85 19 86 20 17 21 18 22 19 23
REMARK SMILES IDX 20 24 21 25 22 26 83 27 23 28 82 29 24 30 25 31 26 32 76 33
REMARK SMILES IDX 27 34 81 35 75 36 77 37 28 38 80 39 74 40 73 41 29 43 61 44
REMARK SMILES IDX 41 45 60 46 42 47 45 48 59 49 78 50 43 51 44 52 58 54 79 55
REMARK SMILES IDX 46 56 30 57 31 58 39 59 32 60 34 61 40 62 33 63 35 64 36 65
REMARK SMILES IDX 37 66 38 67 62 68 63 69 71 70 64 71 66 72 72 73 65 74 67 75
REMARK SMILES IDX 68 76 69 77 70 78 47 79 48 80 56 81 49 82 51 83 57 84 50 85
REMARK SMILES IDX 52 86 53 87 54 88 55 89
REMARK H PARENT 3 7 77 42 45 53
REMARK Flexibility Score: inf
ROOT
ATOM      1  C   UNL     1      -1.071   1.207  -0.967  1.00  0.00     0.274 C 
ENDROOT
BRANCH   1   2
ATOM      2  O   UNL     1       0.133   1.079  -0.186  1.00  0.00    -0.458 OA
BRANCH   2   3
ATOM      3  C   UNL     1       1.124   1.915  -0.598  1.00  0.00     0.365 C 
ATOM      4  O   UNL     1       0.988   2.744  -1.498  1.00  0.00    -0.245 OA
BRANCH   3   5
ATOM      5  C   UNL     1       2.505   1.629  -0.004  1.00  0.00     0.297 C 
BRANCH   5   6
ATOM      6  N   UNL     1       2.490   1.264   1.433  1.00  0.00    -0.318 N 
ATOM      7  H   UNL     1       2.426   0.637   0.631  1.00  0.00     0.349 HD
BRANCH   6   8
ATOM      8  C   UNL     1       2.547  -0.101   1.926  1.00  0.00     0.259 C 
ATOM      9  C   UNL     1       3.850  -0.874   1.769  1.00  0.00     0.071 C 
ENDBRANCH   6   8
BRANCH   6  10
ATOM     10  C   UNL     1       2.423   2.347   2.439  1.00  0.00     0.320 C 
BRANCH  10  11
ATOM     11  C   UNL     1       1.194   2.494   3.352  1.00  0.00     0.095 A 
ATOM     12  C   UNL     1       0.307   1.451   3.610  1.00  0.00     0.030 A 
ATOM     13  N   UNL     1       1.054   3.694   3.994  1.00  0.00    -0.252 NA
ATOM     14  C   UNL     1      -0.709   1.611   4.548  1.00  0.00     0.004 A 
ATOM     15  C   UNL     1       0.014   3.855   4.864  1.00  0.00     0.038 A 
ATOM     16  C   UNL     1      -0.866   2.831   5.179  1.00  0.00     0.023 A 
ATOM     17  C   UNL     1      -0.249   5.206   5.469  1.00  0.00     0.067 C 
ENDBRANCH  10  11
ENDBRANCH   6  10
ENDBRANCH   5   6
BRANCH   5  18
ATOM     18  C   UNL     1       3.282   0.695  -0.989  1.00  0.00     0.053 C 
ATOM     19  C   UNL     1       2.942   0.876  -2.482  1.00  0.00     0.014 C 
ATOM     20  C   UNL     1       4.796   0.908  -0.850  1.00  0.00     0.014 C 
ENDBRANCH   5  18
ENDBRANCH   3   5
ENDBRANCH   2   3
ENDBRANCH   1   2
BRANCH   1  21
ATOM     21  C   UNL     1      -2.005   2.308  -0.462  1.00  0.00     0.275 C 
BRANCH  21  22
ATOM     22  O   UNL     1      -1.285   3.529  -0.222  1.00  0.00    -0.458 OA
BRANCH  22  23
ATOM     23  C   UNL     1      -1.315   3.957   1.061  1.00  0.00     0.338 C 
ATOM     24  O   UNL     1      -1.998   3.478   1.952  1.00  0.00    -0.246 OA
BRANCH  23  25
ATOM     25  C   UNL     1      -0.425   5.118   1.288  1.00  0.00     0.060 A 
ATOM     26  C   UNL     1       0.882   5.197   0.793  1.00  0.00     0.016 A 
ATOM     27  C   UNL     1      -0.885   6.092   2.173  1.00  0.00     0.016 A 
ATOM     28  C   UNL     1       1.762   6.173   1.276  1.00  0.00     0.010 A 
ATOM     29  C   UNL     1      -0.025   7.095   2.616  1.00  0.00     0.010 A 
ATOM     30  C   UNL     1       1.316   7.117   2.208  1.00  0.00    -0.014 A 
BRANCH  30  31
ATOM     31  C   UNL     1       2.157   8.255   2.641  1.00  0.00     0.031 A 
ATOM     32  C   UNL     1       2.721   8.343   4.027  1.00  0.00     0.074 A 
ATOM     33  C   UNL     1       2.220   9.303   1.803  1.00  0.00     0.049 A 
ATOM     34  N   UNL     1       3.125   9.397   4.687  1.00  0.00    -0.248 NA
ATOM     35  C   UNL     1       2.834   7.087   4.778  1.00  0.00     0.031 C 
ATOM     36  C   UNL     1       1.686   9.311   0.441  1.00  0.00     0.029 A 
ATOM     37  N   UNL     1       2.672  10.581   2.003  1.00  0.00    -0.354 N 
ATOM     38  C   UNL     1       3.478   8.946   5.955  1.00  0.00     0.074 A 
ATOM     39  C   UNL     1       3.239   7.517   5.969  1.00  0.00     0.031 C 
ATOM     40  C   UNL     1       1.757  10.556  -0.045  1.00  0.00     0.029 A 
ATOM     41  C   UNL     1       2.301  11.430   0.988  1.00  0.00     0.049 A 
ATOM     42  H   UNL     1       3.202  10.859   2.785  1.00  0.00     0.167 HD
ATOM     43  C   UNL     1       3.980   9.664   6.990  1.00  0.00     0.034 A 
ATOM     44  C   UNL     1       2.329  12.773   0.917  1.00  0.00     0.034 A 
ATOM     45  C   UNL     1       4.312  11.066   6.901  1.00  0.00     0.049 A 
ATOM     46  C   UNL     1       2.915  13.543   2.056  1.00  0.00     0.074 A 
ATOM     47  C   UNL     1       4.963  11.859   7.831  1.00  0.00     0.029 A 
ATOM     48  N   UNL     1       4.035  11.879   5.811  1.00  0.00    -0.354 N 
ATOM     49  N   UNL     1       3.332  13.096   3.216  1.00  0.00    -0.248 NA
ATOM     50  C   UNL     1       3.079  14.988   1.865  1.00  0.00     0.031 C 
ATOM     51  C   UNL     1       5.076  13.152   7.304  1.00  0.00     0.029 A 
ATOM     52  C   UNL     1       4.498  13.164   6.045  1.00  0.00     0.049 A 
ATOM     53  H   UNL     1       3.575  11.586   4.991  1.00  0.00     0.167 HD
ATOM     54  C   UNL     1       3.832  14.201   3.889  1.00  0.00     0.074 A 
ATOM     55  C   UNL     1       3.679  15.335   2.997  1.00  0.00     0.031 C 
ATOM     56  C   UNL     1       4.360  14.272   5.136  1.00  0.00     0.034 A 
BRANCH  43  57
ATOM     57  C   UNL     1       4.298   8.958   8.288  1.00  0.00     0.023 A 
ATOM     58  C   UNL     1       5.433   8.127   8.364  1.00  0.00     0.012 A 
ATOM     59  C   UNL     1       3.568   9.232   9.464  1.00  0.00     0.148 A 
ATOM     60  C   UNL     1       5.832   7.573   9.581  1.00  0.00     0.002 A 
ATOM     61  C   UNL     1       3.993   8.705  10.682  1.00  0.00     0.091 A 
ATOM     62  F   UNL     1       2.478  10.008   9.377  1.00  0.00    -0.205 F 
ATOM     63  C   UNL     1       5.122   7.873  10.741  1.00  0.00     0.022 A 
BRANCH  61  64
ATOM     64  S   UNL     1       3.196   9.112  12.243  1.00  0.00     0.127 S 
ATOM     65  O   UNL     1       2.428   7.897  12.510  1.00  0.00    -0.237 OA
ATOM     66  O   UNL     1       4.338   9.317  13.135  1.00  0.00    -0.237 OA
ATOM     67  O   UNL     1       2.410  10.311  11.987  1.00  0.00    -0.744 OA
ENDBRANCH  61  64
ENDBRANCH  43  57
BRANCH  44  68
ATOM     68  C   UNL     1       1.814  13.415  -0.319  1.00  0.00     0.023 A 
ATOM     69  C   UNL     1       2.730  13.853  -1.291  1.00  0.00     0.012 A 
ATOM     70  C   UNL     1       0.436  13.410  -0.614  1.00  0.00     0.148 A 
ATOM     71  C   UNL     1       2.281  14.264  -2.546  1.00  0.00     0.002 A 
ATOM     72  C   UNL     1       0.002  13.766  -1.885  1.00  0.00     0.091 A 
ATOM     73  F   UNL     1      -0.419  12.999   0.334  1.00  0.00    -0.205 F 
ATOM     74  C   UNL     1       0.923  14.200  -2.850  1.00  0.00     0.022 A 
BRANCH  72  75
ATOM     75  S   UNL     1      -1.706  13.528  -2.396  1.00  0.00     0.127 S 
ATOM     76  O   UNL     1      -2.265  14.863  -2.208  1.00  0.00    -0.237 OA
ATOM     77  O   UNL     1      -1.561  13.113  -3.793  1.00  0.00    -0.237 OA
ATOM     78  O   UNL     1      -2.222  12.484  -1.520  1.00  0.00    -0.744 OA
ENDBRANCH  72  75
ENDBRANCH  44  68
BRANCH  56  79
ATOM     79  C   UNL     1       4.806  15.628   5.602  1.00  0.00     0.023 A 
ATOM     80  C   UNL     1       3.840  16.558   6.030  1.00  0.00     0.012 A 
ATOM     81  C   UNL     1       6.170  15.976   5.635  1.00  0.00     0.148 A 
ATOM     82  C   UNL     1       4.221  17.830   6.455  1.00  0.00     0.002 A 
ATOM     83  C   UNL     1       6.545  17.235   6.090  1.00  0.00     0.091 A 
ATOM     84  F   UNL     1       7.072  15.085   5.200  1.00  0.00    -0.205 F 
ATOM     85  C   UNL     1       5.572  18.166   6.492  1.00  0.00     0.022 A 
BRANCH  83  86
ATOM     86  S   UNL     1       8.270  17.720   6.221  1.00  0.00     0.127 S 
ATOM     87  O   UNL     1       8.463  18.477   4.986  1.00  0.00    -0.237 OA
ATOM     88  O   UNL     1       8.281  18.531   7.440  1.00  0.00    -0.237 OA
ATOM     89  O   UNL     1       9.019  16.475   6.326  1.00  0.00    -0.744 OA
ENDBRANCH  83  86
ENDBRANCH  56  79
ENDBRANCH  30  31
ENDBRANCH  23  25
ENDBRANCH  22  23
ENDBRANCH  21  22
ENDBRANCH   1  21
TORSDOF 19
