REMARK SMILES Cc1cc(N[C@@H]2C=C[C@@H](C(=O)OCCOC(=O)c3ccc(-c4c5nc(c(-c6cccc(S(=O)(=O)[O-])c6F)c6ccc([nH]6)c(-c6cccc(S(=O)(=O)[O-])c6F)c6nc(c(-c7cccc(S(=O)(=O)[O-])c7F)c7ccc4[nH]7)C=C6)C=C5)cc3)C2)nc(C)n1
REMARK SMILES IDX 14 1 13 2 12 3 10 4 11 5 9 6 6 7 7 8 81 9 8 10 5 11 4 13
REMARK SMILES IDX 1 14 2 15 3 16 85 17 83 18 82 19 84 20 15 21 16 22 17 23
REMARK SMILES IDX 18 24 19 25 80 26 20 27 79 28 21 29 22 30 23 31 73 32 24 33
REMARK SMILES IDX 78 34 72 35 74 36 25 37 77 38 71 39 70 40 26 42 58 43 38 44
REMARK SMILES IDX 57 45 39 46 42 47 56 48 75 49 40 50 41 51 55 53 76 54 43 55
REMARK SMILES IDX 27 56 28 57 36 58 29 59 31 60 37 61 30 62 32 63 33 64 34 65
REMARK SMILES IDX 35 66 59 67 60 68 68 69 61 70 63 71 69 72 62 73 64 74 65 75
REMARK SMILES IDX 66 76 67 77 44 78 45 79 53 80 46 81 48 82 54 83 47 84 49 85
REMARK SMILES IDX 50 86 51 87 52 88
REMARK H PARENT 5 12 74 41 42 52
REMARK Flexibility Score: inf
ROOT
ATOM      1  C   UNL     1       0.062  -2.436   3.720  1.00  0.00     0.275 C 
ENDROOT
BRANCH   1   2
ATOM      2  C   UNL     1      -0.102  -2.202   2.219  1.00  0.00     0.274 C 
BRANCH   2   3
ATOM      3  O   UNL     1      -1.004  -1.104   1.987  1.00  0.00    -0.462 OA
BRANCH   3   4
ATOM      4  C   UNL     1      -2.187  -1.428   1.414  1.00  0.00     0.312 C 
ATOM      5  O   UNL     1      -2.452  -2.531   0.942  1.00  0.00    -0.252 OA
BRANCH   4   6
ATOM      6  C   UNL     1      -3.224  -0.321   1.474  1.00  0.00     0.124 C 
ATOM      7  C   UNL     1      -3.571   2.087   1.176  1.00  0.00     0.104 C 
ATOM      8  C   UNL     1      -3.932   1.324  -0.052  1.00  0.00    -0.006 C 
ATOM      9  C   UNL     1      -2.871   1.050   2.066  1.00  0.00     0.048 C 
ATOM     10  C   UNL     1      -3.727   0.011   0.097  1.00  0.00    -0.014 C 
BRANCH   7  11
ATOM     11  N   UNL     1      -4.724   2.744   1.751  1.00  0.00    -0.364 N 
ATOM     12  H   UNL     1      -4.589   3.711   1.871  1.00  0.00     0.162 HD
BRANCH  11  13
ATOM     13  C   UNL     1      -5.956   2.331   2.166  1.00  0.00     0.130 A 
ATOM     14  C   UNL     1      -8.120  -0.632   2.942  1.00  0.00     0.067 C 
ATOM     15  C   UNL     1      -7.653   0.775   2.722  1.00  0.00     0.043 A 
ATOM     16  C   UNL     1      -6.381   1.026   2.245  1.00  0.00     0.070 A 
ATOM     17  N   UNL     1      -8.487   1.762   3.077  1.00  0.00    -0.238 NA
ATOM     18  C   UNL     1      -8.014   3.011   2.956  1.00  0.00     0.127 A 
ATOM     19  N   UNL     1      -6.779   3.333   2.518  1.00  0.00    -0.216 NA
ATOM     20  C   UNL     1      -8.946   4.128   3.304  1.00  0.00     0.090 C 
ENDBRANCH  11  13
ENDBRANCH   7  11
ENDBRANCH   4   6
ENDBRANCH   3   4
ENDBRANCH   2   3
ENDBRANCH   1   2
BRANCH   1  21
ATOM     21  O   UNL     1      -1.180  -2.826   4.337  1.00  0.00    -0.458 OA
BRANCH  21  22
ATOM     22  C   UNL     1      -1.908  -1.805   4.846  1.00  0.00     0.338 C 
ATOM     23  O   UNL     1      -1.649  -0.615   4.796  1.00  0.00    -0.246 OA
BRANCH  22  24
ATOM     24  C   UNL     1      -3.130  -2.321   5.475  1.00  0.00     0.060 A 
ATOM     25  C   UNL     1      -4.312  -2.365   4.734  1.00  0.00     0.016 A 
ATOM     26  C   UNL     1      -3.132  -2.618   6.838  1.00  0.00     0.016 A 
ATOM     27  C   UNL     1      -5.517  -2.650   5.376  1.00  0.00     0.010 A 
ATOM     28  C   UNL     1      -4.337  -2.942   7.469  1.00  0.00     0.010 A 
ATOM     29  C   UNL     1      -5.545  -2.925   6.752  1.00  0.00    -0.014 A 
BRANCH  29  30
ATOM     30  C   UNL     1      -6.840  -3.155   7.446  1.00  0.00     0.031 A 
ATOM     31  C   UNL     1      -7.349  -2.157   8.454  1.00  0.00     0.074 A 
ATOM     32  C   UNL     1      -7.564  -4.257   7.171  1.00  0.00     0.049 A 
ATOM     33  N   UNL     1      -8.416  -2.223   9.208  1.00  0.00    -0.248 NA
ATOM     34  C   UNL     1      -6.561  -0.927   8.640  1.00  0.00     0.031 C 
ATOM     35  C   UNL     1      -7.196  -5.292   6.205  1.00  0.00     0.029 A 
ATOM     36  N   UNL     1      -8.762  -4.691   7.683  1.00  0.00    -0.354 N 
ATOM     37  C   UNL     1      -8.404  -1.073   9.988  1.00  0.00     0.074 A 
ATOM     38  C   UNL     1      -7.228  -0.319   9.614  1.00  0.00     0.031 C 
ATOM     39  C   UNL     1      -8.156  -6.231   6.179  1.00  0.00     0.029 A 
ATOM     40  C   UNL     1      -9.184  -5.890   7.158  1.00  0.00     0.049 A 
ATOM     41  H   UNL     1      -9.271  -4.191   8.362  1.00  0.00     0.167 HD
ATOM     42  C   UNL     1      -9.301  -0.672  10.919  1.00  0.00     0.034 A 
ATOM     43  C   UNL     1     -10.268  -6.639   7.441  1.00  0.00     0.034 A 
ATOM     44  C   UNL     1     -10.509  -1.379  11.245  1.00  0.00     0.049 A 
ATOM     45  C   UNL     1     -11.237  -6.176   8.492  1.00  0.00     0.074 A 
ATOM     46  C   UNL     1     -11.499  -1.014  12.141  1.00  0.00     0.029 A 
ATOM     47  N   UNL     1     -10.897  -2.585  10.687  1.00  0.00    -0.354 N 
ATOM     48  N   UNL     1     -11.237  -5.058   9.175  1.00  0.00    -0.248 NA
ATOM     49  C   UNL     1     -12.359  -7.074   8.809  1.00  0.00     0.031 C 
ATOM     50  C   UNL     1     -12.486  -2.002  12.128  1.00  0.00     0.029 A 
ATOM     51  C   UNL     1     -12.109  -2.981  11.223  1.00  0.00     0.049 A 
ATOM     52  H   UNL     1     -10.387  -3.086  10.010  1.00  0.00     0.167 HD
ATOM     53  C   UNL     1     -12.366  -5.107   9.984  1.00  0.00     0.074 A 
ATOM     54  C   UNL     1     -13.035  -6.359   9.700  1.00  0.00     0.031 C 
ATOM     55  C   UNL     1     -12.796  -4.201  10.893  1.00  0.00     0.034 A 
BRANCH  42  56
ATOM     56  C   UNL     1      -9.055   0.626  11.637  1.00  0.00     0.023 A 
ATOM     57  C   UNL     1      -9.434   1.834  11.021  1.00  0.00     0.012 A 
ATOM     58  C   UNL     1      -8.581   0.636  12.963  1.00  0.00     0.148 A 
ATOM     59  C   UNL     1      -9.346   3.038  11.718  1.00  0.00     0.002 A 
ATOM     60  C   UNL     1      -8.521   1.837  13.660  1.00  0.00     0.091 A 
ATOM     61  F   UNL     1      -8.223  -0.529  13.521  1.00  0.00    -0.205 F 
ATOM     62  C   UNL     1      -8.900   3.038  13.038  1.00  0.00     0.022 A 
BRANCH  60  63
ATOM     63  S   UNL     1      -8.014   1.942  15.380  1.00  0.00     0.127 S 
ATOM     64  O   UNL     1      -6.819   2.781  15.285  1.00  0.00    -0.237 OA
ATOM     65  O   UNL     1      -9.168   2.593  15.999  1.00  0.00    -0.237 OA
ATOM     66  O   UNL     1      -7.771   0.574  15.816  1.00  0.00    -0.744 OA
ENDBRANCH  60  63
ENDBRANCH  42  56
BRANCH  43  67
ATOM     67  C   UNL     1     -10.521  -7.887   6.671  1.00  0.00     0.023 A 
ATOM     68  C   UNL     1     -11.549  -7.897   5.709  1.00  0.00     0.012 A 
ATOM     69  C   UNL     1      -9.732  -9.039   6.852  1.00  0.00     0.148 A 
ATOM     70  C   UNL     1     -11.792  -9.037   4.943  1.00  0.00     0.002 A 
ATOM     71  C   UNL     1      -9.953 -10.158   6.058  1.00  0.00     0.091 A 
ATOM     72  F   UNL     1      -8.771  -9.008   7.786  1.00  0.00    -0.205 F 
ATOM     73  C   UNL     1     -10.989 -10.162   5.110  1.00  0.00     0.022 A 
BRANCH  71  74
ATOM     74  S   UNL     1      -8.907 -11.616   6.129  1.00  0.00     0.127 S 
ATOM     75  O   UNL     1      -9.818 -12.610   6.691  1.00  0.00    -0.237 OA
ATOM     76  O   UNL     1      -8.572 -11.814   4.718  1.00  0.00    -0.237 OA
ATOM     77  O   UNL     1      -7.776 -11.250   6.971  1.00  0.00    -0.744 OA
ENDBRANCH  71  74
ENDBRANCH  43  67
BRANCH  55  78
ATOM     78  C   UNL     1     -14.057  -4.501  11.654  1.00  0.00     0.023 A 
ATOM     79  C   UNL     1     -13.998  -5.364  12.764  1.00  0.00     0.012 A 
ATOM     80  C   UNL     1     -15.258  -3.827  11.356  1.00  0.00     0.148 A 
ATOM     81  C   UNL     1     -15.121  -5.558  13.567  1.00  0.00     0.002 A 
ATOM     82  C   UNL     1     -16.363  -4.000  12.180  1.00  0.00     0.091 A 
ATOM     83  F   UNL     1     -15.286  -3.017  10.288  1.00  0.00    -0.205 F 
ATOM     84  C   UNL     1     -16.298  -4.867  13.283  1.00  0.00     0.022 A 
BRANCH  82  85
ATOM     85  S   UNL     1     -17.900  -3.099  11.943  1.00  0.00     0.127 S 
ATOM     86  O   UNL     1     -18.817  -4.171  11.557  1.00  0.00    -0.237 OA
ATOM     87  O   UNL     1     -18.139  -2.540  13.273  1.00  0.00    -0.237 OA
ATOM     88  O   UNL     1     -17.633  -2.110  10.907  1.00  0.00    -0.744 OA
ENDBRANCH  82  85
ENDBRANCH  55  78
ENDBRANCH  29  30
ENDBRANCH  22  24
ENDBRANCH  21  22
ENDBRANCH   1  21
TORSDOF 16
