REMARK SMILES Cn1ccc(C(=O)NCc2ccc(C(=O)OCCOC(=O)c3ccc(-c4c5nc(c(-c6cccc(S(=O)(=O)[O-])c6F)c6ccc([nH]6)c(-c6cccc(S(=O)(=O)[O-])c6F)c6nc(c(-c7cccc(S(=O)(=O)[O-])c7F)c7ccc4[nH]7)C=C6)C=C5)cc3)cc2)cc1=O
REMARK SMILES IDX 17 1 16 2 14 3 15 4 13 5 10 6 11 7 86 8 12 9 85 10 9 11 8 12
REMARK SMILES IDX 6 13 7 14 5 16 1 17 2 18 3 19 88 20 4 21 87 22 89 23 18 24
REMARK SMILES IDX 19 25 20 26 21 27 22 28 23 29 84 30 24 31 83 32 25 33 26 34
REMARK SMILES IDX 27 35 77 36 28 37 82 38 76 39 78 40 29 41 81 42 75 43 74 44
REMARK SMILES IDX 30 46 62 47 42 48 61 49 43 50 46 51 60 52 79 53 44 54 45 55
REMARK SMILES IDX 59 57 80 58 47 59 31 60 32 61 40 62 33 63 35 64 41 65 34 66
REMARK SMILES IDX 36 67 37 68 38 69 39 70 63 71 64 72 72 73 65 74 67 75 73 76
REMARK SMILES IDX 66 77 68 78 69 79 70 80 71 81 48 82 49 83 57 84 50 85 52 86
REMARK SMILES IDX 58 87 51 88 53 89 54 90 55 91 56 92
REMARK H PARENT 8 15 78 45 46 56
REMARK Flexibility Score: inf
ROOT
ATOM      1  C   UNL     1       2.678   7.913   6.265  1.00  0.00     0.275 C 
ENDROOT
BRANCH   1   2
ATOM      2  O   UNL     1       2.776   7.103   5.074  1.00  0.00    -0.458 OA
BRANCH   2   3
ATOM      3  C   UNL     1       1.629   6.502   4.668  1.00  0.00     0.338 C 
ATOM      4  O   UNL     1       0.543   6.563   5.222  1.00  0.00    -0.246 OA
BRANCH   3   5
ATOM      5  C   UNL     1       1.829   5.808   3.372  1.00  0.00     0.060 A 
ATOM      6  C   UNL     1       2.128   4.523   0.878  1.00  0.00    -0.029 A 
ATOM      7  C   UNL     1       0.952   5.215   1.181  1.00  0.00     0.006 A 
ATOM      8  C   UNL     1       3.153   4.488   1.843  1.00  0.00     0.006 A 
ATOM      9  C   UNL     1       0.790   5.810   2.432  1.00  0.00     0.016 A 
ATOM     10  C   UNL     1       3.012   5.133   3.078  1.00  0.00     0.016 A 
BRANCH   6  11
ATOM     11  C   UNL     1       2.272   3.882  -0.484  1.00  0.00     0.152 C 
BRANCH  11  12
ATOM     12  N   UNL     1       3.193   2.768  -0.457  1.00  0.00    -0.348 N 
ATOM     13  C   UNL     1       3.070   1.451  -0.171  1.00  0.00     0.251 C 
ATOM     14  O   UNL     1       4.128   0.816  -0.087  1.00  0.00    -0.269 OA
ATOM     15  H   UNL     1       4.113   3.023  -0.701  1.00  0.00     0.164 HD
BRANCH  13  16
ATOM     16  C   UNL     1       1.763   0.719  -0.039  1.00  0.00     0.046 A 
ATOM     17  C   UNL     1      -1.699  -1.762   0.024  1.00  0.00     0.153 C 
ATOM     18  N   UNL     1      -0.522  -0.907   0.048  1.00  0.00    -0.319 N 
ATOM     19  C   UNL     1       0.712  -1.477  -0.177  1.00  0.00     0.089 A 
ATOM     20  C   UNL     1      -0.667   0.452   0.305  1.00  0.00     0.251 A 
ATOM     21  C   UNL     1       1.817  -0.727  -0.223  1.00  0.00     0.032 A 
ATOM     22  C   UNL     1       0.582   1.267   0.284  1.00  0.00     0.085 A 
ATOM     23  O   UNL     1      -1.736   1.012   0.531  1.00  0.00    -0.269 OA
ENDBRANCH  13  16
ENDBRANCH  11  12
ENDBRANCH   6  11
ENDBRANCH   3   5
ENDBRANCH   2   3
ENDBRANCH   1   2
BRANCH   1  24
ATOM     24  C   UNL     1       2.674   9.406   5.933  1.00  0.00     0.275 C 
BRANCH  24  25
ATOM     25  O   UNL     1       1.462   9.776   5.252  1.00  0.00    -0.458 OA
BRANCH  25  26
ATOM     26  C   UNL     1       1.595   9.989   3.923  1.00  0.00     0.338 C 
ATOM     27  O   UNL     1       2.620   9.939   3.263  1.00  0.00    -0.246 OA
BRANCH  26  28
ATOM     28  C   UNL     1       0.278  10.203   3.308  1.00  0.00     0.060 A 
ATOM     29  C   UNL     1      -0.492   9.081   3.032  1.00  0.00     0.016 A 
ATOM     30  C   UNL     1      -0.108  11.449   2.827  1.00  0.00     0.016 A 
ATOM     31  C   UNL     1      -1.565   9.164   2.153  1.00  0.00     0.010 A 
ATOM     32  C   UNL     1      -1.275  11.553   2.055  1.00  0.00     0.010 A 
ATOM     33  C   UNL     1      -1.993  10.406   1.664  1.00  0.00    -0.014 A 
BRANCH  33  34
ATOM     34  C   UNL     1      -3.176  10.494   0.754  1.00  0.00     0.031 A 
ATOM     35  C   UNL     1      -3.074  11.207  -0.574  1.00  0.00     0.074 A 
ATOM     36  C   UNL     1      -4.357   9.952   1.123  1.00  0.00     0.049 A 
ATOM     37  N   UNL     1      -4.027  11.540  -1.407  1.00  0.00    -0.248 NA
ATOM     38  C   UNL     1      -1.730  11.614  -1.018  1.00  0.00     0.031 C 
ATOM     39  C   UNL     1      -4.606   9.228   2.373  1.00  0.00     0.029 A 
ATOM     40  N   UNL     1      -5.580   9.941   0.494  1.00  0.00    -0.354 N 
ATOM     41  C   UNL     1      -3.414  12.270  -2.422  1.00  0.00     0.074 A 
ATOM     42  C   UNL     1      -2.002  12.313  -2.112  1.00  0.00     0.031 C 
ATOM     43  C   UNL     1      -5.886   8.835   2.414  1.00  0.00     0.029 A 
ATOM     44  C   UNL     1      -6.579   9.365   1.248  1.00  0.00     0.049 A 
ATOM     45  H   UNL     1      -5.728  10.310  -0.407  1.00  0.00     0.167 HD
ATOM     46  C   UNL     1      -3.977  12.849  -3.509  1.00  0.00     0.034 A 
ATOM     47  C   UNL     1      -7.913   9.319   1.067  1.00  0.00     0.034 A 
ATOM     48  C   UNL     1      -5.370  12.738  -3.854  1.00  0.00     0.049 A 
ATOM     49  C   UNL     1      -8.505   9.961  -0.154  1.00  0.00     0.074 A 
ATOM     50  C   UNL     1      -6.018  13.229  -4.975  1.00  0.00     0.029 A 
ATOM     51  N   UNL     1      -6.330  12.097  -3.088  1.00  0.00    -0.354 N 
ATOM     52  N   UNL     1      -7.899  10.585  -1.133  1.00  0.00    -0.248 NA
ATOM     53  C   UNL     1      -9.965   9.881  -0.304  1.00  0.00     0.031 C 
ATOM     54  C   UNL     1      -7.376  12.916  -4.869  1.00  0.00     0.029 A 
ATOM     55  C   UNL     1      -7.567  12.193  -3.703  1.00  0.00     0.049 A 
ATOM     56  H   UNL     1      -6.159  11.640  -2.233  1.00  0.00     0.167 HD
ATOM     57  C   UNL     1      -8.897  10.946  -2.028  1.00  0.00     0.074 A 
ATOM     58  C   UNL     1     -10.145  10.447  -1.489  1.00  0.00     0.031 C 
ATOM     59  C   UNL     1      -8.793  11.645  -3.184  1.00  0.00     0.034 A 
BRANCH  46  60
ATOM     60  C   UNL     1      -3.098  13.660  -4.427  1.00  0.00     0.023 A 
ATOM     61  C   UNL     1      -2.190  13.019  -5.293  1.00  0.00     0.012 A 
ATOM     62  C   UNL     1      -3.252  15.061  -4.502  1.00  0.00     0.148 A 
ATOM     63  C   UNL     1      -1.433  13.760  -6.202  1.00  0.00     0.002 A 
ATOM     64  C   UNL     1      -2.529  15.787  -5.441  1.00  0.00     0.091 A 
ATOM     65  F   UNL     1      -4.110  15.654  -3.659  1.00  0.00    -0.205 F 
ATOM     66  C   UNL     1      -1.611  15.139  -6.284  1.00  0.00     0.022 A 
BRANCH  64  67
ATOM     67  S   UNL     1      -2.750  17.553  -5.685  1.00  0.00     0.127 S 
ATOM     68  O   UNL     1      -1.457  18.075  -5.245  1.00  0.00    -0.237 OA
ATOM     69  O   UNL     1      -2.981  17.635  -7.128  1.00  0.00    -0.237 OA
ATOM     70  O   UNL     1      -3.887  17.937  -4.862  1.00  0.00    -0.744 OA
ENDBRANCH  64  67
ENDBRANCH  46  60
BRANCH  47  71
ATOM     71  C   UNL     1      -8.784   8.667   2.088  1.00  0.00     0.023 A 
ATOM     72  C   UNL     1      -9.486   7.491   1.762  1.00  0.00     0.012 A 
ATOM     73  C   UNL     1      -8.908   9.201   3.387  1.00  0.00     0.148 A 
ATOM     74  C   UNL     1     -10.321   6.880   2.699  1.00  0.00     0.002 A 
ATOM     75  C   UNL     1      -9.688   8.550   4.335  1.00  0.00     0.091 A 
ATOM     76  F   UNL     1      -8.249  10.333   3.675  1.00  0.00    -0.205 F 
ATOM     77  C   UNL     1     -10.412   7.401   3.987  1.00  0.00     0.022 A 
BRANCH  75  78
ATOM     78  S   UNL     1      -9.740   9.074   6.052  1.00  0.00     0.127 S 
ATOM     79  O   UNL     1     -11.064   9.684   6.138  1.00  0.00    -0.237 OA
ATOM     80  O   UNL     1      -9.601   7.802   6.762  1.00  0.00    -0.237 OA
ATOM     81  O   UNL     1      -8.610   9.977   6.220  1.00  0.00    -0.744 OA
ENDBRANCH  75  78
ENDBRANCH  47  71
BRANCH  59  82
ATOM     82  C   UNL     1     -10.052  11.871  -3.977  1.00  0.00     0.023 A 
ATOM     83  C   UNL     1     -11.026  12.777  -3.513  1.00  0.00     0.012 A 
ATOM     84  C   UNL     1     -10.238  11.228  -5.217  1.00  0.00     0.148 A 
ATOM     85  C   UNL     1     -12.183  13.013  -4.255  1.00  0.00     0.002 A 
ATOM     86  C   UNL     1     -11.367  11.508  -5.975  1.00  0.00     0.091 A 
ATOM     87  F   UNL     1      -9.308  10.355  -5.630  1.00  0.00    -0.205 F 
ATOM     88  C   UNL     1     -12.347  12.389  -5.489  1.00  0.00     0.022 A 
BRANCH  86  89
ATOM     89  S   UNL     1     -11.615  10.830  -7.619  1.00  0.00     0.127 S 
ATOM     90  O   UNL     1     -12.713   9.891  -7.391  1.00  0.00    -0.237 OA
ATOM     91  O   UNL     1     -11.978  12.018  -8.392  1.00  0.00    -0.237 OA
ATOM     92  O   UNL     1     -10.347  10.224  -8.001  1.00  0.00    -0.744 OA
ENDBRANCH  86  89
ENDBRANCH  59  82
ENDBRANCH  33  34
ENDBRANCH  26  28
ENDBRANCH  25  26
ENDBRANCH  24  25
ENDBRANCH   1  24
TORSDOF 17
