REMARK SMILES CC(C)[NH2+][C@]1(C(=O)OCCOC(=O)c2ccc(-c3c4nc(c(-c5cccc(S(=O)(=O)[O-])c5F)c5ccc([nH]5)c(-c5cccc(S(=O)(=O)[O-])c5F)c5nc(c(-c6cccc(S(=O)(=O)[O-])c6F)c6ccc3[nH]6)C=C5)C=C4)cc2)CC[C@H]([NH+]2CCC(C)(C)CC2)C1
REMARK SMILES IDX 10 1 9 2 8 3 6 4 7 5 5 6 77 7 88 8 78 9 79 10 4 11 2 14 1 15
REMARK SMILES IDX 3 16 80 17 81 18 87 19 82 21 86 22 83 23 84 24 85 25 11 26
REMARK SMILES IDX 12 27 13 28 14 29 15 30 76 31 16 32 75 33 17 34 18 35 19 36
REMARK SMILES IDX 69 37 20 38 74 39 68 40 70 41 21 42 73 43 67 44 66 45 22 47
REMARK SMILES IDX 54 48 34 49 53 50 35 51 38 52 52 53 71 54 36 55 37 56 51 58
REMARK SMILES IDX 72 59 39 60 23 61 24 62 32 63 25 64 27 65 33 66 26 67 28 68
REMARK SMILES IDX 29 69 30 70 31 71 55 72 56 73 64 74 57 75 59 76 65 77 58 78
REMARK SMILES IDX 60 79 61 80 62 81 63 82 40 83 41 84 49 85 42 86 44 87 50 88
REMARK SMILES IDX 43 89 45 90 46 91 47 92 48 93
REMARK H PARENT 4 12 4 13 80 20 70 46 38 57
REMARK Flexibility Score: inf
ROOT
ATOM      1  C   UNL     1       1.004  -1.102   0.400  1.00  0.00     0.275 C 
ENDROOT
BRANCH   1   2
ATOM      2  C   UNL     1       1.562   0.323   0.454  1.00  0.00     0.274 C 
BRANCH   2   3
ATOM      3  O   UNL     1       0.578   1.270   0.911  1.00  0.00    -0.457 OA
BRANCH   3   4
ATOM      4  C   UNL     1      -0.226   1.829  -0.038  1.00  0.00     0.368 C 
ATOM      5  O   UNL     1      -0.123   1.598  -1.237  1.00  0.00    -0.245 OA
BRANCH   4   6
ATOM      6  C   UNL     1      -1.198   2.882   0.550  1.00  0.00     0.200 C 
ATOM      7  C   UNL     1      -0.413   4.218   0.503  1.00  0.00     0.087 C 
ATOM      8  C   UNL     1      -2.381   3.219  -0.392  1.00  0.00     0.146 C 
ATOM      9  C   UNL     1      -1.456   5.326   0.458  1.00  0.00     0.072 C 
ATOM     10  C   UNL     1      -2.654   4.740  -0.308  1.00  0.00     0.191 C 
BRANCH   6  11
ATOM     11  N   UNL     1      -1.599   2.629   1.959  1.00  0.00    -0.330 N 
ATOM     12  H   UNL     1      -0.783   2.833   2.537  1.00  0.00     0.347 HD
ATOM     13  H   UNL     1      -2.421   3.221   2.077  1.00  0.00     0.347 HD
BRANCH  11  14
ATOM     14  C   UNL     1      -2.082   1.302   2.364  1.00  0.00     0.176 C 
ATOM     15  C   UNL     1      -2.279   1.356   3.886  1.00  0.00     0.075 C 
ATOM     16  C   UNL     1      -3.392   0.818   1.747  1.00  0.00     0.075 C 
ENDBRANCH  11  14
ENDBRANCH   6  11
BRANCH  10  17
ATOM     17  N   UNL     1      -3.994   5.133   0.197  1.00  0.00    -0.332 N 
ATOM     18  C   UNL     1      -4.212   6.582   0.059  1.00  0.00     0.263 C 
ATOM     19  C   UNL     1      -4.299   4.613   1.529  1.00  0.00     0.263 C 
ATOM     20  H   UNL     1      -4.680   4.677  -0.404  1.00  0.00     0.348 HD
ATOM     21  C   UNL     1      -5.526   7.084   0.678  1.00  0.00     0.068 C 
ATOM     22  C   UNL     1      -5.620   5.090   2.122  1.00  0.00     0.068 C 
ATOM     23  C   UNL     1      -5.711   6.621   2.136  1.00  0.00    -0.025 C 
ATOM     24  C   UNL     1      -7.092   7.035   2.664  1.00  0.00     0.011 C 
ATOM     25  C   UNL     1      -4.642   7.241   3.060  1.00  0.00     0.011 C 
ENDBRANCH  10  17
ENDBRANCH   4   6
ENDBRANCH   3   4
ENDBRANCH   2   3
ENDBRANCH   1   2
BRANCH   1  26
ATOM     26  O   UNL     1       0.188  -1.285  -0.771  1.00  0.00    -0.458 OA
BRANCH  26  27
ATOM     27  C   UNL     1      -1.136  -1.440  -0.560  1.00  0.00     0.338 C 
ATOM     28  O   UNL     1      -1.707  -1.547   0.519  1.00  0.00    -0.246 OA
BRANCH  27  29
ATOM     29  C   UNL     1      -1.851  -1.337  -1.841  1.00  0.00     0.060 A 
ATOM     30  C   UNL     1      -2.662  -0.220  -2.056  1.00  0.00     0.016 A 
ATOM     31  C   UNL     1      -1.762  -2.338  -2.806  1.00  0.00     0.016 A 
ATOM     32  C   UNL     1      -3.393  -0.091  -3.232  1.00  0.00     0.010 A 
ATOM     33  C   UNL     1      -2.487  -2.205  -3.994  1.00  0.00     0.010 A 
ATOM     34  C   UNL     1      -3.310  -1.084  -4.212  1.00  0.00    -0.014 A 
BRANCH  34  35
ATOM     35  C   UNL     1      -4.076  -0.949  -5.472  1.00  0.00     0.031 A 
ATOM     36  C   UNL     1      -5.281  -1.807  -5.715  1.00  0.00     0.074 A 
ATOM     37  C   UNL     1      -3.662  -0.075  -6.409  1.00  0.00     0.049 A 
ATOM     38  N   UNL     1      -6.012  -1.915  -6.793  1.00  0.00    -0.248 NA
ATOM     39  C   UNL     1      -5.723  -2.659  -4.599  1.00  0.00     0.031 C 
ATOM     40  C   UNL     1      -2.511   0.820  -6.278  1.00  0.00     0.029 A 
ATOM     41  N   UNL     1      -4.141   0.176  -7.670  1.00  0.00    -0.354 N 
ATOM     42  C   UNL     1      -6.975  -2.872  -6.504  1.00  0.00     0.074 A 
ATOM     43  C   UNL     1      -6.739  -3.312  -5.145  1.00  0.00     0.031 C 
ATOM     44  C   UNL     1      -2.353   1.498  -7.426  1.00  0.00     0.029 A 
ATOM     45  C   UNL     1      -3.365   1.058  -8.383  1.00  0.00     0.049 A 
ATOM     46  H   UNL     1      -4.961  -0.235  -8.028  1.00  0.00     0.167 HD
ATOM     47  C   UNL     1      -7.971  -3.332  -7.297  1.00  0.00     0.034 A 
ATOM     48  C   UNL     1      -3.438   1.441  -9.673  1.00  0.00     0.034 A 
ATOM     49  C   UNL     1      -8.221  -2.868  -8.636  1.00  0.00     0.049 A 
ATOM     50  C   UNL     1      -4.538   0.890 -10.539  1.00  0.00     0.074 A 
ATOM     51  C   UNL     1      -9.239  -3.237  -9.498  1.00  0.00     0.029 A 
ATOM     52  N   UNL     1      -7.444  -1.940  -9.310  1.00  0.00    -0.354 N 
ATOM     53  N   UNL     1      -5.508   0.069 -10.219  1.00  0.00    -0.248 NA
ATOM     54  C   UNL     1      -4.567   1.337 -11.940  1.00  0.00     0.031 C 
ATOM     55  C   UNL     1      -9.066  -2.544 -10.701  1.00  0.00     0.029 A 
ATOM     56  C   UNL     1      -7.949  -1.734 -10.583  1.00  0.00     0.049 A 
ATOM     57  H   UNL     1      -6.649  -1.492  -8.939  1.00  0.00     0.167 HD
ATOM     58  C   UNL     1      -6.276  -0.081 -11.368  1.00  0.00     0.074 A 
ATOM     59  C   UNL     1      -5.673   0.756 -12.385  1.00  0.00     0.031 C 
ATOM     60  C   UNL     1      -7.369  -0.858 -11.569  1.00  0.00     0.034 A 
BRANCH  47  61
ATOM     61  C   UNL     1      -8.892  -4.375  -6.727  1.00  0.00     0.023 A 
ATOM     62  C   UNL     1      -9.887  -3.993  -5.805  1.00  0.00     0.012 A 
ATOM     63  C   UNL     1      -8.818  -5.716  -7.151  1.00  0.00     0.148 A 
ATOM     64  C   UNL     1     -10.783  -4.933  -5.299  1.00  0.00     0.002 A 
ATOM     65  C   UNL     1      -9.737  -6.641  -6.668  1.00  0.00     0.091 A 
ATOM     66  F   UNL     1      -7.848  -6.064  -8.008  1.00  0.00    -0.205 F 
ATOM     67  C   UNL     1     -10.715  -6.253  -5.738  1.00  0.00     0.022 A 
BRANCH  65  68
ATOM     68  S   UNL     1      -9.770  -8.349  -7.225  1.00  0.00     0.127 S 
ATOM     69  O   UNL     1      -9.220  -9.048  -6.065  1.00  0.00    -0.237 OA
ATOM     70  O   UNL     1     -11.198  -8.574  -7.452  1.00  0.00    -0.237 OA
ATOM     71  O   UNL     1      -8.953  -8.393  -8.430  1.00  0.00    -0.744 OA
ENDBRANCH  65  68
ENDBRANCH  47  61
BRANCH  48  72
ATOM     72  C   UNL     1      -2.448   2.413 -10.215  1.00  0.00     0.023 A 
ATOM     73  C   UNL     1      -2.869   3.715 -10.546  1.00  0.00     0.012 A 
ATOM     74  C   UNL     1      -1.092   2.066 -10.378  1.00  0.00     0.148 A 
ATOM     75  C   UNL     1      -1.962   4.647 -11.051  1.00  0.00     0.002 A 
ATOM     76  C   UNL     1      -0.184   3.015 -10.831  1.00  0.00     0.091 A 
ATOM     77  F   UNL     1      -0.715   0.814 -10.082  1.00  0.00    -0.205 F 
ATOM     78  C   UNL     1      -0.619   4.302 -11.182  1.00  0.00     0.022 A 
BRANCH  76  79
ATOM     79  S   UNL     1       1.581   2.691 -10.905  1.00  0.00     0.127 S 
ATOM     80  O   UNL     1       1.791   2.495 -12.336  1.00  0.00    -0.237 OA
ATOM     81  O   UNL     1       2.144   3.929 -10.364  1.00  0.00    -0.237 OA
ATOM     82  O   UNL     1       1.796   1.521 -10.062  1.00  0.00    -0.744 OA
ENDBRANCH  76  79
ENDBRANCH  48  72
BRANCH  60  83
ATOM     83  C   UNL     1      -7.999  -0.833 -12.937  1.00  0.00     0.023 A 
ATOM     84  C   UNL     1      -7.365  -1.500 -14.003  1.00  0.00     0.012 A 
ATOM     85  C   UNL     1      -9.246  -0.214 -13.151  1.00  0.00     0.148 A 
ATOM     86  C   UNL     1      -7.950  -1.530 -15.268  1.00  0.00     0.002 A 
ATOM     87  C   UNL     1      -9.844  -0.285 -14.404  1.00  0.00     0.091 A 
ATOM     88  F   UNL     1      -9.824   0.435 -12.129  1.00  0.00    -0.205 F 
ATOM     89  C   UNL     1      -9.194  -0.934 -15.466  1.00  0.00     0.022 A 
BRANCH  87  90
ATOM     90  S   UNL     1     -11.483   0.380 -14.723  1.00  0.00     0.127 S 
ATOM     91  O   UNL     1     -11.171   1.612 -15.445  1.00  0.00    -0.237 OA
ATOM     92  O   UNL     1     -12.093  -0.668 -15.542  1.00  0.00    -0.237 OA
ATOM     93  O   UNL     1     -12.101   0.556 -13.415  1.00  0.00    -0.744 OA
ENDBRANCH  87  90
ENDBRANCH  60  83
ENDBRANCH  34  35
ENDBRANCH  27  29
ENDBRANCH  26  27
ENDBRANCH   1  26
TORSDOF 17
