REMARK SMILES CC(C)[C@H](NC(=O)[C@H](C)NC(=O)CNC(=O)OCc1ccccc1)C(=O)OCCOC(=O)c1ccc(-c2c3nc(c(-c4cccc(S(=O)(=O)[O-])c4F)c4ccc([nH]4)c(-c4cccc(S(=O)(=O)[O-])c4F)c4nc(c(-c5cccc(S(=O)(=O)[O-])c5F)c5ccc2[nH]5)C=C4)C=C3)cc1
REMARK SMILES IDX 25 1 26 2 4 3 2 4 1 5 3 6 5 7 6 8 7 10 8 11 9 12 10 13 11 14
REMARK SMILES IDX 12 16 13 17 14 18 15 19 16 21 17 22 18 23 19 24 20 25 24 26
REMARK SMILES IDX 21 27 23 28 22 29 27 30 28 31 29 32 30 33 31 34 32 35 33 36
REMARK SMILES IDX 34 37 95 38 35 39 94 40 36 41 37 42 38 43 88 44 39 45 93 46
REMARK SMILES IDX 87 47 89 48 40 49 92 50 86 51 85 52 41 54 73 55 53 56 72 57
REMARK SMILES IDX 54 58 57 59 71 60 90 61 55 62 56 63 70 65 91 66 58 67 42 68
REMARK SMILES IDX 43 69 51 70 44 71 46 72 52 73 45 74 47 75 48 76 49 77 50 78
REMARK SMILES IDX 74 79 75 80 83 81 76 82 78 83 84 84 77 85 79 86 80 87 81 88
REMARK SMILES IDX 82 89 59 90 60 91 68 92 61 93 63 94 69 95 62 96 64 97 65 98
REMARK SMILES IDX 66 99 67 100
REMARK H PARENT 5 9 10 15 14 20 89 53 57 64
REMARK Flexibility Score: inf
ROOT
ATOM      1  C   UNL     1      -3.501   4.832  -1.476  1.00  0.00     0.329 C 
ATOM      2  O   UNL     1      -3.655   3.655  -1.781  1.00  0.00    -0.250 OA
ENDROOT
BRANCH   1   3
ATOM      3  C   UNL     1      -2.613   5.819  -2.286  1.00  0.00     0.194 C 
BRANCH   3   4
ATOM      4  C   UNL     1      -1.343   5.199  -2.925  1.00  0.00     0.017 C 
ATOM      5  C   UNL     1      -1.557   3.905  -3.725  1.00  0.00     0.010 C 
ATOM      6  C   UNL     1      -0.627   6.198  -3.845  1.00  0.00     0.010 C 
ENDBRANCH   3   4
BRANCH   3   7
ATOM      7  N   UNL     1      -2.435   7.161  -1.702  1.00  0.00    -0.341 N 
ATOM      8  C   UNL     1      -1.608   7.712  -0.780  1.00  0.00     0.242 C 
ATOM      9  H   UNL     1      -3.070   7.816  -2.072  1.00  0.00     0.164 HD
ATOM     10  O   UNL     1      -1.676   8.936  -0.630  1.00  0.00    -0.273 OA
BRANCH   8  11
ATOM     11  C   UNL     1      -0.649   6.853   0.065  1.00  0.00     0.168 C 
ATOM     12  C   UNL     1      -0.142   7.682   1.249  1.00  0.00     0.041 C 
BRANCH  11  13
ATOM     13  N   UNL     1       0.520   6.363  -0.660  1.00  0.00    -0.343 N 
ATOM     14  C   UNL     1       1.130   5.141  -0.550  1.00  0.00     0.240 C 
ATOM     15  H   UNL     1       0.919   6.987  -1.308  1.00  0.00     0.164 HD
ATOM     16  O   UNL     1       2.220   4.969  -1.099  1.00  0.00    -0.273 OA
BRANCH  14  17
ATOM     17  C   UNL     1       0.451   4.015   0.245  1.00  0.00     0.219 C 
BRANCH  17  18
ATOM     18  N   UNL     1       0.624   4.257   1.662  1.00  0.00    -0.312 N 
ATOM     19  C   UNL     1      -0.352   4.526   2.567  1.00  0.00     0.407 C 
ATOM     20  H   UNL     1       1.546   4.223   2.006  1.00  0.00     0.167 HD
ATOM     21  O   UNL     1      -0.069   4.971   3.677  1.00  0.00    -0.225 OA
BRANCH  19  22
ATOM     22  O   UNL     1      -1.603   4.301   2.107  1.00  0.00    -0.445 OA
BRANCH  22  23
ATOM     23  C   UNL     1      -2.676   4.724   2.964  1.00  0.00     0.270 C 
BRANCH  23  24
ATOM     24  C   UNL     1      -3.204   3.588   3.804  1.00  0.00    -0.011 A 
ATOM     25  C   UNL     1      -4.507   3.097   3.637  1.00  0.00     0.007 A 
ATOM     26  C   UNL     1      -2.400   3.017   4.800  1.00  0.00     0.007 A 
ATOM     27  C   UNL     1      -4.986   2.056   4.437  1.00  0.00     0.000 A 
ATOM     28  C   UNL     1      -2.875   1.975   5.595  1.00  0.00     0.000 A 
ATOM     29  C   UNL     1      -4.168   1.494   5.413  1.00  0.00     0.000 A 
ENDBRANCH  23  24
ENDBRANCH  22  23
ENDBRANCH  19  22
ENDBRANCH  17  18
ENDBRANCH  14  17
ENDBRANCH  11  13
ENDBRANCH   8  11
ENDBRANCH   3   7
ENDBRANCH   1   3
BRANCH   1  30
ATOM     30  O   UNL     1      -4.222   5.445  -0.494  1.00  0.00    -0.461 OA
BRANCH  30  31
ATOM     31  C   UNL     1      -5.334   4.687   0.034  1.00  0.00     0.274 C 
BRANCH  31  32
ATOM     32  C   UNL     1      -6.684   5.239  -0.434  1.00  0.00     0.275 C 
BRANCH  32  33
ATOM     33  O   UNL     1      -6.911   4.980  -1.826  1.00  0.00    -0.458 OA
BRANCH  33  34
ATOM     34  C   UNL     1      -6.371   5.894  -2.659  1.00  0.00     0.338 C 
ATOM     35  O   UNL     1      -5.737   6.893  -2.361  1.00  0.00    -0.246 OA
BRANCH  34  36
ATOM     36  C   UNL     1      -6.521   5.442  -4.042  1.00  0.00     0.060 A 
ATOM     37  C   UNL     1      -5.360   5.131  -4.750  1.00  0.00     0.016 A 
ATOM     38  C   UNL     1      -7.762   5.454  -4.669  1.00  0.00     0.016 A 
ATOM     39  C   UNL     1      -5.404   4.938  -6.117  1.00  0.00     0.010 A 
ATOM     40  C   UNL     1      -7.818   5.196  -6.036  1.00  0.00     0.010 A 
ATOM     41  C   UNL     1      -6.635   4.982  -6.768  1.00  0.00    -0.014 A 
BRANCH  41  42
ATOM     42  C   UNL     1      -6.683   4.884  -8.237  1.00  0.00     0.031 A 
ATOM     43  C   UNL     1      -7.113   6.086  -9.020  1.00  0.00     0.074 A 
ATOM     44  C   UNL     1      -6.366   3.723  -8.834  1.00  0.00     0.049 A 
ATOM     45  N   UNL     1      -7.454   6.171 -10.274  1.00  0.00    -0.248 NA
ATOM     46  C   UNL     1      -7.191   7.361  -8.283  1.00  0.00     0.031 C 
ATOM     47  C   UNL     1      -5.883   2.522  -8.148  1.00  0.00     0.029 A 
ATOM     48  N   UNL     1      -6.437   3.352 -10.149  1.00  0.00    -0.354 N 
ATOM     49  C   UNL     1      -7.861   7.486 -10.462  1.00  0.00     0.074 A 
ATOM     50  C   UNL     1      -7.707   8.169  -9.198  1.00  0.00     0.031 C 
ATOM     51  C   UNL     1      -5.732   1.536  -9.045  1.00  0.00     0.029 A 
ATOM     52  C   UNL     1      -6.169   2.018 -10.349  1.00  0.00     0.049 A 
ATOM     53  H   UNL     1      -6.658   3.976 -10.878  1.00  0.00     0.167 HD
ATOM     54  C   UNL     1      -8.323   8.059 -11.596  1.00  0.00     0.034 A 
ATOM     55  C   UNL     1      -6.318   1.264 -11.453  1.00  0.00     0.034 A 
ATOM     56  C   UNL     1      -8.412   7.361 -12.848  1.00  0.00     0.049 A 
ATOM     57  C   UNL     1      -6.828   1.928 -12.701  1.00  0.00     0.074 A 
ATOM     58  C   UNL     1      -8.839   7.837 -14.072  1.00  0.00     0.029 A 
ATOM     59  N   UNL     1      -8.053   6.033 -13.031  1.00  0.00    -0.354 N 
ATOM     60  N   UNL     1      -7.179   3.179 -12.882  1.00  0.00    -0.248 NA
ATOM     61  C   UNL     1      -6.944   1.090 -13.901  1.00  0.00     0.031 C 
ATOM     62  C   UNL     1      -8.746   6.791 -14.997  1.00  0.00     0.029 A 
ATOM     63  C   UNL     1      -8.241   5.671 -14.351  1.00  0.00     0.049 A 
ATOM     64  H   UNL     1      -7.715   5.436 -12.325  1.00  0.00     0.167 HD
ATOM     65  C   UNL     1      -7.519   3.291 -14.223  1.00  0.00     0.074 A 
ATOM     66  C   UNL     1      -7.324   1.978 -14.810  1.00  0.00     0.031 C 
ATOM     67  C   UNL     1      -7.963   4.372 -14.909  1.00  0.00     0.034 A 
BRANCH  54  68
ATOM     68  C   UNL     1      -8.753   9.499 -11.531  1.00  0.00     0.023 A 
ATOM     69  C   UNL     1      -7.786  10.518 -11.430  1.00  0.00     0.012 A 
ATOM     70  C   UNL     1     -10.117   9.845 -11.604  1.00  0.00     0.148 A 
ATOM     71  C   UNL     1      -8.170  11.858 -11.373  1.00  0.00     0.002 A 
ATOM     72  C   UNL     1     -10.490  11.184 -11.588  1.00  0.00     0.091 A 
ATOM     73  F   UNL     1     -11.024   8.860 -11.668  1.00  0.00    -0.205 F 
ATOM     74  C   UNL     1      -9.519  12.191 -11.463  1.00  0.00     0.022 A 
BRANCH  72  75
ATOM     75  S   UNL     1     -12.197  11.713 -11.768  1.00  0.00     0.127 S 
ATOM     76  O   UNL     1     -12.511  12.163 -10.413  1.00  0.00    -0.237 OA
ATOM     77  O   UNL     1     -12.085  12.787 -12.756  1.00  0.00    -0.237 OA
ATOM     78  O   UNL     1     -12.933  10.543 -12.226  1.00  0.00    -0.744 OA
ENDBRANCH  72  75
ENDBRANCH  54  68
BRANCH  55  79
ATOM     79  C   UNL     1      -5.959  -0.181 -11.417  1.00  0.00     0.023 A 
ATOM     80  C   UNL     1      -4.823  -0.626 -12.118  1.00  0.00     0.012 A 
ATOM     81  C   UNL     1      -6.696  -1.103 -10.647  1.00  0.00     0.148 A 
ATOM     82  C   UNL     1      -4.439  -1.967 -12.071  1.00  0.00     0.002 A 
ATOM     83  C   UNL     1      -6.277  -2.426 -10.560  1.00  0.00     0.091 A 
ATOM     84  F   UNL     1      -7.784  -0.664  -9.997  1.00  0.00    -0.205 F 
ATOM     85  C   UNL     1      -5.157  -2.864 -11.283  1.00  0.00     0.022 A 
BRANCH  83  86
ATOM     86  S   UNL     1      -7.063  -3.611  -9.460  1.00  0.00     0.127 S 
ATOM     87  O   UNL     1      -7.818  -4.435 -10.400  1.00  0.00    -0.237 OA
ATOM     88  O   UNL     1      -5.909  -4.272  -8.849  1.00  0.00    -0.237 OA
ATOM     89  O   UNL     1      -7.854  -2.814  -8.532  1.00  0.00    -0.744 OA
ENDBRANCH  83  86
ENDBRANCH  55  79
BRANCH  67  90
ATOM     90  C   UNL     1      -8.207   4.207 -16.382  1.00  0.00     0.023 A 
ATOM     91  C   UNL     1      -9.371   3.556 -16.830  1.00  0.00     0.012 A 
ATOM     92  C   UNL     1      -7.337   4.806 -17.312  1.00  0.00     0.148 A 
ATOM     93  C   UNL     1      -9.659   3.490 -18.192  1.00  0.00     0.002 A 
ATOM     94  C   UNL     1      -7.653   4.776 -18.663  1.00  0.00     0.091 A 
ATOM     95  F   UNL     1      -6.226   5.403 -16.857  1.00  0.00    -0.205 F 
ATOM     96  C   UNL     1      -8.809   4.112 -19.106  1.00  0.00     0.022 A 
BRANCH  94  97
ATOM     97  S   UNL     1      -6.673   5.636 -19.897  1.00  0.00     0.127 S 
ATOM     98  O   UNL     1      -6.033   4.523 -20.596  1.00  0.00    -0.237 OA
ATOM     99  O   UNL     1      -7.697   6.337 -20.673  1.00  0.00    -0.237 OA
ATOM    100  O   UNL     1      -5.772   6.510 -19.158  1.00  0.00    -0.744 OA
ENDBRANCH  94  97
ENDBRANCH  67  90
ENDBRANCH  41  42
ENDBRANCH  34  36
ENDBRANCH  33  34
ENDBRANCH  32  33
ENDBRANCH  31  32
ENDBRANCH  30  31
ENDBRANCH   1  30
TORSDOF 23
