REMARK SMILES CCC([NH3+])(CC)C(=O)N1Cc2nc[nH]c2C[C@H]1C(=O)OCCOC(=O)c1ccc(-c2c3nc(c(-c4cccc(S(=O)(=O)[O-])c4F)c4ccc([nH]4)c(-c4cccc(S(=O)(=O)[O-])c4F)c4nc(c(-c5cccc(S(=O)(=O)[O-])c5F)c5ccc2[nH]5)C=C4)C=C3)cc1
REMARK SMILES IDX 21 1 20 2 18 3 19 4 17 5 9 6 10 7 11 8 16 9 12 10 15 11
REMARK SMILES IDX 13 12 14 13 7 15 8 16 3 17 2 18 1 19 4 20 5 24 6 25 22 26
REMARK SMILES IDX 23 27 24 28 25 29 26 30 27 31 88 32 28 33 87 34 29 35 30 36
REMARK SMILES IDX 31 37 81 38 32 39 86 40 80 41 82 42 33 43 85 44 79 45 78 46
REMARK SMILES IDX 34 48 66 49 46 50 65 51 47 52 50 53 64 54 83 55 48 56 49 57
REMARK SMILES IDX 63 59 84 60 51 61 35 62 36 63 44 64 37 65 39 66 45 67 38 68
REMARK SMILES IDX 40 69 41 70 42 71 43 72 67 73 68 74 76 75 69 76 71 77 77 78
REMARK SMILES IDX 70 79 72 80 73 81 74 82 75 83 52 84 53 85 61 86 54 87 56 88
REMARK SMILES IDX 62 89 55 90 57 91 58 92 59 93 60 94
REMARK H PARENT 14 14 4 21 4 22 4 23 82 47 50 58
REMARK Flexibility Score: inf
ROOT
ATOM      1  C   UNL     1       4.238  -3.495  -6.599  1.00  0.00     0.274 C 
ENDROOT
BRANCH   1   2
ATOM      2  O   UNL     1       4.189  -2.371  -5.702  1.00  0.00    -0.461 OA
BRANCH   2   3
ATOM      3  C   UNL     1       3.404  -1.319  -6.053  1.00  0.00     0.329 C 
ATOM      4  O   UNL     1       2.893  -1.185  -7.162  1.00  0.00    -0.250 OA
BRANCH   3   5
ATOM      5  C   UNL     1       3.355  -0.195  -4.986  1.00  0.00     0.201 C 
ATOM      6  N   UNL     1       3.575  -0.473  -3.521  1.00  0.00    -0.317 N 
ATOM      7  C   UNL     1       4.874  -1.088  -3.154  1.00  0.00     0.178 C 
ATOM      8  C   UNL     1       5.960  -0.538  -4.026  1.00  0.00     0.081 A 
ATOM      9  C   UNL     1       4.409   0.850  -5.472  1.00  0.00     0.093 C 
ATOM     10  N   UNL     1       7.267  -0.953  -4.020  1.00  0.00    -0.240 NA
ATOM     11  C   UNL     1       5.742   0.332  -5.074  1.00  0.00     0.042 A 
ATOM     12  C   UNL     1       7.823  -0.345  -5.047  1.00  0.00     0.197 A 
ATOM     13  N   UNL     1       6.935   0.455  -5.717  1.00  0.00    -0.348 N 
ATOM     14  H   UNL     1       7.122   1.009  -6.509  1.00  0.00     0.167 HD
BRANCH   6  15
ATOM     15  C   UNL     1       2.970   0.305  -2.522  1.00  0.00     0.284 C 
ATOM     16  O   UNL     1       3.667   0.951  -1.733  1.00  0.00    -0.268 OA
BRANCH  15  17
ATOM     17  C   UNL     1       1.395   0.240  -2.338  1.00  0.00     0.173 C 
BRANCH  17  18
ATOM     18  C   UNL     1       0.965   0.877  -0.974  1.00  0.00     0.075 C 
ATOM     19  C   UNL     1       1.312   0.100   0.293  1.00  0.00     0.011 C 
ENDBRANCH  17  18
BRANCH  17  20
ATOM     20  N   UNL     1       0.996  -1.181  -2.345  1.00  0.00    -0.345 N 
ATOM     21  H   UNL     1      -0.015  -1.252  -2.228  1.00  0.00     0.345 HD
ATOM     22  H   UNL     1       1.461  -1.669  -1.580  1.00  0.00     0.345 HD
ATOM     23  H   UNL     1       1.265  -1.606  -3.233  1.00  0.00     0.345 HD
ENDBRANCH  17  20
BRANCH  17  24
ATOM     24  C   UNL     1       0.578   0.952  -3.446  1.00  0.00     0.075 C 
ATOM     25  C   UNL     1       0.979   2.403  -3.688  1.00  0.00     0.011 C 
ENDBRANCH  17  24
ENDBRANCH  15  17
ENDBRANCH   6  15
ENDBRANCH   3   5
ENDBRANCH   2   3
ENDBRANCH   1   2
BRANCH   1  26
ATOM     26  C   UNL     1       3.395  -4.644  -6.058  1.00  0.00     0.275 C 
BRANCH  26  27
ATOM     27  O   UNL     1       1.991  -4.407  -6.213  1.00  0.00    -0.458 OA
BRANCH  27  28
ATOM     28  C   UNL     1       1.446  -3.664  -5.236  1.00  0.00     0.338 C 
ATOM     29  O   UNL     1       2.036  -2.961  -4.411  1.00  0.00    -0.246 OA
BRANCH  28  30
ATOM     30  C   UNL     1       0.024  -3.921  -5.085  1.00  0.00     0.060 A 
ATOM     31  C   UNL     1      -0.714  -2.946  -4.410  1.00  0.00     0.016 A 
ATOM     32  C   UNL     1      -0.442  -5.228  -5.242  1.00  0.00     0.016 A 
ATOM     33  C   UNL     1      -1.813  -3.333  -3.682  1.00  0.00     0.010 A 
ATOM     34  C   UNL     1      -1.584  -5.598  -4.564  1.00  0.00     0.010 A 
ATOM     35  C   UNL     1      -2.202  -4.673  -3.715  1.00  0.00    -0.014 A 
BRANCH  35  36
ATOM     36  C   UNL     1      -3.355  -5.046  -2.912  1.00  0.00     0.031 A 
ATOM     37  C   UNL     1      -4.628  -4.390  -3.313  1.00  0.00     0.074 A 
ATOM     38  C   UNL     1      -3.307  -6.049  -2.015  1.00  0.00     0.049 A 
ATOM     39  N   UNL     1      -5.511  -3.813  -2.563  1.00  0.00    -0.248 NA
ATOM     40  C   UNL     1      -4.900  -4.291  -4.758  1.00  0.00     0.031 C 
ATOM     41  C   UNL     1      -2.183  -6.957  -1.766  1.00  0.00     0.029 A 
ATOM     42  N   UNL     1      -4.330  -6.606  -1.304  1.00  0.00    -0.354 N 
ATOM     43  C   UNL     1      -6.545  -3.459  -3.425  1.00  0.00     0.074 A 
ATOM     44  C   UNL     1      -6.058  -3.637  -4.768  1.00  0.00     0.031 C 
ATOM     45  C   UNL     1      -2.667  -8.102  -1.243  1.00  0.00     0.029 A 
ATOM     46  C   UNL     1      -4.095  -7.947  -1.024  1.00  0.00     0.049 A 
ATOM     47  H   UNL     1      -5.137  -6.117  -1.023  1.00  0.00     0.167 HD
ATOM     48  C   UNL     1      -7.816  -3.252  -2.995  1.00  0.00     0.034 A 
ATOM     49  C   UNL     1      -5.029  -8.894  -0.779  1.00  0.00     0.034 A 
ATOM     50  C   UNL     1      -7.897  -2.991  -1.588  1.00  0.00     0.049 A 
ATOM     51  C   UNL     1      -6.293  -8.213  -0.413  1.00  0.00     0.074 A 
ATOM     52  C   UNL     1      -7.340  -2.060  -0.733  1.00  0.00     0.029 A 
ATOM     53  N   UNL     1      -8.430  -3.966  -0.783  1.00  0.00    -0.354 N 
ATOM     54  N   UNL     1      -6.478  -7.550   0.694  1.00  0.00    -0.248 NA
ATOM     55  C   UNL     1      -7.277  -7.973  -1.456  1.00  0.00     0.031 C 
ATOM     56  C   UNL     1      -7.164  -2.747   0.502  1.00  0.00     0.029 A 
ATOM     57  C   UNL     1      -7.623  -4.052   0.320  1.00  0.00     0.049 A 
ATOM     58  H   UNL     1      -9.237  -4.501  -0.964  1.00  0.00     0.167 HD
ATOM     59  C   UNL     1      -7.329  -6.510   0.342  1.00  0.00     0.074 A 
ATOM     60  C   UNL     1      -7.894  -6.906  -0.945  1.00  0.00     0.031 C 
ATOM     61  C   UNL     1      -7.271  -5.296   0.970  1.00  0.00     0.034 A 
BRANCH  48  62
ATOM     62  C   UNL     1      -9.027  -3.591  -3.821  1.00  0.00     0.023 A 
ATOM     63  C   UNL     1     -10.272  -3.061  -3.426  1.00  0.00     0.012 A 
ATOM     64  C   UNL     1      -9.039  -4.595  -4.817  1.00  0.00     0.148 A 
ATOM     65  C   UNL     1     -11.469  -3.520  -3.984  1.00  0.00     0.002 A 
ATOM     66  C   UNL     1     -10.222  -4.977  -5.435  1.00  0.00     0.091 A 
ATOM     67  F   UNL     1      -7.926  -5.287  -5.089  1.00  0.00    -0.205 F 
ATOM     68  C   UNL     1     -11.445  -4.465  -5.004  1.00  0.00     0.022 A 
BRANCH  66  69
ATOM     69  S   UNL     1     -10.184  -6.119  -6.820  1.00  0.00     0.127 S 
ATOM     70  O   UNL     1     -10.293  -7.409  -6.148  1.00  0.00    -0.237 OA
ATOM     71  O   UNL     1     -11.363  -5.719  -7.590  1.00  0.00    -0.237 OA
ATOM     72  O   UNL     1      -8.919  -5.831  -7.487  1.00  0.00    -0.744 OA
ENDBRANCH  66  69
ENDBRANCH  48  62
BRANCH  49  73
ATOM     73  C   UNL     1      -4.962 -10.343  -1.073  1.00  0.00     0.023 A 
ATOM     74  C   UNL     1      -5.795 -11.230  -0.366  1.00  0.00     0.012 A 
ATOM     75  C   UNL     1      -4.238 -10.850  -2.177  1.00  0.00     0.148 A 
ATOM     76  C   UNL     1      -5.903 -12.574  -0.745  1.00  0.00     0.002 A 
ATOM     77  C   UNL     1      -4.319 -12.195  -2.526  1.00  0.00     0.091 A 
ATOM     78  F   UNL     1      -3.540 -10.005  -2.948  1.00  0.00    -0.205 F 
ATOM     79  C   UNL     1      -5.160 -13.059  -1.819  1.00  0.00     0.022 A 
BRANCH  77  80
ATOM     80  S   UNL     1      -3.340 -12.867  -3.877  1.00  0.00     0.127 S 
ATOM     81  O   UNL     1      -3.026 -14.215  -3.398  1.00  0.00    -0.237 OA
ATOM     82  O   UNL     1      -4.277 -12.818  -4.994  1.00  0.00    -0.237 OA
ATOM     83  O   UNL     1      -2.176 -11.992  -3.974  1.00  0.00    -0.744 OA
ENDBRANCH  77  80
ENDBRANCH  49  73
BRANCH  61  84
ATOM     84  C   UNL     1      -6.468  -5.175   2.244  1.00  0.00     0.023 A 
ATOM     85  C   UNL     1      -5.090  -5.472   2.274  1.00  0.00     0.012 A 
ATOM     86  C   UNL     1      -7.050  -4.566   3.371  1.00  0.00     0.148 A 
ATOM     87  C   UNL     1      -4.319  -5.206   3.407  1.00  0.00     0.002 A 
ATOM     88  C   UNL     1      -6.268  -4.257   4.481  1.00  0.00     0.091 A 
ATOM     89  F   UNL     1      -8.359  -4.271   3.336  1.00  0.00    -0.205 F 
ATOM     90  C   UNL     1      -4.904  -4.586   4.506  1.00  0.00     0.022 A 
BRANCH  88  91
ATOM     91  S   UNL     1      -6.941  -3.326   5.861  1.00  0.00     0.127 S 
ATOM     92  O   UNL     1      -7.340  -4.385   6.785  1.00  0.00    -0.237 OA
ATOM     93  O   UNL     1      -5.795  -2.529   6.307  1.00  0.00    -0.237 OA
ATOM     94  O   UNL     1      -8.026  -2.530   5.298  1.00  0.00    -0.744 OA
ENDBRANCH  88  91
ENDBRANCH  61  84
ENDBRANCH  35  36
ENDBRANCH  28  30
ENDBRANCH  27  28
ENDBRANCH  26  27
ENDBRANCH   1  26
TORSDOF 19
