REMARK SMILES CC[C@@H](C)N(C)S(=O)(=O)c1cc(C(=O)OCCOC(=O)c2ccc(-c3c4nc(c(-c5cccc(S(=O)(=O)[O-])c5F)c5ccc([nH]5)c(-c5cccc(S(=O)(=O)[O-])c5F)c5nc(c(-c6cccc(S(=O)(=O)[O-])c6F)c6ccc3[nH]6)C=C5)C=C4)cc2)c(C)cc1C
REMARK SMILES IDX 16 1 15 2 13 3 14 4 12 5 10 6 11 7 87 8 86 9 88 10 84 11
REMARK SMILES IDX 85 12 7 13 8 14 9 15 5 16 6 17 3 18 4 19 2 20 1 21 17 22
REMARK SMILES IDX 18 23 19 24 20 25 21 26 22 27 83 28 23 29 82 30 24 31 25 32
REMARK SMILES IDX 26 33 76 34 27 35 81 36 75 37 77 38 28 39 80 40 74 41 73 42
REMARK SMILES IDX 29 44 61 45 41 46 60 47 42 48 45 49 59 50 78 51 43 52 44 53
REMARK SMILES IDX 58 55 79 56 46 57 30 58 31 59 39 60 32 61 34 62 40 63 33 64
REMARK SMILES IDX 35 65 36 66 37 67 38 68 62 69 63 70 71 71 64 72 66 73 72 74
REMARK SMILES IDX 65 75 67 76 68 77 69 78 70 79 47 80 48 81 56 82 49 83 51 84
REMARK SMILES IDX 57 85 50 86 52 87 53 88 54 89 55 90
REMARK H PARENT 77 43 45 54
REMARK Flexibility Score: inf
ROOT
ATOM      1  C   UNL     1       0.045  10.668  -1.116  1.00  0.00     0.275 C 
ENDROOT
BRANCH   1   2
ATOM      2  O   UNL     1      -0.916   9.592  -1.178  1.00  0.00    -0.458 OA
BRANCH   2   3
ATOM      3  C   UNL     1      -0.625   8.578  -2.027  1.00  0.00     0.338 C 
ATOM      4  O   UNL     1       0.396   8.446  -2.683  1.00  0.00    -0.246 OA
BRANCH   3   5
ATOM      5  C   UNL     1      -1.696   7.550  -2.041  1.00  0.00     0.064 A 
ATOM      6  C   UNL     1      -2.176   5.150  -2.090  1.00  0.00     0.086 A 
ATOM      7  C   UNL     1      -1.279   6.207  -1.933  1.00  0.00     0.038 A 
ATOM      8  C   UNL     1      -3.541   5.432  -2.291  1.00  0.00    -0.031 A 
ATOM      9  C   UNL     1      -3.950   6.777  -2.388  1.00  0.00     0.009 A 
ATOM     10  C   UNL     1      -4.591   4.368  -2.474  1.00  0.00     0.046 C 
ATOM     11  C   UNL     1      -3.045   7.848  -2.282  1.00  0.00    -0.036 A 
ATOM     12  C   UNL     1      -3.595   9.232  -2.489  1.00  0.00     0.045 C 
BRANCH   6  13
ATOM     13  S   UNL     1      -1.628   3.439  -2.020  1.00  0.00     0.243 S 
ATOM     14  O   UNL     1      -2.060   2.834  -3.266  1.00  0.00    -0.207 OA
ATOM     15  O   UNL     1      -2.121   2.968  -0.745  1.00  0.00    -0.207 OA
BRANCH  13  16
ATOM     16  N   UNL     1       0.097   3.382  -2.006  1.00  0.00    -0.198 NA
ATOM     17  C   UNL     1       0.757   3.930  -3.234  1.00  0.00     0.124 C 
BRANCH  16  18
ATOM     18  C   UNL     1       0.728   2.013  -1.666  1.00  0.00     0.069 C 
ATOM     19  C   UNL     1       0.431   0.959  -2.738  1.00  0.00     0.026 C 
BRANCH  18  20
ATOM     20  C   UNL     1       0.373   1.512  -0.254  1.00  0.00     0.016 C 
ATOM     21  C   UNL     1       1.157   0.271   0.168  1.00  0.00     0.005 C 
ENDBRANCH  18  20
ENDBRANCH  16  18
ENDBRANCH  13  16
ENDBRANCH   6  13
ENDBRANCH   3   5
ENDBRANCH   2   3
ENDBRANCH   1   2
BRANCH   1  22
ATOM     22  C   UNL     1       0.616  10.800   0.293  1.00  0.00     0.275 C 
BRANCH  22  23
ATOM     23  O   UNL     1       1.419   9.646   0.587  1.00  0.00    -0.458 OA
BRANCH  23  24
ATOM     24  C   UNL     1       0.865   8.757   1.441  1.00  0.00     0.338 C 
ATOM     25  O   UNL     1      -0.170   8.874   2.072  1.00  0.00    -0.246 OA
BRANCH  24  26
ATOM     26  C   UNL     1       1.662   7.523   1.425  1.00  0.00     0.060 A 
ATOM     27  C   UNL     1       1.588   6.718   0.295  1.00  0.00     0.016 A 
ATOM     28  C   UNL     1       2.352   7.089   2.551  1.00  0.00     0.016 A 
ATOM     29  C   UNL     1       2.092   5.423   0.327  1.00  0.00     0.010 A 
ATOM     30  C   UNL     1       2.968   5.830   2.534  1.00  0.00     0.010 A 
ATOM     31  C   UNL     1       2.805   4.958   1.439  1.00  0.00    -0.014 A 
BRANCH  31  32
ATOM     32  C   UNL     1       3.332   3.560   1.464  1.00  0.00     0.031 A 
ATOM     33  C   UNL     1       2.965   2.626   2.592  1.00  0.00     0.074 A 
ATOM     34  C   UNL     1       4.119   3.101   0.468  1.00  0.00     0.049 A 
ATOM     35  N   UNL     1       3.448   1.443   2.877  1.00  0.00    -0.248 NA
ATOM     36  C   UNL     1       1.929   3.087   3.530  1.00  0.00     0.031 C 
ATOM     37  C   UNL     1       4.532   3.867  -0.710  1.00  0.00     0.029 A 
ATOM     38  N   UNL     1       4.711   1.873   0.281  1.00  0.00    -0.354 N 
ATOM     39  C   UNL     1       2.846   1.062   4.071  1.00  0.00     0.074 A 
ATOM     40  C   UNL     1       1.947   2.131   4.448  1.00  0.00     0.031 C 
ATOM     41  C   UNL     1       5.267   3.084  -1.513  1.00  0.00     0.029 A 
ATOM     42  C   UNL     1       5.471   1.796  -0.863  1.00  0.00     0.049 A 
ATOM     43  H   UNL     1       4.602   1.122   0.908  1.00  0.00     0.167 HD
ATOM     44  C   UNL     1       3.022  -0.074   4.789  1.00  0.00     0.034 A 
ATOM     45  C   UNL     1       6.286   0.823  -1.321  1.00  0.00     0.034 A 
ATOM     46  C   UNL     1       3.845  -1.178   4.370  1.00  0.00     0.049 A 
ATOM     47  C   UNL     1       6.460  -0.430  -0.511  1.00  0.00     0.074 A 
ATOM     48  C   UNL     1       4.057  -2.385   5.014  1.00  0.00     0.029 A 
ATOM     49  N   UNL     1       4.579  -1.219   3.196  1.00  0.00    -0.354 N 
ATOM     50  N   UNL     1       5.869  -0.778   0.606  1.00  0.00    -0.248 NA
ATOM     51  C   UNL     1       7.411  -1.426  -1.025  1.00  0.00     0.031 C 
ATOM     52  C   UNL     1       4.934  -3.149   4.237  1.00  0.00     0.029 A 
ATOM     53  C   UNL     1       5.250  -2.427   3.098  1.00  0.00     0.049 A 
ATOM     54  H   UNL     1       4.618  -0.496   2.529  1.00  0.00     0.167 HD
ATOM     55  C   UNL     1       6.367  -2.037   0.922  1.00  0.00     0.074 A 
ATOM     56  C   UNL     1       7.279  -2.406  -0.141  1.00  0.00     0.031 C 
ATOM     57  C   UNL     1       6.113  -2.806   2.009  1.00  0.00     0.034 A 
BRANCH  44  58
ATOM     58  C   UNL     1       2.306  -0.190   6.110  1.00  0.00     0.023 A 
ATOM     59  C   UNL     1       0.917  -0.425   6.146  1.00  0.00     0.012 A 
ATOM     60  C   UNL     1       3.026  -0.121   7.320  1.00  0.00     0.148 A 
ATOM     61  C   UNL     1       0.252  -0.556   7.366  1.00  0.00     0.002 A 
ATOM     62  C   UNL     1       2.364  -0.297   8.530  1.00  0.00     0.091 A 
ATOM     63  F   UNL     1       4.344   0.123   7.267  1.00  0.00    -0.205 F 
ATOM     64  C   UNL     1       0.976  -0.503   8.555  1.00  0.00     0.022 A 
BRANCH  62  65
ATOM     65  S   UNL     1       3.226  -0.326  10.107  1.00  0.00     0.127 S 
ATOM     66  O   UNL     1       2.839   0.963  10.678  1.00  0.00    -0.237 OA
ATOM     67  O   UNL     1       2.628  -1.488  10.765  1.00  0.00    -0.237 OA
ATOM     68  O   UNL     1       4.639  -0.473   9.788  1.00  0.00    -0.744 OA
ENDBRANCH  62  65
ENDBRANCH  44  58
BRANCH  45  69
ATOM     69  C   UNL     1       7.010   1.007  -2.612  1.00  0.00     0.023 A 
ATOM     70  C   UNL     1       6.686   0.194  -3.715  1.00  0.00     0.012 A 
ATOM     71  C   UNL     1       7.989   2.009  -2.764  1.00  0.00     0.148 A 
ATOM     72  C   UNL     1       7.334   0.365  -4.939  1.00  0.00     0.002 A 
ATOM     73  C   UNL     1       8.579   2.221  -4.004  1.00  0.00     0.091 A 
ATOM     74  F   UNL     1       8.309   2.753  -1.696  1.00  0.00    -0.205 F 
ATOM     75  C   UNL     1       8.267   1.389  -5.089  1.00  0.00     0.022 A 
BRANCH  73  76
ATOM     76  S   UNL     1       9.662   3.619  -4.319  1.00  0.00     0.127 S 
ATOM     77  O   UNL     1      10.967   2.971  -4.412  1.00  0.00    -0.237 OA
ATOM     78  O   UNL     1       9.135   4.131  -5.585  1.00  0.00    -0.237 OA
ATOM     79  O   UNL     1       9.476   4.518  -3.188  1.00  0.00    -0.744 OA
ENDBRANCH  73  76
ENDBRANCH  45  69
BRANCH  57  80
ATOM     80  C   UNL     1       6.805  -4.141   2.095  1.00  0.00     0.023 A 
ATOM     81  C   UNL     1       8.181  -4.197   2.395  1.00  0.00     0.012 A 
ATOM     82  C   UNL     1       6.080  -5.339   1.942  1.00  0.00     0.148 A 
ATOM     83  C   UNL     1       8.831  -5.425   2.512  1.00  0.00     0.002 A 
ATOM     84  C   UNL     1       6.725  -6.559   2.105  1.00  0.00     0.091 A 
ATOM     85  F   UNL     1       4.777  -5.264   1.635  1.00  0.00    -0.205 F 
ATOM     86  C   UNL     1       8.102  -6.605   2.378  1.00  0.00     0.022 A 
BRANCH  84  87
ATOM     87  S   UNL     1       5.849  -8.126   2.041  1.00  0.00     0.127 S 
ATOM     88  O   UNL     1       6.286  -8.660   0.752  1.00  0.00    -0.237 OA
ATOM     89  O   UNL     1       6.384  -8.831   3.206  1.00  0.00    -0.237 OA
ATOM     90  O   UNL     1       4.433  -7.796   2.134  1.00  0.00    -0.744 OA
ENDBRANCH  84  87
ENDBRANCH  57  80
ENDBRANCH  31  32
ENDBRANCH  24  26
ENDBRANCH  23  24
ENDBRANCH  22  23
ENDBRANCH   1  22
TORSDOF 18
