REMARK SMILES C[C@@H](NC(=O)[C@H]1CC=CC[C@@H]1C(=O)OCCOC(=O)c1ccc(-c2c3nc(c(-c4cccc(S(=O)(=O)[O-])c4F)c4ccc([nH]4)c(-c4cccc(S(=O)(=O)[O-])c4F)c4nc(c(-c5cccc(S(=O)(=O)[O-])c5F)c5ccc2[nH]5)C=C4)C=C3)cc1)c1ccc(-n2ccnc2)cc1
REMARK SMILES IDX 15 1 14 2 12 3 13 4 11 5 6 6 7 7 8 8 10 9 9 10 4 11 3 12
REMARK SMILES IDX 5 14 2 15 1 16 83 17 84 18 93 19 85 20 92 21 86 22 87 23
REMARK SMILES IDX 88 24 91 25 89 26 90 27 16 28 17 29 18 30 19 31 20 32 21 33
REMARK SMILES IDX 82 34 22 35 81 36 23 37 24 38 25 39 75 40 26 41 80 42 74 43
REMARK SMILES IDX 76 44 27 45 79 46 73 47 72 48 28 50 60 51 40 52 59 53 41 54
REMARK SMILES IDX 44 55 58 56 77 57 42 58 43 59 57 61 78 62 45 63 29 64 30 65
REMARK SMILES IDX 38 66 31 67 33 68 39 69 32 70 34 71 35 72 36 73 37 74 61 75
REMARK SMILES IDX 62 76 70 77 63 78 65 79 71 80 64 81 66 82 67 83 68 84 69 85
REMARK SMILES IDX 46 86 47 87 55 88 48 89 50 90 56 91 49 92 51 93 52 94 53 95
REMARK SMILES IDX 54 96
REMARK H PARENT 3 13 76 49 44 60
REMARK Flexibility Score: inf
ROOT
ATOM      1  C   UNL     1      -5.287  -0.119  -4.374  1.00  0.00     0.274 C 
ENDROOT
BRANCH   1   2
ATOM      2  O   UNL     1      -3.868  -0.012  -4.131  1.00  0.00    -0.462 OA
BRANCH   2   3
ATOM      3  C   UNL     1      -3.198   0.869  -4.933  1.00  0.00     0.310 C 
ATOM      4  O   UNL     1      -3.752   1.600  -5.744  1.00  0.00    -0.252 OA
BRANCH   3   5
ATOM      5  C   UNL     1      -1.687   0.710  -4.805  1.00  0.00     0.115 C 
ATOM      6  C   UNL     1      -1.129   1.027  -3.390  1.00  0.00     0.097 C 
ATOM      7  C   UNL     1      -0.824   2.513  -3.151  1.00  0.00     0.041 C 
ATOM      8  C   UNL     1      -0.461   3.315  -4.358  1.00  0.00    -0.030 C 
ATOM      9  C   UNL     1      -0.959   1.457  -5.943  1.00  0.00     0.043 C 
ATOM     10  C   UNL     1      -0.516   2.845  -5.607  1.00  0.00    -0.030 C 
BRANCH   6  11
ATOM     11  C   UNL     1       0.102   0.161  -3.116  1.00  0.00     0.224 C 
ATOM     12  N   UNL     1       0.609  -0.012  -1.864  1.00  0.00    -0.349 N 
ATOM     13  H   UNL     1       1.255  -0.752  -1.804  1.00  0.00     0.164 HD
ATOM     14  O   UNL     1       0.669  -0.468  -4.016  1.00  0.00    -0.275 OA
BRANCH  12  15
ATOM     15  C   UNL     1       0.391   0.676  -0.588  1.00  0.00     0.109 C 
ATOM     16  C   UNL     1       1.316   0.076   0.476  1.00  0.00     0.036 C 
BRANCH  15  17
ATOM     17  C   UNL     1      -1.036   0.630  -0.089  1.00  0.00    -0.026 A 
ATOM     18  C   UNL     1      -1.647   1.804   0.377  1.00  0.00     0.008 A 
ATOM     19  C   UNL     1      -1.770  -0.562  -0.063  1.00  0.00     0.008 A 
ATOM     20  C   UNL     1      -2.981   1.801   0.793  1.00  0.00     0.027 A 
ATOM     21  C   UNL     1      -3.107  -0.571   0.348  1.00  0.00     0.027 A 
ATOM     22  C   UNL     1      -3.735   0.620   0.741  1.00  0.00     0.046 A 
BRANCH  22  23
ATOM     23  N   UNL     1      -5.142   0.649   0.965  1.00  0.00    -0.306 N 
ATOM     24  C   UNL     1      -6.001  -0.428   1.056  1.00  0.00     0.113 A 
ATOM     25  C   UNL     1      -5.953   1.762   1.064  1.00  0.00     0.204 A 
ATOM     26  C   UNL     1      -7.265   0.096   1.179  1.00  0.00     0.131 A 
ATOM     27  N   UNL     1      -7.228   1.458   1.185  1.00  0.00    -0.245 NA
ENDBRANCH  22  23
ENDBRANCH  15  17
ENDBRANCH  12  15
ENDBRANCH   6  11
ENDBRANCH   3   5
ENDBRANCH   2   3
ENDBRANCH   1   2
BRANCH   1  28
ATOM     28  C   UNL     1      -6.142   0.685  -3.391  1.00  0.00     0.275 C 
BRANCH  28  29
ATOM     29  O   UNL     1      -5.892   2.098  -3.478  1.00  0.00    -0.458 OA
BRANCH  29  30
ATOM     30  C   UNL     1      -4.953   2.517  -2.608  1.00  0.00     0.338 C 
ATOM     31  O   UNL     1      -4.333   1.817  -1.822  1.00  0.00    -0.246 OA
BRANCH  30  32
ATOM     32  C   UNL     1      -4.628   3.936  -2.728  1.00  0.00     0.060 A 
ATOM     33  C   UNL     1      -3.755   4.310  -3.742  1.00  0.00     0.016 A 
ATOM     34  C   UNL     1      -4.901   4.805  -1.668  1.00  0.00     0.016 A 
ATOM     35  C   UNL     1      -3.067   5.512  -3.639  1.00  0.00     0.010 A 
ATOM     36  C   UNL     1      -4.282   6.059  -1.625  1.00  0.00     0.010 A 
ATOM     37  C   UNL     1      -3.329   6.410  -2.592  1.00  0.00    -0.014 A 
BRANCH  37  38
ATOM     38  C   UNL     1      -2.632   7.724  -2.570  1.00  0.00     0.031 A 
ATOM     39  C   UNL     1      -1.770   8.150  -1.413  1.00  0.00     0.074 A 
ATOM     40  C   UNL     1      -2.776   8.537  -3.635  1.00  0.00     0.049 A 
ATOM     41  N   UNL     1      -1.181   9.301  -1.211  1.00  0.00    -0.248 NA
ATOM     42  C   UNL     1      -1.543   7.170  -0.338  1.00  0.00     0.031 C 
ATOM     43  C   UNL     1      -3.593   8.235  -4.813  1.00  0.00     0.029 A 
ATOM     44  N   UNL     1      -2.241   9.769  -3.912  1.00  0.00    -0.354 N 
ATOM     45  C   UNL     1      -0.578   9.214   0.038  1.00  0.00     0.074 A 
ATOM     46  C   UNL     1      -0.847   7.883   0.540  1.00  0.00     0.031 C 
ATOM     47  C   UNL     1      -3.461   9.221  -5.707  1.00  0.00     0.029 A 
ATOM     48  C   UNL     1      -2.634  10.272  -5.129  1.00  0.00     0.049 A 
ATOM     49  H   UNL     1      -1.635  10.245  -3.299  1.00  0.00     0.167 HD
ATOM     50  C   UNL     1       0.134  10.159   0.698  1.00  0.00     0.034 A 
ATOM     51  C   UNL     1      -2.394  11.461  -5.712  1.00  0.00     0.034 A 
ATOM     52  C   UNL     1       0.458  11.455   0.156  1.00  0.00     0.049 A 
ATOM     53  C   UNL     1      -1.562  12.467  -4.980  1.00  0.00     0.074 A 
ATOM     54  C   UNL     1       1.205  12.468   0.735  1.00  0.00     0.029 A 
ATOM     55  N   UNL     1       0.069  11.914  -1.094  1.00  0.00    -0.354 N 
ATOM     56  N   UNL     1      -0.977  12.353  -3.812  1.00  0.00    -0.248 NA
ATOM     57  C   UNL     1      -1.355  13.762  -5.638  1.00  0.00     0.031 C 
ATOM     58  C   UNL     1       1.268  13.537  -0.166  1.00  0.00     0.029 A 
ATOM     59  C   UNL     1       0.563  13.191  -1.307  1.00  0.00     0.049 A 
ATOM     60  H   UNL     1      -0.478  11.407  -1.736  1.00  0.00     0.167 HD
ATOM     61  C   UNL     1      -0.341  13.564  -3.588  1.00  0.00     0.074 A 
ATOM     62  C   UNL     1      -0.574  14.382  -4.763  1.00  0.00     0.031 C 
ATOM     63  C   UNL     1       0.345  13.976  -2.494  1.00  0.00     0.034 A 
BRANCH  50  64
ATOM     64  C   UNL     1       0.652   9.831   2.075  1.00  0.00     0.023 A 
ATOM     65  C   UNL     1       1.805   9.035   2.213  1.00  0.00     0.012 A 
ATOM     66  C   UNL     1       0.060  10.396   3.223  1.00  0.00     0.148 A 
ATOM     67  C   UNL     1       2.355   8.796   3.474  1.00  0.00     0.002 A 
ATOM     68  C   UNL     1       0.633  10.180   4.473  1.00  0.00     0.091 A 
ATOM     69  F   UNL     1      -1.053  11.128   3.076  1.00  0.00    -0.205 F 
ATOM     70  C   UNL     1       1.778   9.378   4.600  1.00  0.00     0.022 A 
BRANCH  68  71
ATOM     71  S   UNL     1      -0.006  10.955   5.964  1.00  0.00     0.127 S 
ATOM     72  O   UNL     1      -0.789   9.868   6.549  1.00  0.00    -0.237 OA
ATOM     73  O   UNL     1       1.216  11.287   6.697  1.00  0.00    -0.237 OA
ATOM     74  O   UNL     1      -0.766  12.111   5.509  1.00  0.00    -0.744 OA
ENDBRANCH  68  71
ENDBRANCH  50  64
BRANCH  51  75
ATOM     75  C   UNL     1      -2.946  11.719  -7.070  1.00  0.00     0.023 A 
ATOM     76  C   UNL     1      -2.076  11.746  -8.175  1.00  0.00     0.012 A 
ATOM     77  C   UNL     1      -4.336  11.789  -7.287  1.00  0.00     0.148 A 
ATOM     78  C   UNL     1      -2.584  11.826  -9.473  1.00  0.00     0.002 A 
ATOM     79  C   UNL     1      -4.836  11.790  -8.583  1.00  0.00     0.091 A 
ATOM     80  F   UNL     1      -5.151  11.793  -6.222  1.00  0.00    -0.205 F 
ATOM     81  C   UNL     1      -3.962  11.822  -9.679  1.00  0.00     0.022 A 
BRANCH  79  82
ATOM     82  S   UNL     1      -6.592  11.569  -8.894  1.00  0.00     0.127 S 
ATOM     83  O   UNL     1      -7.061  12.947  -8.985  1.00  0.00    -0.237 OA
ATOM     84  O   UNL     1      -6.601  10.831 -10.159  1.00  0.00    -0.237 OA
ATOM     85  O   UNL     1      -7.074  10.793  -7.757  1.00  0.00    -0.744 OA
ENDBRANCH  79  82
ENDBRANCH  51  75
BRANCH  63  86
ATOM     86  C   UNL     1       0.871  15.383  -2.514  1.00  0.00     0.023 A 
ATOM     87  C   UNL     1      -0.018  16.449  -2.274  1.00  0.00     0.012 A 
ATOM     88  C   UNL     1       2.235  15.651  -2.730  1.00  0.00     0.148 A 
ATOM     89  C   UNL     1       0.439  17.765  -2.275  1.00  0.00     0.002 A 
ATOM     90  C   UNL     1       2.689  16.965  -2.698  1.00  0.00     0.091 A 
ATOM     91  F   UNL     1       3.060  14.624  -2.983  1.00  0.00    -0.205 F 
ATOM     92  C   UNL     1       1.792  18.023  -2.478  1.00  0.00     0.022 A 
BRANCH  90  93
ATOM     93  S   UNL     1       4.429  17.367  -2.887  1.00  0.00     0.127 S 
ATOM     94  O   UNL     1       4.504  17.715  -4.305  1.00  0.00    -0.237 OA
ATOM     95  O   UNL     1       4.597  18.498  -1.973  1.00  0.00    -0.237 OA
ATOM     96  O   UNL     1       5.152  16.166  -2.489  1.00  0.00    -0.744 OA
ENDBRANCH  90  93
ENDBRANCH  63  86
ENDBRANCH  37  38
ENDBRANCH  30  32
ENDBRANCH  29  30
ENDBRANCH  28  29
ENDBRANCH   1  28
TORSDOF 18
