REMARK SMILES Cn1ncc(C(=O)OCCOC(=O)c2ccc(-c3c4nc(c(-c5cccc(S(=O)(=O)[O-])c5F)c5ccc([nH]5)c(-c5cccc(S(=O)(=O)[O-])c5F)c5nc(c(-c6cccc(S(=O)(=O)[O-])c6F)c6ccc3[nH]6)C=C5)C=C4)cc2)c1NS(=O)(=O)[C@@H]1CCS(=O)(=O)C1
REMARK SMILES IDX 9 1 8 2 6 3 7 4 5 5 1 6 2 7 3 8 77 9 4 10 78 11 79 13 80 14
REMARK SMILES IDX 81 15 82 16 83 17 88 18 84 19 85 20 86 21 87 22 10 23 11 24
REMARK SMILES IDX 12 25 13 26 14 27 15 28 76 29 16 30 75 31 17 32 18 33 19 34
REMARK SMILES IDX 69 35 20 36 74 37 68 38 70 39 21 40 73 41 67 42 66 43 22 45
REMARK SMILES IDX 54 46 34 47 53 48 35 49 38 50 52 51 71 52 36 53 37 54 51 56
REMARK SMILES IDX 72 57 39 58 23 59 24 60 32 61 25 62 27 63 33 64 26 65 28 66
REMARK SMILES IDX 29 67 30 68 31 69 55 70 56 71 64 72 57 73 59 74 65 75 58 76
REMARK SMILES IDX 60 77 61 78 62 79 63 80 40 81 41 82 49 83 42 84 44 85 50 86
REMARK SMILES IDX 43 87 45 88 46 89 47 90 48 91
REMARK H PARENT 78 12 70 44 38 55
REMARK Flexibility Score: inf
ROOT
ATOM      1  C   UNL     1       4.704  -2.290   0.483  1.00  0.00     0.275 C 
ENDROOT
BRANCH   1   2
ATOM      2  O   UNL     1       3.411  -1.711   0.172  1.00  0.00    -0.458 OA
BRANCH   2   3
ATOM      3  C   UNL     1       2.557  -1.563   1.226  1.00  0.00     0.343 C 
ATOM      4  O   UNL     1       2.789  -1.938   2.364  1.00  0.00    -0.246 OA
BRANCH   3   5
ATOM      5  C   UNL     1       1.321  -0.925   0.846  1.00  0.00     0.123 A 
ATOM      6  C   UNL     1      -2.094  -0.159  -0.085  1.00  0.00     0.176 C 
ATOM      7  N   UNL     1      -0.699  -0.266   0.281  1.00  0.00    -0.251 N 
ATOM      8  N   UNL     1      -0.050   0.877   0.527  1.00  0.00    -0.179 NA
ATOM      9  C   UNL     1       0.086  -1.407   0.416  1.00  0.00     0.152 A 
ATOM     10  C   UNL     1       1.157   0.482   0.910  1.00  0.00     0.153 A 
BRANCH   9  11
ATOM     11  N   UNL     1      -0.429  -2.674   0.132  1.00  0.00    -0.267 N 
ATOM     12  H   UNL     1      -1.356  -2.640  -0.199  1.00  0.00     0.181 HD
BRANCH  11  13
ATOM     13  S   UNL     1       0.147  -4.187   0.222  1.00  0.00     0.237 S 
ATOM     14  O   UNL     1       0.247  -4.582   1.610  1.00  0.00    -0.206 OA
ATOM     15  O   UNL     1      -0.682  -4.974  -0.669  1.00  0.00    -0.206 OA
BRANCH  13  16
ATOM     16  C   UNL     1       1.767  -4.285  -0.451  1.00  0.00     0.145 C 
ATOM     17  C   UNL     1       1.903  -3.623  -1.817  1.00  0.00     0.039 C 
ATOM     18  C   UNL     1       2.286  -5.716  -0.518  1.00  0.00     0.158 C 
ATOM     19  C   UNL     1       1.696  -4.664  -2.897  1.00  0.00     0.138 C 
ATOM     20  S   UNL     1       2.425  -6.141  -2.235  1.00  0.00     0.151 S 
ATOM     21  O   UNL     1       1.558  -7.263  -2.511  1.00  0.00    -0.229 OA
ATOM     22  O   UNL     1       3.835  -6.142  -2.562  1.00  0.00    -0.229 OA
ENDBRANCH  13  16
ENDBRANCH  11  13
ENDBRANCH   9  11
ENDBRANCH   3   5
ENDBRANCH   2   3
ENDBRANCH   1   2
BRANCH   1  23
ATOM     23  C   UNL     1       5.517  -2.537  -0.798  1.00  0.00     0.275 C 
BRANCH  23  24
ATOM     24  O   UNL     1       5.820  -1.282  -1.419  1.00  0.00    -0.458 OA
BRANCH  24  25
ATOM     25  C   UNL     1       4.864  -0.794  -2.248  1.00  0.00     0.338 C 
ATOM     26  O   UNL     1       3.917  -1.374  -2.734  1.00  0.00    -0.246 OA
BRANCH  25  27
ATOM     27  C   UNL     1       4.973   0.662  -2.158  1.00  0.00     0.060 A 
ATOM     28  C   UNL     1       4.000   1.319  -1.398  1.00  0.00     0.016 A 
ATOM     29  C   UNL     1       6.036   1.347  -2.736  1.00  0.00     0.016 A 
ATOM     30  C   UNL     1       4.092   2.686  -1.192  1.00  0.00     0.010 A 
ATOM     31  C   UNL     1       6.130   2.719  -2.526  1.00  0.00     0.010 A 
ATOM     32  C   UNL     1       5.161   3.390  -1.755  1.00  0.00    -0.014 A 
BRANCH  32  33
ATOM     33  C   UNL     1       5.254   4.853  -1.590  1.00  0.00     0.031 A 
ATOM     34  C   UNL     1       5.016   5.722  -2.785  1.00  0.00     0.074 A 
ATOM     35  C   UNL     1       5.605   5.367  -0.398  1.00  0.00     0.049 A 
ATOM     36  N   UNL     1       5.239   6.997  -2.934  1.00  0.00    -0.248 NA
ATOM     37  C   UNL     1       4.473   5.057  -3.983  1.00  0.00     0.031 C 
ATOM     38  C   UNL     1       5.839   4.589   0.821  1.00  0.00     0.029 A 
ATOM     39  N   UNL     1       5.862   6.659  -0.025  1.00  0.00    -0.354 N 
ATOM     40  C   UNL     1       4.931   7.278  -4.259  1.00  0.00     0.074 A 
ATOM     41  C   UNL     1       4.492   6.043  -4.868  1.00  0.00     0.031 C 
ATOM     42  C   UNL     1       6.231   5.418   1.802  1.00  0.00     0.029 A 
ATOM     43  C   UNL     1       6.331   6.770   1.264  1.00  0.00     0.049 A 
ATOM     44  H   UNL     1       5.726   7.431  -0.620  1.00  0.00     0.167 HD
ATOM     45  C   UNL     1       5.013   8.465  -4.902  1.00  0.00     0.034 A 
ATOM     46  C   UNL     1       6.830   7.839   1.915  1.00  0.00     0.034 A 
ATOM     47  C   UNL     1       5.422   9.682  -4.257  1.00  0.00     0.049 A 
ATOM     48  C   UNL     1       6.898   9.149   1.179  1.00  0.00     0.074 A 
ATOM     49  C   UNL     1       5.508  10.954  -4.790  1.00  0.00     0.029 A 
ATOM     50  N   UNL     1       5.818   9.774  -2.930  1.00  0.00    -0.354 N 
ATOM     51  N   UNL     1       6.542   9.419  -0.055  1.00  0.00    -0.248 NA
ATOM     52  C   UNL     1       7.417  10.303   1.923  1.00  0.00     0.031 C 
ATOM     53  C   UNL     1       5.973  11.812  -3.787  1.00  0.00     0.029 A 
ATOM     54  C   UNL     1       6.150  11.079  -2.623  1.00  0.00     0.049 A 
ATOM     55  H   UNL     1       5.855   9.019  -2.299  1.00  0.00     0.167 HD
ATOM     56  C   UNL     1       6.769  10.778  -0.229  1.00  0.00     0.074 A 
ATOM     57  C   UNL     1       7.270  11.279   1.037  1.00  0.00     0.031 C 
ATOM     58  C   UNL     1       6.600  11.544  -1.335  1.00  0.00     0.034 A 
BRANCH  45  59
ATOM     59  C   UNL     1       4.650   8.495  -6.362  1.00  0.00     0.023 A 
ATOM     60  C   UNL     1       3.303   8.361  -6.756  1.00  0.00     0.012 A 
ATOM     61  C   UNL     1       5.642   8.679  -7.346  1.00  0.00     0.148 A 
ATOM     62  C   UNL     1       2.953   8.372  -8.106  1.00  0.00     0.002 A 
ATOM     63  C   UNL     1       5.280   8.733  -8.687  1.00  0.00     0.091 A 
ATOM     64  F   UNL     1       6.920   8.778  -6.954  1.00  0.00    -0.205 F 
ATOM     65  C   UNL     1       3.939   8.568  -9.069  1.00  0.00     0.022 A 
BRANCH  63  66
ATOM     66  S   UNL     1       6.465   9.043 -10.000  1.00  0.00     0.127 S 
ATOM     67  O   UNL     1       6.492   7.749 -10.681  1.00  0.00    -0.237 OA
ATOM     68  O   UNL     1       5.813  10.115 -10.753  1.00  0.00    -0.237 OA
ATOM     69  O   UNL     1       7.705   9.427  -9.341  1.00  0.00    -0.744 OA
ENDBRANCH  63  66
ENDBRANCH  45  59
BRANCH  46  70
ATOM     70  C   UNL     1       7.282   7.710   3.330  1.00  0.00     0.023 A 
ATOM     71  C   UNL     1       6.556   8.351   4.351  1.00  0.00     0.012 A 
ATOM     72  C   UNL     1       8.396   6.919   3.676  1.00  0.00     0.148 A 
ATOM     73  C   UNL     1       6.943   8.227   5.687  1.00  0.00     0.002 A 
ATOM     74  C   UNL     1       8.739   6.749   5.013  1.00  0.00     0.091 A 
ATOM     75  F   UNL     1       9.088   6.330   2.691  1.00  0.00    -0.205 F 
ATOM     76  C   UNL     1       8.025   7.417   6.019  1.00  0.00     0.022 A 
BRANCH  74  77
ATOM     77  S   UNL     1      10.018   5.599   5.535  1.00  0.00     0.127 S 
ATOM     78  O   UNL     1      11.094   6.505   5.926  1.00  0.00    -0.237 OA
ATOM     79  O   UNL     1       9.363   4.900   6.642  1.00  0.00    -0.237 OA
ATOM     80  O   UNL     1      10.280   4.758   4.374  1.00  0.00    -0.744 OA
ENDBRANCH  74  77
ENDBRANCH  46  70
BRANCH  58  81
ATOM     81  C   UNL     1       6.922  13.008  -1.211  1.00  0.00     0.023 A 
ATOM     82  C   UNL     1       8.265  13.428  -1.162  1.00  0.00     0.012 A 
ATOM     83  C   UNL     1       5.891  13.966  -1.222  1.00  0.00     0.148 A 
ATOM     84  C   UNL     1       8.577  14.785  -1.097  1.00  0.00     0.002 A 
ATOM     85  C   UNL     1       6.211  15.317  -1.209  1.00  0.00     0.091 A 
ATOM     86  F   UNL     1       4.621  13.538  -1.248  1.00  0.00    -0.205 F 
ATOM     87  C   UNL     1       7.552  15.728  -1.133  1.00  0.00     0.022 A 
BRANCH  85  88
ATOM     88  S   UNL     1       4.960  16.597  -1.355  1.00  0.00     0.127 S 
ATOM     89  O   UNL     1       4.924  17.133   0.004  1.00  0.00    -0.237 OA
ATOM     90  O   UNL     1       5.549  17.492  -2.351  1.00  0.00    -0.237 OA
ATOM     91  O   UNL     1       3.746  15.921  -1.794  1.00  0.00    -0.744 OA
ENDBRANCH  85  88
ENDBRANCH  58  81
ENDBRANCH  32  33
ENDBRANCH  25  27
ENDBRANCH  24  25
ENDBRANCH  23  24
ENDBRANCH   1  23
TORSDOF 17
