REMARK SMILES CCc1cccc(CC)c1N1/C(=[NH+]/C(=O)CCC(=O)OCCOC(=O)c2ccc(-c3c4nc(c(-c5cccc(S(=O)(=O)[O-])c5F)c5ccc([nH]5)c(-c5cccc(S(=O)(=O)[O-])c5F)c5nc(c(-c6cccc(S(=O)(=O)[O-])c6F)c6ccc3[nH]6)C=C5)C=C4)cc2)S[C@@H]2CS(=O)(=O)C[C@H]21
REMARK SMILES IDX 21 1 20 2 18 3 19 4 17 5 16 6 14 7 11 8 12 9 96 10 13 11
REMARK SMILES IDX 89 12 90 13 95 14 91 16 92 17 15 18 93 19 94 20 10 21 3 22
REMARK SMILES IDX 4 23 5 24 7 25 6 26 2 27 1 28 8 29 9 30 22 31 23 32 24 33
REMARK SMILES IDX 25 34 26 35 27 36 88 37 28 38 87 39 29 40 30 41 31 42 81 43
REMARK SMILES IDX 32 44 86 45 80 46 82 47 33 48 85 49 79 50 78 51 34 53 66 54
REMARK SMILES IDX 46 55 65 56 47 57 50 58 64 59 83 60 48 61 49 62 63 64 84 65
REMARK SMILES IDX 51 66 35 67 36 68 44 69 37 70 39 71 45 72 38 73 40 74 41 75
REMARK SMILES IDX 42 76 43 77 67 78 68 79 76 80 69 81 71 82 77 83 70 84 72 85
REMARK SMILES IDX 73 86 74 87 75 88 52 89 53 90 61 91 54 92 56 93 62 94 55 95
REMARK SMILES IDX 57 96 58 97 59 98 60 99
REMARK H PARENT 13 15 82 52 50 63
REMARK Flexibility Score: inf
ROOT
ATOM      1  C   UNL     1       2.035   0.321   2.598  1.00  0.00     0.274 C 
ENDROOT
BRANCH   1   2
ATOM      2  O   UNL     1       0.704   0.166   3.115  1.00  0.00    -0.462 OA
BRANCH   2   3
ATOM      3  C   UNL     1       0.124  -1.039   2.941  1.00  0.00     0.306 C 
ATOM      4  O   UNL     1       0.648  -1.982   2.360  1.00  0.00    -0.252 OA
BRANCH   3   5
ATOM      5  C   UNL     1      -1.280  -1.099   3.499  1.00  0.00     0.135 C 
BRANCH   5   6
ATOM      6  C   UNL     1      -1.693   0.057   4.400  1.00  0.00     0.139 C 
BRANCH   6   7
ATOM      7  C   UNL     1      -2.428   1.175   3.688  1.00  0.00     0.308 C 
ATOM      8  N   UNL     1      -1.673   3.221   0.742  1.00  0.00    -0.216 N 
ATOM      9  C   UNL     1      -2.280   2.435   1.731  1.00  0.00     0.319 C 
ATOM     10  C   UNL     1      -2.553   3.514  -0.388  1.00  0.00     0.212 C 
ATOM     11  N   UNL     1      -1.706   1.829   2.717  1.00  0.00    -0.204 N 
ATOM     12  S   UNL     1      -4.048   2.362   1.369  1.00  0.00    -0.029 SA
ATOM     13  C   UNL     1      -3.909   3.777   0.265  1.00  0.00     0.120 C 
ATOM     14  C   UNL     1      -2.316   4.719  -1.266  1.00  0.00     0.188 C 
ATOM     15  H   UNL     1      -0.724   1.837   2.776  1.00  0.00     0.316 HD
ATOM     16  C   UNL     1      -4.885   3.955  -0.869  1.00  0.00     0.156 C 
ATOM     17  S   UNL     1      -3.928   4.946  -2.028  1.00  0.00     0.155 S 
ATOM     18  O   UNL     1      -3.542   1.504   4.093  1.00  0.00    -0.247 OA
ATOM     19  O   UNL     1      -4.312   6.333  -1.880  1.00  0.00    -0.229 OA
ATOM     20  O   UNL     1      -3.930   4.276  -3.311  1.00  0.00    -0.229 OA
BRANCH   8  21
ATOM     21  C   UNL     1      -0.288   3.406   0.573  1.00  0.00     0.134 A 
ATOM     22  C   UNL     1       0.519   2.383  -0.005  1.00  0.00    -0.001 A 
ATOM     23  C   UNL     1       1.886   2.637  -0.222  1.00  0.00     0.008 A 
ATOM     24  C   UNL     1       2.458   3.859   0.115  1.00  0.00     0.001 A 
ATOM     25  C   UNL     1       0.303   4.660   0.908  1.00  0.00    -0.001 A 
ATOM     26  C   UNL     1       1.674   4.862   0.668  1.00  0.00     0.008 A 
BRANCH  22  27
ATOM     27  C   UNL     1      -0.076   1.023  -0.338  1.00  0.00     0.036 C 
ATOM     28  C   UNL     1       0.771   0.051  -1.155  1.00  0.00     0.009 C 
ENDBRANCH  22  27
BRANCH  25  29
ATOM     29  C   UNL     1      -0.504   5.839   1.428  1.00  0.00     0.036 C 
ATOM     30  C   UNL     1       0.042   6.530   2.670  1.00  0.00     0.009 C 
ENDBRANCH  25  29
ENDBRANCH   8  21
ENDBRANCH   6   7
ENDBRANCH   5   6
ENDBRANCH   3   5
ENDBRANCH   2   3
ENDBRANCH   1   2
BRANCH   1  31
ATOM     31  C   UNL     1       2.571   1.680   3.055  1.00  0.00     0.275 C 
BRANCH  31  32
ATOM     32  O   UNL     1       3.099   1.533   4.380  1.00  0.00    -0.458 OA
BRANCH  32  33
ATOM     33  C   UNL     1       2.144   1.457   5.340  1.00  0.00     0.338 C 
ATOM     34  O   UNL     1       1.060   2.000   5.354  1.00  0.00    -0.246 OA
BRANCH  33  35
ATOM     35  C   UNL     1       2.542   0.353   6.231  1.00  0.00     0.060 A 
ATOM     36  C   UNL     1       1.594  -0.634   6.520  1.00  0.00     0.016 A 
ATOM     37  C   UNL     1       3.842   0.270   6.730  1.00  0.00     0.016 A 
ATOM     38  C   UNL     1       1.924  -1.683   7.366  1.00  0.00     0.010 A 
ATOM     39  C   UNL     1       4.177  -0.786   7.571  1.00  0.00     0.010 A 
ATOM     40  C   UNL     1       3.205  -1.736   7.925  1.00  0.00    -0.014 A 
BRANCH  40  41
ATOM     41  C   UNL     1       3.476  -2.687   9.018  1.00  0.00     0.031 A 
ATOM     42  C   UNL     1       3.525  -2.155  10.422  1.00  0.00     0.074 A 
ATOM     43  C   UNL     1       3.665  -3.989   8.749  1.00  0.00     0.049 A 
ATOM     44  N   UNL     1       3.803  -2.780  11.533  1.00  0.00    -0.248 NA
ATOM     45  C   UNL     1       3.234  -0.720  10.594  1.00  0.00     0.031 C 
ATOM     46  C   UNL     1       3.638  -4.589   7.415  1.00  0.00     0.029 A 
ATOM     47  N   UNL     1       3.942  -5.037   9.586  1.00  0.00    -0.354 N 
ATOM     48  C   UNL     1       3.751  -1.812  12.530  1.00  0.00     0.074 A 
ATOM     49  C   UNL     1       3.440  -0.554  11.891  1.00  0.00     0.031 C 
ATOM     50  C   UNL     1       3.921  -5.898   7.520  1.00  0.00     0.029 A 
ATOM     51  C   UNL     1       4.171  -6.218   8.922  1.00  0.00     0.049 A 
ATOM     52  H   UNL     1       3.974  -4.952  10.566  1.00  0.00     0.167 HD
ATOM     53  C   UNL     1       3.927  -1.968  13.862  1.00  0.00     0.034 A 
ATOM     54  C   UNL     1       4.566  -7.413   9.401  1.00  0.00     0.034 A 
ATOM     55  C   UNL     1       4.217  -3.234  14.477  1.00  0.00     0.049 A 
ATOM     56  C   UNL     1       4.745  -7.561  10.888  1.00  0.00     0.074 A 
ATOM     57  C   UNL     1       4.395  -3.522  15.816  1.00  0.00     0.029 A 
ATOM     58  N   UNL     1       4.372  -4.426  13.784  1.00  0.00    -0.354 N 
ATOM     59  N   UNL     1       4.607  -6.659  11.831  1.00  0.00    -0.248 NA
ATOM     60  C   UNL     1       5.093  -8.899  11.383  1.00  0.00     0.031 C 
ATOM     61  C   UNL     1       4.676  -4.889  15.931  1.00  0.00     0.029 A 
ATOM     62  C   UNL     1       4.643  -5.456  14.666  1.00  0.00     0.049 A 
ATOM     63  H   UNL     1       4.300  -4.525  12.807  1.00  0.00     0.167 HD
ATOM     64  C   UNL     1       4.827  -7.323  13.032  1.00  0.00     0.074 A 
ATOM     65  C   UNL     1       5.072  -8.712  12.695  1.00  0.00     0.031 C 
ATOM     66  C   UNL     1       4.846  -6.834  14.297  1.00  0.00     0.034 A 
BRANCH  53  67
ATOM     67  C   UNL     1       3.779  -0.748  14.732  1.00  0.00     0.023 A 
ATOM     68  C   UNL     1       2.501  -0.183  14.930  1.00  0.00     0.012 A 
ATOM     69  C   UNL     1       4.891  -0.178  15.381  1.00  0.00     0.148 A 
ATOM     70  C   UNL     1       2.337   0.947  15.731  1.00  0.00     0.002 A 
ATOM     71  C   UNL     1       4.714   0.921  16.214  1.00  0.00     0.091 A 
ATOM     72  F   UNL     1       6.101  -0.711  15.161  1.00  0.00    -0.205 F 
ATOM     73  C   UNL     1       3.441   1.492  16.380  1.00  0.00     0.022 A 
BRANCH  71  74
ATOM     74  S   UNL     1       6.057   1.657  17.153  1.00  0.00     0.127 S 
ATOM     75  O   UNL     1       6.182   2.967  16.515  1.00  0.00    -0.237 OA
ATOM     76  O   UNL     1       5.502   1.688  18.506  1.00  0.00    -0.237 OA
ATOM     77  O   UNL     1       7.201   0.772  16.983  1.00  0.00    -0.744 OA
ENDBRANCH  71  74
ENDBRANCH  53  67
BRANCH  54  78
ATOM     78  C   UNL     1       4.784  -8.554   8.469  1.00  0.00     0.023 A 
ATOM     79  C   UNL     1       3.908  -9.656   8.491  1.00  0.00     0.012 A 
ATOM     80  C   UNL     1       5.838  -8.535   7.534  1.00  0.00     0.148 A 
ATOM     81  C   UNL     1       4.097 -10.732   7.623  1.00  0.00     0.002 A 
ATOM     82  C   UNL     1       5.985  -9.582   6.632  1.00  0.00     0.091 A 
ATOM     83  F   UNL     1       6.673  -7.486   7.538  1.00  0.00    -0.205 F 
ATOM     84  C   UNL     1       5.127 -10.691   6.686  1.00  0.00     0.022 A 
BRANCH  82  85
ATOM     85  S   UNL     1       7.196  -9.542   5.306  1.00  0.00     0.127 S 
ATOM     86  O   UNL     1       8.191 -10.501   5.779  1.00  0.00    -0.237 OA
ATOM     87  O   UNL     1       6.406  -9.989   4.158  1.00  0.00    -0.237 OA
ATOM     88  O   UNL     1       7.638  -8.156   5.223  1.00  0.00    -0.744 OA
ENDBRANCH  82  85
ENDBRANCH  54  78
BRANCH  66  89
ATOM     89  C   UNL     1       5.119  -7.816  15.405  1.00  0.00     0.023 A 
ATOM     90  C   UNL     1       6.413  -8.351  15.563  1.00  0.00     0.012 A 
ATOM     91  C   UNL     1       4.105  -8.173  16.315  1.00  0.00     0.148 A 
ATOM     92  C   UNL     1       6.681  -9.264  16.581  1.00  0.00     0.002 A 
ATOM     93  C   UNL     1       4.393  -9.042  17.359  1.00  0.00     0.091 A 
ATOM     94  F   UNL     1       2.876  -7.666  16.137  1.00  0.00    -0.205 F 
ATOM     95  C   UNL     1       5.675  -9.601  17.484  1.00  0.00     0.022 A 
BRANCH  93  96
ATOM     96  S   UNL     1       3.186  -9.453  18.623  1.00  0.00     0.127 S 
ATOM     97  O   UNL     1       2.798 -10.808  18.235  1.00  0.00    -0.237 OA
ATOM     98  O   UNL     1       3.980  -9.373  19.850  1.00  0.00    -0.237 OA
ATOM     99  O   UNL     1       2.140  -8.445  18.517  1.00  0.00    -0.744 OA
ENDBRANCH  93  96
ENDBRANCH  66  89
ENDBRANCH  40  41
ENDBRANCH  33  35
ENDBRANCH  32  33
ENDBRANCH  31  32
ENDBRANCH   1  31
TORSDOF 19
