REMARK SMILES CC(C)CN(CC(N)=O)C(=O)N1CC[C@H](C(=O)OCCOC(=O)c2ccc(-c3c4nc(c(-c5cccc(S(=O)(=O)[O-])c5F)c5ccc([nH]5)c(-c5cccc(S(=O)(=O)[O-])c5F)c5nc(c(-c6cccc(S(=O)(=O)[O-])c6F)c6ccc3[nH]6)C=C5)C=C4)cc2)[C@@H]1C
REMARK SMILES IDX 19 1 18 2 16 3 17 4 15 5 12 6 13 7 87 8 14 9 88 10 10 11
REMARK SMILES IDX 11 12 5 13 4 14 2 15 1 16 3 17 6 18 7 19 8 20 9 21 20 24
REMARK SMILES IDX 21 25 22 26 23 27 24 28 25 29 86 30 26 31 85 32 27 33 28 34
REMARK SMILES IDX 29 35 79 36 30 37 84 38 78 39 80 40 31 41 83 42 77 43 76 44
REMARK SMILES IDX 32 46 64 47 44 48 63 49 45 50 48 51 62 52 81 53 46 54 47 55
REMARK SMILES IDX 61 57 82 58 49 59 33 60 34 61 42 62 35 63 37 64 43 65 36 66
REMARK SMILES IDX 38 67 39 68 40 69 41 70 65 71 66 72 74 73 67 74 69 75 75 76
REMARK SMILES IDX 68 77 70 78 71 79 72 80 73 81 50 82 51 83 59 84 52 85 54 86
REMARK SMILES IDX 60 87 53 88 55 89 56 90 57 91 58 92
REMARK H PARENT 8 22 8 23 80 45 48 56
REMARK Flexibility Score: inf
ROOT
ATOM      1  C   UNL     1      -5.143  -6.207   1.700  1.00  0.00     0.274 C 
ENDROOT
BRANCH   1   2
ATOM      2  O   UNL     1      -4.066  -5.281   1.930  1.00  0.00    -0.462 OA
BRANCH   2   3
ATOM      3  C   UNL     1      -4.277  -4.353   2.897  1.00  0.00     0.311 C 
ATOM      4  O   UNL     1      -5.283  -4.270   3.589  1.00  0.00    -0.252 OA
BRANCH   3   5
ATOM      5  C   UNL     1      -3.157  -3.351   2.989  1.00  0.00     0.123 C 
ATOM      6  N   UNL     1      -1.754  -1.996   1.710  1.00  0.00    -0.321 N 
ATOM      7  C   UNL     1      -0.984  -3.200   1.922  1.00  0.00     0.122 C 
ATOM      8  C   UNL     1      -3.170  -2.306   1.871  1.00  0.00     0.098 C 
ATOM      9  C   UNL     1      -1.727  -3.914   3.029  1.00  0.00     0.039 C 
ATOM     10  C   UNL     1      -3.803  -2.726   0.540  1.00  0.00     0.032 C 
BRANCH   6  11
ATOM     11  C   UNL     1      -1.311  -1.074   0.797  1.00  0.00     0.320 C 
ATOM     12  O   UNL     1      -0.767  -1.441  -0.243  1.00  0.00    -0.248 OA
BRANCH  11  13
ATOM     13  N   UNL     1      -1.429   0.254   1.163  1.00  0.00    -0.315 N 
BRANCH  13  14
ATOM     14  C   UNL     1      -0.921   1.264   0.239  1.00  0.00     0.125 C 
BRANCH  14  15
ATOM     15  C   UNL     1       0.577   1.582   0.454  1.00  0.00     0.002 C 
ATOM     16  C   UNL     1       1.503   0.424   0.066  1.00  0.00     0.009 C 
ATOM     17  C   UNL     1       0.959   2.819  -0.359  1.00  0.00     0.009 C 
ENDBRANCH  14  15
ENDBRANCH  13  14
BRANCH  13  18
ATOM     18  C   UNL     1      -1.944   0.721   2.456  1.00  0.00     0.221 C 
BRANCH  18  19
ATOM     19  C   UNL     1      -3.452   1.012   2.427  1.00  0.00     0.237 C 
ATOM     20  N   UNL     1      -4.133   0.697   3.573  1.00  0.00    -0.368 N 
ATOM     21  O   UNL     1      -4.045   1.509   1.474  1.00  0.00    -0.273 OA
ATOM     22  H   UNL     1      -3.655   0.299   4.336  1.00  0.00     0.159 HD
ATOM     23  H   UNL     1      -5.100   0.870   3.634  1.00  0.00     0.159 HD
ENDBRANCH  18  19
ENDBRANCH  13  18
ENDBRANCH  11  13
ENDBRANCH   6  11
ENDBRANCH   3   5
ENDBRANCH   2   3
ENDBRANCH   1   2
BRANCH   1  24
ATOM     24  C   UNL     1      -4.845  -7.572   2.317  1.00  0.00     0.275 C 
BRANCH  24  25
ATOM     25  O   UNL     1      -4.711  -7.479   3.744  1.00  0.00    -0.458 OA
BRANCH  25  26
ATOM     26  C   UNL     1      -3.447  -7.269   4.181  1.00  0.00     0.338 C 
ATOM     27  O   UNL     1      -2.431  -7.227   3.510  1.00  0.00    -0.246 OA
BRANCH  26  28
ATOM     28  C   UNL     1      -3.467  -6.956   5.616  1.00  0.00     0.060 A 
ATOM     29  C   UNL     1      -2.952  -5.726   6.039  1.00  0.00     0.016 A 
ATOM     30  C   UNL     1      -3.903  -7.901   6.542  1.00  0.00     0.016 A 
ATOM     31  C   UNL     1      -2.845  -5.440   7.396  1.00  0.00     0.010 A 
ATOM     32  C   UNL     1      -3.794  -7.616   7.902  1.00  0.00     0.010 A 
ATOM     33  C   UNL     1      -3.244  -6.395   8.334  1.00  0.00    -0.014 A 
BRANCH  33  34
ATOM     34  C   UNL     1      -2.998  -6.172   9.775  1.00  0.00     0.031 A 
ATOM     35  C   UNL     1      -1.881  -6.922  10.442  1.00  0.00     0.074 A 
ATOM     36  C   UNL     1      -3.784  -5.335  10.473  1.00  0.00     0.049 A 
ATOM     37  N   UNL     1      -1.588  -7.008  11.711  1.00  0.00    -0.248 NA
ATOM     38  C   UNL     1      -0.976  -7.681   9.560  1.00  0.00     0.031 C 
ATOM     39  C   UNL     1      -4.873  -4.532   9.914  1.00  0.00     0.029 A 
ATOM     40  N   UNL     1      -3.809  -5.049  11.814  1.00  0.00    -0.354 N 
ATOM     41  C   UNL     1      -0.492  -7.860  11.788  1.00  0.00     0.074 A 
ATOM     42  C   UNL     1      -0.171  -8.265  10.437  1.00  0.00     0.031 C 
ATOM     43  C   UNL     1      -5.484  -3.872  10.912  1.00  0.00     0.029 A 
ATOM     44  C   UNL     1      -4.859  -4.238  12.179  1.00  0.00     0.049 A 
ATOM     45  H   UNL     1      -3.142  -5.391  12.453  1.00  0.00     0.167 HD
ATOM     46  C   UNL     1       0.189  -8.257  12.887  1.00  0.00     0.034 A 
ATOM     47  C   UNL     1      -5.285  -3.870  13.403  1.00  0.00     0.034 A 
ATOM     48  C   UNL     1      -0.128  -7.829  14.222  1.00  0.00     0.049 A 
ATOM     49  C   UNL     1      -4.530  -4.362  14.612  1.00  0.00     0.074 A 
ATOM     50  C   UNL     1       0.498  -8.171  15.407  1.00  0.00     0.029 A 
ATOM     51  N   UNL     1      -1.157  -6.960  14.547  1.00  0.00    -0.354 N 
ATOM     52  N   UNL     1      -3.458  -5.115  14.666  1.00  0.00    -0.248 NA
ATOM     53  C   UNL     1      -5.028  -3.932  15.926  1.00  0.00     0.031 C 
ATOM     54  C   UNL     1      -0.160  -7.514  16.451  1.00  0.00     0.029 A 
ATOM     55  C   UNL     1      -1.181  -6.746  15.913  1.00  0.00     0.049 A 
ATOM     56  H   UNL     1      -1.780  -6.554  13.901  1.00  0.00     0.167 HD
ATOM     57  C   UNL     1      -3.126  -5.209  16.013  1.00  0.00     0.074 A 
ATOM     58  C   UNL     1      -4.104  -4.424  16.739  1.00  0.00     0.031 C 
ATOM     59  C   UNL     1      -2.116  -5.895  16.602  1.00  0.00     0.034 A 
BRANCH  46  60
ATOM     60  C   UNL     1       1.364  -9.176  12.692  1.00  0.00     0.023 A 
ATOM     61  C   UNL     1       2.567  -8.661  12.170  1.00  0.00     0.012 A 
ATOM     62  C   UNL     1       1.302 -10.527  13.086  1.00  0.00     0.148 A 
ATOM     63  C   UNL     1       3.685  -9.480  12.023  1.00  0.00     0.002 A 
ATOM     64  C   UNL     1       2.433 -11.328  12.973  1.00  0.00     0.091 A 
ATOM     65  F   UNL     1       0.141 -11.002  13.560  1.00  0.00    -0.205 F 
ATOM     66  C   UNL     1       3.621 -10.809  12.434  1.00  0.00     0.022 A 
BRANCH  64  67
ATOM     67  S   UNL     1       2.477 -13.033  13.538  1.00  0.00     0.127 S 
ATOM     68  O   UNL     1       2.610 -13.758  12.275  1.00  0.00    -0.237 OA
ATOM     69  O   UNL     1       3.674 -13.046  14.378  1.00  0.00    -0.237 OA
ATOM     70  O   UNL     1       1.227 -13.254  14.252  1.00  0.00    -0.744 OA
ENDBRANCH  64  67
ENDBRANCH  46  60
BRANCH  47  71
ATOM     71  C   UNL     1      -6.467  -2.976  13.556  1.00  0.00     0.023 A 
ATOM     72  C   UNL     1      -6.287  -1.674  14.060  1.00  0.00     0.012 A 
ATOM     73  C   UNL     1      -7.765  -3.405  13.215  1.00  0.00     0.148 A 
ATOM     74  C   UNL     1      -7.380  -0.830  14.261  1.00  0.00     0.002 A 
ATOM     75  C   UNL     1      -8.843  -2.540  13.366  1.00  0.00     0.091 A 
ATOM     76  F   UNL     1      -7.924  -4.655  12.757  1.00  0.00    -0.205 F 
ATOM     77  C   UNL     1      -8.656  -1.259  13.906  1.00  0.00     0.022 A 
BRANCH  75  78
ATOM     78  S   UNL     1     -10.496  -2.972  12.811  1.00  0.00     0.127 S 
ATOM     79  O   UNL     1     -11.155  -3.312  14.069  1.00  0.00    -0.237 OA
ATOM     80  O   UNL     1     -10.950  -1.724  12.195  1.00  0.00    -0.237 OA
ATOM     81  O   UNL     1     -10.311  -4.067  11.868  1.00  0.00    -0.744 OA
ENDBRANCH  75  78
ENDBRANCH  47  71
BRANCH  59  82
ATOM     82  C   UNL     1      -1.966  -5.776  18.095  1.00  0.00     0.023 A 
ATOM     83  C   UNL     1      -2.863  -6.448  18.947  1.00  0.00     0.012 A 
ATOM     84  C   UNL     1      -0.880  -5.068  18.647  1.00  0.00     0.148 A 
ATOM     85  C   UNL     1      -2.698  -6.394  20.330  1.00  0.00     0.002 A 
ATOM     86  C   UNL     1      -0.694  -5.059  20.023  1.00  0.00     0.091 A 
ATOM     87  F   UNL     1      -0.050  -4.420  17.817  1.00  0.00    -0.205 F 
ATOM     88  C   UNL     1      -1.608  -5.712  20.867  1.00  0.00     0.022 A 
BRANCH  86  89
ATOM     89  S   UNL     1       0.733  -4.289  20.794  1.00  0.00     0.127 S 
ATOM     90  O   UNL     1       0.139  -3.098  21.398  1.00  0.00    -0.237 OA
ATOM     91  O   UNL     1       1.159  -5.311  21.751  1.00  0.00    -0.237 OA
ATOM     92  O   UNL     1       1.683  -4.037  19.718  1.00  0.00    -0.744 OA
ENDBRANCH  86  89
ENDBRANCH  59  82
ENDBRANCH  33  34
ENDBRANCH  26  28
ENDBRANCH  25  26
ENDBRANCH  24  25
ENDBRANCH   1  24
TORSDOF 20
