REMARK SMILES Cc1nn(CC(=O)OCCOC(=O)c2ccc(-c3c4nc(c(-c5cccc(S(=O)(=O)[O-])c5F)c5ccc([nH]5)c(-c5cccc(S(=O)(=O)[O-])c5F)c5nc(c(-c6cccc(S(=O)(=O)[O-])c6F)c6ccc3[nH]6)C=C5)C=C4)cc2)c(C)c1NS(=O)(=O)c1cccc2cccnc12
REMARK SMILES IDX 9 1 8 2 6 3 7 4 5 5 4 6 1 7 2 8 3 9 79 10 77 11 78 12 80 13
REMARK SMILES IDX 81 15 82 16 83 17 84 18 85 19 93 20 86 21 88 22 92 23 87 24
REMARK SMILES IDX 89 25 91 26 90 27 10 28 11 29 12 30 13 31 14 32 15 33 76 34
REMARK SMILES IDX 16 35 75 36 17 37 18 38 19 39 69 40 20 41 74 42 68 43 70 44
REMARK SMILES IDX 21 45 73 46 67 47 66 48 22 50 54 51 34 52 53 53 35 54 38 55
REMARK SMILES IDX 52 56 71 57 36 58 37 59 51 61 72 62 39 63 23 64 24 65 32 66
REMARK SMILES IDX 25 67 27 68 33 69 26 70 28 71 29 72 30 73 31 74 55 75 56 76
REMARK SMILES IDX 64 77 57 78 59 79 65 80 58 81 60 82 61 83 62 84 63 85 40 86
REMARK SMILES IDX 41 87 49 88 42 89 44 90 50 91 43 92 45 93 46 94 47 95 48 96
REMARK H PARENT 80 14 70 49 38 60
REMARK Flexibility Score: inf
ROOT
ATOM      1  C   UNL     1      -1.674  -6.511  -2.136  1.00  0.00     0.274 C 
ENDROOT
BRANCH   1   2
ATOM      2  O   UNL     1      -1.310  -5.673  -1.025  1.00  0.00    -0.461 OA
BRANCH   2   3
ATOM      3  C   UNL     1      -0.434  -6.177  -0.125  1.00  0.00     0.327 C 
ATOM      4  O   UNL     1      -0.168  -7.373  -0.026  1.00  0.00    -0.250 OA
BRANCH   3   5
ATOM      5  C   UNL     1       0.250  -5.154   0.728  1.00  0.00     0.267 C 
BRANCH   5   6
ATOM      6  N   UNL     1      -0.185  -3.761   0.663  1.00  0.00    -0.256 N 
ATOM      7  C   UNL     1       0.864  -0.405   0.944  1.00  0.00     0.071 C 
ATOM      8  C   UNL     1       0.172  -1.711   1.076  1.00  0.00     0.084 A 
ATOM      9  N   UNL     1       0.781  -2.817   0.641  1.00  0.00    -0.175 NA
ATOM     10  C   UNL     1      -1.114  -2.015   1.607  1.00  0.00     0.093 A 
ATOM     11  C   UNL     1      -1.410  -3.232   1.024  1.00  0.00     0.060 A 
ATOM     12  C   UNL     1      -2.695  -3.915   0.752  1.00  0.00     0.069 C 
BRANCH  10  13
ATOM     13  N   UNL     1      -1.854  -1.188   2.466  1.00  0.00    -0.276 N 
ATOM     14  H   UNL     1      -1.650  -0.226   2.431  1.00  0.00     0.180 HD
BRANCH  13  15
ATOM     15  S   UNL     1      -3.067  -1.667   3.564  1.00  0.00     0.264 S 
ATOM     16  O   UNL     1      -2.833  -0.863   4.752  1.00  0.00    -0.201 OA
ATOM     17  O   UNL     1      -4.308  -1.565   2.828  1.00  0.00    -0.201 OA
BRANCH  15  18
ATOM     18  C   UNL     1      -2.747  -3.355   4.029  1.00  0.00     0.114 A 
ATOM     19  C   UNL     1      -1.420  -3.788   4.163  1.00  0.00     0.024 A 
ATOM     20  C   UNL     1      -3.815  -4.256   4.028  1.00  0.00     0.091 A 
ATOM     21  C   UNL     1      -1.133  -5.144   4.060  1.00  0.00     0.002 A 
ATOM     22  C   UNL     1      -3.494  -5.609   3.780  1.00  0.00     0.002 A 
ATOM     23  N   UNL     1      -5.098  -3.895   4.258  1.00  0.00    -0.255 NA
ATOM     24  C   UNL     1      -2.158  -6.038   3.767  1.00  0.00     0.010 A 
ATOM     25  C   UNL     1      -4.538  -6.515   3.549  1.00  0.00     0.012 A 
ATOM     26  C   UNL     1      -6.071  -4.827   4.174  1.00  0.00     0.112 A 
ATOM     27  C   UNL     1      -5.851  -6.124   3.765  1.00  0.00     0.021 A 
ENDBRANCH  15  18
ENDBRANCH  13  15
ENDBRANCH  10  13
ENDBRANCH   5   6
ENDBRANCH   3   5
ENDBRANCH   2   3
ENDBRANCH   1   2
BRANCH   1  28
ATOM     28  C   UNL     1      -0.849  -6.133  -3.361  1.00  0.00     0.275 C 
BRANCH  28  29
ATOM     29  O   UNL     1       0.538  -6.374  -3.123  1.00  0.00    -0.458 OA
BRANCH  29  30
ATOM     30  C   UNL     1       1.175  -5.314  -2.576  1.00  0.00     0.338 C 
ATOM     31  O   UNL     1       0.663  -4.297  -2.145  1.00  0.00    -0.246 OA
BRANCH  30  32
ATOM     32  C   UNL     1       2.619  -5.485  -2.646  1.00  0.00     0.060 A 
ATOM     33  C   UNL     1       3.403  -4.688  -1.800  1.00  0.00     0.016 A 
ATOM     34  C   UNL     1       3.135  -6.139  -3.766  1.00  0.00     0.016 A 
ATOM     35  C   UNL     1       4.689  -4.396  -2.186  1.00  0.00     0.010 A 
ATOM     36  C   UNL     1       4.403  -5.814  -4.170  1.00  0.00     0.010 A 
ATOM     37  C   UNL     1       5.128  -4.890  -3.413  1.00  0.00    -0.014 A 
BRANCH  37  38
ATOM     38  C   UNL     1       6.379  -4.400  -3.940  1.00  0.00     0.031 A 
ATOM     39  C   UNL     1       7.570  -5.111  -3.436  1.00  0.00     0.074 A 
ATOM     40  C   UNL     1       6.382  -3.506  -4.947  1.00  0.00     0.049 A 
ATOM     41  N   UNL     1       8.577  -4.613  -2.800  1.00  0.00    -0.248 NA
ATOM     42  C   UNL     1       7.579  -6.579  -3.531  1.00  0.00     0.031 C 
ATOM     43  C   UNL     1       5.220  -3.017  -5.699  1.00  0.00     0.029 A 
ATOM     44  N   UNL     1       7.439  -3.010  -5.646  1.00  0.00    -0.354 N 
ATOM     45  C   UNL     1       9.452  -5.680  -2.624  1.00  0.00     0.074 A 
ATOM     46  C   UNL     1       8.706  -6.880  -2.890  1.00  0.00     0.031 C 
ATOM     47  C   UNL     1       5.642  -2.550  -6.893  1.00  0.00     0.029 A 
ATOM     48  C   UNL     1       7.092  -2.617  -6.934  1.00  0.00     0.049 A 
ATOM     49  H   UNL     1       8.350  -2.937  -5.279  1.00  0.00     0.167 HD
ATOM     50  C   UNL     1      10.795  -5.493  -2.551  1.00  0.00     0.034 A 
ATOM     51  C   UNL     1       7.936  -2.501  -7.988  1.00  0.00     0.034 A 
ATOM     52  C   UNL     1      11.140  -4.121  -2.297  1.00  0.00     0.049 A 
ATOM     53  C   UNL     1       9.317  -2.420  -7.452  1.00  0.00     0.074 A 
ATOM     54  C   UNL     1      10.822  -3.202  -1.317  1.00  0.00     0.029 A 
ATOM     55  N   UNL     1      11.647  -3.396  -3.349  1.00  0.00    -0.354 N 
ATOM     56  N   UNL     1       9.769  -1.413  -6.758  1.00  0.00    -0.248 NA
ATOM     57  C   UNL     1      10.081  -3.652  -7.329  1.00  0.00     0.031 C 
ATOM     58  C   UNL     1      10.719  -1.956  -1.999  1.00  0.00     0.029 A 
ATOM     59  C   UNL     1      11.019  -2.180  -3.345  1.00  0.00     0.049 A 
ATOM     60  H   UNL     1      12.334  -3.696  -3.987  1.00  0.00     0.167 HD
ATOM     61  C   UNL     1      10.570  -1.994  -5.783  1.00  0.00     0.074 A 
ATOM     62  C   UNL     1      10.826  -3.350  -6.263  1.00  0.00     0.031 C 
ATOM     63  C   UNL     1      10.695  -1.434  -4.542  1.00  0.00     0.034 A 
BRANCH  50  64
ATOM     64  C   UNL     1      11.805  -6.482  -3.068  1.00  0.00     0.023 A 
ATOM     65  C   UNL     1      13.150  -6.295  -2.691  1.00  0.00     0.012 A 
ATOM     66  C   UNL     1      11.547  -7.415  -4.100  1.00  0.00     0.148 A 
ATOM     67  C   UNL     1      14.188  -6.979  -3.330  1.00  0.00     0.002 A 
ATOM     68  C   UNL     1      12.572  -8.163  -4.662  1.00  0.00     0.091 A 
ATOM     69  F   UNL     1      10.331  -7.489  -4.653  1.00  0.00    -0.205 F 
ATOM     70  C   UNL     1      13.899  -7.927  -4.305  1.00  0.00     0.022 A 
BRANCH  68  71
ATOM     71  S   UNL     1      12.221  -9.450  -5.865  1.00  0.00     0.127 S 
ATOM     72  O   UNL     1      12.503  -8.765  -7.121  1.00  0.00    -0.237 OA
ATOM     73  O   UNL     1      13.184 -10.487  -5.492  1.00  0.00    -0.237 OA
ATOM     74  O   UNL     1      10.831  -9.821  -5.625  1.00  0.00    -0.744 OA
ENDBRANCH  68  71
ENDBRANCH  50  64
BRANCH  51  75
ATOM     75  C   UNL     1       7.653  -2.738  -9.424  1.00  0.00     0.023 A 
ATOM     76  C   UNL     1       8.517  -2.201 -10.398  1.00  0.00     0.012 A 
ATOM     77  C   UNL     1       6.681  -3.675  -9.845  1.00  0.00     0.148 A 
ATOM     78  C   UNL     1       8.428  -2.597 -11.738  1.00  0.00     0.002 A 
ATOM     79  C   UNL     1       6.578  -4.045 -11.182  1.00  0.00     0.091 A 
ATOM     80  F   UNL     1       5.920  -4.284  -8.926  1.00  0.00    -0.205 F 
ATOM     81  C   UNL     1       7.459  -3.517 -12.132  1.00  0.00     0.022 A 
BRANCH  79  82
ATOM     82  S   UNL     1       5.338  -5.220 -11.745  1.00  0.00     0.127 S 
ATOM     83  O   UNL     1       4.884  -4.615 -12.998  1.00  0.00    -0.237 OA
ATOM     84  O   UNL     1       6.123  -6.440 -11.903  1.00  0.00    -0.237 OA
ATOM     85  O   UNL     1       4.322  -5.247 -10.699  1.00  0.00    -0.744 OA
ENDBRANCH  79  82
ENDBRANCH  51  75
BRANCH  63  86
ATOM     86  C   UNL     1      10.166  -0.036  -4.327  1.00  0.00     0.023 A 
ATOM     87  C   UNL     1       8.804   0.282  -4.513  1.00  0.00     0.012 A 
ATOM     88  C   UNL     1      11.010   0.924  -3.744  1.00  0.00     0.148 A 
ATOM     89  C   UNL     1       8.303   1.536  -4.156  1.00  0.00     0.002 A 
ATOM     90  C   UNL     1      10.497   2.153  -3.343  1.00  0.00     0.091 A 
ATOM     91  F   UNL     1      12.303   0.611  -3.561  1.00  0.00    -0.205 F 
ATOM     92  C   UNL     1       9.146   2.467  -3.558  1.00  0.00     0.022 A 
BRANCH  90  93
ATOM     93  S   UNL     1      11.504   3.334  -2.441  1.00  0.00     0.127 S 
ATOM     94  O   UNL     1      11.901   4.267  -3.493  1.00  0.00    -0.237 OA
ATOM     95  O   UNL     1      10.559   3.880  -1.464  1.00  0.00    -0.237 OA
ATOM     96  O   UNL     1      12.583   2.555  -1.845  1.00  0.00    -0.744 OA
ENDBRANCH  90  93
ENDBRANCH  63  86
ENDBRANCH  37  38
ENDBRANCH  30  32
ENDBRANCH  29  30
ENDBRANCH  28  29
ENDBRANCH   1  28
TORSDOF 18
