REMARK SMILES CCOc1cc(C[NH+]2CCC3(CC2)[C@H](C(=O)OCCOC(=O)c2ccc(-c4c5nc(c(-c6cccc(S(=O)(=O)[O-])c6F)c6ccc([nH]6)c(-c6cccc(S(=O)(=O)[O-])c6F)c6nc(c(-c7cccc(S(=O)(=O)[O-])c7F)c7ccc4[nH]7)C=C6)C=C5)cc2)CC(=O)N3C)ccc1OC
REMARK SMILES IDX 18 1 17 2 15 3 16 4 14 5 8 6 9 7 13 8 10 10 12 11 11 12
REMARK SMILES IDX 89 13 86 14 87 15 90 16 88 17 7 18 6 19 4 20 5 21 93 22
REMARK SMILES IDX 92 23 91 24 3 25 2 26 1 27 94 28 95 29 19 30 20 31 21 32
REMARK SMILES IDX 22 33 23 34 24 35 85 36 25 37 84 38 26 39 27 40 28 41 78 42
REMARK SMILES IDX 29 43 83 44 77 45 79 46 30 47 82 48 76 49 75 50 31 52 63 53
REMARK SMILES IDX 43 54 62 55 44 56 47 57 61 58 80 59 45 60 46 61 60 63 81 64
REMARK SMILES IDX 48 65 32 66 33 67 41 68 34 69 36 70 42 71 35 72 37 73 38 74
REMARK SMILES IDX 39 75 40 76 64 77 65 78 73 79 66 80 68 81 74 82 67 83 69 84
REMARK SMILES IDX 70 85 71 86 72 87 49 88 50 89 58 90 51 91 53 92 59 93 52 94
REMARK SMILES IDX 54 95 55 96 56 97 57 98
REMARK H PARENT 8 9 79 51 47 62
REMARK Flexibility Score: inf
ROOT
ATOM      1  C   UNL     1       4.308   4.337   1.105  1.00  0.00     0.274 C 
ENDROOT
BRANCH   1   2
ATOM      2  O   UNL     1       3.602   3.644   2.164  1.00  0.00    -0.462 OA
BRANCH   2   3
ATOM      3  C   UNL     1       2.363   4.154   2.457  1.00  0.00     0.311 C 
ATOM      4  O   UNL     1       1.955   5.214   1.993  1.00  0.00    -0.252 OA
BRANCH   3   5
ATOM      5  C   UNL     1       1.487   3.197   3.288  1.00  0.00     0.134 C 
ATOM      6  N   UNL     1       3.221   0.816   6.499  1.00  0.00    -0.331 N 
ATOM      7  C   UNL     1       3.843   2.110   6.245  1.00  0.00     0.265 C 
ATOM      8  C   UNL     1       1.770   0.871   6.443  1.00  0.00     0.265 C 
ATOM      9  H   UNL     1       3.458   0.651   7.477  1.00  0.00     0.348 HD
ATOM     10  C   UNL     1       3.321   2.911   5.045  1.00  0.00     0.091 C 
ATOM     11  C   UNL     1       1.168   1.550   5.208  1.00  0.00     0.091 C 
ATOM     12  C   UNL     1       1.803   2.906   4.788  1.00  0.00     0.067 C 
ATOM     13  N   UNL     1       1.033   3.980   5.436  1.00  0.00    -0.339 N 
ATOM     14  C   UNL     1       0.042   3.705   3.311  1.00  0.00     0.118 C 
ATOM     15  C   UNL     1      -0.042   4.401   4.640  1.00  0.00     0.223 C 
ATOM     16  C   UNL     1       0.930   4.142   6.869  1.00  0.00     0.147 C 
ATOM     17  O   UNL     1      -0.971   5.108   4.998  1.00  0.00    -0.275 OA
BRANCH   6  18
ATOM     18  C   UNL     1       3.863  -0.411   5.978  1.00  0.00     0.299 C 
BRANCH  18  19
ATOM     19  C   UNL     1       3.723  -0.614   4.486  1.00  0.00     0.010 A 
ATOM     20  C   UNL     1       2.121  -0.649   2.652  1.00  0.00     0.161 A 
ATOM     21  C   UNL     1       2.534  -1.110   3.914  1.00  0.00     0.060 A 
ATOM     22  C   UNL     1       2.935   0.250   1.979  1.00  0.00     0.160 A 
ATOM     23  C   UNL     1       4.244   0.438   2.435  1.00  0.00     0.051 A 
ATOM     24  C   UNL     1       4.664  -0.010   3.671  1.00  0.00     0.013 A 
BRANCH  20  25
ATOM     25  O   UNL     1       0.799  -0.765   2.321  1.00  0.00    -0.490 OA
BRANCH  25  26
ATOM     26  C   UNL     1       0.429  -2.053   1.825  1.00  0.00     0.226 C 
ATOM     27  C   UNL     1      -0.229  -1.864   0.467  1.00  0.00     0.049 C 
ENDBRANCH  25  26
ENDBRANCH  20  25
BRANCH  22  28
ATOM     28  O   UNL     1       2.602   1.134   0.991  1.00  0.00    -0.493 OA
ATOM     29  C   UNL     1       1.317   1.162   0.393  1.00  0.00     0.278 C 
ENDBRANCH  22  28
ENDBRANCH  18  19
ENDBRANCH   6  18
ENDBRANCH   3   5
ENDBRANCH   2   3
ENDBRANCH   1   2
BRANCH   1  30
ATOM     30  C   UNL     1       5.771   3.870   0.942  1.00  0.00     0.275 C 
BRANCH  30  31
ATOM     31  O   UNL     1       5.957   2.489   0.562  1.00  0.00    -0.458 OA
BRANCH  31  32
ATOM     32  C   UNL     1       5.577   2.126  -0.689  1.00  0.00     0.338 C 
ATOM     33  O   UNL     1       5.171   2.886  -1.554  1.00  0.00    -0.246 OA
BRANCH  32  34
ATOM     34  C   UNL     1       5.457   0.642  -0.747  1.00  0.00     0.060 A 
ATOM     35  C   UNL     1       4.185   0.171  -1.014  1.00  0.00     0.016 A 
ATOM     36  C   UNL     1       6.449  -0.283  -0.401  1.00  0.00     0.016 A 
ATOM     37  C   UNL     1       3.865  -1.161  -0.755  1.00  0.00     0.010 A 
ATOM     38  C   UNL     1       6.156  -1.675  -0.389  1.00  0.00     0.010 A 
ATOM     39  C   UNL     1       4.846  -2.144  -0.585  1.00  0.00    -0.014 A 
BRANCH  39  40
ATOM     40  C   UNL     1       4.449  -3.590  -0.776  1.00  0.00     0.031 A 
ATOM     41  C   UNL     1       4.902  -4.712   0.132  1.00  0.00     0.074 A 
ATOM     42  C   UNL     1       3.626  -3.915  -1.806  1.00  0.00     0.049 A 
ATOM     43  N   UNL     1       4.837  -6.007  -0.072  1.00  0.00    -0.248 NA
ATOM     44  C   UNL     1       5.482  -4.348   1.432  1.00  0.00     0.031 C 
ATOM     45  C   UNL     1       3.038  -2.966  -2.759  1.00  0.00     0.029 A 
ATOM     46  N   UNL     1       3.120  -5.125  -2.232  1.00  0.00    -0.354 N 
ATOM     47  C   UNL     1       5.446  -6.612   1.024  1.00  0.00     0.074 A 
ATOM     48  C   UNL     1       5.823  -5.537   1.922  1.00  0.00     0.031 C 
ATOM     49  C   UNL     1       2.177  -3.591  -3.561  1.00  0.00     0.029 A 
ATOM     50  C   UNL     1       2.338  -5.017  -3.364  1.00  0.00     0.049 A 
ATOM     51  H   UNL     1       3.298  -5.979  -1.775  1.00  0.00     0.167 HD
ATOM     52  C   UNL     1       5.682  -7.932   1.244  1.00  0.00     0.034 A 
ATOM     53  C   UNL     1       1.894  -5.926  -4.252  1.00  0.00     0.034 A 
ATOM     54  C   UNL     1       5.258  -8.997   0.363  1.00  0.00     0.049 A 
ATOM     55  C   UNL     1       2.262  -7.357  -4.053  1.00  0.00     0.074 A 
ATOM     56  C   UNL     1       5.478 -10.361   0.488  1.00  0.00     0.029 A 
ATOM     57  N   UNL     1       4.526  -8.826  -0.803  1.00  0.00    -0.354 N 
ATOM     58  N   UNL     1       2.906  -7.904  -3.054  1.00  0.00    -0.248 NA
ATOM     59  C   UNL     1       1.861  -8.294  -5.109  1.00  0.00     0.031 C 
ATOM     60  C   UNL     1       4.908 -11.006  -0.617  1.00  0.00     0.029 A 
ATOM     61  C   UNL     1       4.299 -10.052  -1.413  1.00  0.00     0.049 A 
ATOM     62  H   UNL     1       4.213  -7.959  -1.149  1.00  0.00     0.167 HD
ATOM     63  C   UNL     1       2.976  -9.256  -3.350  1.00  0.00     0.074 A 
ATOM     64  C   UNL     1       2.285  -9.447  -4.610  1.00  0.00     0.031 C 
ATOM     65  C   UNL     1       3.577 -10.244  -2.645  1.00  0.00     0.034 A 
BRANCH  52  66
ATOM     66  C   UNL     1       6.479  -8.319   2.470  1.00  0.00     0.023 A 
ATOM     67  C   UNL     1       5.888  -8.296   3.748  1.00  0.00     0.012 A 
ATOM     68  C   UNL     1       7.807  -8.780   2.337  1.00  0.00     0.148 A 
ATOM     69  C   UNL     1       6.615  -8.690   4.875  1.00  0.00     0.002 A 
ATOM     70  C   UNL     1       8.512  -9.206   3.459  1.00  0.00     0.091 A 
ATOM     71  F   UNL     1       8.360  -8.791   1.116  1.00  0.00    -0.205 F 
ATOM     72  C   UNL     1       7.922  -9.151   4.730  1.00  0.00     0.022 A 
BRANCH  70  73
ATOM     73  S   UNL     1      10.176  -9.880   3.357  1.00  0.00     0.127 S 
ATOM     74  O   UNL     1      10.974  -8.773   3.881  1.00  0.00    -0.237 OA
ATOM     75  O   UNL     1      10.096 -11.044   4.240  1.00  0.00    -0.237 OA
ATOM     76  O   UNL     1      10.392 -10.200   1.953  1.00  0.00    -0.744 OA
ENDBRANCH  70  73
ENDBRANCH  52  66
BRANCH  53  77
ATOM     77  C   UNL     1       1.137  -5.471  -5.457  1.00  0.00     0.023 A 
ATOM     78  C   UNL     1      -0.221  -5.808  -5.594  1.00  0.00     0.012 A 
ATOM     79  C   UNL     1       1.736  -4.629  -6.419  1.00  0.00     0.148 A 
ATOM     80  C   UNL     1      -0.968  -5.313  -6.665  1.00  0.00     0.002 A 
ATOM     81  C   UNL     1       0.967  -4.073  -7.432  1.00  0.00     0.091 A 
ATOM     82  F   UNL     1       3.040  -4.342  -6.290  1.00  0.00    -0.205 F 
ATOM     83  C   UNL     1      -0.382  -4.428  -7.569  1.00  0.00     0.022 A 
BRANCH  81  84
ATOM     84  S   UNL     1       1.597  -2.783  -8.513  1.00  0.00     0.127 S 
ATOM     85  O   UNL     1       1.730  -3.494  -9.781  1.00  0.00    -0.237 OA
ATOM     86  O   UNL     1       0.517  -1.796  -8.468  1.00  0.00    -0.237 OA
ATOM     87  O   UNL     1       2.841  -2.333  -7.902  1.00  0.00    -0.744 OA
ENDBRANCH  81  84
ENDBRANCH  53  77
BRANCH  65  88
ATOM     88  C   UNL     1       3.466 -11.637  -3.201  1.00  0.00     0.023 A 
ATOM     89  C   UNL     1       4.212 -12.005  -4.338  1.00  0.00     0.012 A 
ATOM     90  C   UNL     1       2.634 -12.587  -2.579  1.00  0.00     0.148 A 
ATOM     91  C   UNL     1       4.106 -13.291  -4.867  1.00  0.00     0.002 A 
ATOM     92  C   UNL     1       2.571 -13.880  -3.082  1.00  0.00     0.091 A 
ATOM     93  F   UNL     1       1.909 -12.205  -1.518  1.00  0.00    -0.205 F 
ATOM     94  C   UNL     1       3.295 -14.230  -4.234  1.00  0.00     0.022 A 
BRANCH  92  95
ATOM     95  S   UNL     1       1.623 -15.177  -2.281  1.00  0.00     0.127 S 
ATOM     96  O   UNL     1       0.514 -15.358  -3.217  1.00  0.00    -0.237 OA
ATOM     97  O   UNL     1       2.580 -16.283  -2.247  1.00  0.00    -0.237 OA
ATOM     98  O   UNL     1       1.255 -14.655  -0.972  1.00  0.00    -0.744 OA
ENDBRANCH  92  95
ENDBRANCH  65  88
ENDBRANCH  39  40
ENDBRANCH  32  34
ENDBRANCH  31  32
ENDBRANCH  30  31
ENDBRANCH   1  30
TORSDOF 19
