REMARK SMILES C[C@@H](c1cccc(O)c1)[N@H+]1[C@@H]2CC[C@H]1C[C@H](CC(=O)OCCOC(=O)c1ccc(-c3c4nc(c(-c5cccc(S(=O)(=O)[O-])c5F)c5ccc([nH]5)c(-c5cccc(S(=O)(=O)[O-])c5F)c5nc(c(-c6cccc(S(=O)(=O)[O-])c6F)c6ccc3[nH]6)C=C5)C=C4)cc1)C2
REMARK SMILES IDX 21 1 20 2 18 3 19 4 17 5 16 6 10 7 11 8 14 9 12 11 89 12
REMARK SMILES IDX 13 13 15 14 2 15 1 16 3 17 4 18 9 19 5 20 7 21 6 22 8 23
REMARK SMILES IDX 22 25 23 26 24 27 25 28 26 29 27 30 88 31 28 32 87 33 29 34
REMARK SMILES IDX 30 35 31 36 81 37 32 38 86 39 80 40 82 41 33 42 85 43 79 44
REMARK SMILES IDX 78 45 34 47 66 48 46 49 65 50 47 51 50 52 64 53 83 54 48 55
REMARK SMILES IDX 49 56 63 58 84 59 51 60 35 61 36 62 44 63 37 64 39 65 45 66
REMARK SMILES IDX 38 67 40 68 41 69 42 70 43 71 67 72 68 73 76 74 69 75 71 76
REMARK SMILES IDX 77 77 70 78 72 79 73 80 74 81 75 82 52 83 53 84 61 85 54 86
REMARK SMILES IDX 56 87 62 88 55 89 57 90 58 91 59 92 60 93
REMARK H PARENT 10 10 8 24 82 46 50 57
REMARK Flexibility Score: inf
ROOT
ATOM      1  C   UNL     1      -0.228  -4.160  -6.236  1.00  0.00     0.274 C 
ENDROOT
BRANCH   1   2
ATOM      2  O   UNL     1      -0.443  -2.832  -5.725  1.00  0.00    -0.462 OA
BRANCH   2   3
ATOM      3  C   UNL     1       0.603  -1.979  -5.772  1.00  0.00     0.306 C 
ATOM      4  O   UNL     1       1.721  -2.266  -6.193  1.00  0.00    -0.252 OA
BRANCH   3   5
ATOM      5  C   UNL     1       0.248  -0.579  -5.308  1.00  0.00     0.126 C 
BRANCH   5   6
ATOM      6  C   UNL     1      -0.923  -0.351  -4.323  1.00  0.00     0.012 C 
ATOM      7  N   UNL     1      -0.779   0.030  -1.389  1.00  0.00    -0.324 N 
ATOM      8  C   UNL     1      -1.238   1.147  -2.220  1.00  0.00     0.185 C 
ATOM      9  C   UNL     1      -1.541  -1.105  -1.898  1.00  0.00     0.185 C 
ATOM     10  H   UNL     1      -0.980   0.121  -0.393  1.00  0.00     0.349 HD
ATOM     11  C   UNL     1      -2.759   0.968  -2.174  1.00  0.00     0.071 C 
ATOM     12  C   UNL     1      -0.714   1.034  -3.654  1.00  0.00     0.069 C 
ATOM     13  C   UNL     1      -2.958  -0.515  -1.879  1.00  0.00     0.071 C 
ATOM     14  C   UNL     1      -1.157  -1.509  -3.329  1.00  0.00     0.069 C 
BRANCH   7  15
ATOM     15  C   UNL     1       0.662  -0.043  -1.089  1.00  0.00     0.212 C 
ATOM     16  C   UNL     1       0.820  -0.021   0.438  1.00  0.00     0.081 C 
BRANCH  15  17
ATOM     17  C   UNL     1       1.482  -1.180  -1.688  1.00  0.00     0.013 A 
ATOM     18  C   UNL     1       1.315  -2.524  -1.304  1.00  0.00     0.010 A 
ATOM     19  C   UNL     1       2.416  -0.900  -2.697  1.00  0.00     0.056 A 
ATOM     20  C   UNL     1       1.969  -3.557  -1.987  1.00  0.00     0.004 A 
ATOM     21  C   UNL     1       3.040  -1.937  -3.386  1.00  0.00     0.116 A 
ATOM     22  C   UNL     1       2.817  -3.264  -3.051  1.00  0.00     0.046 A 
BRANCH  21  23
ATOM     23  O   UNL     1       3.803  -1.626  -4.473  1.00  0.00    -0.508 OA
ATOM     24  H   UNL     1       4.233  -2.306  -4.953  1.00  0.00     0.293 HD
ENDBRANCH  21  23
ENDBRANCH  15  17
ENDBRANCH   7  15
ENDBRANCH   5   6
ENDBRANCH   3   5
ENDBRANCH   2   3
ENDBRANCH   1   2
BRANCH   1  25
ATOM     25  C   UNL     1      -1.472  -4.582  -7.013  1.00  0.00     0.275 C 
BRANCH  25  26
ATOM     26  O   UNL     1      -1.680  -3.650  -8.087  1.00  0.00    -0.458 OA
BRANCH  26  27
ATOM     27  C   UNL     1      -2.553  -2.651  -7.813  1.00  0.00     0.338 C 
ATOM     28  O   UNL     1      -3.298  -2.547  -6.854  1.00  0.00    -0.246 OA
BRANCH  27  29
ATOM     29  C   UNL     1      -2.374  -1.593  -8.812  1.00  0.00     0.060 A 
ATOM     30  C   UNL     1      -1.317  -0.698  -8.652  1.00  0.00     0.016 A 
ATOM     31  C   UNL     1      -3.291  -1.428  -9.842  1.00  0.00     0.016 A 
ATOM     32  C   UNL     1      -1.208   0.416  -9.474  1.00  0.00     0.010 A 
ATOM     33  C   UNL     1      -3.129  -0.359 -10.726  1.00  0.00     0.010 A 
ATOM     34  C   UNL     1      -2.103   0.587 -10.536  1.00  0.00    -0.014 A 
BRANCH  34  35
ATOM     35  C   UNL     1      -1.978   1.750 -11.451  1.00  0.00     0.031 A 
ATOM     36  C   UNL     1      -3.120   2.718 -11.587  1.00  0.00     0.074 A 
ATOM     37  C   UNL     1      -0.865   1.906 -12.195  1.00  0.00     0.049 A 
ATOM     38  N   UNL     1      -3.306   3.655 -12.478  1.00  0.00    -0.248 NA
ATOM     39  C   UNL     1      -4.206   2.604 -10.598  1.00  0.00     0.031 C 
ATOM     40  C   UNL     1       0.319   1.046 -12.140  1.00  0.00     0.029 A 
ATOM     41  N   UNL     1      -0.559   2.829 -13.164  1.00  0.00    -0.354 N 
ATOM     42  C   UNL     1      -4.560   4.189 -12.208  1.00  0.00     0.074 A 
ATOM     43  C   UNL     1      -5.084   3.483 -11.059  1.00  0.00     0.031 C 
ATOM     44  C   UNL     1       1.221   1.480 -13.033  1.00  0.00     0.029 A 
ATOM     45  C   UNL     1       0.652   2.598 -13.775  1.00  0.00     0.049 A 
ATOM     46  H   UNL     1      -1.148   3.583 -13.398  1.00  0.00     0.167 HD
ATOM     47  C   UNL     1      -5.211   5.183 -12.858  1.00  0.00     0.034 A 
ATOM     48  C   UNL     1       1.221   3.187 -14.845  1.00  0.00     0.034 A 
ATOM     49  C   UNL     1      -4.652   5.926 -13.955  1.00  0.00     0.049 A 
ATOM     50  C   UNL     1       0.482   4.295 -15.541  1.00  0.00     0.074 A 
ATOM     51  C   UNL     1      -5.210   6.982 -14.653  1.00  0.00     0.029 A 
ATOM     52  N   UNL     1      -3.399   5.699 -14.505  1.00  0.00    -0.354 N 
ATOM     53  N   UNL     1      -0.681   4.822 -15.245  1.00  0.00    -0.248 NA
ATOM     54  C   UNL     1       1.135   4.894 -16.713  1.00  0.00     0.031 C 
ATOM     55  C   UNL     1      -4.294   7.391 -15.630  1.00  0.00     0.029 A 
ATOM     56  C   UNL     1      -3.164   6.594 -15.534  1.00  0.00     0.049 A 
ATOM     57  H   UNL     1      -2.769   5.003 -14.207  1.00  0.00     0.167 HD
ATOM     58  C   UNL     1      -0.894   5.825 -16.182  1.00  0.00     0.074 A 
ATOM     59  C   UNL     1       0.276   5.852 -17.037  1.00  0.00     0.031 C 
ATOM     60  C   UNL     1      -1.970   6.634 -16.339  1.00  0.00     0.034 A 
BRANCH  47  61
ATOM     61  C   UNL     1      -6.592   5.543 -12.381  1.00  0.00     0.023 A 
ATOM     62  C   UNL     1      -6.749   6.286 -11.194  1.00  0.00     0.012 A 
ATOM     63  C   UNL     1      -7.731   5.183 -13.128  1.00  0.00     0.148 A 
ATOM     64  C   UNL     1      -8.020   6.643 -10.744  1.00  0.00     0.002 A 
ATOM     65  C   UNL     1      -8.992   5.573 -12.691  1.00  0.00     0.091 A 
ATOM     66  F   UNL     1      -7.564   4.451 -14.239  1.00  0.00    -0.205 F 
ATOM     67  C   UNL     1      -9.139   6.296 -11.496  1.00  0.00     0.022 A 
BRANCH  65  68
ATOM     68  S   UNL     1     -10.485   5.227 -13.629  1.00  0.00     0.127 S 
ATOM     69  O   UNL     1     -11.069   4.129 -12.861  1.00  0.00    -0.237 OA
ATOM     70  O   UNL     1     -11.215   6.492 -13.533  1.00  0.00    -0.237 OA
ATOM     71  O   UNL     1     -10.040   4.889 -14.974  1.00  0.00    -0.744 OA
ENDBRANCH  65  68
ENDBRANCH  47  61
BRANCH  48  72
ATOM     72  C   UNL     1       2.568   2.745 -15.304  1.00  0.00     0.023 A 
ATOM     73  C   UNL     1       3.671   3.604 -15.129  1.00  0.00     0.012 A 
ATOM     74  C   UNL     1       2.776   1.466 -15.856  1.00  0.00     0.148 A 
ATOM     75  C   UNL     1       4.952   3.202 -15.509  1.00  0.00     0.002 A 
ATOM     76  C   UNL     1       4.063   1.050 -16.178  1.00  0.00     0.091 A 
ATOM     77  F   UNL     1       1.712   0.670 -16.039  1.00  0.00    -0.205 F 
ATOM     78  C   UNL     1       5.151   1.921 -16.019  1.00  0.00     0.022 A 
BRANCH  76  79
ATOM     79  S   UNL     1       4.416  -0.634 -16.697  1.00  0.00     0.127 S 
ATOM     80  O   UNL     1       4.579  -0.476 -18.139  1.00  0.00    -0.237 OA
ATOM     81  O   UNL     1       5.649  -0.931 -15.967  1.00  0.00    -0.237 OA
ATOM     82  O   UNL     1       3.267  -1.419 -16.264  1.00  0.00    -0.744 OA
ENDBRANCH  76  79
ENDBRANCH  48  72
BRANCH  60  83
ATOM     83  C   UNL     1      -1.928   7.626 -17.468  1.00  0.00     0.023 A 
ATOM     84  C   UNL     1      -2.137   7.180 -18.788  1.00  0.00     0.012 A 
ATOM     85  C   UNL     1      -1.754   9.001 -17.219  1.00  0.00     0.148 A 
ATOM     86  C   UNL     1      -2.150   8.086 -19.847  1.00  0.00     0.002 A 
ATOM     87  C   UNL     1      -1.809   9.903 -18.275  1.00  0.00     0.091 A 
ATOM     88  F   UNL     1      -1.533   9.401 -15.958  1.00  0.00    -0.205 F 
ATOM     89  C   UNL     1      -1.998   9.447 -19.590  1.00  0.00     0.022 A 
BRANCH  87  90
ATOM     90  S   UNL     1      -1.708  11.678 -18.019  1.00  0.00     0.127 S 
ATOM     91  O   UNL     1      -0.330  11.960 -18.416  1.00  0.00    -0.237 OA
ATOM     92  O   UNL     1      -2.725  12.187 -18.941  1.00  0.00    -0.237 OA
ATOM     93  O   UNL     1      -2.015  11.893 -16.611  1.00  0.00    -0.744 OA
ENDBRANCH  87  90
ENDBRANCH  60  83
ENDBRANCH  34  35
ENDBRANCH  27  29
ENDBRANCH  26  27
ENDBRANCH  25  26
ENDBRANCH   1  25
TORSDOF 18
