REMARK SMILES O=C(OCCOC(=O)[C@H]1CCCN(c2cc(-c3ccccn3)nc(-c3ccccc3F)n2)C1)c1ccc(-c2c3nc(c(-c4cccc(S(=O)(=O)[O-])c4F)c4ccc([nH]4)c(-c4cccc(S(=O)(=O)[O-])c4F)c4nc(c(-c5cccc(S(=O)(=O)[O-])c5F)c5ccc2[nH]5)C=C4)C=C3)cc1
REMARK SMILES IDX 4 1 3 2 2 3 1 4 34 5 35 6 96 7 36 8 95 9 37 10 38 11 39 12
REMARK SMILES IDX 89 13 40 14 94 15 88 16 90 17 41 18 93 19 87 20 86 21 42 23
REMARK SMILES IDX 74 24 54 25 73 26 55 27 58 28 72 29 91 30 56 31 57 32 71 34
REMARK SMILES IDX 92 35 59 36 43 37 44 38 52 39 45 40 47 41 53 42 46 43 48 44
REMARK SMILES IDX 49 45 50 46 51 47 75 48 76 49 84 50 77 51 79 52 85 53 78 54
REMARK SMILES IDX 80 55 81 56 82 57 83 58 60 59 61 60 69 61 62 62 64 63 70 64
REMARK SMILES IDX 63 65 65 66 66 67 67 68 68 69 5 70 6 71 7 72 8 73 9 74 10 75
REMARK SMILES IDX 33 76 11 77 13 78 12 79 14 80 15 81 32 82 16 83 24 84 23 85
REMARK SMILES IDX 17 86 18 87 22 88 19 89 21 90 20 91 25 92 26 93 30 94 27 95
REMARK SMILES IDX 29 96 31 97 28 98
REMARK H PARENT 90 22 58 33
REMARK Flexibility Score: inf
ROOT
ATOM      1  C   UNL     1       4.131   5.565  -4.059  1.00  0.00     0.275 C 
ENDROOT
BRANCH   1   2
ATOM      2  O   UNL     1       5.111   4.520  -3.924  1.00  0.00    -0.458 OA
BRANCH   2   3
ATOM      3  C   UNL     1       5.547   3.861  -2.822  1.00  0.00     0.338 C 
ATOM      4  O   UNL     1       6.399   2.985  -2.969  1.00  0.00    -0.246 OA
BRANCH   3   5
ATOM      5  C   UNL     1       4.994   4.069  -1.444  1.00  0.00     0.060 A 
ATOM      6  C   UNL     1       4.470   5.263  -0.930  1.00  0.00     0.016 A 
ATOM      7  C   UNL     1       5.021   2.950  -0.596  1.00  0.00     0.016 A 
ATOM      8  C   UNL     1       3.867   5.313   0.341  1.00  0.00     0.010 A 
ATOM      9  C   UNL     1       4.443   3.001   0.677  1.00  0.00     0.010 A 
ATOM     10  C   UNL     1       3.822   4.175   1.144  1.00  0.00    -0.014 A 
BRANCH  10  11
ATOM     11  C   UNL     1       3.245   4.182   2.513  1.00  0.00     0.031 A 
ATOM     12  C   UNL     1       4.211   4.079   3.654  1.00  0.00     0.074 A 
ATOM     13  C   UNL     1       1.914   4.146   2.749  1.00  0.00     0.049 A 
ATOM     14  N   UNL     1       3.962   3.983   4.930  1.00  0.00    -0.248 NA
ATOM     15  C   UNL     1       5.646   4.122   3.317  1.00  0.00     0.031 C 
ATOM     16  C   UNL     1       0.852   4.284   1.752  1.00  0.00     0.029 A 
ATOM     17  N   UNL     1       1.223   3.852   3.904  1.00  0.00    -0.354 N 
ATOM     18  C   UNL     1       5.201   4.023   5.547  1.00  0.00     0.074 A 
ATOM     19  C   UNL     1       6.206   4.023   4.511  1.00  0.00     0.031 C 
ATOM     20  C   UNL     1      -0.314   3.864   2.280  1.00  0.00     0.029 A 
ATOM     21  C   UNL     1      -0.102   3.532   3.683  1.00  0.00     0.049 A 
ATOM     22  H   UNL     1       1.634   3.869   4.798  1.00  0.00     0.167 HD
ATOM     23  C   UNL     1       5.471   4.149   6.863  1.00  0.00     0.034 A 
ATOM     24  C   UNL     1      -1.034   3.030   4.521  1.00  0.00     0.034 A 
ATOM     25  C   UNL     1       4.462   4.127   7.879  1.00  0.00     0.049 A 
ATOM     26  C   UNL     1      -0.702   2.997   5.992  1.00  0.00     0.074 A 
ATOM     27  C   UNL     1       4.602   4.321   9.238  1.00  0.00     0.029 A 
ATOM     28  N   UNL     1       3.123   3.856   7.641  1.00  0.00    -0.354 N 
ATOM     29  N   UNL     1       0.440   3.267   6.577  1.00  0.00    -0.248 NA
ATOM     30  C   UNL     1      -1.803   2.718   6.926  1.00  0.00     0.031 C 
ATOM     31  C   UNL     1       3.350   4.127   9.828  1.00  0.00     0.029 A 
ATOM     32  C   UNL     1       2.425   3.851   8.831  1.00  0.00     0.049 A 
ATOM     33  H   UNL     1       2.729   3.692   6.753  1.00  0.00     0.167 HD
ATOM     34  C   UNL     1       0.174   3.292   7.941  1.00  0.00     0.074 A 
ATOM     35  C   UNL     1      -1.230   2.971   8.097  1.00  0.00     0.031 C 
ATOM     36  C   UNL     1       1.014   3.586   8.963  1.00  0.00     0.034 A 
BRANCH  23  37
ATOM     37  C   UNL     1       6.899   4.411   7.238  1.00  0.00     0.023 A 
ATOM     38  C   UNL     1       7.475   5.657   6.905  1.00  0.00     0.012 A 
ATOM     39  C   UNL     1       7.666   3.449   7.914  1.00  0.00     0.148 A 
ATOM     40  C   UNL     1       8.809   5.925   7.203  1.00  0.00     0.002 A 
ATOM     41  C   UNL     1       8.982   3.741   8.248  1.00  0.00     0.091 A 
ATOM     42  F   UNL     1       7.102   2.267   8.198  1.00  0.00    -0.205 F 
ATOM     43  C   UNL     1       9.559   4.970   7.881  1.00  0.00     0.022 A 
BRANCH  41  44
ATOM     44  S   UNL     1      10.021   2.610   9.175  1.00  0.00     0.127 S 
ATOM     45  O   UNL     1      11.084   2.328   8.210  1.00  0.00    -0.237 OA
ATOM     46  O   UNL     1      10.429   3.437  10.310  1.00  0.00    -0.237 OA
ATOM     47  O   UNL     1       9.178   1.472   9.514  1.00  0.00    -0.744 OA
ENDBRANCH  41  44
ENDBRANCH  23  37
BRANCH  24  48
ATOM     48  C   UNL     1      -2.398   2.671   4.032  1.00  0.00     0.023 A 
ATOM     49  C   UNL     1      -3.471   3.552   4.270  1.00  0.00     0.012 A 
ATOM     50  C   UNL     1      -2.645   1.468   3.336  1.00  0.00     0.148 A 
ATOM     51  C   UNL     1      -4.767   3.229   3.863  1.00  0.00     0.002 A 
ATOM     52  C   UNL     1      -3.936   1.164   2.907  1.00  0.00     0.091 A 
ATOM     53  F   UNL     1      -1.613   0.643   3.108  1.00  0.00    -0.205 F 
ATOM     54  C   UNL     1      -5.000   2.038   3.181  1.00  0.00     0.022 A 
BRANCH  52  55
ATOM     55  S   UNL     1      -4.332  -0.308   1.948  1.00  0.00     0.127 S 
ATOM     56  O   UNL     1      -5.182  -1.052   2.875  1.00  0.00    -0.237 OA
ATOM     57  O   UNL     1      -5.032   0.264   0.798  1.00  0.00    -0.237 OA
ATOM     58  O   UNL     1      -3.053  -0.929   1.627  1.00  0.00    -0.744 OA
ENDBRANCH  52  55
ENDBRANCH  24  48
BRANCH  36  59
ATOM     59  C   UNL     1       0.452   3.643  10.356  1.00  0.00     0.023 A 
ATOM     60  C   UNL     1       0.124   2.453  11.032  1.00  0.00     0.012 A 
ATOM     61  C   UNL     1       0.409   4.872  11.046  1.00  0.00     0.148 A 
ATOM     62  C   UNL     1      -0.243   2.487  12.376  1.00  0.00     0.002 A 
ATOM     63  C   UNL     1       0.102   4.891  12.399  1.00  0.00     0.091 A 
ATOM     64  F   UNL     1       0.705   5.993  10.372  1.00  0.00    -0.205 F 
ATOM     65  C   UNL     1      -0.234   3.700  13.063  1.00  0.00     0.022 A 
BRANCH  63  66
ATOM     66  S   UNL     1       0.220   6.383  13.392  1.00  0.00     0.127 S 
ATOM     67  O   UNL     1      -1.184   6.643  13.706  1.00  0.00    -0.237 OA
ATOM     68  O   UNL     1       1.028   5.934  14.526  1.00  0.00    -0.237 OA
ATOM     69  O   UNL     1       0.863   7.381  12.547  1.00  0.00    -0.744 OA
ENDBRANCH  63  66
ENDBRANCH  36  59
ENDBRANCH  10  11
ENDBRANCH   3   5
ENDBRANCH   2   3
ENDBRANCH   1   2
BRANCH   1  70
ATOM     70  C   UNL     1       2.679   5.089  -4.045  1.00  0.00     0.274 C 
BRANCH  70  71
ATOM     71  O   UNL     1       2.469   4.070  -3.062  1.00  0.00    -0.462 OA
BRANCH  71  72
ATOM     72  C   UNL     1       2.018   2.848  -3.478  1.00  0.00     0.310 C 
ATOM     73  O   UNL     1       1.738   2.576  -4.640  1.00  0.00    -0.252 OA
BRANCH  72  74
ATOM     74  C   UNL     1       1.994   1.862  -2.318  1.00  0.00     0.118 C 
ATOM     75  C   UNL     1       1.571   2.568  -1.028  1.00  0.00     0.019 C 
ATOM     76  C   UNL     1       1.056   0.678  -2.590  1.00  0.00     0.133 C 
ATOM     77  C   UNL     1       1.554   1.565   0.112  1.00  0.00     0.022 C 
ATOM     78  N   UNL     1       0.738  -0.092  -1.380  1.00  0.00    -0.356 N 
ATOM     79  C   UNL     1       0.394   0.637  -0.157  1.00  0.00     0.118 C 
BRANCH  78  80
ATOM     80  C   UNL     1       1.290  -1.340  -1.116  1.00  0.00     0.133 A 
ATOM     81  C   UNL     1       0.504  -2.223  -0.403  1.00  0.00     0.077 A 
ATOM     82  N   UNL     1       2.537  -1.657  -1.486  1.00  0.00    -0.211 NA
ATOM     83  C   UNL     1       1.009  -3.462  -0.086  1.00  0.00     0.095 A 
ATOM     84  C   UNL     1       2.977  -2.874  -1.093  1.00  0.00     0.165 A 
ATOM     85  N   UNL     1       2.271  -3.801  -0.413  1.00  0.00    -0.226 NA
BRANCH  83  86
ATOM     86  C   UNL     1       0.124  -4.454   0.551  1.00  0.00     0.089 A 
ATOM     87  C   UNL     1      -1.210  -4.569   0.135  1.00  0.00     0.030 A 
ATOM     88  N   UNL     1       0.611  -5.179   1.590  1.00  0.00    -0.255 NA
ATOM     89  C   UNL     1      -2.079  -5.409   0.816  1.00  0.00     0.004 A 
ATOM     90  C   UNL     1      -0.265  -5.977   2.245  1.00  0.00     0.112 A 
ATOM     91  C   UNL     1      -1.600  -6.124   1.901  1.00  0.00     0.020 A 
ENDBRANCH  83  86
BRANCH  84  92
ATOM     92  C   UNL     1       4.336  -3.247  -1.465  1.00  0.00     0.055 A 
ATOM     93  C   UNL     1       5.463  -2.715  -0.812  1.00  0.00     0.015 A 
ATOM     94  C   UNL     1       4.551  -4.183  -2.481  1.00  0.00     0.134 A 
ATOM     95  C   UNL     1       6.756  -3.124  -1.165  1.00  0.00     0.001 A 
ATOM     96  C   UNL     1       5.834  -4.590  -2.841  1.00  0.00     0.040 A 
ATOM     97  F   UNL     1       3.512  -4.711  -3.147  1.00  0.00    -0.206 F 
ATOM     98  C   UNL     1       6.941  -4.062  -2.180  1.00  0.00     0.003 A 
ENDBRANCH  84  92
ENDBRANCH  78  80
ENDBRANCH  72  74
ENDBRANCH  71  72
ENDBRANCH  70  71
ENDBRANCH   1  70
TORSDOF 17
