REMARK SMILES NS(=O)(=O)c1ccc(-n2ccnc2-c2ccc(O)c(C(=O)OCCOC(=O)c3ccc(-c4c5nc(c(-c6cccc(S(=O)(=O)[O-])c6F)c6ccc([nH]6)c(-c6cccc(S(=O)(=O)[O-])c6F)c6nc(c(-c7cccc(S(=O)(=O)[O-])c7F)c7ccc4[nH]7)C=C6)C=C5)cc3)c2)cc1
REMARK SMILES IDX 23 1 22 2 20 3 21 4 19 5 14 6 15 7 91 8 16 9 17 10 13 11
REMARK SMILES IDX 9 12 10 13 11 14 12 15 8 16 5 17 6 18 93 19 7 20 92 21 2 22
REMARK SMILES IDX 3 23 4 24 1 25 18 28 24 30 25 31 26 32 27 33 28 34 29 35
REMARK SMILES IDX 90 36 30 37 89 38 31 39 32 40 33 41 83 42 34 43 88 44 82 45
REMARK SMILES IDX 84 46 35 47 87 48 81 49 80 50 36 52 68 53 48 54 67 55 49 56
REMARK SMILES IDX 52 57 66 58 85 59 50 60 51 61 65 63 86 64 53 65 37 66 38 67
REMARK SMILES IDX 46 68 39 69 41 70 47 71 40 72 42 73 43 74 44 75 45 76 69 77
REMARK SMILES IDX 70 78 78 79 71 80 73 81 79 82 72 83 74 84 75 85 76 86 77 87
REMARK SMILES IDX 54 88 55 89 63 90 56 91 58 92 64 93 57 94 59 95 60 96 61 97
REMARK SMILES IDX 62 98
REMARK H PARENT 1 26 1 27 18 29 84 51 52 62
REMARK Flexibility Score: inf
ROOT
ATOM      1  C   UNL     1       6.819   4.850  -0.043  1.00  0.00     0.275 C 
ENDROOT
BRANCH   1   2
ATOM      2  O   UNL     1       5.979   4.665   1.111  1.00  0.00    -0.458 OA
BRANCH   2   3
ATOM      3  C   UNL     1       6.280   3.607   1.907  1.00  0.00     0.342 C 
ATOM      4  O   UNL     1       7.055   2.696   1.646  1.00  0.00    -0.246 OA
BRANCH   3   5
ATOM      5  C   UNL     1       5.623   3.719   3.232  1.00  0.00     0.102 A 
ATOM      6  C   UNL     1       3.905   4.679   4.673  1.00  0.00     0.019 A 
ATOM      7  C   UNL     1       4.392   3.928   5.746  1.00  0.00     0.016 A 
ATOM      8  C   UNL     1       4.559   4.605   3.432  1.00  0.00     0.031 A 
ATOM      9  C   UNL     1       5.473   3.062   5.564  1.00  0.00     0.048 A 
ATOM     10  C   UNL     1       6.072   2.944   4.309  1.00  0.00     0.130 A 
BRANCH   6  11
ATOM     11  C   UNL     1       2.703   5.506   4.819  1.00  0.00     0.144 A 
ATOM     12  N   UNL     1       1.641   5.515   3.915  1.00  0.00    -0.300 N 
ATOM     13  C   UNL     1       0.877   6.619   4.220  1.00  0.00     0.113 A 
ATOM     14  C   UNL     1       1.401   7.116   5.388  1.00  0.00     0.132 A 
ATOM     15  N   UNL     1       2.509   6.409   5.765  1.00  0.00    -0.236 NA
BRANCH  12  16
ATOM     16  C   UNL     1       1.362   4.576   2.887  1.00  0.00     0.047 A 
ATOM     17  C   UNL     1       0.871   2.729   0.861  1.00  0.00     0.082 A 
ATOM     18  C   UNL     1       1.308   2.280   2.108  1.00  0.00     0.024 A 
ATOM     19  C   UNL     1       0.679   4.095   0.620  1.00  0.00     0.024 A 
ATOM     20  C   UNL     1       1.563   3.207   3.120  1.00  0.00     0.028 A 
ATOM     21  C   UNL     1       0.901   5.021   1.643  1.00  0.00     0.028 A 
BRANCH  17  22
ATOM     22  S   UNL     1       0.571   1.596  -0.463  1.00  0.00     0.238 S 
ATOM     23  O   UNL     1       1.306   2.049  -1.626  1.00  0.00    -0.207 OA
ATOM     24  O   UNL     1      -0.838   1.307  -0.498  1.00  0.00    -0.207 OA
BRANCH  22  25
ATOM     25  N   UNL     1       1.326   0.174   0.013  1.00  0.00    -0.225 NA
ATOM     26  H   UNL     1       1.197  -0.537  -0.707  1.00  0.00     0.137 HD
ATOM     27  H   UNL     1       0.918  -0.151   0.889  1.00  0.00     0.137 HD
ENDBRANCH  22  25
ENDBRANCH  17  22
ENDBRANCH  12  16
ENDBRANCH   6  11
BRANCH  10  28
ATOM     28  O   UNL     1       7.103   2.048   4.216  1.00  0.00    -0.507 OA
ATOM     29  H   UNL     1       7.364   1.554   4.968  1.00  0.00     0.293 HD
ENDBRANCH  10  28
ENDBRANCH   3   5
ENDBRANCH   2   3
ENDBRANCH   1   2
BRANCH   1  30
ATOM     30  C   UNL     1       8.030   5.711   0.289  1.00  0.00     0.275 C 
BRANCH  30  31
ATOM     31  O   UNL     1       8.933   5.017   1.146  1.00  0.00    -0.458 OA
BRANCH  31  32
ATOM     32  C   UNL     1       8.793   5.282   2.465  1.00  0.00     0.338 C 
ATOM     33  O   UNL     1       7.826   5.785   3.011  1.00  0.00    -0.246 OA
BRANCH  32  34
ATOM     34  C   UNL     1      10.086   5.081   3.126  1.00  0.00     0.060 A 
ATOM     35  C   UNL     1      10.157   5.379   4.489  1.00  0.00     0.016 A 
ATOM     36  C   UNL     1      11.238   4.880   2.350  1.00  0.00     0.016 A 
ATOM     37  C   UNL     1      11.392   5.656   5.034  1.00  0.00     0.010 A 
ATOM     38  C   UNL     1      12.465   5.178   2.889  1.00  0.00     0.010 A 
ATOM     39  C   UNL     1      12.518   5.631   4.203  1.00  0.00    -0.014 A 
BRANCH  39  40
ATOM     40  C   UNL     1      13.807   5.921   4.793  1.00  0.00     0.031 A 
ATOM     41  C   UNL     1      14.268   4.809   5.655  1.00  0.00     0.074 A 
ATOM     42  C   UNL     1      14.520   7.022   4.486  1.00  0.00     0.049 A 
ATOM     43  N   UNL     1      14.332   4.798   6.944  1.00  0.00    -0.248 NA
ATOM     44  C   UNL     1      14.451   3.486   5.034  1.00  0.00     0.031 C 
ATOM     45  C   UNL     1      14.247   8.008   3.438  1.00  0.00     0.029 A 
ATOM     46  N   UNL     1      15.729   7.419   4.968  1.00  0.00    -0.354 N 
ATOM     47  C   UNL     1      14.844   3.544   7.263  1.00  0.00     0.074 A 
ATOM     48  C   UNL     1      14.636   2.717   6.108  1.00  0.00     0.031 C 
ATOM     49  C   UNL     1      15.373   8.720   3.195  1.00  0.00     0.029 A 
ATOM     50  C   UNL     1      16.398   8.325   4.147  1.00  0.00     0.049 A 
ATOM     51  H   UNL     1      16.099   7.096   5.821  1.00  0.00     0.167 HD
ATOM     52  C   UNL     1      15.705   3.402   8.307  1.00  0.00     0.034 A 
ATOM     53  C   UNL     1      17.718   8.641   4.202  1.00  0.00     0.034 A 
ATOM     54  C   UNL     1      15.615   4.528   9.207  1.00  0.00     0.049 A 
ATOM     55  C   UNL     1      18.211   8.241   5.541  1.00  0.00     0.074 A 
ATOM     56  C   UNL     1      14.600   5.133   9.923  1.00  0.00     0.029 A 
ATOM     57  N   UNL     1      16.630   5.451   9.141  1.00  0.00    -0.354 N 
ATOM     58  N   UNL     1      17.834   8.819   6.644  1.00  0.00    -0.248 NA
ATOM     59  C   UNL     1      18.760   6.902   5.687  1.00  0.00     0.031 C 
ATOM     60  C   UNL     1      14.871   6.531   9.839  1.00  0.00     0.029 A 
ATOM     61  C   UNL     1      16.073   6.700   9.150  1.00  0.00     0.049 A 
ATOM     62  H   UNL     1      17.593   5.249   9.095  1.00  0.00     0.167 HD
ATOM     63  C   UNL     1      17.631   7.765   7.525  1.00  0.00     0.074 A 
ATOM     64  C   UNL     1      18.317   6.624   6.917  1.00  0.00     0.031 C 
ATOM     65  C   UNL     1      16.674   7.840   8.497  1.00  0.00     0.034 A 
BRANCH  52  66
ATOM     66  C   UNL     1      16.935   2.513   8.274  1.00  0.00     0.023 A 
ATOM     67  C   UNL     1      17.698   2.449   9.461  1.00  0.00     0.012 A 
ATOM     68  C   UNL     1      17.540   1.998   7.102  1.00  0.00     0.148 A 
ATOM     69  C   UNL     1      19.019   1.987   9.461  1.00  0.00     0.002 A 
ATOM     70  C   UNL     1      18.825   1.471   7.121  1.00  0.00     0.091 A 
ATOM     71  F   UNL     1      16.943   2.122   5.917  1.00  0.00    -0.205 F 
ATOM     72  C   UNL     1      19.584   1.498   8.291  1.00  0.00     0.022 A 
BRANCH  70  73
ATOM     73  S   UNL     1      19.590   0.792   5.641  1.00  0.00     0.127 S 
ATOM     74  O   UNL     1      20.614   1.793   5.359  1.00  0.00    -0.237 OA
ATOM     75  O   UNL     1      20.091  -0.491   6.132  1.00  0.00    -0.237 OA
ATOM     76  O   UNL     1      18.521   0.678   4.656  1.00  0.00    -0.744 OA
ENDBRANCH  70  73
ENDBRANCH  52  66
BRANCH  53  77
ATOM     77  C   UNL     1      18.669   8.973   3.110  1.00  0.00     0.023 A 
ATOM     78  C   UNL     1      19.913   9.563   3.422  1.00  0.00     0.012 A 
ATOM     79  C   UNL     1      18.499   8.439   1.814  1.00  0.00     0.148 A 
ATOM     80  C   UNL     1      20.962   9.583   2.493  1.00  0.00     0.002 A 
ATOM     81  C   UNL     1      19.542   8.465   0.891  1.00  0.00     0.091 A 
ATOM     82  F   UNL     1      17.350   7.819   1.517  1.00  0.00    -0.205 F 
ATOM     83  C   UNL     1      20.780   9.024   1.231  1.00  0.00     0.022 A 
BRANCH  81  84
ATOM     84  S   UNL     1      19.389   7.731  -0.744  1.00  0.00     0.127 S 
ATOM     85  O   UNL     1      19.887   8.805  -1.604  1.00  0.00    -0.237 OA
ATOM     86  O   UNL     1      20.270   6.572  -0.640  1.00  0.00    -0.237 OA
ATOM     87  O   UNL     1      17.972   7.435  -0.917  1.00  0.00    -0.744 OA
ENDBRANCH  81  84
ENDBRANCH  53  77
BRANCH  65  88
ATOM     88  C   UNL     1      16.046   9.184   8.763  1.00  0.00     0.023 A 
ATOM     89  C   UNL     1      15.300   9.892   7.796  1.00  0.00     0.012 A 
ATOM     90  C   UNL     1      16.105   9.686  10.073  1.00  0.00     0.148 A 
ATOM     91  C   UNL     1      14.660  11.092   8.123  1.00  0.00     0.002 A 
ATOM     92  C   UNL     1      15.432  10.854  10.405  1.00  0.00     0.091 A 
ATOM     93  F   UNL     1      16.813   8.999  10.982  1.00  0.00    -0.205 F 
ATOM     94  C   UNL     1      14.718  11.568   9.431  1.00  0.00     0.022 A 
BRANCH  92  95
ATOM     95  S   UNL     1      15.388  11.449  12.095  1.00  0.00     0.127 S 
ATOM     96  O   UNL     1      16.353  12.545  12.058  1.00  0.00    -0.237 OA
ATOM     97  O   UNL     1      13.993  11.867  12.247  1.00  0.00    -0.237 OA
ATOM     98  O   UNL     1      15.759  10.311  12.929  1.00  0.00    -0.744 OA
ENDBRANCH  92  95
ENDBRANCH  65  88
ENDBRANCH  39  40
ENDBRANCH  32  34
ENDBRANCH  31  32
ENDBRANCH  30  31
ENDBRANCH   1  30
TORSDOF 19
