REMARK SMILES O=C(OCCOC(=O)c1ccc(-c2c3nc(c(-c4cccc(S(=O)(=O)[O-])c4F)c4ccc([nH]4)c(-c4cccc(S(=O)(=O)[O-])c4F)c4nc(c(-c5cccc(S(=O)(=O)[O-])c5F)c5ccc2[nH]5)C=C4)C=C3)cc1)c1ccc(/C=C/c2ccnc(-c3cccc([N+](=O)[O-])c3)[n+]2[O-])cc1
REMARK SMILES IDX 4 1 3 2 2 3 1 4 72 5 73 6 95 7 74 8 94 9 75 10 76 11 77 12
REMARK SMILES IDX 78 13 79 14 92 15 80 16 82 17 93 18 81 19 83 20 84 21 91 22
REMARK SMILES IDX 85 23 87 24 86 25 88 26 89 27 90 28 5 29 6 30 7 31 8 32 9 33
REMARK SMILES IDX 10 34 71 35 11 36 70 37 12 38 13 39 14 40 64 41 15 42 69 43
REMARK SMILES IDX 63 44 65 45 16 46 68 47 62 48 61 49 17 51 49 52 29 53 48 54
REMARK SMILES IDX 30 55 33 56 47 57 66 58 31 59 32 60 46 62 67 63 34 64 18 65
REMARK SMILES IDX 19 66 27 67 20 68 22 69 28 70 21 71 23 72 24 73 25 74 26 75
REMARK SMILES IDX 50 76 51 77 59 78 52 79 54 80 60 81 53 82 55 83 56 84 57 85
REMARK SMILES IDX 58 86 35 87 36 88 44 89 37 90 39 91 45 92 38 93 40 94 41 95
REMARK SMILES IDX 42 96 43 97
REMARK H PARENT 65 50 33 61
REMARK Flexibility Score: inf
ROOT
ATOM      1  C   UNL     1       4.084   1.039   1.171  1.00  0.00     0.275 C 
ENDROOT
BRANCH   1   2
ATOM      2  O   UNL     1       3.017   1.032   0.208  1.00  0.00    -0.458 OA
BRANCH   2   3
ATOM      3  C   UNL     1       2.933   0.424  -1.002  1.00  0.00     0.338 C 
ATOM      4  O   UNL     1       2.025   0.772  -1.756  1.00  0.00    -0.246 OA
BRANCH   3   5
ATOM      5  C   UNL     1       3.789  -0.735  -1.424  1.00  0.00     0.060 A 
ATOM      6  C   UNL     1       4.989  -1.139  -0.839  1.00  0.00     0.016 A 
ATOM      7  C   UNL     1       3.304  -1.517  -2.486  1.00  0.00     0.016 A 
ATOM      8  C   UNL     1       5.583  -2.360  -1.164  1.00  0.00     0.009 A 
ATOM      9  C   UNL     1       3.936  -2.711  -2.854  1.00  0.00     0.009 A 
ATOM     10  C   UNL     1       5.023  -3.192  -2.127  1.00  0.00    -0.025 A 
BRANCH  10  11
ATOM     11  C   UNL     1       5.610  -4.494  -2.444  1.00  0.00     0.012 C 
ATOM     12  C   UNL     1       6.324  -5.240  -1.580  1.00  0.00     0.053 C 
BRANCH  12  13
ATOM     13  C   UNL     1       7.085  -6.419  -2.028  1.00  0.00     0.134 A 
ATOM     14  C   UNL     1       7.129  -7.575  -1.251  1.00  0.00     0.100 A 
ATOM     15  N   UNL     1       7.832  -6.337  -3.217  1.00  0.00    -0.228 N 
ATOM     16  C   UNL     1       7.861  -8.639  -1.728  1.00  0.00     0.259 A 
ATOM     17  C   UNL     1       8.488  -7.484  -3.661  1.00  0.00     0.333 A 
ATOM     18  O   UNL     1       7.970  -5.206  -3.815  1.00  0.00    -0.710 OA
ATOM     19  N   UNL     1       8.516  -8.629  -2.905  1.00  0.00    -0.049 NA
BRANCH  17  20
ATOM     20  C   UNL     1       9.182  -7.478  -4.949  1.00  0.00     0.076 A 
ATOM     21  C   UNL     1       8.856  -8.421  -5.938  1.00  0.00     0.017 A 
ATOM     22  C   UNL     1      10.116  -6.477  -5.267  1.00  0.00     0.102 A 
ATOM     23  C   UNL     1       9.409  -8.342  -7.220  1.00  0.00     0.008 A 
ATOM     24  C   UNL     1      10.662  -6.397  -6.553  1.00  0.00     0.270 A 
ATOM     25  C   UNL     1      10.311  -7.327  -7.535  1.00  0.00     0.085 A 
BRANCH  24  26
ATOM     26  N   UNL     1      11.604  -5.318  -6.867  1.00  0.00     0.062 N 
ATOM     27  O   UNL     1      12.122  -5.306  -7.995  1.00  0.00    -0.258 OA
ATOM     28  O   UNL     1      11.884  -4.505  -5.971  1.00  0.00    -0.258 OA
ENDBRANCH  24  26
ENDBRANCH  17  20
ENDBRANCH  12  13
ENDBRANCH  10  11
ENDBRANCH   3   5
ENDBRANCH   2   3
ENDBRANCH   1   2
BRANCH   1  29
ATOM     29  C   UNL     1       3.959  -0.047   2.249  1.00  0.00     0.275 C 
BRANCH  29  30
ATOM     30  O   UNL     1       3.692  -1.356   1.718  1.00  0.00    -0.458 OA
BRANCH  30  31
ATOM     31  C   UNL     1       2.374  -1.692   1.632  1.00  0.00     0.338 C 
ATOM     32  O   UNL     1       1.442  -1.041   2.056  1.00  0.00    -0.246 OA
BRANCH  31  33
ATOM     33  C   UNL     1       2.206  -2.934   0.827  1.00  0.00     0.060 A 
ATOM     34  C   UNL     1       1.091  -3.026  -0.018  1.00  0.00     0.016 A 
ATOM     35  C   UNL     1       3.108  -3.998   0.894  1.00  0.00     0.016 A 
ATOM     36  C   UNL     1       0.864  -4.183  -0.777  1.00  0.00     0.010 A 
ATOM     37  C   UNL     1       2.883  -5.151   0.127  1.00  0.00     0.010 A 
ATOM     38  C   UNL     1       1.746  -5.268  -0.698  1.00  0.00    -0.014 A 
BRANCH  38  39
ATOM     39  C   UNL     1       1.436  -6.574  -1.351  1.00  0.00     0.031 A 
ATOM     40  C   UNL     1       1.011  -7.734  -0.493  1.00  0.00     0.074 A 
ATOM     41  C   UNL     1       1.568  -6.774  -2.678  1.00  0.00     0.049 A 
ATOM     42  N   UNL     1       0.770  -8.973  -0.837  1.00  0.00    -0.248 NA
ATOM     43  C   UNL     1       0.837  -7.460   0.941  1.00  0.00     0.031 C 
ATOM     44  C   UNL     1       1.931  -5.753  -3.650  1.00  0.00     0.029 A 
ATOM     45  N   UNL     1       1.445  -7.918  -3.433  1.00  0.00    -0.354 N 
ATOM     46  C   UNL     1       0.434  -9.631   0.338  1.00  0.00     0.074 A 
ATOM     47  C   UNL     1       0.539  -8.662   1.409  1.00  0.00     0.031 C 
ATOM     48  C   UNL     1       2.081  -6.321  -4.859  1.00  0.00     0.029 A 
ATOM     49  C   UNL     1       1.803  -7.752  -4.752  1.00  0.00     0.049 A 
ATOM     50  H   UNL     1       1.131  -8.775  -3.064  1.00  0.00     0.167 HD
ATOM     51  C   UNL     1       0.045 -10.916   0.514  1.00  0.00     0.034 A 
ATOM     52  C   UNL     1       1.900  -8.643  -5.761  1.00  0.00     0.034 A 
ATOM     53  C   UNL     1      -0.088 -11.885  -0.538  1.00  0.00     0.049 A 
ATOM     54  C   UNL     1       1.511 -10.081  -5.536  1.00  0.00     0.074 A 
ATOM     55  C   UNL     1      -0.534 -13.193  -0.446  1.00  0.00     0.029 A 
ATOM     56  N   UNL     1       0.238 -11.668  -1.866  1.00  0.00    -0.354 N 
ATOM     57  N   UNL     1       1.076 -10.655  -4.442  1.00  0.00    -0.248 NA
ATOM     58  C   UNL     1       1.580 -10.984  -6.697  1.00  0.00     0.031 C 
ATOM     59  C   UNL     1      -0.439 -13.778  -1.712  1.00  0.00     0.029 A 
ATOM     60  C   UNL     1       0.025 -12.823  -2.600  1.00  0.00     0.049 A 
ATOM     61  H   UNL     1       0.572 -10.818  -2.234  1.00  0.00     0.167 HD
ATOM     62  C   UNL     1       0.764 -11.964  -4.795  1.00  0.00     0.074 A 
ATOM     63  C   UNL     1       1.066 -12.104  -6.203  1.00  0.00     0.031 C 
ATOM     64  C   UNL     1       0.268 -12.955  -4.014  1.00  0.00     0.034 A 
BRANCH  51  65
ATOM     65  C   UNL     1      -0.282 -11.342   1.919  1.00  0.00     0.023 A 
ATOM     66  C   UNL     1      -1.454 -10.868   2.542  1.00  0.00     0.012 A 
ATOM     67  C   UNL     1       0.562 -12.229   2.612  1.00  0.00     0.148 A 
ATOM     68  C   UNL     1      -1.757 -11.235   3.852  1.00  0.00     0.002 A 
ATOM     69  C   UNL     1       0.228 -12.629   3.899  1.00  0.00     0.091 A 
ATOM     70  F   UNL     1       1.686 -12.646   2.011  1.00  0.00    -0.205 F 
ATOM     71  C   UNL     1      -0.922 -12.122   4.526  1.00  0.00     0.022 A 
BRANCH  69  72
ATOM     72  S   UNL     1       1.204 -13.827   4.812  1.00  0.00     0.127 S 
ATOM     73  O   UNL     1       1.896 -12.970   5.774  1.00  0.00    -0.237 OA
ATOM     74  O   UNL     1       0.174 -14.689   5.391  1.00  0.00    -0.237 OA
ATOM     75  O   UNL     1       2.055 -14.480   3.827  1.00  0.00    -0.744 OA
ENDBRANCH  69  72
ENDBRANCH  51  65
BRANCH  52  76
ATOM     76  C   UNL     1       2.345  -8.192  -7.110  1.00  0.00     0.023 A 
ATOM     77  C   UNL     1       1.415  -8.118  -8.164  1.00  0.00     0.012 A 
ATOM     78  C   UNL     1       3.687  -7.841  -7.349  1.00  0.00     0.148 A 
ATOM     79  C   UNL     1       1.819  -7.727  -9.442  1.00  0.00     0.002 A 
ATOM     80  C   UNL     1       4.074  -7.412  -8.614  1.00  0.00     0.091 A 
ATOM     81  F   UNL     1       4.559  -7.941  -6.335  1.00  0.00    -0.205 F 
ATOM     82  C   UNL     1       3.144  -7.365  -9.665  1.00  0.00     0.022 A 
BRANCH  80  83
ATOM     83  S   UNL     1       5.738  -6.837  -8.967  1.00  0.00     0.127 S 
ATOM     84  O   UNL     1       6.241  -7.893  -9.842  1.00  0.00    -0.237 OA
ATOM     85  O   UNL     1       5.480  -5.557  -9.625  1.00  0.00    -0.237 OA
ATOM     86  O   UNL     1       6.392  -6.735  -7.671  1.00  0.00    -0.744 OA
ENDBRANCH  80  83
ENDBRANCH  52  76
BRANCH  64  87
ATOM     87  C   UNL     1      -0.048 -14.285  -4.652  1.00  0.00     0.023 A 
ATOM     88  C   UNL     1       0.991 -15.154  -5.037  1.00  0.00     0.012 A 
ATOM     89  C   UNL     1      -1.386 -14.718  -4.764  1.00  0.00     0.148 A 
ATOM     90  C   UNL     1       0.704 -16.424  -5.539  1.00  0.00     0.002 A 
ATOM     91  C   UNL     1      -1.662 -16.003  -5.218  1.00  0.00     0.091 A 
ATOM     92  F   UNL     1      -2.363 -13.870  -4.411  1.00  0.00    -0.205 F 
ATOM     93  C   UNL     1      -0.619 -16.854  -5.615  1.00  0.00     0.022 A 
BRANCH  91  94
ATOM     94  S   UNL     1      -3.327 -16.679  -5.253  1.00  0.00     0.127 S 
ATOM     95  O   UNL     1      -3.581 -16.771  -6.689  1.00  0.00    -0.237 OA
ATOM     96  O   UNL     1      -3.151 -17.967  -4.580  1.00  0.00    -0.237 OA
ATOM     97  O   UNL     1      -4.164 -15.729  -4.533  1.00  0.00    -0.744 OA
ENDBRANCH  91  94
ENDBRANCH  64  87
ENDBRANCH  38  39
ENDBRANCH  31  33
ENDBRANCH  30  31
ENDBRANCH  29  30
ENDBRANCH   1  29
TORSDOF 18
