REMARK SMILES C[C@@H]1OCC[C@@H]1C(=O)Nc1ccc(C(=O)OCCOC(=O)c2ccc(-c3c4nc(c(-c5cccc(S(=O)(=O)[O-])c5F)c5ccc([nH]5)c(-c5cccc(S(=O)(=O)[O-])c5F)c5nc(c(-c6cccc(S(=O)(=O)[O-])c6F)c6ccc3[nH]6)C=C5)C=C4)cc2)cc1F
REMARK SMILES IDX 18 1 17 2 16 3 14 4 15 5 13 6 10 7 11 8 86 9 12 10 85 11
REMARK SMILES IDX 87 12 9 13 7 14 8 15 6 17 1 18 2 19 3 20 4 21 5 22 19 23
REMARK SMILES IDX 20 24 21 25 22 26 23 27 84 28 24 29 83 30 25 31 26 32 27 33
REMARK SMILES IDX 77 34 28 35 82 36 76 37 78 38 29 39 81 40 75 41 74 42 30 44
REMARK SMILES IDX 62 45 42 46 61 47 43 48 46 49 60 50 79 51 44 52 45 53 59 55
REMARK SMILES IDX 80 56 47 57 31 58 32 59 40 60 33 61 35 62 41 63 34 64 36 65
REMARK SMILES IDX 37 66 38 67 39 68 63 69 64 70 72 71 65 72 67 73 73 74 66 75
REMARK SMILES IDX 68 76 69 77 70 78 71 79 48 80 49 81 57 82 50 83 52 84 58 85
REMARK SMILES IDX 51 86 53 87 54 88 55 89 56 90
REMARK H PARENT 9 16 78 43 46 54
REMARK Flexibility Score: inf
ROOT
ATOM      1  C   UNL     1       3.932  -2.115   7.674  1.00  0.00     0.275 C 
ENDROOT
BRANCH   1   2
ATOM      2  C   UNL     1       2.493  -2.101   7.165  1.00  0.00     0.275 C 
BRANCH   2   3
ATOM      3  O   UNL     1       2.393  -1.380   5.922  1.00  0.00    -0.458 OA
BRANCH   3   4
ATOM      4  C   UNL     1       1.885  -0.131   6.013  1.00  0.00     0.338 C 
ATOM      5  O   UNL     1       1.506   0.452   7.020  1.00  0.00    -0.246 OA
BRANCH   4   6
ATOM      6  C   UNL     1       1.772   0.450   4.671  1.00  0.00     0.063 A 
ATOM      7  C   UNL     1       1.254   1.624   2.146  1.00  0.00     0.077 A 
ATOM      8  C   UNL     1       2.176   2.194   3.035  1.00  0.00     0.030 A 
ATOM      9  C   UNL     1       0.597   0.461   2.587  1.00  0.00     0.147 A 
ATOM     10  C   UNL     1       2.422   1.622   4.288  1.00  0.00     0.018 A 
ATOM     11  C   UNL     1       0.863  -0.134   3.814  1.00  0.00     0.057 A 
ATOM     12  F   UNL     1      -0.371  -0.154   1.911  1.00  0.00    -0.205 F 
BRANCH   7  13
ATOM     13  N   UNL     1       1.105   2.328   0.925  1.00  0.00    -0.323 N 
ATOM     14  C   UNL     1       0.417   2.124  -0.238  1.00  0.00     0.230 C 
ATOM     15  O   UNL     1       0.474   2.995  -1.109  1.00  0.00    -0.274 OA
ATOM     16  H   UNL     1       1.622   3.166   0.911  1.00  0.00     0.170 HD
BRANCH  14  17
ATOM     17  C   UNL     1      -0.361   0.865  -0.453  1.00  0.00     0.110 C 
ATOM     18  C   UNL     1       1.712  -0.141  -1.623  1.00  0.00     0.039 C 
ATOM     19  C   UNL     1       0.511  -0.368  -0.705  1.00  0.00     0.127 C 
ATOM     20  O   UNL     1      -0.352  -1.334  -1.350  1.00  0.00    -0.378 OA
ATOM     21  C   UNL     1      -1.616  -0.695  -1.585  1.00  0.00     0.161 C 
ATOM     22  C   UNL     1      -1.326   0.793  -1.614  1.00  0.00     0.044 C 
ENDBRANCH  14  17
ENDBRANCH   7  13
ENDBRANCH   4   6
ENDBRANCH   3   4
ENDBRANCH   2   3
ENDBRANCH   1   2
BRANCH   1  23
ATOM     23  O   UNL     1       4.358  -0.777   7.988  1.00  0.00    -0.458 OA
BRANCH  23  24
ATOM     24  C   UNL     1       5.290  -0.256   7.157  1.00  0.00     0.338 C 
ATOM     25  O   UNL     1       5.851  -0.813   6.231  1.00  0.00    -0.246 OA
BRANCH  24  26
ATOM     26  C   UNL     1       5.484   1.175   7.446  1.00  0.00     0.060 A 
ATOM     27  C   UNL     1       4.447   2.048   7.152  1.00  0.00     0.016 A 
ATOM     28  C   UNL     1       6.732   1.680   7.791  1.00  0.00     0.016 A 
ATOM     29  C   UNL     1       4.689   3.409   7.021  1.00  0.00     0.010 A 
ATOM     30  C   UNL     1       6.925   3.070   7.829  1.00  0.00     0.010 A 
ATOM     31  C   UNL     1       5.922   3.955   7.389  1.00  0.00    -0.014 A 
BRANCH  31  32
ATOM     32  C   UNL     1       6.152   5.429   7.282  1.00  0.00     0.031 A 
ATOM     33  C   UNL     1       7.376   5.961   6.574  1.00  0.00     0.074 A 
ATOM     34  C   UNL     1       5.263   6.307   7.799  1.00  0.00     0.049 A 
ATOM     35  N   UNL     1       7.861   7.176   6.569  1.00  0.00    -0.248 NA
ATOM     36  C   UNL     1       8.170   5.003   5.785  1.00  0.00     0.031 C 
ATOM     37  C   UNL     1       4.015   5.952   8.479  1.00  0.00     0.029 A 
ATOM     38  N   UNL     1       5.266   7.682   7.832  1.00  0.00    -0.354 N 
ATOM     39  C   UNL     1       9.062   7.105   5.874  1.00  0.00     0.074 A 
ATOM     40  C   UNL     1       9.223   5.734   5.444  1.00  0.00     0.031 C 
ATOM     41  C   UNL     1       3.348   7.067   8.802  1.00  0.00     0.029 A 
ATOM     42  C   UNL     1       4.177   8.221   8.480  1.00  0.00     0.049 A 
ATOM     43  H   UNL     1       5.979   8.230   7.430  1.00  0.00     0.167 HD
ATOM     44  C   UNL     1       9.948   8.096   5.615  1.00  0.00     0.034 A 
ATOM     45  C   UNL     1       3.891   9.488   8.840  1.00  0.00     0.034 A 
ATOM     46  C   UNL     1       9.731   9.478   5.950  1.00  0.00     0.049 A 
ATOM     47  C   UNL     1       4.882  10.571   8.528  1.00  0.00     0.074 A 
ATOM     48  C   UNL     1      10.556  10.559   5.697  1.00  0.00     0.029 A 
ATOM     49  N   UNL     1       8.603   9.973   6.583  1.00  0.00    -0.354 N 
ATOM     50  N   UNL     1       6.019  10.482   7.882  1.00  0.00    -0.248 NA
ATOM     51  C   UNL     1       4.559  11.927   8.995  1.00  0.00     0.031 C 
ATOM     52  C   UNL     1       9.931  11.709   6.187  1.00  0.00     0.029 A 
ATOM     53  C   UNL     1       8.707  11.346   6.725  1.00  0.00     0.049 A 
ATOM     54  H   UNL     1       7.840   9.430   6.887  1.00  0.00     0.167 HD
ATOM     55  C   UNL     1       6.540  11.768   7.852  1.00  0.00     0.074 A 
ATOM     56  C   UNL     1       5.583  12.625   8.520  1.00  0.00     0.031 C 
ATOM     57  C   UNL     1       7.719  12.195   7.338  1.00  0.00     0.034 A 
BRANCH  44  58
ATOM     58  C   UNL     1      11.236   7.743   4.916  1.00  0.00     0.023 A 
ATOM     59  C   UNL     1      11.238   7.477   3.534  1.00  0.00     0.012 A 
ATOM     60  C   UNL     1      12.460   7.786   5.615  1.00  0.00     0.148 A 
ATOM     61  C   UNL     1      12.437   7.241   2.860  1.00  0.00     0.002 A 
ATOM     62  C   UNL     1      13.653   7.595   4.930  1.00  0.00     0.091 A 
ATOM     63  F   UNL     1      12.433   8.024   6.935  1.00  0.00    -0.205 F 
ATOM     64  C   UNL     1      13.643   7.314   3.554  1.00  0.00     0.022 A 
BRANCH  62  65
ATOM     65  S   UNL     1      15.262   7.756   5.715  1.00  0.00     0.127 S 
ATOM     66  O   UNL     1      15.739   6.374   5.697  1.00  0.00    -0.237 OA
ATOM     67  O   UNL     1      15.963   8.655   4.799  1.00  0.00    -0.237 OA
ATOM     68  O   UNL     1      15.011   8.309   7.039  1.00  0.00    -0.744 OA
ENDBRANCH  62  65
ENDBRANCH  44  58
BRANCH  45  69
ATOM     69  C   UNL     1       2.609   9.785   9.544  1.00  0.00     0.023 A 
ATOM     70  C   UNL     1       1.614  10.532   8.886  1.00  0.00     0.012 A 
ATOM     71  C   UNL     1       2.338   9.265  10.827  1.00  0.00     0.148 A 
ATOM     72  C   UNL     1       0.376  10.757   9.491  1.00  0.00     0.002 A 
ATOM     73  C   UNL     1       1.079   9.430  11.392  1.00  0.00     0.091 A 
ATOM     74  F   UNL     1       3.307   8.582  11.454  1.00  0.00    -0.205 F 
ATOM     75  C   UNL     1       0.102  10.190  10.733  1.00  0.00     0.022 A 
BRANCH  73  76
ATOM     76  S   UNL     1       0.591   8.585  12.901  1.00  0.00     0.127 S 
ATOM     77  O   UNL     1       0.573   9.680  13.866  1.00  0.00    -0.237 OA
ATOM     78  O   UNL     1      -0.726   8.057  12.541  1.00  0.00    -0.237 OA
ATOM     79  O   UNL     1       1.603   7.560  13.118  1.00  0.00    -0.744 OA
ENDBRANCH  73  76
ENDBRANCH  45  69
BRANCH  57  80
ATOM     80  C   UNL     1       8.043  13.659   7.438  1.00  0.00     0.023 A 
ATOM     81  C   UNL     1       8.467  14.196   8.668  1.00  0.00     0.012 A 
ATOM     82  C   UNL     1       8.048  14.470   6.286  1.00  0.00     0.148 A 
ATOM     83  C   UNL     1       8.880  15.524   8.754  1.00  0.00     0.002 A 
ATOM     84  C   UNL     1       8.506  15.779   6.369  1.00  0.00     0.091 A 
ATOM     85  F   UNL     1       7.624  13.940   5.130  1.00  0.00    -0.205 F 
ATOM     86  C   UNL     1       8.914  16.310   7.604  1.00  0.00     0.022 A 
BRANCH  84  87
ATOM     87  S   UNL     1       8.681  16.832   4.925  1.00  0.00     0.127 S 
ATOM     88  O   UNL     1       7.622  17.816   5.145  1.00  0.00    -0.237 OA
ATOM     89  O   UNL     1      10.040  17.352   5.084  1.00  0.00    -0.237 OA
ATOM     90  O   UNL     1       8.496  15.966   3.769  1.00  0.00    -0.744 OA
ENDBRANCH  84  87
ENDBRANCH  57  80
ENDBRANCH  31  32
ENDBRANCH  24  26
ENDBRANCH  23  24
ENDBRANCH   1  23
TORSDOF 16
