REMARK SMILES Cc1ccc2[nH]c(C(=O)OCCOC(=O)c3ccc(-c4c5nc(c(-c6cccc(S(=O)(=O)[O-])c6F)c6ccc([nH]6)c(-c6cccc(S(=O)(=O)[O-])c6F)c6nc(c(-c7cccc(S(=O)(=O)[O-])c7F)c7ccc4[nH]7)C=C6)C=C5)cc3)c(NC(=O)[C@H]3C[C@H]3c3ccccc3)c2c1
REMARK SMILES IDX 11 1 10 2 8 3 9 4 7 5 1 6 2 7 3 8 93 9 4 10 92 11 5 12 79 13
REMARK SMILES IDX 6 14 80 16 81 17 82 19 83 20 84 21 85 22 86 23 87 24 91 25
REMARK SMILES IDX 88 26 90 27 89 28 12 29 13 30 14 31 15 32 16 33 17 34 78 35
REMARK SMILES IDX 18 36 77 37 19 38 20 39 21 40 71 41 22 42 76 43 70 44 72 45
REMARK SMILES IDX 23 46 75 47 69 48 68 49 24 51 56 52 36 53 55 54 37 55 40 56
REMARK SMILES IDX 54 57 73 58 38 59 39 60 53 62 74 63 41 64 25 65 26 66 34 67
REMARK SMILES IDX 27 68 29 69 35 70 28 71 30 72 31 73 32 74 33 75 57 76 58 77
REMARK SMILES IDX 66 78 59 79 61 80 67 81 60 82 62 83 63 84 64 85 65 86 42 87
REMARK SMILES IDX 43 88 51 89 44 90 46 91 52 92 45 93 47 94 48 95 49 96 50 97
REMARK H PARENT 6 15 80 18 72 50 40 61
REMARK Flexibility Score: inf
ROOT
ATOM      1  C   UNL     1      -4.191  -1.829  -2.412  1.00  0.00     0.275 C 
ENDROOT
BRANCH   1   2
ATOM      2  O   UNL     1      -4.072  -2.958  -1.509  1.00  0.00    -0.457 OA
BRANCH   2   3
ATOM      3  C   UNL     1      -5.139  -3.808  -1.478  1.00  0.00     0.357 C 
ATOM      4  O   UNL     1      -6.093  -3.727  -2.241  1.00  0.00    -0.244 OA
BRANCH   3   5
ATOM      5  C   UNL     1      -4.916  -4.935  -0.598  1.00  0.00     0.149 A 
ATOM      6  C   UNL     1      -4.295  -9.938   2.836  1.00  0.00     0.044 C 
ATOM      7  C   UNL     1      -4.364  -8.956   1.703  1.00  0.00    -0.050 A 
ATOM      8  C   UNL     1      -4.262  -9.411   0.387  1.00  0.00     0.005 A 
ATOM      9  C   UNL     1      -4.546  -7.578   1.962  1.00  0.00     0.016 A 
ATOM     10  C   UNL     1      -4.374  -8.531  -0.686  1.00  0.00     0.027 A 
ATOM     11  C   UNL     1      -4.669  -6.658   0.889  1.00  0.00     0.024 A 
ATOM     12  C   UNL     1      -4.595  -7.183  -0.393  1.00  0.00     0.048 A 
ATOM     13  C   UNL     1      -4.897  -5.213   0.776  1.00  0.00     0.082 A 
ATOM     14  N   UNL     1      -4.828  -6.151  -1.245  1.00  0.00    -0.347 N 
ATOM     15  H   UNL     1      -4.923  -6.259  -2.219  1.00  0.00     0.167 HD
BRANCH  13  16
ATOM     16  N   UNL     1      -5.106  -4.449   1.944  1.00  0.00    -0.323 N 
ATOM     17  C   UNL     1      -5.276  -3.102   2.214  1.00  0.00     0.228 C 
ATOM     18  H   UNL     1      -5.137  -5.003   2.756  1.00  0.00     0.170 HD
ATOM     19  O   UNL     1      -5.542  -2.705   3.344  1.00  0.00    -0.274 OA
BRANCH  17  20
ATOM     20  C   UNL     1      -5.059  -2.174   1.115  1.00  0.00     0.087 C 
ATOM     21  C   UNL     1      -6.307  -1.782   0.378  1.00  0.00     0.023 C 
ATOM     22  C   UNL     1      -5.280  -0.742   0.768  1.00  0.00     0.032 C 
BRANCH  22  23
ATOM     23  C   UNL     1      -5.916   0.537   1.196  1.00  0.00    -0.044 A 
ATOM     24  C   UNL     1      -6.813   1.150   0.284  1.00  0.00     0.004 A 
ATOM     25  C   UNL     1      -5.445   1.319   2.252  1.00  0.00     0.004 A 
ATOM     26  C   UNL     1      -7.176   2.489   0.379  1.00  0.00     0.000 A 
ATOM     27  C   UNL     1      -5.808   2.669   2.353  1.00  0.00     0.000 A 
ATOM     28  C   UNL     1      -6.655   3.256   1.409  1.00  0.00     0.000 A 
ENDBRANCH  22  23
ENDBRANCH  17  20
ENDBRANCH  13  16
ENDBRANCH   3   5
ENDBRANCH   2   3
ENDBRANCH   1   2
BRANCH   1  29
ATOM     29  C   UNL     1      -2.824  -1.163  -2.616  1.00  0.00     0.275 C 
BRANCH  29  30
ATOM     30  O   UNL     1      -2.135  -1.851  -3.669  1.00  0.00    -0.458 OA
BRANCH  30  31
ATOM     31  C   UNL     1      -1.623  -3.041  -3.280  1.00  0.00     0.338 C 
ATOM     32  O   UNL     1      -1.256  -3.358  -2.160  1.00  0.00    -0.246 OA
BRANCH  31  33
ATOM     33  C   UNL     1      -1.957  -4.003  -4.336  1.00  0.00     0.060 A 
ATOM     34  C   UNL     1      -2.819  -5.043  -3.977  1.00  0.00     0.016 A 
ATOM     35  C   UNL     1      -1.478  -3.885  -5.636  1.00  0.00     0.016 A 
ATOM     36  C   UNL     1      -3.182  -6.009  -4.900  1.00  0.00     0.010 A 
ATOM     37  C   UNL     1      -1.833  -4.860  -6.566  1.00  0.00     0.010 A 
ATOM     38  C   UNL     1      -2.654  -5.943  -6.190  1.00  0.00    -0.014 A 
BRANCH  38  39
ATOM     39  C   UNL     1      -2.791  -7.104  -7.093  1.00  0.00     0.031 A 
ATOM     40  C   UNL     1      -1.558  -7.912  -7.379  1.00  0.00     0.074 A 
ATOM     41  C   UNL     1      -3.977  -7.420  -7.641  1.00  0.00     0.049 A 
ATOM     42  N   UNL     1      -1.352  -8.815  -8.296  1.00  0.00    -0.248 NA
ATOM     43  C   UNL     1      -0.387  -7.642  -6.523  1.00  0.00     0.031 C 
ATOM     44  C   UNL     1      -5.243  -6.739  -7.371  1.00  0.00     0.029 A 
ATOM     45  N   UNL     1      -4.299  -8.378  -8.567  1.00  0.00    -0.354 N 
ATOM     46  C   UNL     1      -0.009  -9.157  -8.187  1.00  0.00     0.074 A 
ATOM     47  C   UNL     1       0.548  -8.377  -7.105  1.00  0.00     0.031 C 
ATOM     48  C   UNL     1      -6.202  -7.280  -8.141  1.00  0.00     0.029 A 
ATOM     49  C   UNL     1      -5.601  -8.294  -9.002  1.00  0.00     0.049 A 
ATOM     50  H   UNL     1      -3.663  -9.057  -8.888  1.00  0.00     0.167 HD
ATOM     51  C   UNL     1       0.691 -10.043  -8.931  1.00  0.00     0.034 A 
ATOM     52  C   UNL     1      -6.213  -8.924 -10.022  1.00  0.00     0.034 A 
ATOM     53  C   UNL     1       0.095 -10.841  -9.966  1.00  0.00     0.049 A 
ATOM     54  C   UNL     1      -5.411  -9.897 -10.844  1.00  0.00     0.074 A 
ATOM     55  C   UNL     1       0.686 -11.801 -10.764  1.00  0.00     0.029 A 
ATOM     56  N   UNL     1      -1.239 -10.767 -10.343  1.00  0.00    -0.354 N 
ATOM     57  N   UNL     1      -4.152 -10.245 -10.716  1.00  0.00    -0.248 NA
ATOM     58  C   UNL     1      -6.113 -10.576 -11.941  1.00  0.00     0.031 C 
ATOM     59  C   UNL     1      -0.286 -12.289 -11.643  1.00  0.00     0.029 A 
ATOM     60  C   UNL     1      -1.491 -11.659 -11.368  1.00  0.00     0.049 A 
ATOM     61  H   UNL     1      -1.907 -10.167  -9.939  1.00  0.00     0.167 HD
ATOM     62  C   UNL     1      -3.917 -11.203 -11.694  1.00  0.00     0.074 A 
ATOM     63  C   UNL     1      -5.174 -11.397 -12.391  1.00  0.00     0.031 C 
ATOM     64  C   UNL     1      -2.769 -11.855 -12.004  1.00  0.00     0.034 A 
BRANCH  51  65
ATOM     65  C   UNL     1       2.166 -10.180  -8.656  1.00  0.00     0.023 A 
ATOM     66  C   UNL     1       2.615 -10.784  -7.464  1.00  0.00     0.012 A 
ATOM     67  C   UNL     1       3.112  -9.722  -9.595  1.00  0.00     0.148 A 
ATOM     68  C   UNL     1       3.979 -10.895  -7.194  1.00  0.00     0.002 A 
ATOM     69  C   UNL     1       4.469  -9.881  -9.341  1.00  0.00     0.091 A 
ATOM     70  F   UNL     1       2.668  -9.125 -10.710  1.00  0.00    -0.205 F 
ATOM     71  C   UNL     1       4.904 -10.454  -8.135  1.00  0.00     0.022 A 
BRANCH  69  72
ATOM     72  S   UNL     1       5.739  -9.413 -10.522  1.00  0.00     0.127 S 
ATOM     73  O   UNL     1       6.379  -8.290  -9.838  1.00  0.00    -0.237 OA
ATOM     74  O   UNL     1       6.551 -10.628 -10.593  1.00  0.00    -0.237 OA
ATOM     75  O   UNL     1       5.040  -9.075 -11.754  1.00  0.00    -0.744 OA
ENDBRANCH  69  72
ENDBRANCH  51  65
BRANCH  52  76
ATOM     76  C   UNL     1      -7.648  -8.648 -10.321  1.00  0.00     0.023 A 
ATOM     77  C   UNL     1      -8.607  -9.656 -10.108  1.00  0.00     0.012 A 
ATOM     78  C   UNL     1      -8.072  -7.385 -10.781  1.00  0.00     0.148 A 
ATOM     79  C   UNL     1      -9.958  -9.420 -10.370  1.00  0.00     0.002 A 
ATOM     80  C   UNL     1      -9.425  -7.138 -10.984  1.00  0.00     0.091 A 
ATOM     81  F   UNL     1      -7.143  -6.442 -10.995  1.00  0.00    -0.205 F 
ATOM     82  C   UNL     1     -10.368  -8.160 -10.796  1.00  0.00     0.022 A 
BRANCH  80  83
ATOM     83  S   UNL     1     -10.056  -5.509 -11.402  1.00  0.00     0.127 S 
ATOM     84  O   UNL     1     -10.494  -5.702 -12.782  1.00  0.00    -0.237 OA
ATOM     85  O   UNL     1     -11.136  -5.346 -10.429  1.00  0.00    -0.237 OA
ATOM     86  O   UNL     1      -8.937  -4.594 -11.215  1.00  0.00    -0.744 OA
ENDBRANCH  80  83
ENDBRANCH  52  76
BRANCH  64  87
ATOM     87  C   UNL     1      -2.832 -12.869 -13.114  1.00  0.00     0.023 A 
ATOM     88  C   UNL     1      -2.939 -12.443 -14.452  1.00  0.00     0.012 A 
ATOM     89  C   UNL     1      -2.705 -14.243 -12.829  1.00  0.00     0.148 A 
ATOM     90  C   UNL     1      -2.954 -13.373 -15.489  1.00  0.00     0.002 A 
ATOM     91  C   UNL     1      -2.666 -15.159 -13.871  1.00  0.00     0.091 A 
ATOM     92  F   UNL     1      -2.621 -14.625 -11.546  1.00  0.00    -0.205 F 
ATOM     93  C   UNL     1      -2.805 -14.728 -15.200  1.00  0.00     0.022 A 
BRANCH  91  94
ATOM     94  S   UNL     1      -2.371 -16.909 -13.599  1.00  0.00     0.127 S 
ATOM     95  O   UNL     1      -3.682 -17.482 -13.903  1.00  0.00    -0.237 OA
ATOM     96  O   UNL     1      -1.332 -17.204 -14.587  1.00  0.00    -0.237 OA
ATOM     97  O   UNL     1      -1.941 -17.035 -12.213  1.00  0.00    -0.744 OA
ENDBRANCH  91  94
ENDBRANCH  64  87
ENDBRANCH  38  39
ENDBRANCH  31  33
ENDBRANCH  30  31
ENDBRANCH  29  30
ENDBRANCH   1  29
TORSDOF 17
