REMARK SMILES O=C(OCCOC(=O)c1ccccc1Nc1cccc(S(F)(F)(F)(F)F)c1)c1ccc(-c2c3nc(c(-c4cccc(S(=O)(=O)[O-])c4F)c4ccc([nH]4)c(-c4cccc(S(=O)(=O)[O-])c4F)c4nc(c(-c5cccc(S(=O)(=O)[O-])c5F)c5ccc2[nH]5)C=C4)C=C3)cc1
REMARK SMILES IDX 4 1 3 2 2 3 1 4 28 5 29 6 90 7 30 8 89 9 31 10 32 11 33 12
REMARK SMILES IDX 83 13 34 14 88 15 82 16 84 17 35 18 87 19 81 20 80 21 36 23
REMARK SMILES IDX 68 24 48 25 67 26 49 27 52 28 66 29 85 30 50 31 51 32 65 34
REMARK SMILES IDX 86 35 53 36 37 37 38 38 46 39 39 40 41 41 47 42 40 43 42 44
REMARK SMILES IDX 43 45 44 46 45 47 69 48 70 49 78 50 71 51 73 52 79 53 72 54
REMARK SMILES IDX 74 55 75 56 76 57 77 58 54 59 55 60 63 61 56 62 58 63 64 64
REMARK SMILES IDX 57 65 59 66 60 67 61 68 62 69 5 70 6 71 7 72 8 73 9 74 10 75
REMARK SMILES IDX 14 76 11 77 13 78 12 79 15 80 16 82 17 83 27 84 18 85 20 86
REMARK SMILES IDX 19 87 21 88 22 89 23 90 24 91 25 92 26 93
REMARK H PARENT 84 22 52 33 15 81
REMARK Flexibility Score: inf
ROOT
ATOM      1  C   UNL     1       4.339   0.582  -1.058  1.00  0.00     0.275 C 
ENDROOT
BRANCH   1   2
ATOM      2  O   UNL     1       2.919   0.582  -1.058  1.00  0.00    -0.458 OA
BRANCH   2   3
ATOM      3  C   UNL     1       2.209   0.057   0.054  1.00  0.00     0.338 C 
ATOM      4  O   UNL     1       0.938   0.057   0.054  1.00  0.00    -0.246 OA
BRANCH   3   5
ATOM      5  C   UNL     1       2.969  -0.505   1.244  1.00  0.00     0.060 A 
ATOM      6  C   UNL     1       4.102   0.166   1.674  1.00  0.00     0.016 A 
ATOM      7  C   UNL     1       2.603  -1.659   1.791  1.00  0.00     0.016 A 
ATOM      8  C   UNL     1       4.951  -0.611   2.497  1.00  0.00     0.010 A 
ATOM      9  C   UNL     1       3.421  -2.297   2.692  1.00  0.00     0.010 A 
ATOM     10  C   UNL     1       4.585  -1.719   3.116  1.00  0.00    -0.014 A 
BRANCH  10  11
ATOM     11  C   UNL     1       5.413  -2.319   4.240  1.00  0.00     0.031 A 
ATOM     12  C   UNL     1       5.926  -3.611   4.109  1.00  0.00     0.074 A 
ATOM     13  C   UNL     1       5.683  -1.485   5.312  1.00  0.00     0.049 A 
ATOM     14  N   UNL     1       6.761  -4.243   4.935  1.00  0.00    -0.248 NA
ATOM     15  C   UNL     1       5.614  -4.511   2.989  1.00  0.00     0.031 C 
ATOM     16  C   UNL     1       5.177  -0.177   5.448  1.00  0.00     0.029 A 
ATOM     17  N   UNL     1       6.465  -1.751   6.414  1.00  0.00    -0.354 N 
ATOM     18  C   UNL     1       7.042  -5.460   4.464  1.00  0.00     0.074 A 
ATOM     19  C   UNL     1       6.303  -5.652   3.208  1.00  0.00     0.031 C 
ATOM     20  C   UNL     1       5.637   0.333   6.620  1.00  0.00     0.029 A 
ATOM     21  C   UNL     1       6.439  -0.646   7.237  1.00  0.00     0.049 A 
ATOM     22  H   UNL     1       6.957  -2.586   6.585  1.00  0.00     0.167 HD
ATOM     23  C   UNL     1       7.886  -6.415   5.031  1.00  0.00     0.034 A 
ATOM     24  C   UNL     1       7.072  -0.484   8.459  1.00  0.00     0.034 A 
ATOM     25  C   UNL     1       8.553  -6.236   6.232  1.00  0.00     0.049 A 
ATOM     26  C   UNL     1       7.870  -1.462   9.055  1.00  0.00     0.074 A 
ATOM     27  C   UNL     1       9.414  -7.186   6.814  1.00  0.00     0.029 A 
ATOM     28  N   UNL     1       8.508  -5.141   7.066  1.00  0.00    -0.354 N 
ATOM     29  N   UNL     1       8.182  -2.663   8.565  1.00  0.00    -0.248 NA
ATOM     30  C   UNL     1       8.518  -1.313  10.365  1.00  0.00     0.031 C 
ATOM     31  C   UNL     1       9.874  -6.676   7.987  1.00  0.00     0.029 A 
ATOM     32  C   UNL     1       9.308  -5.398   8.158  1.00  0.00     0.049 A 
ATOM     33  H   UNL     1       7.992  -4.317   6.910  1.00  0.00     0.167 HD
ATOM     34  C   UNL     1       8.984  -3.311   9.412  1.00  0.00     0.074 A 
ATOM     35  C   UNL     1       9.206  -2.455  10.586  1.00  0.00     0.031 C 
ATOM     36  C   UNL     1       9.543  -4.580   9.252  1.00  0.00     0.034 A 
BRANCH  23  37
ATOM     37  C   UNL     1       8.086  -7.727   4.288  1.00  0.00     0.023 A 
ATOM     38  C   UNL     1       8.687  -7.624   3.045  1.00  0.00     0.012 A 
ATOM     39  C   UNL     1       7.776  -8.909   4.808  1.00  0.00     0.148 A 
ATOM     40  C   UNL     1       8.658  -8.823   2.293  1.00  0.00     0.002 A 
ATOM     41  C   UNL     1       7.900 -10.056   4.062  1.00  0.00     0.091 A 
ATOM     42  F   UNL     1       7.340  -8.983   6.063  1.00  0.00    -0.205 F 
ATOM     43  C   UNL     1       8.431 -10.021   2.802  1.00  0.00     0.022 A 
BRANCH  41  44
ATOM     44  S   UNL     1       7.354 -11.636   4.756  1.00  0.00     0.127 S 
ATOM     45  O   UNL     1       6.258 -12.231   3.869  1.00  0.00    -0.237 OA
ATOM     46  O   UNL     1       8.540 -12.601   4.820  1.00  0.00    -0.237 OA
ATOM     47  O   UNL     1       6.738 -11.384   6.331  1.00  0.00    -0.744 OA
ENDBRANCH  41  44
ENDBRANCH  23  37
BRANCH  24  48
ATOM     48  C   UNL     1       6.885   0.834   9.193  1.00  0.00     0.023 A 
ATOM     49  C   UNL     1       7.972   1.597   9.586  1.00  0.00     0.012 A 
ATOM     50  C   UNL     1       5.646   1.179   9.525  1.00  0.00     0.148 A 
ATOM     51  C   UNL     1       7.669   2.557  10.581  1.00  0.00     0.002 A 
ATOM     52  C   UNL     1       5.418   2.215  10.397  1.00  0.00     0.091 A 
ATOM     53  F   UNL     1       4.617   0.513   9.008  1.00  0.00    -0.205 F 
ATOM     54  C   UNL     1       6.451   2.974  10.872  1.00  0.00     0.022 A 
BRANCH  52  55
ATOM     55  S   UNL     1       3.725   2.581  10.925  1.00  0.00     0.127 S 
ATOM     56  O   UNL     1       3.624   2.444  12.445  1.00  0.00    -0.237 OA
ATOM     57  O   UNL     1       3.361   4.010  10.515  1.00  0.00    -0.237 OA
ATOM     58  O   UNL     1       2.647   1.483  10.180  1.00  0.00    -0.744 OA
ENDBRANCH  52  55
ENDBRANCH  24  48
BRANCH  36  59
ATOM     59  C   UNL     1      10.466  -5.097  10.344  1.00  0.00     0.023 A 
ATOM     60  C   UNL     1       9.981  -5.166  11.639  1.00  0.00     0.012 A 
ATOM     61  C   UNL     1      11.726  -5.409  10.062  1.00  0.00     0.148 A 
ATOM     62  C   UNL     1      10.989  -5.300  12.623  1.00  0.00     0.002 A 
ATOM     63  C   UNL     1      12.625  -5.662  11.069  1.00  0.00     0.091 A 
ATOM     64  F   UNL     1      12.120  -5.478   8.794  1.00  0.00    -0.205 F 
ATOM     65  C   UNL     1      12.228  -5.688  12.377  1.00  0.00     0.022 A 
BRANCH  63  66
ATOM     66  S   UNL     1      14.362  -5.964  10.659  1.00  0.00     0.127 S 
ATOM     67  O   UNL     1      15.238  -4.910  11.340  1.00  0.00    -0.237 OA
ATOM     68  O   UNL     1      14.767  -7.356  11.148  1.00  0.00    -0.237 OA
ATOM     69  O   UNL     1      14.572  -5.871   8.964  1.00  0.00    -0.744 OA
ENDBRANCH  63  66
ENDBRANCH  36  59
ENDBRANCH  10  11
ENDBRANCH   3   5
ENDBRANCH   2   3
ENDBRANCH   1   2
BRANCH   1  70
ATOM     70  C   UNL     1       4.845   1.398   0.119  1.00  0.00     0.275 C 
BRANCH  70  71
ATOM     71  O   UNL     1       4.372   0.827   1.330  1.00  0.00    -0.458 OA
BRANCH  71  72
ATOM     72  C   UNL     1       2.976   0.716   1.565  1.00  0.00     0.340 C 
ATOM     73  O   UNL     1       2.150   1.128   0.691  1.00  0.00    -0.246 OA
BRANCH  72  74
ATOM     74  C   UNL     1       2.469   0.105   2.861  1.00  0.00     0.083 A 
ATOM     75  C   UNL     1       1.354  -0.716   2.857  1.00  0.00     0.018 A 
ATOM     76  C   UNL     1       3.042   0.484   3.998  1.00  0.00     0.053 A 
ATOM     77  C   UNL     1       0.737  -0.851   4.124  1.00  0.00     0.001 A 
ATOM     78  C   UNL     1       2.453   0.200   5.206  1.00  0.00     0.027 A 
ATOM     79  C   UNL     1       1.316  -0.557   5.274  1.00  0.00     0.002 A 
BRANCH  76  80
ATOM     80  N   UNL     1       4.316   1.215   3.962  1.00  0.00    -0.355 N 
ATOM     81  H   UNL     1       4.742   1.421   3.099  1.00  0.00     0.167 HD
BRANCH  80  82
ATOM     82  C   UNL     1       4.956   1.638   5.217  1.00  0.00     0.040 A 
ATOM     83  C   UNL     1       5.263   2.973   5.424  1.00  0.00     0.026 A 
ATOM     84  C   UNL     1       5.297   0.708   6.101  1.00  0.00     0.050 A 
ATOM     85  C   UNL     1       6.193   3.192   6.467  1.00  0.00     0.004 A 
ATOM     86  C   UNL     1       6.098   1.020   7.172  1.00  0.00     0.109 A 
ATOM     87  C   UNL     1       6.489   2.310   7.405  1.00  0.00     0.024 A 
BRANCH  86  88
ATOM     88  S   UNL     1       6.646  -0.293   8.290  1.00  0.00     0.310 S 
ATOM     89  F   UNL     1       5.283  -0.031   9.058  1.00  0.00    -0.094 F 
ATOM     90  F   UNL     1       7.320   0.735   9.275  1.00  0.00    -0.094 F 
ATOM     91  F   UNL     1       6.910  -1.460   9.283  1.00  0.00    -0.094 F 
ATOM     92  F   UNL     1       5.844  -1.282   7.354  1.00  0.00    -0.094 F 
ATOM     93  F   UNL     1       6.272   0.901   7.324  1.00  0.00    -0.094 F 
ENDBRANCH  86  88
ENDBRANCH  80  82
ENDBRANCH  76  80
ENDBRANCH  72  74
ENDBRANCH  71  72
ENDBRANCH  70  71
ENDBRANCH   1  70
TORSDOF 17
