REMARK SMILES C[C@H](S[C@H]1[NH+]=C(Cl)[NH+]=C2N=CN=C21)C(=O)OCCOC(=O)c1ccc(-c2c3nc(c(-c4cccc(S(=O)(=O)[O-])c4F)c4ccc([nH]4)c(-c4cccc(S(=O)(=O)[O-])c4F)c4nc(c(-c5cccc(S(=O)(=O)[O-])c5F)c5ccc2[nH]5)C=C4)C=C3)cc1
REMARK SMILES IDX 18 1 17 2 16 3 14 4 15 5 2 6 1 7 3 8 4 9 5 10 13 11 6 12
REMARK SMILES IDX 9 14 12 15 7 16 8 17 10 18 11 19 19 21 20 22 21 23 22 24
REMARK SMILES IDX 23 25 84 26 24 27 83 28 25 29 26 30 27 31 77 32 28 33 82 34
REMARK SMILES IDX 76 35 78 36 29 37 81 38 75 39 74 40 30 42 62 43 42 44 61 45
REMARK SMILES IDX 43 46 46 47 60 48 79 49 44 50 45 51 59 53 80 54 47 55 31 56
REMARK SMILES IDX 32 57 40 58 33 59 35 60 41 61 34 62 36 63 37 64 38 65 39 66
REMARK SMILES IDX 63 67 64 68 72 69 65 70 67 71 73 72 66 73 68 74 69 75 70 76
REMARK SMILES IDX 71 77 48 78 49 79 57 80 50 81 52 82 58 83 51 84 53 85 54 86
REMARK SMILES IDX 55 87 56 88
REMARK H PARENT 5 13 8 20 78 41 46 52
REMARK Flexibility Score: inf
ROOT
ATOM      1  C   UNL     1      -3.599  -0.260  -0.412  1.00  0.00     0.275 C 
ENDROOT
BRANCH   1   2
ATOM      2  C   UNL     1      -2.928  -0.057  -1.766  1.00  0.00     0.274 C 
BRANCH   2   3
ATOM      3  O   UNL     1      -1.491   0.015  -1.672  1.00  0.00    -0.461 OA
BRANCH   3   4
ATOM      4  C   UNL     1      -0.972   1.252  -1.435  1.00  0.00     0.319 C 
ATOM      5  O   UNL     1      -1.630   2.289  -1.428  1.00  0.00    -0.251 OA
BRANCH   4   6
ATOM      6  C   UNL     1       0.548   1.269  -1.327  1.00  0.00     0.160 C 
ATOM      7  C   UNL     1       1.075   1.487  -2.734  1.00  0.00     0.032 C 
BRANCH   6   8
ATOM      8  S   UNL     1       1.204  -0.102  -0.291  1.00  0.00    -0.067 SA
BRANCH   8   9
ATOM      9  C   UNL     1       2.536  -0.868  -1.242  1.00  0.00     0.384 C 
ATOM     10  N   UNL     1       2.139  -1.576  -2.455  1.00  0.00    -0.156 N 
ATOM     11  C   UNL     1       3.634   0.079  -1.484  1.00  0.00     0.214 C 
ATOM     12  C   UNL     1       2.783  -1.453  -3.553  1.00  0.00     0.514 C 
ATOM     13  H   UNL     1       1.351  -2.166  -2.427  1.00  0.00     0.455 HD
ATOM     14  C   UNL     1       4.242   0.071  -2.811  1.00  0.00     0.338 C 
ATOM     15  N   UNL     1       4.257   0.960  -0.768  1.00  0.00    -0.225 NA
ATOM     16  Cl  UNL     1       2.222  -2.352  -4.898  1.00  0.00     0.068 Cl
ATOM     17  N   UNL     1       3.858  -0.654  -3.792  1.00  0.00    -0.118 N 
ATOM     18  N   UNL     1       5.244   0.993  -2.839  1.00  0.00    -0.173 NA
ATOM     19  C   UNL     1       5.205   1.489  -1.636  1.00  0.00     0.229 C 
ATOM     20  H   UNL     1       4.312  -0.636  -4.665  1.00  0.00     0.464 HD
ENDBRANCH   8   9
ENDBRANCH   6   8
ENDBRANCH   4   6
ENDBRANCH   3   4
ENDBRANCH   2   3
ENDBRANCH   1   2
BRANCH   1  21
ATOM     21  O   UNL     1      -3.371   0.854   0.446  1.00  0.00    -0.458 OA
BRANCH  21  22
ATOM     22  C   UNL     1      -2.301   0.709   1.248  1.00  0.00     0.338 C 
ATOM     23  O   UNL     1      -1.456  -0.185   1.181  1.00  0.00    -0.246 OA
BRANCH  22  24
ATOM     24  C   UNL     1      -2.359   1.629   2.373  1.00  0.00     0.060 A 
ATOM     25  C   UNL     1      -1.254   1.640   3.233  1.00  0.00     0.016 A 
ATOM     26  C   UNL     1      -3.608   2.138   2.745  1.00  0.00     0.016 A 
ATOM     27  C   UNL     1      -1.460   1.962   4.553  1.00  0.00     0.010 A 
ATOM     28  C   UNL     1      -3.818   2.428   4.068  1.00  0.00     0.010 A 
ATOM     29  C   UNL     1      -2.761   2.260   4.963  1.00  0.00    -0.014 A 
BRANCH  29  30
ATOM     30  C   UNL     1      -2.996   2.479   6.371  1.00  0.00     0.031 A 
ATOM     31  C   UNL     1      -2.584   3.824   6.816  1.00  0.00     0.074 A 
ATOM     32  C   UNL     1      -3.673   1.590   7.120  1.00  0.00     0.049 A 
ATOM     33  N   UNL     1      -1.645   4.133   7.647  1.00  0.00    -0.248 NA
ATOM     34  C   UNL     1      -3.161   4.973   6.100  1.00  0.00     0.031 C 
ATOM     35  C   UNL     1      -4.375   0.394   6.644  1.00  0.00     0.029 A 
ATOM     36  N   UNL     1      -4.030   1.667   8.431  1.00  0.00    -0.354 N 
ATOM     37  C   UNL     1      -1.708   5.521   7.745  1.00  0.00     0.074 A 
ATOM     38  C   UNL     1      -2.439   5.974   6.597  1.00  0.00     0.031 C 
ATOM     39  C   UNL     1      -5.275   0.018   7.579  1.00  0.00     0.029 A 
ATOM     40  C   UNL     1      -5.131   0.876   8.742  1.00  0.00     0.049 A 
ATOM     41  H   UNL     1      -3.557   2.224   9.091  1.00  0.00     0.167 HD
ATOM     42  C   UNL     1      -1.473   6.141   8.932  1.00  0.00     0.034 A 
ATOM     43  C   UNL     1      -5.931   1.008   9.827  1.00  0.00     0.034 A 
ATOM     44  C   UNL     1      -0.751   5.275   9.837  1.00  0.00     0.049 A 
ATOM     45  C   UNL     1      -5.194   1.809  10.832  1.00  0.00     0.074 A 
ATOM     46  C   UNL     1       0.441   4.580   9.797  1.00  0.00     0.029 A 
ATOM     47  N   UNL     1      -1.471   4.744  10.879  1.00  0.00    -0.354 N 
ATOM     48  N   UNL     1      -4.137   1.389  11.468  1.00  0.00    -0.248 NA
ATOM     49  C   UNL     1      -5.417   3.246  10.876  1.00  0.00     0.031 C 
ATOM     50  C   UNL     1       0.218   3.400  10.567  1.00  0.00     0.029 A 
ATOM     51  C   UNL     1      -1.085   3.447  11.068  1.00  0.00     0.049 A 
ATOM     52  H   UNL     1      -2.154   5.220  11.404  1.00  0.00     0.167 HD
ATOM     53  C   UNL     1      -3.336   2.518  11.590  1.00  0.00     0.074 A 
ATOM     54  C   UNL     1      -4.236   3.642  11.356  1.00  0.00     0.031 C 
ATOM     55  C   UNL     1      -1.973   2.414  11.559  1.00  0.00     0.034 A 
BRANCH  42  56
ATOM     56  C   UNL     1      -2.293   7.314   9.457  1.00  0.00     0.023 A 
ATOM     57  C   UNL     1      -1.907   7.830  10.715  1.00  0.00     0.012 A 
ATOM     58  C   UNL     1      -3.567   7.708   8.977  1.00  0.00     0.148 A 
ATOM     59  C   UNL     1      -2.787   8.576  11.507  1.00  0.00     0.002 A 
ATOM     60  C   UNL     1      -4.415   8.500   9.741  1.00  0.00     0.091 A 
ATOM     61  F   UNL     1      -4.039   7.243   7.822  1.00  0.00    -0.205 F 
ATOM     62  C   UNL     1      -4.048   8.901  11.024  1.00  0.00     0.022 A 
BRANCH  60  63
ATOM     63  S   UNL     1      -6.048   8.972   9.149  1.00  0.00     0.127 S 
ATOM     64  O   UNL     1      -6.907   8.131   9.978  1.00  0.00    -0.237 OA
ATOM     65  O   UNL     1      -6.077  10.399   9.469  1.00  0.00    -0.237 OA
ATOM     66  O   UNL     1      -6.056   8.680   7.721  1.00  0.00    -0.744 OA
ENDBRANCH  60  63
ENDBRANCH  42  56
BRANCH  43  67
ATOM     67  C   UNL     1      -7.372   0.695   9.979  1.00  0.00     0.023 A 
ATOM     68  C   UNL     1      -7.910   0.543  11.272  1.00  0.00     0.012 A 
ATOM     69  C   UNL     1      -8.271   0.785   8.892  1.00  0.00     0.148 A 
ATOM     70  C   UNL     1      -9.294   0.514  11.480  1.00  0.00     0.002 A 
ATOM     71  C   UNL     1      -9.646   0.733   9.101  1.00  0.00     0.091 A 
ATOM     72  F   UNL     1      -7.788   1.019   7.665  1.00  0.00    -0.205 F 
ATOM     73  C   UNL     1     -10.162   0.612  10.396  1.00  0.00     0.022 A 
BRANCH  71  74
ATOM     74  S   UNL     1     -10.821   0.843   7.744  1.00  0.00     0.127 S 
ATOM     75  O   UNL     1     -11.771  -0.220   8.074  1.00  0.00    -0.237 OA
ATOM     76  O   UNL     1     -11.341   2.198   7.900  1.00  0.00    -0.237 OA
ATOM     77  O   UNL     1     -10.050   0.594   6.532  1.00  0.00    -0.744 OA
ENDBRANCH  71  74
ENDBRANCH  43  67
BRANCH  55  78
ATOM     78  C   UNL     1      -1.360   1.055  11.781  1.00  0.00     0.023 A 
ATOM     79  C   UNL     1      -1.601  -0.031  10.915  1.00  0.00     0.012 A 
ATOM     80  C   UNL     1      -0.402   0.912  12.800  1.00  0.00     0.148 A 
ATOM     81  C   UNL     1      -0.928  -1.243  11.084  1.00  0.00     0.002 A 
ATOM     82  C   UNL     1       0.301  -0.279  12.934  1.00  0.00     0.091 A 
ATOM     83  F   UNL     1      -0.178   1.955  13.615  1.00  0.00    -0.205 F 
ATOM     84  C   UNL     1       0.032  -1.363  12.086  1.00  0.00     0.022 A 
BRANCH  82  85
ATOM     85  S   UNL     1       1.638  -0.444  14.120  1.00  0.00     0.127 S 
ATOM     86  O   UNL     1       0.993  -1.167  15.213  1.00  0.00    -0.237 OA
ATOM     87  O   UNL     1       2.631  -1.221  13.374  1.00  0.00    -0.237 OA
ATOM     88  O   UNL     1       2.065   0.917  14.426  1.00  0.00    -0.744 OA
ENDBRANCH  82  85
ENDBRANCH  55  78
ENDBRANCH  29  30
ENDBRANCH  22  24
ENDBRANCH  21  22
ENDBRANCH   1  21
TORSDOF 16
