REMARK SMILES C[C@H](C(=O)NC1(C(=O)OCCOC(=O)c2ccc(-c3c4nc(c(-c5cccc(S(=O)(=O)[O-])c5F)c5ccc([nH]5)c(-c5cccc(S(=O)(=O)[O-])c5F)c5nc(c(-c6cccc(S(=O)(=O)[O-])c6F)c6ccc3[nH]6)C=C5)C=C4)cc2)CCCC1)c1cccs1
REMARK SMILES IDX 10 1 9 2 7 3 8 4 6 5 78 6 81 7 79 8 80 9 5 10 3 11 4 12 2 14
REMARK SMILES IDX 1 15 82 16 83 17 86 18 84 19 85 20 11 21 12 22 13 23 14 24
REMARK SMILES IDX 15 25 16 26 77 27 17 28 76 29 18 30 19 31 20 32 70 33 21 34
REMARK SMILES IDX 75 35 69 36 71 37 22 38 74 39 68 40 67 41 23 43 55 44 35 45
REMARK SMILES IDX 54 46 36 47 39 48 53 49 72 50 37 51 38 52 52 54 73 55 40 56
REMARK SMILES IDX 24 57 25 58 33 59 26 60 28 61 34 62 27 63 29 64 30 65 31 66
REMARK SMILES IDX 32 67 56 68 57 69 65 70 58 71 60 72 66 73 59 74 61 75 62 76
REMARK SMILES IDX 63 77 64 78 41 79 42 80 50 81 43 82 45 83 51 84 44 85 46 86
REMARK SMILES IDX 47 87 48 88 49 89
REMARK H PARENT 5 13 71 42 39 53
REMARK Flexibility Score: inf
ROOT
ATOM      1  C   UNL     1      -0.343   5.112   2.982  1.00  0.00     0.274 C 
ENDROOT
BRANCH   1   2
ATOM      2  O   UNL     1      -0.465   3.677   3.062  1.00  0.00    -0.460 OA
BRANCH   2   3
ATOM      3  C   UNL     1      -0.527   3.006   1.881  1.00  0.00     0.331 C 
ATOM      4  O   UNL     1      -0.551   3.553   0.782  1.00  0.00    -0.249 OA
BRANCH   3   5
ATOM      5  C   UNL     1      -0.619   1.450   2.040  1.00  0.00     0.138 C 
ATOM      6  C   UNL     1      -2.107   1.103   2.018  1.00  0.00     0.040 C 
ATOM      7  C   UNL     1      -0.102   0.978   3.409  1.00  0.00     0.040 C 
ATOM      8  C   UNL     1      -2.528   1.231   3.473  1.00  0.00     0.003 C 
ATOM      9  C   UNL     1      -1.351   0.631   4.228  1.00  0.00     0.003 C 
BRANCH   5  10
ATOM     10  N   UNL     1       0.149   0.935   0.881  1.00  0.00    -0.340 N 
ATOM     11  C   UNL     1       0.512  -0.206   0.265  1.00  0.00     0.228 C 
ATOM     12  O   UNL     1       1.283  -0.040  -0.692  1.00  0.00    -0.274 OA
ATOM     13  H   UNL     1       0.527   1.698   0.387  1.00  0.00     0.164 HD
BRANCH  11  14
ATOM     14  C   UNL     1       0.068  -1.628   0.600  1.00  0.00     0.115 C 
ATOM     15  C   UNL     1       0.543  -2.110   1.961  1.00  0.00     0.024 C 
BRANCH  14  16
ATOM     16  C   UNL     1      -1.402  -1.863   0.321  1.00  0.00     0.017 A 
ATOM     17  C   UNL     1      -2.308  -2.645   1.018  1.00  0.00     0.016 A 
ATOM     18  S   UNL     1      -2.146  -1.181  -1.078  1.00  0.00    -0.148 S 
ATOM     19  C   UNL     1      -3.624  -2.580   0.477  1.00  0.00     0.012 A 
ATOM     20  C   UNL     1      -3.680  -1.790  -0.647  1.00  0.00     0.065 A 
ENDBRANCH  14  16
ENDBRANCH  11  14
ENDBRANCH   5  10
ENDBRANCH   3   5
ENDBRANCH   2   3
ENDBRANCH   1   2
BRANCH   1  21
ATOM     21  C   UNL     1       1.101   5.550   3.215  1.00  0.00     0.275 C 
BRANCH  21  22
ATOM     22  O   UNL     1       1.923   5.145   2.107  1.00  0.00    -0.458 OA
BRANCH  22  23
ATOM     23  C   UNL     1       2.872   4.222   2.375  1.00  0.00     0.338 C 
ATOM     24  O   UNL     1       3.120   3.711   3.461  1.00  0.00    -0.246 OA
BRANCH  23  25
ATOM     25  C   UNL     1       3.572   3.853   1.137  1.00  0.00     0.060 A 
ATOM     26  C   UNL     1       2.865   3.198   0.133  1.00  0.00     0.016 A 
ATOM     27  C   UNL     1       4.947   4.034   1.017  1.00  0.00     0.016 A 
ATOM     28  C   UNL     1       3.539   2.616  -0.937  1.00  0.00     0.010 A 
ATOM     29  C   UNL     1       5.606   3.554  -0.122  1.00  0.00     0.010 A 
ATOM     30  C   UNL     1       4.919   2.801  -1.093  1.00  0.00    -0.014 A 
BRANCH  30  31
ATOM     31  C   UNL     1       5.644   2.190  -2.246  1.00  0.00     0.031 A 
ATOM     32  C   UNL     1       6.825   1.283  -2.006  1.00  0.00     0.074 A 
ATOM     33  C   UNL     1       5.265   2.453  -3.514  1.00  0.00     0.049 A 
ATOM     34  N   UNL     1       7.707   0.828  -2.859  1.00  0.00    -0.248 NA
ATOM     35  C   UNL     1       7.061   0.850  -0.618  1.00  0.00     0.031 C 
ATOM     36  C   UNL     1       4.135   3.297  -3.904  1.00  0.00     0.029 A 
ATOM     37  N   UNL     1       5.795   2.040  -4.714  1.00  0.00    -0.354 N 
ATOM     38  C   UNL     1       8.648   0.138  -2.104  1.00  0.00     0.074 A 
ATOM     39  C   UNL     1       8.221   0.216  -0.724  1.00  0.00     0.031 C 
ATOM     40  C   UNL     1       4.033   3.312  -5.241  1.00  0.00     0.029 A 
ATOM     41  C   UNL     1       5.138   2.550  -5.811  1.00  0.00     0.049 A 
ATOM     42  H   UNL     1       6.570   1.437  -4.782  1.00  0.00     0.167 HD
ATOM     43  C   UNL     1       9.762  -0.509  -2.523  1.00  0.00     0.034 A 
ATOM     44  C   UNL     1       5.407   2.449  -7.128  1.00  0.00     0.034 A 
ATOM     45  C   UNL     1      10.126  -0.682  -3.905  1.00  0.00     0.049 A 
ATOM     46  C   UNL     1       6.614   1.672  -7.571  1.00  0.00     0.074 A 
ATOM     47  C   UNL     1      11.214  -1.358  -4.429  1.00  0.00     0.029 A 
ATOM     48  N   UNL     1       9.394  -0.206  -4.981  1.00  0.00    -0.354 N 
ATOM     49  N   UNL     1       7.484   1.015  -6.843  1.00  0.00    -0.248 NA
ATOM     50  C   UNL     1       6.878   1.619  -9.016  1.00  0.00     0.031 C 
ATOM     51  C   UNL     1      11.136  -1.296  -5.825  1.00  0.00     0.029 A 
ATOM     52  C   UNL     1      10.000  -0.581  -6.168  1.00  0.00     0.049 A 
ATOM     53  H   UNL     1       8.566   0.322  -4.912  1.00  0.00     0.167 HD
ATOM     54  C   UNL     1       8.393   0.466  -7.739  1.00  0.00     0.074 A 
ATOM     55  C   UNL     1       7.948   0.836  -9.067  1.00  0.00     0.031 C 
ATOM     56  C   UNL     1       9.514  -0.251  -7.483  1.00  0.00     0.034 A 
BRANCH  43  57
ATOM     57  C   UNL     1      10.658  -1.115  -1.476  1.00  0.00     0.023 A 
ATOM     58  C   UNL     1      10.289  -2.323  -0.854  1.00  0.00     0.012 A 
ATOM     59  C   UNL     1      11.895  -0.520  -1.155  1.00  0.00     0.148 A 
ATOM     60  C   UNL     1      11.126  -2.918   0.090  1.00  0.00     0.002 A 
ATOM     61  C   UNL     1      12.741  -1.139  -0.240  1.00  0.00     0.091 A 
ATOM     62  F   UNL     1      12.218   0.643  -1.738  1.00  0.00    -0.205 F 
ATOM     63  C   UNL     1      12.355  -2.334   0.388  1.00  0.00     0.022 A 
BRANCH  61  64
ATOM     64  S   UNL     1      14.372  -0.492   0.147  1.00  0.00     0.127 S 
ATOM     65  O   UNL     1      14.134   0.162   1.433  1.00  0.00    -0.237 OA
ATOM     66  O   UNL     1      15.183  -1.708   0.224  1.00  0.00    -0.237 OA
ATOM     67  O   UNL     1      14.719   0.392  -0.957  1.00  0.00    -0.744 OA
ENDBRANCH  61  64
ENDBRANCH  43  57
BRANCH  44  68
ATOM     68  C   UNL     1       4.491   3.087  -8.117  1.00  0.00     0.023 A 
ATOM     69  C   UNL     1       3.683   2.271  -8.932  1.00  0.00     0.012 A 
ATOM     70  C   UNL     1       4.361   4.487  -8.205  1.00  0.00     0.148 A 
ATOM     71  C   UNL     1       2.769   2.838  -9.821  1.00  0.00     0.002 A 
ATOM     72  C   UNL     1       3.404   5.043  -9.046  1.00  0.00     0.091 A 
ATOM     73  F   UNL     1       5.160   5.252  -7.447  1.00  0.00    -0.205 F 
ATOM     74  C   UNL     1       2.616   4.222  -9.866  1.00  0.00     0.022 A 
BRANCH  72  75
ATOM     75  S   UNL     1       3.046   6.804  -9.028  1.00  0.00     0.127 S 
ATOM     76  O   UNL     1       3.819   7.282 -10.170  1.00  0.00    -0.237 OA
ATOM     77  O   UNL     1       1.594   6.832  -9.213  1.00  0.00    -0.237 OA
ATOM     78  O   UNL     1       3.483   7.266  -7.716  1.00  0.00    -0.744 OA
ENDBRANCH  72  75
ENDBRANCH  44  68
BRANCH  56  79
ATOM     79  C   UNL     1      10.341  -0.687  -8.661  1.00  0.00     0.023 A 
ATOM     80  C   UNL     1      11.171   0.254  -9.302  1.00  0.00     0.012 A 
ATOM     81  C   UNL     1      10.353  -2.028  -9.089  1.00  0.00     0.148 A 
ATOM     82  C   UNL     1      11.986  -0.129 -10.367  1.00  0.00     0.002 A 
ATOM     83  C   UNL     1      11.194  -2.410 -10.129  1.00  0.00     0.091 A 
ATOM     84  F   UNL     1       9.539  -2.903  -8.482  1.00  0.00    -0.205 F 
ATOM     85  C   UNL     1      12.005  -1.461 -10.773  1.00  0.00     0.022 A 
BRANCH  83  86
ATOM     86  S   UNL     1      11.334  -4.121 -10.659  1.00  0.00     0.127 S 
ATOM     87  O   UNL     1      10.478  -4.138 -11.844  1.00  0.00    -0.237 OA
ATOM     88  O   UNL     1      12.765  -4.250 -10.939  1.00  0.00    -0.237 OA
ATOM     89  O   UNL     1      10.871  -4.920  -9.532  1.00  0.00    -0.744 OA
ENDBRANCH  83  86
ENDBRANCH  56  79
ENDBRANCH  30  31
ENDBRANCH  23  25
ENDBRANCH  22  23
ENDBRANCH  21  22
ENDBRANCH   1  21
TORSDOF 17
