REMARK SMILES NC(=O)[C@@H]1CCCCN1C(=O)N[C@H]1C=C[C@@H](C(=O)OCCOC(=O)c2ccc(-c3c4nc(c(-c5cccc(S(=O)(=O)[O-])c5F)c5ccc([nH]5)c(-c5cccc(S(=O)(=O)[O-])c5F)c5nc(c(-c6cccc(S(=O)(=O)[O-])c6F)c6ccc3[nH]6)C=C5)C=C4)cc2)C1
REMARK SMILES IDX 20 1 19 2 17 3 18 4 16 5 13 6 14 7 88 8 15 9 12 10 10 11
REMARK SMILES IDX 11 12 9 14 4 15 5 16 6 17 8 18 7 19 2 20 1 21 3 24 21 25
REMARK SMILES IDX 22 26 23 27 24 28 25 29 26 30 87 31 27 32 86 33 28 34 29 35
REMARK SMILES IDX 30 36 80 37 31 38 85 39 79 40 81 41 32 42 84 43 78 44 77 45
REMARK SMILES IDX 33 47 65 48 45 49 64 50 46 51 49 52 63 53 82 54 47 55 48 56
REMARK SMILES IDX 62 58 83 59 50 60 34 61 35 62 43 63 36 64 38 65 44 66 37 67
REMARK SMILES IDX 39 68 40 69 41 70 42 71 66 72 67 73 75 74 68 75 70 76 76 77
REMARK SMILES IDX 69 78 71 79 72 80 73 81 74 82 51 83 52 84 60 85 53 86 55 87
REMARK SMILES IDX 61 88 54 89 56 90 57 91 58 92 59 93
REMARK H PARENT 12 13 1 22 1 23 81 46 49 57
REMARK Flexibility Score: inf
ROOT
ATOM      1  C   UNL     1       7.799   5.143  -0.575  1.00  0.00     0.274 C 
ENDROOT
BRANCH   1   2
ATOM      2  O   UNL     1       6.490   5.149  -1.176  1.00  0.00    -0.462 OA
BRANCH   2   3
ATOM      3  C   UNL     1       6.341   5.903  -2.296  1.00  0.00     0.312 C 
ATOM      4  O   UNL     1       7.192   6.668  -2.737  1.00  0.00    -0.252 OA
BRANCH   3   5
ATOM      5  C   UNL     1       4.974   5.750  -2.953  1.00  0.00     0.124 C 
ATOM      6  C   UNL     1       2.759   4.746  -2.716  1.00  0.00     0.107 C 
ATOM      7  C   UNL     1       2.768   6.188  -2.300  1.00  0.00    -0.006 C 
ATOM      8  C   UNL     1       4.255   4.413  -2.750  1.00  0.00     0.048 C 
ATOM      9  C   UNL     1       3.979   6.741  -2.432  1.00  0.00    -0.014 C 
BRANCH   6  10
ATOM     10  N   UNL     1       2.062   3.972  -1.718  1.00  0.00    -0.332 N 
ATOM     11  C   UNL     1       1.594   2.721  -1.590  1.00  0.00     0.318 C 
ATOM     12  O   UNL     1       1.201   2.474  -0.446  1.00  0.00    -0.249 OA
ATOM     13  H   UNL     1       1.880   4.507  -0.912  1.00  0.00     0.165 HD
BRANCH  11  14
ATOM     14  N   UNL     1       1.533   1.804  -2.597  1.00  0.00    -0.313 N 
ATOM     15  C   UNL     1       0.991   0.441  -2.333  1.00  0.00     0.176 C 
ATOM     16  C   UNL     1       2.117  -0.606  -2.436  1.00  0.00     0.035 C 
ATOM     17  C   UNL     1       2.806  -0.532  -3.798  1.00  0.00     0.004 C 
ATOM     18  C   UNL     1       2.117   1.889  -3.939  1.00  0.00     0.122 C 
ATOM     19  C   UNL     1       3.269   0.893  -4.093  1.00  0.00     0.022 C 
BRANCH  15  20
ATOM     20  C   UNL     1       0.072   0.129  -1.122  1.00  0.00     0.240 C 
ATOM     21  N   UNL     1       0.695  -0.057   0.081  1.00  0.00    -0.368 N 
ATOM     22  H   UNL     1       0.164  -0.257   0.885  1.00  0.00     0.159 HD
ATOM     23  H   UNL     1       1.675   0.011   0.143  1.00  0.00     0.159 HD
ATOM     24  O   UNL     1      -1.149   0.026  -1.210  1.00  0.00    -0.273 OA
ENDBRANCH  15  20
ENDBRANCH  11  14
ENDBRANCH   6  10
ENDBRANCH   3   5
ENDBRANCH   2   3
ENDBRANCH   1   2
BRANCH   1  25
ATOM     25  C   UNL     1       8.502   3.805  -0.819  1.00  0.00     0.275 C 
BRANCH  25  26
ATOM     26  O   UNL     1       8.811   3.614  -2.212  1.00  0.00    -0.458 OA
BRANCH  26  27
ATOM     27  C   UNL     1       7.860   2.972  -2.931  1.00  0.00     0.338 C 
ATOM     28  O   UNL     1       6.801   2.524  -2.524  1.00  0.00    -0.246 OA
BRANCH  27  29
ATOM     29  C   UNL     1       8.216   2.992  -4.358  1.00  0.00     0.060 A 
ATOM     30  C   UNL     1       7.319   3.587  -5.250  1.00  0.00     0.016 A 
ATOM     31  C   UNL     1       9.374   2.369  -4.824  1.00  0.00     0.016 A 
ATOM     32  C   UNL     1       7.570   3.553  -6.618  1.00  0.00     0.010 A 
ATOM     33  C   UNL     1       9.627   2.339  -6.199  1.00  0.00     0.010 A 
ATOM     34  C   UNL     1       8.720   2.919  -7.104  1.00  0.00    -0.014 A 
BRANCH  34  35
ATOM     35  C   UNL     1       8.960   2.844  -8.564  1.00  0.00     0.031 A 
ATOM     36  C   UNL     1       8.763   1.546  -9.292  1.00  0.00     0.074 A 
ATOM     37  C   UNL     1       9.361   3.943  -9.229  1.00  0.00     0.049 A 
ATOM     38  N   UNL     1       8.967   1.269 -10.553  1.00  0.00    -0.248 NA
ATOM     39  C   UNL     1       8.271   0.408  -8.498  1.00  0.00     0.031 C 
ATOM     40  C   UNL     1       9.581   5.258  -8.627  1.00  0.00     0.029 A 
ATOM     41  N   UNL     1       9.674   4.122 -10.553  1.00  0.00    -0.354 N 
ATOM     42  C   UNL     1       8.662  -0.078 -10.701  1.00  0.00     0.074 A 
ATOM     43  C   UNL     1       8.261  -0.566  -9.399  1.00  0.00     0.031 C 
ATOM     44  C   UNL     1      10.009   6.107  -9.576  1.00  0.00     0.029 A 
ATOM     45  C   UNL     1      10.124   5.389 -10.842  1.00  0.00     0.049 A 
ATOM     46  H   UNL     1       9.585   3.413 -11.229  1.00  0.00     0.167 HD
ATOM     47  C   UNL     1       8.698  -0.835 -11.824  1.00  0.00     0.034 A 
ATOM     48  C   UNL     1      10.597   5.905 -11.994  1.00  0.00     0.034 A 
ATOM     49  C   UNL     1       9.071  -0.339 -13.121  1.00  0.00     0.049 A 
ATOM     50  C   UNL     1      10.644   5.035 -13.221  1.00  0.00     0.074 A 
ATOM     51  C   UNL     1       9.102  -1.020 -14.326  1.00  0.00     0.029 A 
ATOM     52  N   UNL     1       9.482   0.958 -13.386  1.00  0.00    -0.354 N 
ATOM     53  N   UNL     1      10.253   3.792 -13.366  1.00  0.00    -0.248 NA
ATOM     54  C   UNL     1      11.173   5.646 -14.449  1.00  0.00     0.031 C 
ATOM     55  C   UNL     1       9.545  -0.137 -15.316  1.00  0.00     0.029 A 
ATOM     56  C   UNL     1       9.776   1.098 -14.731  1.00  0.00     0.049 A 
ATOM     57  H   UNL     1       9.555   1.675 -12.714  1.00  0.00     0.167 HD
ATOM     58  C   UNL     1      10.462   3.480 -14.705  1.00  0.00     0.074 A 
ATOM     59  C   UNL     1      10.993   4.673 -15.333  1.00  0.00     0.031 C 
ATOM     60  C   UNL     1      10.251   2.308 -15.352  1.00  0.00     0.034 A 
BRANCH  47  61
ATOM     61  C   UNL     1       8.288  -2.278 -11.705  1.00  0.00     0.023 A 
ATOM     62  C   UNL     1       6.922  -2.601 -11.585  1.00  0.00     0.012 A 
ATOM     63  C   UNL     1       9.242  -3.312 -11.771  1.00  0.00     0.148 A 
ATOM     64  C   UNL     1       6.512  -3.932 -11.507  1.00  0.00     0.002 A 
ATOM     65  C   UNL     1       8.822  -4.637 -11.728  1.00  0.00     0.091 A 
ATOM     66  F   UNL     1      10.538  -2.983 -11.860  1.00  0.00    -0.205 F 
ATOM     67  C   UNL     1       7.460  -4.948 -11.588  1.00  0.00     0.022 A 
BRANCH  65  68
ATOM     68  S   UNL     1       9.963  -6.015 -11.892  1.00  0.00     0.127 S 
ATOM     69  O   UNL     1      10.031  -6.506 -10.516  1.00  0.00    -0.237 OA
ATOM     70  O   UNL     1       9.254  -6.898 -12.819  1.00  0.00    -0.237 OA
ATOM     71  O   UNL     1      11.197  -5.450 -12.420  1.00  0.00    -0.744 OA
ENDBRANCH  65  68
ENDBRANCH  47  61
BRANCH  48  72
ATOM     72  C   UNL     1      11.023   7.331 -12.047  1.00  0.00     0.023 A 
ATOM     73  C   UNL     1      10.249   8.257 -12.771  1.00  0.00     0.012 A 
ATOM     74  C   UNL     1      12.166   7.781 -11.358  1.00  0.00     0.148 A 
ATOM     75  C   UNL     1      10.617   9.602 -12.826  1.00  0.00     0.002 A 
ATOM     76  C   UNL     1      12.497   9.131 -11.372  1.00  0.00     0.091 A 
ATOM     77  F   UNL     1      12.904   6.880 -10.693  1.00  0.00    -0.205 F 
ATOM     78  C   UNL     1      11.732  10.041 -12.117  1.00  0.00     0.022 A 
BRANCH  76  79
ATOM     79  S   UNL     1      13.840   9.798 -10.382  1.00  0.00     0.127 S 
ATOM     80  O   UNL     1      14.864  10.044 -11.393  1.00  0.00    -0.237 OA
ATOM     81  O   UNL     1      13.232  11.002  -9.813  1.00  0.00    -0.237 OA
ATOM     82  O   UNL     1      14.148   8.765  -9.401  1.00  0.00    -0.744 OA
ENDBRANCH  76  79
ENDBRANCH  48  72
BRANCH  60  83
ATOM     83  C   UNL     1      10.571   2.255 -16.823  1.00  0.00     0.023 A 
ATOM     84  C   UNL     1      11.915   2.199 -17.240  1.00  0.00     0.012 A 
ATOM     85  C   UNL     1       9.543   2.182 -17.783  1.00  0.00     0.148 A 
ATOM     86  C   UNL     1      12.233   2.094 -18.593  1.00  0.00     0.002 A 
ATOM     87  C   UNL     1       9.867   2.035 -19.127  1.00  0.00     0.091 A 
ATOM     88  F   UNL     1       8.271   2.259 -17.367  1.00  0.00    -0.205 F 
ATOM     89  C   UNL     1      11.210   2.000 -19.535  1.00  0.00     0.022 A 
BRANCH  87  90
ATOM     90  S   UNL     1       8.614   1.816 -20.397  1.00  0.00     0.127 S 
ATOM     91  O   UNL     1       8.603   3.131 -21.035  1.00  0.00    -0.237 OA
ATOM     92  O   UNL     1       9.182   0.745 -21.216  1.00  0.00    -0.237 OA
ATOM     93  O   UNL     1       7.393   1.450 -19.691  1.00  0.00    -0.744 OA
ENDBRANCH  87  90
ENDBRANCH  60  83
ENDBRANCH  34  35
ENDBRANCH  27  29
ENDBRANCH  26  27
ENDBRANCH  25  26
ENDBRANCH   1  25
TORSDOF 17
