REMARK SMILES NNS(=O)(=O)c1ccc(O)c(C(=O)OCCOC(=O)c2ccc(-c3c4nc(c(-c5cccc(S(=O)(=O)[O-])c5F)c5ccc([nH]5)c(-c5cccc(S(=O)(=O)[O-])c5F)c5nc(c(-c6cccc(S(=O)(=O)[O-])c6F)c6ccc3[nH]6)C=C5)C=C4)cc2)c1
REMARK SMILES IDX 15 1 14 2 12 3 13 4 11 5 6 6 7 7 83 8 8 9 9 10 3 11 4 12
REMARK SMILES IDX 5 13 2 14 1 16 10 19 16 21 17 22 18 23 19 24 20 25 21 26
REMARK SMILES IDX 82 27 22 28 81 29 23 30 24 31 25 32 75 33 26 34 80 35 74 36
REMARK SMILES IDX 76 37 27 38 79 39 73 40 72 41 28 43 60 44 40 45 59 46 41 47
REMARK SMILES IDX 44 48 58 49 77 50 42 51 43 52 57 54 78 55 45 56 29 57 30 58
REMARK SMILES IDX 38 59 31 60 33 61 39 62 32 63 34 64 35 65 36 66 37 67 61 68
REMARK SMILES IDX 62 69 70 70 63 71 65 72 71 73 64 74 66 75 67 76 68 77 69 78
REMARK SMILES IDX 46 79 47 80 55 81 48 82 50 83 56 84 49 85 51 86 52 87 53 88
REMARK SMILES IDX 54 89
REMARK H PARENT 2 15 1 17 1 18 10 20 76 42 44 53
REMARK Flexibility Score: inf
ROOT
ATOM      1  C   UNL     1      -3.555  -4.089   5.883  1.00  0.00     0.275 C 
ENDROOT
BRANCH   1   2
ATOM      2  O   UNL     1      -3.383  -2.904   5.079  1.00  0.00    -0.458 OA
BRANCH   2   3
ATOM      3  C   UNL     1      -2.208  -2.787   4.413  1.00  0.00     0.342 C 
ATOM      4  O   UNL     1      -1.299  -3.602   4.388  1.00  0.00    -0.246 OA
BRANCH   3   5
ATOM      5  C   UNL     1      -2.183  -1.561   3.583  1.00  0.00     0.103 A 
ATOM      6  C   UNL     1      -1.733  -0.542   1.428  1.00  0.00     0.084 A 
ATOM      7  C   UNL     1      -2.062   0.713   1.940  1.00  0.00     0.025 A 
ATOM      8  C   UNL     1      -1.764  -1.670   2.249  1.00  0.00     0.041 A 
ATOM      9  C   UNL     1      -2.437   0.833   3.280  1.00  0.00     0.048 A 
ATOM     10  C   UNL     1      -2.508  -0.302   4.096  1.00  0.00     0.130 A 
BRANCH   6  11
ATOM     11  S   UNL     1      -1.319  -0.723  -0.294  1.00  0.00     0.253 S 
ATOM     12  O   UNL     1      -1.494   0.566  -0.935  1.00  0.00    -0.206 OA
ATOM     13  O   UNL     1      -1.994  -1.905  -0.773  1.00  0.00    -0.206 OA
BRANCH  11  14
ATOM     14  N   UNL     1       0.366  -1.106  -0.207  1.00  0.00    -0.150 NA
ATOM     15  H   UNL     1       0.515  -1.759   0.562  1.00  0.00     0.160 HD
BRANCH  14  16
ATOM     16  N   UNL     1       1.164   0.037   0.008  1.00  0.00    -0.257 NA
ATOM     17  H   UNL     1       2.146  -0.237   0.052  1.00  0.00     0.138 HD
ATOM     18  H   UNL     1       0.895   0.479   0.887  1.00  0.00     0.138 HD
ENDBRANCH  14  16
ENDBRANCH  11  14
ENDBRANCH   6  11
BRANCH  10  19
ATOM     19  O   UNL     1      -2.852  -0.156   5.410  1.00  0.00    -0.507 OA
ATOM     20  H   UNL     1      -3.069   0.691   5.746  1.00  0.00     0.293 HD
ENDBRANCH  10  19
ENDBRANCH   3   5
ENDBRANCH   2   3
ENDBRANCH   1   2
BRANCH   1  21
ATOM     21  C   UNL     1      -4.652  -4.987   5.312  1.00  0.00     0.275 C 
BRANCH  21  22
ATOM     22  O   UNL     1      -4.224  -5.560   4.065  1.00  0.00    -0.458 OA
BRANCH  22  23
ATOM     23  C   UNL     1      -4.706  -4.946   2.961  1.00  0.00     0.338 C 
ATOM     24  O   UNL     1      -5.506  -4.028   2.909  1.00  0.00    -0.246 OA
BRANCH  23  25
ATOM     25  C   UNL     1      -4.032  -5.480   1.773  1.00  0.00     0.060 A 
ATOM     26  C   UNL     1      -2.749  -5.024   1.500  1.00  0.00     0.016 A 
ATOM     27  C   UNL     1      -4.703  -6.281   0.855  1.00  0.00     0.016 A 
ATOM     28  C   UNL     1      -2.183  -5.239   0.250  1.00  0.00     0.010 A 
ATOM     29  C   UNL     1      -4.066  -6.621  -0.345  1.00  0.00     0.010 A 
ATOM     30  C   UNL     1      -2.812  -6.073  -0.681  1.00  0.00    -0.014 A 
BRANCH  30  31
ATOM     31  C   UNL     1      -2.154  -6.382  -1.985  1.00  0.00     0.031 A 
ATOM     32  C   UNL     1      -2.891  -6.172  -3.284  1.00  0.00     0.074 A 
ATOM     33  C   UNL     1      -0.901  -6.885  -2.006  1.00  0.00     0.049 A 
ATOM     34  N   UNL     1      -2.583  -6.590  -4.485  1.00  0.00    -0.248 NA
ATOM     35  C   UNL     1      -4.151  -5.413  -3.222  1.00  0.00     0.031 C 
ATOM     36  C   UNL     1      -0.059  -7.120  -0.830  1.00  0.00     0.029 A 
ATOM     37  N   UNL     1      -0.120  -7.314  -3.054  1.00  0.00    -0.354 N 
ATOM     38  C   UNL     1      -3.644  -6.218  -5.304  1.00  0.00     0.074 A 
ATOM     39  C   UNL     1      -4.602  -5.531  -4.464  1.00  0.00     0.031 C 
ATOM     40  C   UNL     1       1.118  -7.628  -1.216  1.00  0.00     0.029 A 
ATOM     41  C   UNL     1       1.077  -7.865  -2.652  1.00  0.00     0.049 A 
ATOM     42  H   UNL     1      -0.389  -7.234  -3.997  1.00  0.00     0.167 HD
ATOM     43  C   UNL     1      -3.801  -6.426  -6.634  1.00  0.00     0.034 A 
ATOM     44  C   UNL     1       2.010  -8.552  -3.338  1.00  0.00     0.034 A 
ATOM     45  C   UNL     1      -2.810  -7.049  -7.472  1.00  0.00     0.049 A 
ATOM     46  C   UNL     1       1.798  -8.796  -4.804  1.00  0.00     0.074 A 
ATOM     47  C   UNL     1      -2.848  -7.255  -8.840  1.00  0.00     0.029 A 
ATOM     48  N   UNL     1      -1.603  -7.564  -7.025  1.00  0.00    -0.354 N 
ATOM     49  N   UNL     1       0.814  -8.396  -5.571  1.00  0.00    -0.248 NA
ATOM     50  C   UNL     1       2.826  -9.580  -5.502  1.00  0.00     0.031 C 
ATOM     51  C   UNL     1      -1.681  -7.929  -9.214  1.00  0.00     0.029 A 
ATOM     52  C   UNL     1      -0.897  -8.106  -8.086  1.00  0.00     0.049 A 
ATOM     53  H   UNL     1      -1.293  -7.547  -6.090  1.00  0.00     0.167 HD
ATOM     54  C   UNL     1       1.113  -8.859  -6.845  1.00  0.00     0.074 A 
ATOM     55  C   UNL     1       2.386  -9.545  -6.752  1.00  0.00     0.031 C 
ATOM     56  C   UNL     1       0.391  -8.743  -7.986  1.00  0.00     0.034 A 
BRANCH  43  57
ATOM     57  C   UNL     1      -5.088  -5.974  -7.280  1.00  0.00     0.023 A 
ATOM     58  C   UNL     1      -5.344  -4.601  -7.465  1.00  0.00     0.012 A 
ATOM     59  C   UNL     1      -6.011  -6.920  -7.773  1.00  0.00     0.148 A 
ATOM     60  C   UNL     1      -6.513  -4.175  -8.098  1.00  0.00     0.002 A 
ATOM     61  C   UNL     1      -7.150  -6.489  -8.445  1.00  0.00     0.091 A 
ATOM     62  F   UNL     1      -5.758  -8.222  -7.577  1.00  0.00    -0.205 F 
ATOM     63  C   UNL     1      -7.408  -5.118  -8.597  1.00  0.00     0.022 A 
BRANCH  61  64
ATOM     64  S   UNL     1      -8.322  -7.624  -9.198  1.00  0.00     0.127 S 
ATOM     65  O   UNL     1      -9.503  -7.431  -8.357  1.00  0.00    -0.237 OA
ATOM     66  O   UNL     1      -8.445  -7.085 -10.552  1.00  0.00    -0.237 OA
ATOM     67  O   UNL     1      -7.714  -8.945  -9.121  1.00  0.00    -0.744 OA
ENDBRANCH  61  64
ENDBRANCH  43  57
BRANCH  44  68
ATOM     68  C   UNL     1       3.216  -9.078  -2.636  1.00  0.00     0.023 A 
ATOM     69  C   UNL     1       4.484  -8.548  -2.941  1.00  0.00     0.012 A 
ATOM     70  C   UNL     1       3.110 -10.076  -1.645  1.00  0.00     0.148 A 
ATOM     71  C   UNL     1       5.626  -9.019  -2.292  1.00  0.00     0.002 A 
ATOM     72  C   UNL     1       4.242 -10.493  -0.957  1.00  0.00     0.091 A 
ATOM     73  F   UNL     1       1.897 -10.582  -1.379  1.00  0.00    -0.205 F 
ATOM     74  C   UNL     1       5.504  -9.980  -1.292  1.00  0.00     0.022 A 
BRANCH  72  75
ATOM     75  S   UNL     1       4.160 -11.618   0.441  1.00  0.00     0.127 S 
ATOM     76  O   UNL     1       4.779 -12.822  -0.107  1.00  0.00    -0.237 OA
ATOM     77  O   UNL     1       4.962 -10.913   1.442  1.00  0.00    -0.237 OA
ATOM     78  O   UNL     1       2.746 -11.729   0.775  1.00  0.00    -0.744 OA
ENDBRANCH  72  75
ENDBRANCH  44  68
BRANCH  56  79
ATOM     79  C   UNL     1       0.975  -9.336  -9.240  1.00  0.00     0.023 A 
ATOM     80  C   UNL     1       1.000 -10.735  -9.410  1.00  0.00     0.012 A 
ATOM     81  C   UNL     1       1.426  -8.503 -10.282  1.00  0.00     0.148 A 
ATOM     82  C   UNL     1       1.492 -11.295 -10.587  1.00  0.00     0.002 A 
ATOM     83  C   UNL     1       1.867  -9.067 -11.472  1.00  0.00     0.091 A 
ATOM     84  F   UNL     1       1.408  -7.176 -10.091  1.00  0.00    -0.205 F 
ATOM     85  C   UNL     1       1.912 -10.463 -11.622  1.00  0.00     0.022 A 
BRANCH  83  86
ATOM     86  S   UNL     1       2.339  -8.078 -12.895  1.00  0.00     0.127 S 
ATOM     87  O   UNL     1       3.769  -8.366 -12.996  1.00  0.00    -0.237 OA
ATOM     88  O   UNL     1       1.522  -8.661 -13.959  1.00  0.00    -0.237 OA
ATOM     89  O   UNL     1       2.008  -6.699 -12.559  1.00  0.00    -0.744 OA
ENDBRANCH  83  86
ENDBRANCH  56  79
ENDBRANCH  30  31
ENDBRANCH  23  25
ENDBRANCH  22  23
ENDBRANCH  21  22
ENDBRANCH   1  21
TORSDOF 18
