REMARK SMILES C#CC[N@H+](CC(=O)OCCOC(=O)c1ccc(-c2c3nc(c(-c4cccc(S(=O)(=O)[O-])c4F)c4ccc([nH]4)c(-c4cccc(S(=O)(=O)[O-])c4F)c4nc(c(-c5cccc(S(=O)(=O)[O-])c5F)c5ccc2[nH]5)C=C4)C=C3)cc1)[C@H](C)[C@@H](C)O
REMARK SMILES IDX 9 1 8 2 6 3 7 4 5 5 4 6 3 8 2 9 1 10 77 11 78 12 79 13 80 14
REMARK SMILES IDX 81 15 10 17 11 18 12 19 13 20 14 21 15 22 76 23 16 24 75 25
REMARK SMILES IDX 17 26 18 27 19 28 69 29 20 30 74 31 68 32 70 33 21 34 73 35
REMARK SMILES IDX 67 36 66 37 22 39 54 40 34 41 53 42 35 43 38 44 52 45 71 46
REMARK SMILES IDX 36 47 37 48 51 50 72 51 39 52 23 53 24 54 32 55 25 56 27 57
REMARK SMILES IDX 33 58 26 59 28 60 29 61 30 62 31 63 55 64 56 65 64 66 57 67
REMARK SMILES IDX 59 68 65 69 58 70 60 71 61 72 62 73 63 74 40 75 41 76 49 77
REMARK SMILES IDX 42 78 44 79 50 80 43 81 45 82 46 83 47 84 48 85
REMARK H PARENT 4 7 81 16 70 38 38 49
REMARK Flexibility Score: inf
ROOT
ATOM      1  C   UNL     1      -4.715   2.550  -4.467  1.00  0.00     0.274 C 
ENDROOT
BRANCH   1   2
ATOM      2  O   UNL     1      -4.056   1.804  -3.426  1.00  0.00    -0.458 OA
BRANCH   2   3
ATOM      3  C   UNL     1      -4.615   0.623  -3.067  1.00  0.00     0.361 C 
ATOM      4  O   UNL     1      -5.717   0.248  -3.459  1.00  0.00    -0.245 OA
BRANCH   3   5
ATOM      5  C   UNL     1      -3.830  -0.148  -2.008  1.00  0.00     0.387 C 
BRANCH   5   6
ATOM      6  N   UNL     1      -2.346  -0.339  -2.200  1.00  0.00    -0.311 N 
ATOM      7  H   UNL     1      -2.102  -0.593  -3.156  1.00  0.00     0.349 HD
BRANCH   6   8
ATOM      8  C   UNL     1      -1.658   0.947  -1.951  1.00  0.00     0.354 C 
BRANCH   8   9
ATOM      9  C   UNL     1      -0.223   1.002  -2.279  1.00  0.00    -0.047 C 
ATOM     10  C   UNL     1       0.944   1.102  -2.526  1.00  0.00     0.010 C 
ENDBRANCH   8   9
ENDBRANCH   6   8
BRANCH   6  11
ATOM     11  C   UNL     1      -1.895  -1.499  -1.333  1.00  0.00     0.210 C 
ATOM     12  C   UNL     1      -2.315  -1.367   0.142  1.00  0.00     0.078 C 
BRANCH  11  13
ATOM     13  C   UNL     1      -0.387  -1.900  -1.469  1.00  0.00     0.169 C 
ATOM     14  C   UNL     1       0.036  -3.134  -0.675  1.00  0.00     0.045 C 
BRANCH  13  15
ATOM     15  O   UNL     1      -0.083  -2.180  -2.839  1.00  0.00    -0.387 OA
ATOM     16  H   UNL     1      -0.595  -2.950  -3.132  1.00  0.00     0.211 HD
ENDBRANCH  13  15
ENDBRANCH  11  13
ENDBRANCH   6  11
ENDBRANCH   5   6
ENDBRANCH   3   5
ENDBRANCH   2   3
ENDBRANCH   1   2
BRANCH   1  17
ATOM     17  C   UNL     1      -4.143   2.198  -5.842  1.00  0.00     0.275 C 
BRANCH  17  18
ATOM     18  O   UNL     1      -4.586   0.901  -6.278  1.00  0.00    -0.458 OA
BRANCH  18  19
ATOM     19  C   UNL     1      -3.758  -0.127  -5.979  1.00  0.00     0.338 C 
ATOM     20  O   UNL     1      -2.667  -0.062  -5.438  1.00  0.00    -0.246 OA
BRANCH  19  21
ATOM     21  C   UNL     1      -4.419  -1.397  -6.309  1.00  0.00     0.060 A 
ATOM     22  C   UNL     1      -4.734  -2.285  -5.276  1.00  0.00     0.016 A 
ATOM     23  C   UNL     1      -4.649  -1.740  -7.640  1.00  0.00     0.016 A 
ATOM     24  C   UNL     1      -5.271  -3.535  -5.571  1.00  0.00     0.010 A 
ATOM     25  C   UNL     1      -5.191  -2.991  -7.934  1.00  0.00     0.010 A 
ATOM     26  C   UNL     1      -5.485  -3.904  -6.904  1.00  0.00    -0.014 A 
BRANCH  26  27
ATOM     27  C   UNL     1      -5.942  -5.271  -7.247  1.00  0.00     0.031 A 
ATOM     28  C   UNL     1      -4.985  -6.216  -7.916  1.00  0.00     0.074 A 
ATOM     29  C   UNL     1      -7.214  -5.640  -7.008  1.00  0.00     0.049 A 
ATOM     30  N   UNL     1      -5.213  -7.388  -8.443  1.00  0.00    -0.248 NA
ATOM     31  C   UNL     1      -3.583  -5.773  -8.014  1.00  0.00     0.031 C 
ATOM     32  C   UNL     1      -8.224  -4.812  -6.348  1.00  0.00     0.029 A 
ATOM     33  N   UNL     1      -7.883  -6.793  -7.332  1.00  0.00    -0.354 N 
ATOM     34  C   UNL     1      -4.002  -7.803  -8.983  1.00  0.00     0.074 A 
ATOM     35  C   UNL     1      -3.039  -6.756  -8.718  1.00  0.00     0.031 C 
ATOM     36  C   UNL     1      -9.394  -5.472  -6.344  1.00  0.00     0.029 A 
ATOM     37  C   UNL     1      -9.227  -6.743  -7.044  1.00  0.00     0.049 A 
ATOM     38  H   UNL     1      -7.444  -7.580  -7.730  1.00  0.00     0.167 HD
ATOM     39  C   UNL     1      -3.719  -8.955  -9.636  1.00  0.00     0.034 A 
ATOM     40  C   UNL     1     -10.217  -7.604  -7.349  1.00  0.00     0.034 A 
ATOM     41  C   UNL     1      -4.680  -9.998  -9.870  1.00  0.00     0.049 A 
ATOM     42  C   UNL     1      -9.881  -8.866  -8.099  1.00  0.00     0.074 A 
ATOM     43  C   UNL     1      -4.487 -11.223 -10.483  1.00  0.00     0.029 A 
ATOM     44  N   UNL     1      -6.018  -9.935  -9.512  1.00  0.00    -0.354 N 
ATOM     45  N   UNL     1      -8.716  -9.283  -8.533  1.00  0.00    -0.248 NA
ATOM     46  C   UNL     1     -10.990  -9.791  -8.378  1.00  0.00     0.031 C 
ATOM     47  C   UNL     1      -5.716 -11.886 -10.528  1.00  0.00     0.029 A 
ATOM     48  C   UNL     1      -6.665 -11.096  -9.897  1.00  0.00     0.049 A 
ATOM     49  H   UNL     1      -6.444  -9.177  -9.050  1.00  0.00     0.167 HD
ATOM     50  C   UNL     1      -8.941 -10.538  -9.088  1.00  0.00     0.074 A 
ATOM     51  C   UNL     1     -10.354 -10.815  -8.934  1.00  0.00     0.031 C 
ATOM     52  C   UNL     1      -8.059 -11.383  -9.674  1.00  0.00     0.034 A 
BRANCH  39  53
ATOM     53  C   UNL     1      -2.313  -9.153 -10.139  1.00  0.00     0.023 A 
ATOM     54  C   UNL     1      -1.264  -9.387  -9.227  1.00  0.00     0.012 A 
ATOM     55  C   UNL     1      -2.041  -9.164 -11.521  1.00  0.00     0.148 A 
ATOM     56  C   UNL     1       0.039  -9.593  -9.681  1.00  0.00     0.002 A 
ATOM     57  C   UNL     1      -0.750  -9.418 -11.968  1.00  0.00     0.091 A 
ATOM     58  F   UNL     1      -3.047  -8.920 -12.373  1.00  0.00    -0.205 F 
ATOM     59  C   UNL     1       0.293  -9.619 -11.050  1.00  0.00     0.022 A 
BRANCH  57  60
ATOM     60  S   UNL     1      -0.337  -9.556 -13.711  1.00  0.00     0.127 S 
ATOM     61  O   UNL     1       0.477  -8.359 -13.917  1.00  0.00    -0.237 OA
ATOM     62  O   UNL     1       0.409 -10.815 -13.750  1.00  0.00    -0.237 OA
ATOM     63  O   UNL     1      -1.605  -9.579 -14.426  1.00  0.00    -0.744 OA
ENDBRANCH  57  60
ENDBRANCH  39  53
BRANCH  40  64
ATOM     64  C   UNL     1     -11.617  -7.312  -6.929  1.00  0.00     0.023 A 
ATOM     65  C   UNL     1     -12.225  -8.111  -5.942  1.00  0.00     0.012 A 
ATOM     66  C   UNL     1     -12.342  -6.242  -7.490  1.00  0.00     0.148 A 
ATOM     67  C   UNL     1     -13.541  -7.872  -5.545  1.00  0.00     0.002 A 
ATOM     68  C   UNL     1     -13.633  -5.974  -7.049  1.00  0.00     0.091 A 
ATOM     69  F   UNL     1     -11.750  -5.500  -8.436  1.00  0.00    -0.205 F 
ATOM     70  C   UNL     1     -14.241  -6.799  -6.091  1.00  0.00     0.022 A 
BRANCH  68  71
ATOM     71  S   UNL     1     -14.566  -4.543  -7.604  1.00  0.00     0.127 S 
ATOM     72  O   UNL     1     -15.633  -5.167  -8.384  1.00  0.00    -0.237 OA
ATOM     73  O   UNL     1     -14.994  -3.954  -6.335  1.00  0.00    -0.237 OA
ATOM     74  O   UNL     1     -13.627  -3.727  -8.360  1.00  0.00    -0.744 OA
ENDBRANCH  68  71
ENDBRANCH  40  64
BRANCH  52  75
ATOM     75  C   UNL     1      -8.560 -12.730 -10.124  1.00  0.00     0.023 A 
ATOM     76  C   UNL     1      -9.367 -12.844 -11.272  1.00  0.00     0.012 A 
ATOM     77  C   UNL     1      -8.131 -13.897  -9.458  1.00  0.00     0.148 A 
ATOM     78  C   UNL     1      -9.758 -14.099 -11.738  1.00  0.00     0.002 A 
ATOM     79  C   UNL     1      -8.480 -15.144  -9.959  1.00  0.00     0.091 A 
ATOM     80  F   UNL     1      -7.378 -13.763  -8.357  1.00  0.00    -0.205 F 
ATOM     81  C   UNL     1      -9.303 -15.247 -11.091  1.00  0.00     0.022 A 
BRANCH  79  82
ATOM     82  S   UNL     1      -7.855 -16.674  -9.256  1.00  0.00     0.127 S 
ATOM     83  O   UNL     1      -9.069 -17.257  -8.685  1.00  0.00    -0.237 OA
ATOM     84  O   UNL     1      -7.342 -17.368 -10.438  1.00  0.00    -0.237 OA
ATOM     85  O   UNL     1      -6.837 -16.290  -8.288  1.00  0.00    -0.744 OA
ENDBRANCH  79  82
ENDBRANCH  52  75
ENDBRANCH  26  27
ENDBRANCH  19  21
ENDBRANCH  18  19
ENDBRANCH  17  18
ENDBRANCH   1  17
TORSDOF 20
