REMARK SMILES CO[C@H]1C[C@H](C(=O)OCCOC(=O)c2ccc(-c3c4nc(c(-c5cccc(S(=O)(=O)[O-])c5F)c5ccc([nH]5)c(-c5cccc(S(=O)(=O)[O-])c5F)c5nc(c(-c6cccc(S(=O)(=O)[O-])c6F)c6ccc3[nH]6)C=C5)C=C4)cc2)N(C(=O)[C@H]2C=C[C@@H]([NH3+])C2)C1
REMARK SMILES IDX 9 1 8 2 6 3 7 4 5 5 3 6 4 7 86 8 77 9 2 10 1 11 78 12 79 13
REMARK SMILES IDX 80 14 81 15 85 16 82 17 83 18 84 19 10 23 11 24 12 25 13 26
REMARK SMILES IDX 14 27 15 28 76 29 16 30 75 31 17 32 18 33 19 34 69 35 20 36
REMARK SMILES IDX 74 37 68 38 70 39 21 40 73 41 67 42 66 43 22 45 54 46 34 47
REMARK SMILES IDX 53 48 35 49 38 50 52 51 71 52 36 53 37 54 51 56 72 57 39 58
REMARK SMILES IDX 23 59 24 60 32 61 25 62 27 63 33 64 26 65 28 66 29 67 30 68
REMARK SMILES IDX 31 69 55 70 56 71 64 72 57 73 59 74 65 75 58 76 60 77 61 78
REMARK SMILES IDX 62 79 63 80 40 81 41 82 49 83 42 84 44 85 50 86 43 87 45 88
REMARK SMILES IDX 46 89 47 90 48 91
REMARK H PARENT 84 20 84 21 84 22 70 44 38 55
REMARK Flexibility Score: inf
ROOT
ATOM      1  C   UNL     1      -3.414  -2.798   1.286  1.00  0.00     0.274 C 
ENDROOT
BRANCH   1   2
ATOM      2  O   UNL     1      -2.021  -2.993   0.970  1.00  0.00    -0.461 OA
BRANCH   2   3
ATOM      3  C   UNL     1      -1.508  -4.223   1.254  1.00  0.00     0.329 C 
ATOM      4  O   UNL     1      -2.142  -5.086   1.845  1.00  0.00    -0.250 OA
BRANCH   3   5
ATOM      5  C   UNL     1      -0.032  -4.381   0.809  1.00  0.00     0.197 C 
ATOM      6  C   UNL     1       0.887  -2.168   0.919  1.00  0.00     0.140 C 
ATOM      7  C   UNL     1       0.465  -3.244  -0.083  1.00  0.00     0.071 C 
ATOM      8  C   UNL     1       1.483  -3.002   2.059  1.00  0.00     0.152 C 
ATOM      9  N   UNL     1       0.911  -4.343   1.932  1.00  0.00    -0.326 N 
BRANCH   6  10
ATOM     10  O   UNL     1       1.851  -1.276   0.364  1.00  0.00    -0.380 OA
ATOM     11  C   UNL     1       1.272  -0.341  -0.539  1.00  0.00     0.195 C 
ENDBRANCH   6  10
BRANCH   9  12
ATOM     12  C   UNL     1       1.374  -5.342   2.756  1.00  0.00     0.230 C 
ATOM     13  O   UNL     1       2.128  -5.046   3.695  1.00  0.00    -0.274 OA
BRANCH  12  14
ATOM     14  C   UNL     1       1.093  -6.835   2.509  1.00  0.00     0.107 C 
ATOM     15  C   UNL     1      -0.312  -7.282   2.275  1.00  0.00    -0.012 C 
ATOM     16  C   UNL     1       1.823  -7.402   1.285  1.00  0.00     0.087 C 
ATOM     17  C   UNL     1      -0.378  -8.237   1.338  1.00  0.00     0.033 C 
ATOM     18  C   UNL     1       0.982  -8.614   0.857  1.00  0.00     0.205 C 
BRANCH  18  19
ATOM     19  N   UNL     1       1.056  -8.843  -0.568  1.00  0.00    -0.352 N 
ATOM     20  H   UNL     1       0.759  -8.002  -1.063  1.00  0.00     0.345 HD
ATOM     21  H   UNL     1       0.446  -9.620  -0.820  1.00  0.00     0.345 HD
ATOM     22  H   UNL     1       2.017  -9.067  -0.826  1.00  0.00     0.345 HD
ENDBRANCH  18  19
ENDBRANCH  12  14
ENDBRANCH   9  12
ENDBRANCH   3   5
ENDBRANCH   2   3
ENDBRANCH   1   2
BRANCH   1  23
ATOM     23  C   UNL     1      -4.253  -2.746   0.007  1.00  0.00     0.275 C 
BRANCH  23  24
ATOM     24  O   UNL     1      -4.161  -3.977  -0.735  1.00  0.00    -0.458 OA
BRANCH  24  25
ATOM     25  C   UNL     1      -3.199  -4.003  -1.690  1.00  0.00     0.338 C 
ATOM     26  O   UNL     1      -2.456  -3.088  -2.001  1.00  0.00    -0.246 OA
BRANCH  25  27
ATOM     27  C   UNL     1      -3.032  -5.376  -2.203  1.00  0.00     0.060 A 
ATOM     28  C   UNL     1      -1.737  -5.905  -2.222  1.00  0.00     0.016 A 
ATOM     29  C   UNL     1      -4.105  -6.119  -2.697  1.00  0.00     0.016 A 
ATOM     30  C   UNL     1      -1.518  -7.194  -2.700  1.00  0.00     0.010 A 
ATOM     31  C   UNL     1      -3.878  -7.409  -3.195  1.00  0.00     0.010 A 
ATOM     32  C   UNL     1      -2.585  -7.956  -3.185  1.00  0.00    -0.014 A 
BRANCH  32  33
ATOM     33  C   UNL     1      -2.319  -9.319  -3.699  1.00  0.00     0.031 A 
ATOM     34  C   UNL     1      -1.915  -9.515  -5.129  1.00  0.00     0.074 A 
ATOM     35  C   UNL     1      -2.395 -10.373  -2.865  1.00  0.00     0.049 A 
ATOM     36  N   UNL     1      -1.672 -10.629  -5.768  1.00  0.00    -0.248 NA
ATOM     37  C   UNL     1      -1.744  -8.300  -5.941  1.00  0.00     0.031 C 
ATOM     38  C   UNL     1      -2.710 -10.299  -1.439  1.00  0.00     0.029 A 
ATOM     39  N   UNL     1      -2.224 -11.714  -3.102  1.00  0.00    -0.354 N 
ATOM     40  C   UNL     1      -1.349 -10.256  -7.066  1.00  0.00     0.074 A 
ATOM     41  C   UNL     1      -1.399  -8.810  -7.117  1.00  0.00     0.031 C 
ATOM     42  C   UNL     1      -2.737 -11.543  -0.932  1.00  0.00     0.029 A 
ATOM     43  C   UNL     1      -2.484 -12.503  -2.005  1.00  0.00     0.049 A 
ATOM     44  H   UNL     1      -1.942 -12.077  -3.973  1.00  0.00     0.167 HD
ATOM     45  C   UNL     1      -1.048 -11.048  -8.120  1.00  0.00     0.034 A 
ATOM     46  C   UNL     1      -2.552 -13.845  -1.893  1.00  0.00     0.034 A 
ATOM     47  C   UNL     1      -1.004 -12.485  -8.073  1.00  0.00     0.049 A 
ATOM     48  C   UNL     1      -2.292 -14.698  -3.109  1.00  0.00     0.074 A 
ATOM     49  C   UNL     1      -0.714 -13.368  -9.099  1.00  0.00     0.029 A 
ATOM     50  N   UNL     1      -1.277 -13.250  -6.952  1.00  0.00    -0.354 N 
ATOM     51  N   UNL     1      -1.908 -14.334  -4.309  1.00  0.00    -0.248 NA
ATOM     52  C   UNL     1      -2.464 -16.151  -2.952  1.00  0.00     0.031 C 
ATOM     53  C   UNL     1      -0.841 -14.669  -8.604  1.00  0.00     0.029 A 
ATOM     54  C   UNL     1      -1.186 -14.595  -7.264  1.00  0.00     0.049 A 
ATOM     55  H   UNL     1      -1.503 -12.890  -6.064  1.00  0.00     0.167 HD
ATOM     56  C   UNL     1      -1.770 -15.510  -5.039  1.00  0.00     0.074 A 
ATOM     57  C   UNL     1      -2.081 -16.601  -4.139  1.00  0.00     0.031 C 
ATOM     58  C   UNL     1      -1.442 -15.673  -6.345  1.00  0.00     0.034 A 
BRANCH  45  59
ATOM     59  C   UNL     1      -0.756 -10.381  -9.434  1.00  0.00     0.023 A 
ATOM     60  C   UNL     1       0.511  -9.813  -9.664  1.00  0.00     0.012 A 
ATOM     61  C   UNL     1      -1.717 -10.386 -10.463  1.00  0.00     0.148 A 
ATOM     62  C   UNL     1       0.816  -9.248 -10.902  1.00  0.00     0.002 A 
ATOM     63  C   UNL     1      -1.395  -9.851 -11.704  1.00  0.00     0.091 A 
ATOM     64  F   UNL     1      -2.923 -10.911 -10.207  1.00  0.00    -0.205 F 
ATOM     65  C   UNL     1      -0.132  -9.277 -11.924  1.00  0.00     0.022 A 
BRANCH  63  66
ATOM     66  S   UNL     1      -2.526  -9.893 -13.098  1.00  0.00     0.127 S 
ATOM     67  O   UNL     1      -2.852  -8.476 -13.254  1.00  0.00    -0.237 OA
ATOM     68  O   UNL     1      -1.685 -10.447 -14.159  1.00  0.00    -0.237 OA
ATOM     69  O   UNL     1      -3.635 -10.745 -12.692  1.00  0.00    -0.744 OA
ENDBRANCH  63  66
ENDBRANCH  45  59
BRANCH  46  70
ATOM     70  C   UNL     1      -2.902 -14.481  -0.590  1.00  0.00     0.023 A 
ATOM     71  C   UNL     1      -1.954 -15.287   0.069  1.00  0.00     0.012 A 
ATOM     72  C   UNL     1      -4.177 -14.316  -0.016  1.00  0.00     0.148 A 
ATOM     73  C   UNL     1      -2.283 -15.946   1.256  1.00  0.00     0.002 A 
ATOM     74  C   UNL     1      -4.478 -14.925   1.196  1.00  0.00     0.091 A 
ATOM     75  F   UNL     1      -5.082 -13.574  -0.672  1.00  0.00    -0.205 F 
ATOM     76  C   UNL     1      -3.540 -15.757   1.825  1.00  0.00     0.022 A 
BRANCH  74  77
ATOM     77  S   UNL     1      -6.029 -14.618   2.048  1.00  0.00     0.127 S 
ATOM     78  O   UNL     1      -6.802 -15.808   1.704  1.00  0.00    -0.237 OA
ATOM     79  O   UNL     1      -5.604 -14.542   3.447  1.00  0.00    -0.237 OA
ATOM     80  O   UNL     1      -6.517 -13.356   1.507  1.00  0.00    -0.744 OA
ENDBRANCH  74  77
ENDBRANCH  46  70
BRANCH  58  81
ATOM     81  C   UNL     1      -1.380 -17.079  -6.883  1.00  0.00     0.023 A 
ATOM     82  C   UNL     1      -2.575 -17.791  -7.109  1.00  0.00     0.012 A 
ATOM     83  C   UNL     1      -0.150 -17.663  -7.244  1.00  0.00     0.148 A 
ATOM     84  C   UNL     1      -2.546 -19.072  -7.658  1.00  0.00     0.002 A 
ATOM     85  C   UNL     1      -0.131 -18.921  -7.835  1.00  0.00     0.091 A 
ATOM     86  F   UNL     1       0.978 -16.978  -7.005  1.00  0.00    -0.205 F 
ATOM     87  C   UNL     1      -1.326 -19.631  -8.033  1.00  0.00     0.022 A 
BRANCH  85  88
ATOM     88  S   UNL     1       1.384 -19.677  -8.437  1.00  0.00     0.127 S 
ATOM     89  O   UNL     1       1.629 -20.702  -7.424  1.00  0.00    -0.237 OA
ATOM     90  O   UNL     1       0.976 -20.197  -9.743  1.00  0.00    -0.237 OA
ATOM     91  O   UNL     1       2.368 -18.605  -8.498  1.00  0.00    -0.744 OA
ENDBRANCH  85  88
ENDBRANCH  58  81
ENDBRANCH  32  33
ENDBRANCH  25  27
ENDBRANCH  24  25
ENDBRANCH  23  24
ENDBRANCH   1  23
TORSDOF 18
