REMARK SMILES O=C(OCCOC(=O)c1ccc2c(=O)n(CCc3c[nH]c4ccccc34)c(=O)[nH]c2c1)c1ccc(-c2c3nc(c(-c4cccc(S(=O)(=O)[O-])c4F)c4ccc([nH]4)c(-c4cccc(S(=O)(=O)[O-])c4F)c4nc(c(-c5cccc(S(=O)(=O)[O-])c5F)c5ccc2[nH]5)C=C4)C=C3)cc1
REMARK SMILES IDX 4 1 3 2 2 3 1 4 32 5 33 6 94 7 34 8 93 9 35 10 36 11 37 12
REMARK SMILES IDX 87 13 38 14 92 15 86 16 88 17 39 18 91 19 85 20 84 21 40 23
REMARK SMILES IDX 72 24 52 25 71 26 53 27 56 28 70 29 89 30 54 31 55 32 69 34
REMARK SMILES IDX 90 35 57 36 41 37 42 38 50 39 43 40 45 41 51 42 44 43 46 44
REMARK SMILES IDX 47 45 48 46 49 47 73 48 74 49 82 50 75 51 77 52 83 53 76 54
REMARK SMILES IDX 78 55 79 56 80 57 81 58 58 59 59 60 67 61 60 62 62 63 68 64
REMARK SMILES IDX 61 65 63 66 64 67 65 68 66 69 5 70 6 71 7 72 8 73 9 74 10 75
REMARK SMILES IDX 31 76 11 77 30 78 12 79 29 80 13 81 27 82 14 84 15 85 28 86
REMARK SMILES IDX 16 87 17 88 18 89 19 90 26 91 20 92 21 93 25 94 22 96 24 97
REMARK SMILES IDX 23 98
REMARK H PARENT 88 22 56 33 29 83 20 95
REMARK Flexibility Score: inf
ROOT
ATOM      1  C   UNL     1       4.034  -1.433  -0.772  1.00  0.00     0.275 C 
ENDROOT
BRANCH   1   2
ATOM      2  O   UNL     1       3.252  -0.985   0.335  1.00  0.00    -0.458 OA
BRANCH   2   3
ATOM      3  C   UNL     1       3.318   0.167   1.031  1.00  0.00     0.338 C 
ATOM      4  O   UNL     1       2.418   0.371   1.848  1.00  0.00    -0.246 OA
BRANCH   3   5
ATOM      5  C   UNL     1       4.342   1.250   0.821  1.00  0.00     0.060 A 
ATOM      6  C   UNL     1       4.042   2.445   1.472  1.00  0.00     0.016 A 
ATOM      7  C   UNL     1       5.496   1.248   0.022  1.00  0.00     0.016 A 
ATOM      8  C   UNL     1       4.733   3.616   1.165  1.00  0.00     0.010 A 
ATOM      9  C   UNL     1       6.239   2.434  -0.233  1.00  0.00     0.010 A 
ATOM     10  C   UNL     1       5.832   3.661   0.282  1.00  0.00    -0.014 A 
BRANCH  10  11
ATOM     11  C   UNL     1       6.447   5.011  -0.003  1.00  0.00     0.031 A 
ATOM     12  C   UNL     1       6.561   5.635  -1.387  1.00  0.00     0.074 A 
ATOM     13  C   UNL     1       6.652   5.812   1.065  1.00  0.00     0.049 A 
ATOM     14  N   UNL     1       6.588   6.914  -1.703  1.00  0.00    -0.248 NA
ATOM     15  C   UNL     1       6.596   4.753  -2.567  1.00  0.00     0.031 C 
ATOM     16  C   UNL     1       6.606   5.365   2.461  1.00  0.00     0.029 A 
ATOM     17  N   UNL     1       6.846   7.165   1.159  1.00  0.00    -0.354 N 
ATOM     18  C   UNL     1       6.455   6.980  -3.091  1.00  0.00     0.074 A 
ATOM     19  C   UNL     1       6.518   5.620  -3.576  1.00  0.00     0.031 C 
ATOM     20  C   UNL     1       6.638   6.429   3.265  1.00  0.00     0.029 A 
ATOM     21  C   UNL     1       6.879   7.616   2.456  1.00  0.00     0.049 A 
ATOM     22  H   UNL     1       6.952   7.754   0.377  1.00  0.00     0.167 HD
ATOM     23  C   UNL     1       6.155   8.068  -3.844  1.00  0.00     0.034 A 
ATOM     24  C   UNL     1       7.154   8.830   2.967  1.00  0.00     0.034 A 
ATOM     25  C   UNL     1       6.265   9.425  -3.374  1.00  0.00     0.049 A 
ATOM     26  C   UNL     1       7.368   9.968   2.034  1.00  0.00     0.074 A 
ATOM     27  C   UNL     1       6.133  10.599  -4.099  1.00  0.00     0.029 A 
ATOM     28  N   UNL     1       6.637   9.787  -2.093  1.00  0.00    -0.354 N 
ATOM     29  N   UNL     1       7.066  10.036   0.762  1.00  0.00    -0.248 NA
ATOM     30  C   UNL     1       7.981  11.182   2.583  1.00  0.00     0.031 C 
ATOM     31  C   UNL     1       6.503  11.666  -3.273  1.00  0.00     0.029 A 
ATOM     32  C   UNL     1       6.832  11.155  -2.030  1.00  0.00     0.049 A 
ATOM     33  H   UNL     1       6.748   9.165  -1.339  1.00  0.00     0.167 HD
ATOM     34  C   UNL     1       7.452  11.302   0.353  1.00  0.00     0.074 A 
ATOM     35  C   UNL     1       7.998  11.973   1.516  1.00  0.00     0.031 C 
ATOM     36  C   UNL     1       7.365  11.840  -0.885  1.00  0.00     0.034 A 
BRANCH  23  37
ATOM     37  C   UNL     1       5.625   7.899  -5.248  1.00  0.00     0.023 A 
ATOM     38  C   UNL     1       4.230   8.020  -5.452  1.00  0.00     0.012 A 
ATOM     39  C   UNL     1       6.477   7.855  -6.364  1.00  0.00     0.148 A 
ATOM     40  C   UNL     1       3.698   8.115  -6.740  1.00  0.00     0.002 A 
ATOM     41  C   UNL     1       5.940   7.950  -7.646  1.00  0.00     0.091 A 
ATOM     42  F   UNL     1       7.795   7.755  -6.147  1.00  0.00    -0.205 F 
ATOM     43  C   UNL     1       4.554   8.089  -7.837  1.00  0.00     0.022 A 
BRANCH  41  44
ATOM     44  S   UNL     1       6.957   7.942  -9.128  1.00  0.00     0.127 S 
ATOM     45  O   UNL     1       6.501   6.719  -9.788  1.00  0.00    -0.237 OA
ATOM     46  O   UNL     1       6.554   9.182  -9.789  1.00  0.00    -0.237 OA
ATOM     47  O   UNL     1       8.337   7.910  -8.664  1.00  0.00    -0.744 OA
ENDBRANCH  41  44
ENDBRANCH  23  37
BRANCH  24  48
ATOM     48  C   UNL     1       7.391   8.923   4.431  1.00  0.00     0.023 A 
ATOM     49  C   UNL     1       6.497   9.596   5.277  1.00  0.00     0.012 A 
ATOM     50  C   UNL     1       8.453   8.178   4.991  1.00  0.00     0.148 A 
ATOM     51  C   UNL     1       6.639   9.489   6.663  1.00  0.00     0.002 A 
ATOM     52  C   UNL     1       8.537   8.011   6.362  1.00  0.00     0.091 A 
ATOM     53  F   UNL     1       9.316   7.581   4.155  1.00  0.00    -0.205 F 
ATOM     54  C   UNL     1       7.637   8.675   7.204  1.00  0.00     0.022 A 
BRANCH  52  55
ATOM     55  S   UNL     1       9.673   6.829   7.098  1.00  0.00     0.127 S 
ATOM     56  O   UNL     1      10.671   7.710   7.698  1.00  0.00    -0.237 OA
ATOM     57  O   UNL     1       8.810   6.130   8.050  1.00  0.00    -0.237 OA
ATOM     58  O   UNL     1      10.142   5.995   5.998  1.00  0.00    -0.744 OA
ENDBRANCH  52  55
ENDBRANCH  24  48
BRANCH  36  59
ATOM     59  C   UNL     1       7.886  13.229  -1.084  1.00  0.00     0.023 A 
ATOM     60  C   UNL     1       9.273  13.429  -1.211  1.00  0.00     0.012 A 
ATOM     61  C   UNL     1       7.004  14.313  -1.245  1.00  0.00     0.148 A 
ATOM     62  C   UNL     1       9.778  14.696  -1.493  1.00  0.00     0.002 A 
ATOM     63  C   UNL     1       7.512  15.565  -1.563  1.00  0.00     0.091 A 
ATOM     64  F   UNL     1       5.689  14.091  -1.105  1.00  0.00    -0.205 F 
ATOM     65  C   UNL     1       8.898  15.760  -1.682  1.00  0.00     0.022 A 
BRANCH  63  66
ATOM     66  S   UNL     1       6.455  16.976  -1.899  1.00  0.00     0.127 S 
ATOM     67  O   UNL     1       6.753  17.846  -0.762  1.00  0.00    -0.237 OA
ATOM     68  O   UNL     1       6.971  17.448  -3.183  1.00  0.00    -0.237 OA
ATOM     69  O   UNL     1       5.094  16.458  -1.943  1.00  0.00    -0.744 OA
ENDBRANCH  63  66
ENDBRANCH  36  59
ENDBRANCH  10  11
ENDBRANCH   3   5
ENDBRANCH   2   3
ENDBRANCH   1   2
BRANCH   1  70
ATOM     70  C   UNL     1       3.750  -0.735  -2.107  1.00  0.00     0.275 C 
BRANCH  70  71
ATOM     71  O   UNL     1       2.880   0.409  -2.040  1.00  0.00    -0.458 OA
BRANCH  71  72
ATOM     72  C   UNL     1       1.563   0.169  -2.304  1.00  0.00     0.338 C 
ATOM     73  O   UNL     1       1.036  -0.904  -2.474  1.00  0.00    -0.246 OA
BRANCH  72  74
ATOM     74  C   UNL     1       0.839   1.465  -2.354  1.00  0.00     0.062 A 
ATOM     75  C   UNL     1       1.038   2.345  -3.427  1.00  0.00     0.016 A 
ATOM     76  C   UNL     1       0.021   1.834  -1.276  1.00  0.00     0.042 A 
ATOM     77  C   UNL     1       0.468   3.628  -3.392  1.00  0.00     0.017 A 
ATOM     78  C   UNL     1      -0.492   3.139  -1.223  1.00  0.00     0.056 A 
ATOM     79  C   UNL     1      -0.263   4.037  -2.265  1.00  0.00     0.064 A 
ATOM     80  N   UNL     1      -1.101   3.599  -0.055  1.00  0.00    -0.307 N 
ATOM     81  C   UNL     1      -0.634   5.462  -2.065  1.00  0.00     0.264 A 
ATOM     82  C   UNL     1      -1.333   4.923   0.216  1.00  0.00     0.328 A 
ATOM     83  H   UNL     1      -1.380   2.933   0.615  1.00  0.00     0.171 HD
ATOM     84  O   UNL     1      -0.618   6.219  -3.032  1.00  0.00    -0.268 OA
ATOM     85  N   UNL     1      -0.990   5.837  -0.765  1.00  0.00    -0.260 N 
ATOM     86  O   UNL     1      -1.792   5.232   1.316  1.00  0.00    -0.248 OA
BRANCH  85  87
ATOM     87  C   UNL     1      -1.040   7.271  -0.424  1.00  0.00     0.136 C 
BRANCH  87  88
ATOM     88  C   UNL     1       0.060   7.759   0.566  1.00  0.00     0.060 C 
BRANCH  88  89
ATOM     89  C   UNL     1       1.447   7.617   0.025  1.00  0.00    -0.021 A 
ATOM     90  C   UNL     1       2.277   8.617  -0.452  1.00  0.00     0.087 A 
ATOM     91  C   UNL     1       2.123   6.387  -0.218  1.00  0.00     0.003 A 
ATOM     92  N   UNL     1       3.353   8.006  -1.045  1.00  0.00    -0.361 N 
ATOM     93  C   UNL     1       3.045   6.680  -1.208  1.00  0.00     0.046 A 
ATOM     94  C   UNL     1       1.921   5.047   0.124  1.00  0.00     0.010 A 
ATOM     95  H   UNL     1       4.196   8.442  -1.307  1.00  0.00     0.166 HD
ATOM     96  C   UNL     1       3.500   5.723  -2.103  1.00  0.00     0.026 A 
ATOM     97  C   UNL     1       2.496   4.066  -0.691  1.00  0.00     0.001 A 
ATOM     98  C   UNL     1       3.232   4.394  -1.819  1.00  0.00     0.002 A 
ENDBRANCH  88  89
ENDBRANCH  87  88
ENDBRANCH  85  87
ENDBRANCH  72  74
ENDBRANCH  71  72
ENDBRANCH  70  71
ENDBRANCH   1  70
TORSDOF 17
