REMARK SMILES CC(C)(C)OC(=O)N[C@@H](C(=O)OCCOC(=O)c1ccc(-c2c3nc(c(-c4cccc(S(=O)(=O)[O-])c4F)c4ccc([nH]4)c(-c4cccc(S(=O)(=O)[O-])c4F)c4nc(c(-c5cccc(S(=O)(=O)[O-])c5F)c5ccc2[nH]5)C=C4)C=C3)cc1)[C@H](O)c1ccccc1F
REMARK SMILES IDX 13 1 12 2 10 3 11 4 9 5 8 6 6 7 7 8 5 10 2 11 1 12 3 13 4 14
REMARK SMILES IDX 81 15 83 16 84 17 88 18 85 19 87 20 89 21 86 22 82 23 14 25
REMARK SMILES IDX 15 26 16 27 17 28 18 29 19 30 80 31 20 32 79 33 21 34 22 35
REMARK SMILES IDX 23 36 73 37 24 38 78 39 72 40 74 41 25 42 77 43 71 44 70 45
REMARK SMILES IDX 26 47 58 48 38 49 57 50 39 51 42 52 56 53 75 54 40 55 41 56
REMARK SMILES IDX 55 58 76 59 43 60 27 61 28 62 36 63 29 64 31 65 37 66 30 67
REMARK SMILES IDX 32 68 33 69 34 70 35 71 59 72 60 73 68 74 61 75 63 76 69 77
REMARK SMILES IDX 62 78 64 79 65 80 66 81 67 82 44 83 45 84 53 85 46 86 48 87
REMARK SMILES IDX 54 88 47 89 49 90 50 91 51 92 52 93
REMARK H PARENT 8 9 82 24 74 46 42 57
REMARK Flexibility Score: inf
ROOT
ATOM      1  C   UNL     1      -1.626  -2.159   0.114  1.00  0.00     0.274 C 
ENDROOT
BRANCH   1   2
ATOM      2  O   UNL     1      -1.510  -3.522  -0.338  1.00  0.00    -0.460 OA
BRANCH   2   3
ATOM      3  C   UNL     1      -0.285  -3.926  -0.808  1.00  0.00     0.331 C 
ATOM      4  O   UNL     1       0.639  -3.146  -0.970  1.00  0.00    -0.250 OA
BRANCH   3   5
ATOM      5  C   UNL     1      -0.314  -5.413  -1.222  1.00  0.00     0.228 C 
BRANCH   5   6
ATOM      6  N   UNL     1      -1.543  -6.025  -0.659  1.00  0.00    -0.305 N 
ATOM      7  C   UNL     1      -2.355  -6.869  -1.340  1.00  0.00     0.408 C 
ATOM      8  O   UNL     1      -3.271  -7.478  -0.806  1.00  0.00    -0.225 OA
ATOM      9  H   UNL     1      -1.783  -5.803   0.269  1.00  0.00     0.168 HD
BRANCH   7  10
ATOM     10  O   UNL     1      -2.019  -6.904  -2.644  1.00  0.00    -0.444 OA
BRANCH  10  11
ATOM     11  C   UNL     1      -2.804  -7.609  -3.625  1.00  0.00     0.106 C 
ATOM     12  C   UNL     1      -2.241  -7.123  -4.968  1.00  0.00     0.056 C 
ATOM     13  C   UNL     1      -4.285  -7.227  -3.550  1.00  0.00     0.056 C 
ATOM     14  C   UNL     1      -2.573  -9.113  -3.487  1.00  0.00     0.056 C 
ENDBRANCH  10  11
ENDBRANCH   7  10
ENDBRANCH   5   6
BRANCH   5  15
ATOM     15  C   UNL     1       0.850  -6.381  -0.871  1.00  0.00     0.181 C 
BRANCH  15  16
ATOM     16  C   UNL     1       2.036  -6.525  -1.802  1.00  0.00     0.019 A 
ATOM     17  C   UNL     1       2.425  -7.822  -2.203  1.00  0.00     0.009 A 
ATOM     18  C   UNL     1       2.798  -5.463  -2.283  1.00  0.00     0.129 A 
ATOM     19  C   UNL     1       3.483  -8.027  -3.092  1.00  0.00     0.001 A 
ATOM     20  C   UNL     1       3.855  -5.657  -3.174  1.00  0.00     0.039 A 
ATOM     21  F   UNL     1       2.550  -4.211  -1.901  1.00  0.00    -0.207 F 
ATOM     22  C   UNL     1       4.192  -6.940  -3.591  1.00  0.00     0.003 A 
ENDBRANCH  15  16
BRANCH  15  23
ATOM     23  O   UNL     1       1.280  -6.330   0.481  1.00  0.00    -0.386 OA
ATOM     24  H   UNL     1       1.768  -5.506   0.633  1.00  0.00     0.211 HD
ENDBRANCH  15  23
ENDBRANCH   5  15
ENDBRANCH   3   5
ENDBRANCH   2   3
ENDBRANCH   1   2
BRANCH   1  25
ATOM     25  C   UNL     1      -1.596  -2.098   1.642  1.00  0.00     0.275 C 
BRANCH  25  26
ATOM     26  O   UNL     1      -0.277  -2.338   2.162  1.00  0.00    -0.458 OA
BRANCH  26  27
ATOM     27  C   UNL     1       0.048  -3.639   2.319  1.00  0.00     0.338 C 
ATOM     28  O   UNL     1      -0.642  -4.621   2.073  1.00  0.00    -0.246 OA
BRANCH  27  29
ATOM     29  C   UNL     1       1.445  -3.766   2.732  1.00  0.00     0.060 A 
ATOM     30  C   UNL     1       2.373  -4.119   1.758  1.00  0.00     0.016 A 
ATOM     31  C   UNL     1       1.780  -3.800   4.082  1.00  0.00     0.016 A 
ATOM     32  C   UNL     1       3.585  -4.679   2.132  1.00  0.00     0.010 A 
ATOM     33  C   UNL     1       3.058  -4.229   4.447  1.00  0.00     0.010 A 
ATOM     34  C   UNL     1       3.956  -4.719   3.478  1.00  0.00    -0.014 A 
BRANCH  34  35
ATOM     35  C   UNL     1       5.277  -5.264   3.883  1.00  0.00     0.031 A 
ATOM     36  C   UNL     1       5.355  -6.353   4.918  1.00  0.00     0.074 A 
ATOM     37  C   UNL     1       6.403  -4.730   3.370  1.00  0.00     0.049 A 
ATOM     38  N   UNL     1       6.381  -6.749   5.624  1.00  0.00    -0.248 NA
ATOM     39  C   UNL     1       4.107  -7.076   5.218  1.00  0.00     0.031 C 
ATOM     40  C   UNL     1       6.459  -3.704   2.325  1.00  0.00     0.029 A 
ATOM     41  N   UNL     1       7.720  -4.946   3.689  1.00  0.00    -0.354 N 
ATOM     42  C   UNL     1       5.889  -7.701   6.510  1.00  0.00     0.074 A 
ATOM     43  C   UNL     1       4.474  -7.838   6.240  1.00  0.00     0.031 C 
ATOM     44  C   UNL     1       7.736  -3.370   2.099  1.00  0.00     0.029 A 
ATOM     45  C   UNL     1       8.576  -4.075   3.055  1.00  0.00     0.049 A 
ATOM     46  H   UNL     1       8.022  -5.650   4.308  1.00  0.00     0.167 HD
ATOM     47  C   UNL     1       6.562  -8.386   7.465  1.00  0.00     0.034 A 
ATOM     48  C   UNL     1       9.876  -3.806   3.270  1.00  0.00     0.034 A 
ATOM     49  C   UNL     1       7.981  -8.265   7.677  1.00  0.00     0.049 A 
ATOM     50  C   UNL     1      10.595  -4.555   4.351  1.00  0.00     0.074 A 
ATOM     51  C   UNL     1       8.777  -8.941   8.584  1.00  0.00     0.029 A 
ATOM     52  N   UNL     1       8.815  -7.409   6.972  1.00  0.00    -0.354 N 
ATOM     53  N   UNL     1      10.127  -5.465   5.171  1.00  0.00    -0.248 NA
ATOM     54  C   UNL     1      12.021  -4.258   4.529  1.00  0.00     0.031 C 
ATOM     55  C   UNL     1      10.084  -8.464   8.456  1.00  0.00     0.029 A 
ATOM     56  C   UNL     1      10.115  -7.533   7.429  1.00  0.00     0.049 A 
ATOM     57  H   UNL     1       8.525  -6.803   6.252  1.00  0.00     0.167 HD
ATOM     58  C   UNL     1      11.211  -5.886   5.928  1.00  0.00     0.074 A 
ATOM     59  C   UNL     1      12.359  -5.131   5.469  1.00  0.00     0.031 C 
ATOM     60  C   UNL     1      11.252  -6.814   6.914  1.00  0.00     0.034 A 
BRANCH  47  61
ATOM     61  C   UNL     1       5.782  -9.314   8.363  1.00  0.00     0.023 A 
ATOM     62  C   UNL     1       5.243 -10.513   7.855  1.00  0.00     0.012 A 
ATOM     63  C   UNL     1       5.636  -9.022   9.736  1.00  0.00     0.148 A 
ATOM     64  C   UNL     1       4.538 -11.384   8.687  1.00  0.00     0.002 A 
ATOM     65  C   UNL     1       4.977  -9.918  10.568  1.00  0.00     0.091 A 
ATOM     66  F   UNL     1       6.142  -7.871  10.201  1.00  0.00    -0.205 F 
ATOM     67  C   UNL     1       4.414 -11.092  10.043  1.00  0.00     0.022 A 
BRANCH  65  68
ATOM     68  S   UNL     1       4.838  -9.674  12.343  1.00  0.00     0.127 S 
ATOM     69  O   UNL     1       3.405  -9.420  12.495  1.00  0.00    -0.237 OA
ATOM     70  O   UNL     1       5.287 -10.964  12.867  1.00  0.00    -0.237 OA
ATOM     71  O   UNL     1       5.706  -8.551  12.666  1.00  0.00    -0.744 OA
ENDBRANCH  65  68
ENDBRANCH  47  61
BRANCH  48  72
ATOM     72  C   UNL     1      10.564  -2.773   2.446  1.00  0.00     0.023 A 
ATOM     73  C   UNL     1      11.543  -3.170   1.517  1.00  0.00     0.012 A 
ATOM     74  C   UNL     1      10.215  -1.410   2.539  1.00  0.00     0.148 A 
ATOM     75  C   UNL     1      12.184  -2.226   0.714  1.00  0.00     0.002 A 
ATOM     76  C   UNL     1      10.814  -0.483   1.695  1.00  0.00     0.091 A 
ATOM     77  F   UNL     1       9.283  -1.051   3.433  1.00  0.00    -0.205 F 
ATOM     78  C   UNL     1      11.812  -0.886   0.795  1.00  0.00     0.022 A 
BRANCH  76  79
ATOM     79  S   UNL     1      10.305   1.238   1.631  1.00  0.00     0.127 S 
ATOM     80  O   UNL     1      11.479   1.917   2.174  1.00  0.00    -0.237 OA
ATOM     81  O   UNL     1      10.088   1.435   0.198  1.00  0.00    -0.237 OA
ATOM     82  O   UNL     1       9.097   1.325   2.440  1.00  0.00    -0.744 OA
ENDBRANCH  76  79
ENDBRANCH  48  72
BRANCH  60  83
ATOM     83  C   UNL     1      12.594  -7.141   7.508  1.00  0.00     0.023 A 
ATOM     84  C   UNL     1      13.226  -6.241   8.386  1.00  0.00     0.012 A 
ATOM     85  C   UNL     1      13.177  -8.400   7.261  1.00  0.00     0.148 A 
ATOM     86  C   UNL     1      14.433  -6.583   8.995  1.00  0.00     0.002 A 
ATOM     87  C   UNL     1      14.348  -8.755   7.914  1.00  0.00     0.091 A 
ATOM     88  F   UNL     1      12.565  -9.229   6.404  1.00  0.00    -0.205 F 
ATOM     89  C   UNL     1      14.985  -7.843   8.772  1.00  0.00     0.022 A 
BRANCH  87  90
ATOM     90  S   UNL     1      15.071 -10.392   7.771  1.00  0.00     0.127 S 
ATOM     91  O   UNL     1      16.318 -10.106   7.063  1.00  0.00    -0.237 OA
ATOM     92  O   UNL     1      15.239 -10.777   9.173  1.00  0.00    -0.237 OA
ATOM     93  O   UNL     1      14.109 -11.198   7.031  1.00  0.00    -0.744 OA
ENDBRANCH  87  90
ENDBRANCH  60  83
ENDBRANCH  34  35
ENDBRANCH  27  29
ENDBRANCH  26  27
ENDBRANCH  25  26
ENDBRANCH   1  25
TORSDOF 20
