REMARK SMILES O=C(OCCOC(=O)c1cccc2c(C(F)(F)F)cc(Br)nc12)c1ccc(-c2c3nc(c(-c4cccc(S(=O)(=O)[O-])c4F)c4ccc([nH]4)c(-c4cccc(S(=O)(=O)[O-])c4F)c4nc(c(-c5cccc(S(=O)(=O)[O-])c5F)c5ccc2[nH]5)C=C4)C=C3)cc1
REMARK SMILES IDX 4 1 3 2 2 3 1 4 24 5 25 6 86 7 26 8 85 9 27 10 28 11 29 12
REMARK SMILES IDX 79 13 30 14 84 15 78 16 80 17 31 18 83 19 77 20 76 21 32 23
REMARK SMILES IDX 64 24 44 25 63 26 45 27 48 28 62 29 81 30 46 31 47 32 61 34
REMARK SMILES IDX 82 35 49 36 33 37 34 38 42 39 35 40 37 41 43 42 36 43 38 44
REMARK SMILES IDX 39 45 40 46 41 47 65 48 66 49 74 50 67 51 69 52 75 53 68 54
REMARK SMILES IDX 70 55 71 56 72 57 73 58 50 59 51 60 59 61 52 62 54 63 60 64
REMARK SMILES IDX 53 65 55 66 56 67 57 68 58 69 5 70 6 71 7 72 8 73 9 74 10 75
REMARK SMILES IDX 23 76 11 77 13 78 22 79 12 80 14 81 20 82 19 83 21 84 15 85
REMARK SMILES IDX 16 86 17 87 18 88
REMARK H PARENT 80 22 48 33
REMARK Flexibility Score: inf
ROOT
ATOM      1  C   UNL     1       4.282   1.137  -0.910  1.00  0.00     0.275 C 
ENDROOT
BRANCH   1   2
ATOM      2  O   UNL     1       3.205   0.204  -1.096  1.00  0.00    -0.458 OA
BRANCH   2   3
ATOM      3  C   UNL     1       3.259  -1.115  -0.767  1.00  0.00     0.338 C 
ATOM      4  O   UNL     1       2.640  -1.951  -1.418  1.00  0.00    -0.246 OA
BRANCH   3   5
ATOM      5  C   UNL     1       3.853  -1.506   0.540  1.00  0.00     0.060 A 
ATOM      6  C   UNL     1       3.042  -2.259   1.399  1.00  0.00     0.016 A 
ATOM      7  C   UNL     1       5.150  -1.189   0.950  1.00  0.00     0.016 A 
ATOM      8  C   UNL     1       3.464  -2.557   2.696  1.00  0.00     0.010 A 
ATOM      9  C   UNL     1       5.582  -1.494   2.243  1.00  0.00     0.010 A 
ATOM     10  C   UNL     1       4.737  -2.160   3.135  1.00  0.00    -0.014 A 
BRANCH  10  11
ATOM     11  C   UNL     1       5.274  -2.664   4.418  1.00  0.00     0.031 A 
ATOM     12  C   UNL     1       5.535  -1.782   5.602  1.00  0.00     0.074 A 
ATOM     13  C   UNL     1       5.606  -3.968   4.459  1.00  0.00     0.049 A 
ATOM     14  N   UNL     1       5.835  -2.133   6.826  1.00  0.00    -0.248 NA
ATOM     15  C   UNL     1       5.442  -0.327   5.410  1.00  0.00     0.031 C 
ATOM     16  C   UNL     1       5.498  -4.891   3.325  1.00  0.00     0.029 A 
ATOM     17  N   UNL     1       6.135  -4.729   5.464  1.00  0.00    -0.354 N 
ATOM     18  C   UNL     1       5.898  -0.956   7.562  1.00  0.00     0.074 A 
ATOM     19  C   UNL     1       5.641   0.130   6.643  1.00  0.00     0.031 C 
ATOM     20  C   UNL     1       5.973  -6.088   3.690  1.00  0.00     0.029 A 
ATOM     21  C   UNL     1       6.429  -6.012   5.072  1.00  0.00     0.049 A 
ATOM     22  H   UNL     1       6.290  -4.392   6.376  1.00  0.00     0.167 HD
ATOM     23  C   UNL     1       6.144  -0.811   8.884  1.00  0.00     0.034 A 
ATOM     24  C   UNL     1       7.022  -7.015   5.743  1.00  0.00     0.034 A 
ATOM     25  C   UNL     1       6.554  -1.888   9.745  1.00  0.00     0.049 A 
ATOM     26  C   UNL     1       7.391  -6.807   7.176  1.00  0.00     0.074 A 
ATOM     27  C   UNL     1       6.832  -1.844  11.100  1.00  0.00     0.029 A 
ATOM     28  N   UNL     1       6.820  -3.180   9.320  1.00  0.00    -0.354 N 
ATOM     29  N   UNL     1       7.221  -5.737   7.914  1.00  0.00    -0.248 NA
ATOM     30  C   UNL     1       8.001  -7.941   7.882  1.00  0.00     0.031 C 
ATOM     31  C   UNL     1       7.319  -3.096  11.482  1.00  0.00     0.029 A 
ATOM     32  C   UNL     1       7.306  -3.929  10.375  1.00  0.00     0.049 A 
ATOM     33  H   UNL     1       6.683  -3.514   8.405  1.00  0.00     0.167 HD
ATOM     34  C   UNL     1       7.684  -6.072   9.178  1.00  0.00     0.074 A 
ATOM     35  C   UNL     1       8.136  -7.447   9.108  1.00  0.00     0.031 C 
ATOM     36  C   UNL     1       7.730  -5.303  10.291  1.00  0.00     0.034 A 
BRANCH  23  37
ATOM     37  C   UNL     1       5.942   0.536   9.523  1.00  0.00     0.023 A 
ATOM     38  C   UNL     1       4.642   0.885   9.942  1.00  0.00     0.012 A 
ATOM     39  C   UNL     1       7.029   1.356   9.880  1.00  0.00     0.148 A 
ATOM     40  C   UNL     1       4.426   2.023  10.719  1.00  0.00     0.002 A 
ATOM     41  C   UNL     1       6.809   2.483  10.667  1.00  0.00     0.091 A 
ATOM     42  F   UNL     1       8.255   1.000   9.472  1.00  0.00    -0.205 F 
ATOM     43  C   UNL     1       5.510   2.815  11.089  1.00  0.00     0.022 A 
BRANCH  41  44
ATOM     44  S   UNL     1       8.134   3.556  11.231  1.00  0.00     0.127 S 
ATOM     45  O   UNL     1       7.754   4.833  10.625  1.00  0.00    -0.237 OA
ATOM     46  O   UNL     1       7.977   3.499  12.684  1.00  0.00    -0.237 OA
ATOM     47  O   UNL     1       9.367   2.978  10.717  1.00  0.00    -0.744 OA
ENDBRANCH  41  44
ENDBRANCH  23  37
BRANCH  24  48
ATOM     48  C   UNL     1       7.245  -8.299   5.033  1.00  0.00     0.023 A 
ATOM     49  C   UNL     1       6.376  -9.379   5.265  1.00  0.00     0.012 A 
ATOM     50  C   UNL     1       8.218  -8.392   4.018  1.00  0.00     0.148 A 
ATOM     51  C   UNL     1       6.471 -10.536   4.492  1.00  0.00     0.002 A 
ATOM     52  C   UNL     1       8.279  -9.529   3.225  1.00  0.00     0.091 A 
ATOM     53  F   UNL     1       9.025  -7.341   3.818  1.00  0.00    -0.205 F 
ATOM     54  C   UNL     1       7.410 -10.606   3.465  1.00  0.00     0.022 A 
BRANCH  52  55
ATOM     55  S   UNL     1       9.369  -9.655   1.803  1.00  0.00     0.127 S 
ATOM     56  O   UNL     1      10.308 -10.685   2.239  1.00  0.00    -0.237 OA
ATOM     57  O   UNL     1       8.442 -10.070   0.749  1.00  0.00    -0.237 OA
ATOM     58  O   UNL     1       9.934  -8.325   1.618  1.00  0.00    -0.744 OA
ENDBRANCH  52  55
ENDBRANCH  24  48
BRANCH  36  59
ATOM     59  C   UNL     1       8.289  -5.909  11.545  1.00  0.00     0.023 A 
ATOM     60  C   UNL     1       9.684  -5.987  11.712  1.00  0.00     0.012 A 
ATOM     61  C   UNL     1       7.434  -6.243  12.612  1.00  0.00     0.148 A 
ATOM     62  C   UNL     1      10.223  -6.385  12.934  1.00  0.00     0.002 A 
ATOM     63  C   UNL     1       7.978  -6.603  13.837  1.00  0.00     0.091 A 
ATOM     64  F   UNL     1       6.109  -6.160  12.416  1.00  0.00    -0.205 F 
ATOM     65  C   UNL     1       9.371  -6.678  13.999  1.00  0.00     0.022 A 
BRANCH  63  66
ATOM     66  S   UNL     1       6.968  -6.920  15.287  1.00  0.00     0.127 S 
ATOM     67  O   UNL     1       7.285  -8.320  15.568  1.00  0.00    -0.237 OA
ATOM     68  O   UNL     1       7.511  -5.965  16.252  1.00  0.00    -0.237 OA
ATOM     69  O   UNL     1       5.590  -6.671  14.886  1.00  0.00    -0.744 OA
ENDBRANCH  63  66
ENDBRANCH  36  59
ENDBRANCH  10  11
ENDBRANCH   3   5
ENDBRANCH   2   3
ENDBRANCH   1   2
BRANCH   1  70
ATOM     70  C   UNL     1       4.172   2.014   0.341  1.00  0.00     0.275 C 
BRANCH  70  71
ATOM     71  O   UNL     1       3.607   1.342   1.474  1.00  0.00    -0.458 OA
BRANCH  71  72
ATOM     72  C   UNL     1       2.268   1.500   1.641  1.00  0.00     0.340 C 
ATOM     73  O   UNL     1       1.527   2.193   0.958  1.00  0.00    -0.246 OA
BRANCH  72  74
ATOM     74  C   UNL     1       1.843   0.747   2.837  1.00  0.00     0.086 A 
ATOM     75  C   UNL     1       2.470   1.041   4.056  1.00  0.00     0.018 A 
ATOM     76  C   UNL     1       0.837  -0.222   2.729  1.00  0.00     0.087 A 
ATOM     77  C   UNL     1       2.096   0.357   5.201  1.00  0.00     0.002 A 
ATOM     78  C   UNL     1       0.450  -0.911   3.906  1.00  0.00     0.013 A 
ATOM     79  N   UNL     1       0.292  -0.528   1.533  1.00  0.00    -0.240 NA
ATOM     80  C   UNL     1       1.097  -0.608   5.128  1.00  0.00     0.011 A 
ATOM     81  C   UNL     1      -0.562  -1.899   3.799  1.00  0.00     0.068 A 
ATOM     82  C   UNL     1      -0.623  -1.510   1.445  1.00  0.00     0.107 A 
ATOM     83  C   UNL     1      -1.081  -2.213   2.537  1.00  0.00     0.049 A 
ATOM     84  Br  UNL     1      -1.278  -1.957  -0.275  1.00  0.00    -0.029 Br
BRANCH  81  85
ATOM     85  C   UNL     1      -1.114  -2.614   5.008  1.00  0.00     0.417 C 
ATOM     86  F   UNL     1      -0.188  -3.374   5.647  1.00  0.00    -0.166 F 
ATOM     87  F   UNL     1      -1.614  -1.752   5.936  1.00  0.00    -0.166 F 
ATOM     88  F   UNL     1      -2.144  -3.457   4.708  1.00  0.00    -0.166 F 
ENDBRANCH  81  85
ENDBRANCH  72  74
ENDBRANCH  71  72
ENDBRANCH  70  71
ENDBRANCH   1  70
TORSDOF 15
