REMARK SMILES CC1([C@@]2(C)C[C@@H]2C(=O)OCCOC(=O)c2ccc(-c3c4nc(c(-c5cccc(S(=O)(=O)[O-])c5F)c5ccc([nH]5)c(-c5cccc(S(=O)(=O)[O-])c5F)c5nc(c(-c6cccc(S(=O)(=O)[O-])c6F)c6ccc3[nH]6)C=C5)C=C4)cc2)CC1
REMARK SMILES IDX 11 1 10 2 9 3 7 4 8 5 6 6 3 7 4 8 5 9 2 10 1 11 78 12 79 13
REMARK SMILES IDX 12 14 13 15 14 16 15 17 16 18 77 19 17 20 76 21 18 22 19 23
REMARK SMILES IDX 20 24 70 25 21 26 75 27 69 28 71 29 22 30 74 31 68 32 67 33
REMARK SMILES IDX 23 35 55 36 35 37 54 38 36 39 39 40 53 41 72 42 37 43 38 44
REMARK SMILES IDX 52 46 73 47 40 48 24 49 25 50 33 51 26 52 28 53 34 54 27 55
REMARK SMILES IDX 29 56 30 57 31 58 32 59 56 60 57 61 65 62 58 63 60 64 66 65
REMARK SMILES IDX 59 66 61 67 62 68 63 69 64 70 41 71 42 72 50 73 43 74 45 75
REMARK SMILES IDX 51 76 44 77 46 78 47 79 48 80 49 81
REMARK H PARENT 71 34 39 45
REMARK Flexibility Score: inf
ROOT
ATOM      1  C   UNL     1       5.792   2.801   2.694  1.00  0.00     0.275 C 
ENDROOT
BRANCH   1   2
ATOM      2  C   UNL     1       4.882   2.426   3.867  1.00  0.00     0.274 C 
BRANCH   2   3
ATOM      3  O   UNL     1       4.183   1.195   3.601  1.00  0.00    -0.462 OA
BRANCH   3   4
ATOM      4  C   UNL     1       2.884   1.323   3.210  1.00  0.00     0.309 C 
ATOM      5  O   UNL     1       2.256   2.367   3.188  1.00  0.00    -0.252 OA
BRANCH   4   6
ATOM      6  C   UNL     1       2.321   0.014   2.769  1.00  0.00     0.106 C 
ATOM      7  C   UNL     1       0.861  -0.229   2.324  1.00  0.00    -0.013 C 
ATOM      8  C   UNL     1      -0.143   0.909   2.371  1.00  0.00     0.013 C 
ATOM      9  C   UNL     1       1.365  -0.708   3.676  1.00  0.00     0.024 C 
BRANCH   7  10
ATOM     10  C   UNL     1       0.565  -1.263   1.164  1.00  0.00    -0.026 C 
ATOM     11  C   UNL     1       1.074  -0.866  -0.202  1.00  0.00     0.012 C 
ATOM     12  C   UNL     1      -0.783  -1.974   1.155  1.00  0.00     0.008 C 
ATOM     13  C   UNL     1       0.464  -2.759   1.407  1.00  0.00     0.008 C 
ENDBRANCH   7  10
ENDBRANCH   4   6
ENDBRANCH   3   4
ENDBRANCH   2   3
ENDBRANCH   1   2
BRANCH   1  14
ATOM     14  O   UNL     1       5.026   3.184   1.535  1.00  0.00    -0.458 OA
BRANCH  14  15
ATOM     15  C   UNL     1       4.798   2.188   0.650  1.00  0.00     0.338 C 
ATOM     16  O   UNL     1       5.199   1.037   0.714  1.00  0.00    -0.246 OA
BRANCH  15  17
ATOM     17  C   UNL     1       3.850   2.632  -0.382  1.00  0.00     0.060 A 
ATOM     18  C   UNL     1       2.521   2.258  -0.227  1.00  0.00     0.016 A 
ATOM     19  C   UNL     1       4.272   3.239  -1.563  1.00  0.00     0.016 A 
ATOM     20  C   UNL     1       1.629   2.398  -1.281  1.00  0.00     0.010 A 
ATOM     21  C   UNL     1       3.351   3.430  -2.607  1.00  0.00     0.010 A 
ATOM     22  C   UNL     1       2.029   2.961  -2.497  1.00  0.00    -0.014 A 
BRANCH  22  23
ATOM     23  C   UNL     1       1.070   2.957  -3.641  1.00  0.00     0.031 A 
ATOM     24  C   UNL     1       1.411   2.230  -4.921  1.00  0.00     0.074 A 
ATOM     25  C   UNL     1      -0.148   3.526  -3.513  1.00  0.00     0.049 A 
ATOM     26  N   UNL     1       0.743   2.178  -6.045  1.00  0.00    -0.248 NA
ATOM     27  C   UNL     1       2.666   1.460  -4.941  1.00  0.00     0.031 C 
ATOM     28  C   UNL     1      -0.642   4.211  -2.316  1.00  0.00     0.029 A 
ATOM     29  N   UNL     1      -1.199   3.611  -4.395  1.00  0.00    -0.354 N 
ATOM     30  C   UNL     1       1.523   1.432  -6.923  1.00  0.00     0.074 A 
ATOM     31  C   UNL     1       2.714   1.045  -6.199  1.00  0.00     0.031 C 
ATOM     32  C   UNL     1      -1.901   4.621  -2.527  1.00  0.00     0.029 A 
ATOM     33  C   UNL     1      -2.274   4.316  -3.903  1.00  0.00     0.049 A 
ATOM     34  H   UNL     1      -1.184   3.207  -5.293  1.00  0.00     0.167 HD
ATOM     35  C   UNL     1       1.269   1.091  -8.210  1.00  0.00     0.034 A 
ATOM     36  C   UNL     1      -3.412   4.722  -4.500  1.00  0.00     0.034 A 
ATOM     37  C   UNL     1       0.058   1.425  -8.912  1.00  0.00     0.049 A 
ATOM     38  C   UNL     1      -3.645   4.369  -5.943  1.00  0.00     0.074 A 
ATOM     39  C   UNL     1      -0.296   1.106 -10.213  1.00  0.00     0.029 A 
ATOM     40  N   UNL     1      -0.998   2.146  -8.379  1.00  0.00    -0.354 N 
ATOM     41  N   UNL     1      -2.908   3.641  -6.746  1.00  0.00    -0.248 NA
ATOM     42  C   UNL     1      -4.876   4.884  -6.561  1.00  0.00     0.031 C 
ATOM     43  C   UNL     1      -1.551   1.665 -10.476  1.00  0.00     0.029 A 
ATOM     44  C   UNL     1      -1.998   2.293  -9.325  1.00  0.00     0.049 A 
ATOM     45  H   UNL     1      -1.032   2.502  -7.461  1.00  0.00     0.167 HD
ATOM     46  C   UNL     1      -3.600   3.584  -7.950  1.00  0.00     0.074 A 
ATOM     47  C   UNL     1      -4.829   4.327  -7.762  1.00  0.00     0.031 C 
ATOM     48  C   UNL     1      -3.242   2.987  -9.113  1.00  0.00     0.034 A 
BRANCH  35  49
ATOM     49  C   UNL     1       2.321   0.311  -8.958  1.00  0.00     0.023 A 
ATOM     50  C   UNL     1       2.538  -1.049  -8.664  1.00  0.00     0.012 A 
ATOM     51  C   UNL     1       3.040   0.913 -10.012  1.00  0.00     0.148 A 
ATOM     52  C   UNL     1       3.475  -1.791  -9.386  1.00  0.00     0.002 A 
ATOM     53  C   UNL     1       3.936   0.156 -10.757  1.00  0.00     0.091 A 
ATOM     54  F   UNL     1       2.829   2.212 -10.268  1.00  0.00    -0.205 F 
ATOM     55  C   UNL     1       4.164  -1.192 -10.438  1.00  0.00     0.022 A 
BRANCH  53  56
ATOM     56  S   UNL     1       4.811   0.811 -12.183  1.00  0.00     0.127 S 
ATOM     57  O   UNL     1       6.195   0.801 -11.710  1.00  0.00    -0.237 OA
ATOM     58  O   UNL     1       4.511  -0.186 -13.211  1.00  0.00    -0.237 OA
ATOM     59  O   UNL     1       4.250   2.131 -12.431  1.00  0.00    -0.744 OA
ENDBRANCH  53  56
ENDBRANCH  35  49
BRANCH  36  60
ATOM     60  C   UNL     1      -4.410   5.537  -3.747  1.00  0.00     0.023 A 
ATOM     61  C   UNL     1      -5.696   5.019  -3.499  1.00  0.00     0.012 A 
ATOM     62  C   UNL     1      -4.092   6.831  -3.288  1.00  0.00     0.148 A 
ATOM     63  C   UNL     1      -6.658   5.790  -2.844  1.00  0.00     0.002 A 
ATOM     64  C   UNL     1      -5.032   7.566  -2.578  1.00  0.00     0.091 A 
ATOM     65  F   UNL     1      -2.872   7.319  -3.554  1.00  0.00    -0.205 F 
ATOM     66  C   UNL     1      -6.323   7.057  -2.374  1.00  0.00     0.022 A 
BRANCH  64  67
ATOM     67  S   UNL     1      -4.640   9.146  -1.821  1.00  0.00     0.127 S 
ATOM     68  O   UNL     1      -5.387  10.075  -2.664  1.00  0.00    -0.237 OA
ATOM     69  O   UNL     1      -5.174   8.974  -0.469  1.00  0.00    -0.237 OA
ATOM     70  O   UNL     1      -3.189   9.261  -1.881  1.00  0.00    -0.744 OA
ENDBRANCH  64  67
ENDBRANCH  36  60
BRANCH  48  71
ATOM     71  C   UNL     1      -4.213   3.060 -10.262  1.00  0.00     0.023 A 
ATOM     72  C   UNL     1      -4.427   4.282 -10.931  1.00  0.00     0.012 A 
ATOM     73  C   UNL     1      -4.872   1.900 -10.714  1.00  0.00     0.148 A 
ATOM     74  C   UNL     1      -5.312   4.356 -12.006  1.00  0.00     0.002 A 
ATOM     75  C   UNL     1      -5.711   1.970 -11.820  1.00  0.00     0.091 A 
ATOM     76  F   UNL     1      -4.668   0.750 -10.055  1.00  0.00    -0.205 F 
ATOM     77  C   UNL     1      -5.945   3.199 -12.457  1.00  0.00     0.022 A 
BRANCH  75  78
ATOM     78  S   UNL     1      -6.492   0.518 -12.532  1.00  0.00     0.127 S 
ATOM     79  O   UNL     1      -7.897   0.742 -12.199  1.00  0.00    -0.237 OA
ATOM     80  O   UNL     1      -6.171   0.661 -13.953  1.00  0.00    -0.237 OA
ATOM     81  O   UNL     1      -5.874  -0.632 -11.885  1.00  0.00    -0.744 OA
ENDBRANCH  75  78
ENDBRANCH  48  71
ENDBRANCH  22  23
ENDBRANCH  15  17
ENDBRANCH  14  15
ENDBRANCH   1  14
TORSDOF 15
