REMARK SMILES COCc1nc2ccccc2n1CC(=O)OCCOC(=O)c1ccc(-c2c3nc(c(-c4cccc(S(=O)(=O)[O-])c4F)c4ccc([nH]4)c(-c4cccc(S(=O)(=O)[O-])c4F)c4nc(c(-c5cccc(S(=O)(=O)[O-])c5F)c5ccc2[nH]5)C=C4)C=C3)cc1
REMARK SMILES IDX 17 1 16 2 14 3 15 4 13 5 12 6 4 7 5 8 6 9 11 10 7 11 10 12
REMARK SMILES IDX 8 13 9 14 3 15 2 16 1 17 18 18 19 19 20 20 21 21 22 22 23 23
REMARK SMILES IDX 84 24 24 25 83 26 25 27 26 28 27 29 77 30 28 31 82 32 76 33
REMARK SMILES IDX 78 34 29 35 81 36 75 37 74 38 30 40 62 41 42 42 61 43 43 44
REMARK SMILES IDX 46 45 60 46 79 47 44 48 45 49 59 51 80 52 47 53 31 54 32 55
REMARK SMILES IDX 40 56 33 57 35 58 41 59 34 60 36 61 37 62 38 63 39 64 63 65
REMARK SMILES IDX 64 66 72 67 65 68 67 69 73 70 66 71 68 72 69 73 70 74 71 75
REMARK SMILES IDX 48 76 49 77 57 78 50 79 52 80 58 81 51 82 53 83 54 84 55 85
REMARK SMILES IDX 56 86
REMARK H PARENT 78 39 46 50
REMARK Flexibility Score: inf
ROOT
ATOM      1  C   UNL     1      -3.596  -0.994   1.287  1.00  0.00     0.274 C 
ENDROOT
BRANCH   1   2
ATOM      2  O   UNL     1      -2.471  -1.651   0.647  1.00  0.00    -0.461 OA
BRANCH   2   3
ATOM      3  C   UNL     1      -2.491  -1.681  -0.720  1.00  0.00     0.326 C 
ATOM      4  O   UNL     1      -3.455  -1.328  -1.392  1.00  0.00    -0.250 OA
BRANCH   3   5
ATOM      5  C   UNL     1      -1.155  -2.030  -1.332  1.00  0.00     0.246 C 
BRANCH   5   6
ATOM      6  N   UNL     1      -0.591  -3.304  -0.957  1.00  0.00    -0.315 N 
ATOM      7  C   UNL     1       0.220  -3.608   0.123  1.00  0.00     0.136 A 
ATOM      8  N   UNL     1       0.494  -4.903   0.120  1.00  0.00    -0.231 NA
ATOM      9  C   UNL     1       0.081  -5.369  -1.103  1.00  0.00     0.089 A 
ATOM     10  C   UNL     1      -0.546  -4.367  -1.827  1.00  0.00     0.069 A 
ATOM     11  C   UNL     1       0.256  -6.627  -1.691  1.00  0.00     0.030 A 
ATOM     12  C   UNL     1      -0.949  -4.520  -3.158  1.00  0.00     0.028 A 
ATOM     13  C   UNL     1      -0.136  -6.802  -3.025  1.00  0.00     0.002 A 
ATOM     14  C   UNL     1      -0.708  -5.757  -3.751  1.00  0.00     0.002 A 
BRANCH   7  15
ATOM     15  C   UNL     1       0.749  -2.651   1.149  1.00  0.00     0.235 C 
BRANCH  15  16
ATOM     16  O   UNL     1       1.255  -1.459   0.550  1.00  0.00    -0.377 OA
ATOM     17  C   UNL     1       2.470  -1.611  -0.174  1.00  0.00     0.195 C 
ENDBRANCH  15  16
ENDBRANCH   7  15
ENDBRANCH   5   6
ENDBRANCH   3   5
ENDBRANCH   2   3
ENDBRANCH   1   2
BRANCH   1  18
ATOM     18  C   UNL     1      -3.129  -0.209   2.527  1.00  0.00     0.275 C 
BRANCH  18  19
ATOM     19  O   UNL     1      -2.514   1.020   2.089  1.00  0.00    -0.458 OA
BRANCH  19  20
ATOM     20  C   UNL     1      -1.216   1.220   2.401  1.00  0.00     0.338 C 
ATOM     21  O   UNL     1      -0.573   0.700   3.321  1.00  0.00    -0.246 OA
BRANCH  20  22
ATOM     22  C   UNL     1      -0.626   1.808   1.201  1.00  0.00     0.060 A 
ATOM     23  C   UNL     1      -0.197   3.110   1.015  1.00  0.00     0.016 A 
ATOM     24  C   UNL     1      -0.512   0.895   0.166  1.00  0.00     0.016 A 
ATOM     25  C   UNL     1       0.259   3.475  -0.262  1.00  0.00     0.010 A 
ATOM     26  C   UNL     1      -0.013   1.228  -1.070  1.00  0.00     0.010 A 
ATOM     27  C   UNL     1       0.322   2.535  -1.317  1.00  0.00    -0.014 A 
BRANCH  27  28
ATOM     28  C   UNL     1       0.861   2.856  -2.635  1.00  0.00     0.031 A 
ATOM     29  C   UNL     1       2.122   3.617  -2.602  1.00  0.00     0.074 A 
ATOM     30  C   UNL     1       0.418   2.450  -3.846  1.00  0.00     0.049 A 
ATOM     31  N   UNL     1       2.207   4.901  -2.648  1.00  0.00    -0.248 NA
ATOM     32  C   UNL     1       3.389   2.923  -2.362  1.00  0.00     0.031 C 
ATOM     33  C   UNL     1      -0.582   1.443  -4.214  1.00  0.00     0.029 A 
ATOM     34  N   UNL     1       0.875   2.874  -5.059  1.00  0.00    -0.354 N 
ATOM     35  C   UNL     1       3.559   5.186  -2.656  1.00  0.00     0.074 A 
ATOM     36  C   UNL     1       4.237   3.956  -2.317  1.00  0.00     0.031 C 
ATOM     37  C   UNL     1      -0.506   1.197  -5.545  1.00  0.00     0.029 A 
ATOM     38  C   UNL     1       0.409   2.150  -6.145  1.00  0.00     0.049 A 
ATOM     39  H   UNL     1       1.488   3.638  -5.157  1.00  0.00     0.167 HD
ATOM     40  C   UNL     1       4.017   6.371  -3.135  1.00  0.00     0.034 A 
ATOM     41  C   UNL     1       0.770   2.339  -7.436  1.00  0.00     0.034 A 
ATOM     42  C   UNL     1       2.948   7.291  -3.436  1.00  0.00     0.049 A 
ATOM     43  C   UNL     1       1.175   3.765  -7.549  1.00  0.00     0.074 A 
ATOM     44  C   UNL     1       1.903   7.835  -2.713  1.00  0.00     0.029 A 
ATOM     45  N   UNL     1       2.600   7.433  -4.760  1.00  0.00    -0.354 N 
ATOM     46  N   UNL     1       0.350   4.767  -7.396  1.00  0.00    -0.248 NA
ATOM     47  C   UNL     1       2.586   4.104  -7.461  1.00  0.00     0.031 C 
ATOM     48  C   UNL     1       0.790   7.818  -3.608  1.00  0.00     0.029 A 
ATOM     49  C   UNL     1       1.235   7.309  -4.830  1.00  0.00     0.049 A 
ATOM     50  H   UNL     1       3.214   7.593  -5.514  1.00  0.00     0.167 HD
ATOM     51  C   UNL     1       1.102   5.748  -6.763  1.00  0.00     0.074 A 
ATOM     52  C   UNL     1       2.490   5.332  -6.944  1.00  0.00     0.031 C 
ATOM     53  C   UNL     1       0.528   6.652  -5.912  1.00  0.00     0.034 A 
BRANCH  40  54
ATOM     54  C   UNL     1       5.409   6.599  -3.622  1.00  0.00     0.023 A 
ATOM     55  C   UNL     1       5.886   7.924  -3.655  1.00  0.00     0.012 A 
ATOM     56  C   UNL     1       6.184   5.602  -4.250  1.00  0.00     0.148 A 
ATOM     57  C   UNL     1       7.089   8.243  -4.287  1.00  0.00     0.002 A 
ATOM     58  C   UNL     1       7.415   5.912  -4.808  1.00  0.00     0.091 A 
ATOM     59  F   UNL     1       5.672   4.376  -4.420  1.00  0.00    -0.205 F 
ATOM     60  C   UNL     1       7.864   7.234  -4.848  1.00  0.00     0.022 A 
BRANCH  58  61
ATOM     61  S   UNL     1       8.470   4.629  -5.487  1.00  0.00     0.127 S 
ATOM     62  O   UNL     1       8.193   4.747  -6.915  1.00  0.00    -0.237 OA
ATOM     63  O   UNL     1       9.800   5.077  -5.073  1.00  0.00    -0.237 OA
ATOM     64  O   UNL     1       8.029   3.400  -4.839  1.00  0.00    -0.744 OA
ENDBRANCH  58  61
ENDBRANCH  40  54
BRANCH  41  65
ATOM     65  C   UNL     1       0.972   1.357  -8.530  1.00  0.00     0.023 A 
ATOM     66  C   UNL     1       1.195   1.825  -9.843  1.00  0.00     0.012 A 
ATOM     67  C   UNL     1       1.233  -0.005  -8.266  1.00  0.00     0.148 A 
ATOM     68  C   UNL     1       1.718   0.986 -10.836  1.00  0.00     0.002 A 
ATOM     69  C   UNL     1       1.737  -0.841  -9.261  1.00  0.00     0.091 A 
ATOM     70  F   UNL     1       1.087  -0.469  -7.018  1.00  0.00    -0.205 F 
ATOM     71  C   UNL     1       1.998  -0.345 -10.543  1.00  0.00     0.022 A 
BRANCH  69  72
ATOM     72  S   UNL     1       2.108  -2.570  -8.931  1.00  0.00     0.127 S 
ATOM     73  O   UNL     1       1.750  -3.216 -10.194  1.00  0.00    -0.237 OA
ATOM     74  O   UNL     1       3.540  -2.527  -8.650  1.00  0.00    -0.237 OA
ATOM     75  O   UNL     1       1.246  -2.938  -7.813  1.00  0.00    -0.744 OA
ENDBRANCH  69  72
ENDBRANCH  41  65
BRANCH  53  76
ATOM     76  C   UNL     1      -0.980   6.745  -5.866  1.00  0.00     0.023 A 
ATOM     77  C   UNL     1      -1.777   5.656  -5.452  1.00  0.00     0.012 A 
ATOM     78  C   UNL     1      -1.588   8.003  -6.033  1.00  0.00     0.148 A 
ATOM     79  C   UNL     1      -3.146   5.814  -5.222  1.00  0.00     0.002 A 
ATOM     80  C   UNL     1      -2.943   8.165  -5.762  1.00  0.00     0.091 A 
ATOM     81  F   UNL     1      -0.817   9.033  -6.414  1.00  0.00    -0.205 F 
ATOM     82  C   UNL     1      -3.726   7.071  -5.363  1.00  0.00     0.022 A 
BRANCH  80  83
ATOM     83  S   UNL     1      -3.741   9.774  -5.801  1.00  0.00     0.127 S 
ATOM     84  O   UNL     1      -4.659   9.634  -6.930  1.00  0.00    -0.237 OA
ATOM     85  O   UNL     1      -4.389   9.831  -4.490  1.00  0.00    -0.237 OA
ATOM     86  O   UNL     1      -2.676  10.752  -5.986  1.00  0.00    -0.744 OA
ENDBRANCH  80  83
ENDBRANCH  53  76
ENDBRANCH  27  28
ENDBRANCH  20  22
ENDBRANCH  19  20
ENDBRANCH  18  19
ENDBRANCH   1  18
TORSDOF 17
