REMARK SMILES NC(=O)c1ccc(C[N@H+]2CCC[C@@H](C(=O)OCCOC(=O)c3ccc(-c4c5nc(c(-c6cccc(S(=O)(=O)[O-])c6F)c6ccc([nH]6)c(-c6cccc(S(=O)(=O)[O-])c6F)c6nc(c(-c7cccc(S(=O)(=O)[O-])c7F)c7ccc4[nH]7)C=C6)C=C5)cc3)C2)cc1
REMARK SMILES IDX 17 1 16 2 14 3 15 4 13 5 9 6 10 7 85 8 11 10 12 11 8 12 7 13
REMARK SMILES IDX 4 14 5 15 87 16 6 17 86 18 2 19 1 20 3 23 18 24 19 25 20 26
REMARK SMILES IDX 21 27 22 28 23 29 84 30 24 31 83 32 25 33 26 34 27 35 77 36
REMARK SMILES IDX 28 37 82 38 76 39 78 40 29 41 81 42 75 43 74 44 30 46 62 47
REMARK SMILES IDX 42 48 61 49 43 50 46 51 60 52 79 53 44 54 45 55 59 57 80 58
REMARK SMILES IDX 47 59 31 60 32 61 40 62 33 63 35 64 41 65 34 66 36 67 37 68
REMARK SMILES IDX 38 69 39 70 63 71 64 72 72 73 65 74 67 75 73 76 66 77 68 78
REMARK SMILES IDX 69 79 70 80 71 81 48 82 49 83 57 84 50 85 52 86 58 87 51 88
REMARK SMILES IDX 53 89 54 90 55 91 56 92
REMARK H PARENT 9 9 1 21 1 22 78 45 46 56
REMARK Flexibility Score: inf
ROOT
ATOM      1  C   UNL     1      -3.463   5.700   6.203  1.00  0.00     0.274 C 
ENDROOT
BRANCH   1   2
ATOM      2  O   UNL     1      -2.320   6.009   5.380  1.00  0.00    -0.462 OA
BRANCH   2   3
ATOM      3  C   UNL     1      -1.486   6.966   5.865  1.00  0.00     0.314 C 
ATOM      4  O   UNL     1      -1.673   7.601   6.895  1.00  0.00    -0.252 OA
BRANCH   3   5
ATOM      5  C   UNL     1      -0.285   7.198   4.976  1.00  0.00     0.154 C 
ATOM      6  N   UNL     1       1.671   6.206   3.891  1.00  0.00    -0.330 N 
ATOM      7  C   UNL     1       1.373   6.858   2.614  1.00  0.00     0.262 C 
ATOM      8  C   UNL     1       0.440   5.899   4.630  1.00  0.00     0.277 C 
ATOM      9  H   UNL     1       2.197   6.885   4.441  1.00  0.00     0.348 HD
ATOM     10  C   UNL     1       0.593   8.161   2.840  1.00  0.00     0.062 C 
ATOM     11  C   UNL     1      -0.656   7.948   3.699  1.00  0.00     0.027 C 
BRANCH   6  12
ATOM     12  C   UNL     1       2.588   5.058   3.786  1.00  0.00     0.299 C 
BRANCH  12  13
ATOM     13  C   UNL     1       2.072   3.859   3.019  1.00  0.00     0.006 A 
ATOM     14  C   UNL     1       0.991   1.715   1.569  1.00  0.00     0.039 A 
ATOM     15  C   UNL     1       0.681   1.866   2.921  1.00  0.00     0.014 A 
ATOM     16  C   UNL     1       1.854   2.619   0.940  1.00  0.00     0.014 A 
ATOM     17  C   UNL     1       1.239   2.919   3.645  1.00  0.00     0.010 A 
ATOM     18  C   UNL     1       2.387   3.689   1.663  1.00  0.00     0.010 A 
BRANCH  14  19
ATOM     19  C   UNL     1       0.359   0.606   0.817  1.00  0.00     0.248 C 
ATOM     20  N   UNL     1       1.147  -0.039  -0.092  1.00  0.00    -0.366 N 
ATOM     21  H   UNL     1       0.780  -0.784  -0.621  1.00  0.00     0.159 HD
ATOM     22  H   UNL     1       2.083   0.241  -0.219  1.00  0.00     0.159 HD
ATOM     23  O   UNL     1      -0.800   0.268   1.012  1.00  0.00    -0.270 OA
ENDBRANCH  14  19
ENDBRANCH  12  13
ENDBRANCH   6  12
ENDBRANCH   3   5
ENDBRANCH   2   3
ENDBRANCH   1   2
BRANCH   1  24
ATOM     24  C   UNL     1      -3.262   4.378   6.937  1.00  0.00     0.275 C 
BRANCH  24  25
ATOM     25  O   UNL     1      -2.113   4.450   7.800  1.00  0.00    -0.458 OA
BRANCH  25  26
ATOM     26  C   UNL     1      -1.062   3.689   7.420  1.00  0.00     0.338 C 
ATOM     27  O   UNL     1      -0.988   2.954   6.451  1.00  0.00    -0.246 OA
BRANCH  26  28
ATOM     28  C   UNL     1       0.060   3.876   8.349  1.00  0.00     0.060 A 
ATOM     29  C   UNL     1       0.844   5.028   8.262  1.00  0.00     0.016 A 
ATOM     30  C   UNL     1       0.431   2.826   9.190  1.00  0.00     0.016 A 
ATOM     31  C   UNL     1       2.056   5.091   8.945  1.00  0.00     0.010 A 
ATOM     32  C   UNL     1       1.603   2.931   9.941  1.00  0.00     0.010 A 
ATOM     33  C   UNL     1       2.448   4.045   9.795  1.00  0.00    -0.014 A 
BRANCH  33  34
ATOM     34  C   UNL     1       3.745   4.105  10.517  1.00  0.00     0.031 A 
ATOM     35  C   UNL     1       4.818   3.084  10.241  1.00  0.00     0.074 A 
ATOM     36  C   UNL     1       3.954   5.068  11.436  1.00  0.00     0.049 A 
ATOM     37  N   UNL     1       5.958   2.899  10.855  1.00  0.00    -0.248 NA
ATOM     38  C   UNL     1       4.576   2.142   9.135  1.00  0.00     0.031 C 
ATOM     39  C   UNL     1       2.997   6.117  11.792  1.00  0.00     0.029 A 
ATOM     40  N   UNL     1       5.033   5.315  12.247  1.00  0.00    -0.354 N 
ATOM     41  C   UNL     1       6.544   1.794  10.249  1.00  0.00     0.074 A 
ATOM     42  C   UNL     1       5.635   1.348   9.215  1.00  0.00     0.031 C 
ATOM     43  C   UNL     1       3.535   6.902  12.738  1.00  0.00     0.029 A 
ATOM     44  C   UNL     1       4.850   6.382  13.095  1.00  0.00     0.049 A 
ATOM     45  H   UNL     1       5.859   4.779  12.224  1.00  0.00     0.167 HD
ATOM     46  C   UNL     1       7.739   1.214  10.517  1.00  0.00     0.034 A 
ATOM     47  C   UNL     1       5.643   6.875  14.066  1.00  0.00     0.034 A 
ATOM     48  C   UNL     1       8.668   1.693  11.505  1.00  0.00     0.049 A 
ATOM     49  C   UNL     1       6.970   6.221  14.329  1.00  0.00     0.074 A 
ATOM     50  C   UNL     1       9.907   1.177  11.844  1.00  0.00     0.029 A 
ATOM     51  N   UNL     1       8.471   2.813  12.298  1.00  0.00    -0.354 N 
ATOM     52  N   UNL     1       7.526   5.207  13.712  1.00  0.00    -0.248 NA
ATOM     53  C   UNL     1       7.787   6.788  15.412  1.00  0.00     0.031 C 
ATOM     54  C   UNL     1      10.464   1.993  12.836  1.00  0.00     0.029 A 
ATOM     55  C   UNL     1       9.570   3.014  13.115  1.00  0.00     0.049 A 
ATOM     56  H   UNL     1       7.668   3.382  12.282  1.00  0.00     0.167 HD
ATOM     57  C   UNL     1       8.765   5.028  14.314  1.00  0.00     0.074 A 
ATOM     58  C   UNL     1       8.890   6.056  15.328  1.00  0.00     0.031 C 
ATOM     59  C   UNL     1       9.704   4.082  14.070  1.00  0.00     0.034 A 
BRANCH  46  60
ATOM     60  C   UNL     1       8.139   0.021   9.691  1.00  0.00     0.023 A 
ATOM     61  C   UNL     1       8.633   0.224   8.387  1.00  0.00     0.012 A 
ATOM     62  C   UNL     1       8.093  -1.283  10.219  1.00  0.00     0.148 A 
ATOM     63  C   UNL     1       9.058  -0.855   7.613  1.00  0.00     0.002 A 
ATOM     64  C   UNL     1       8.548  -2.352   9.453  1.00  0.00     0.091 A 
ATOM     65  F   UNL     1       7.595  -1.459  11.451  1.00  0.00    -0.205 F 
ATOM     66  C   UNL     1       9.025  -2.140   8.149  1.00  0.00     0.022 A 
BRANCH  64  67
ATOM     67  S   UNL     1       8.602  -4.034  10.084  1.00  0.00     0.127 S 
ATOM     68  O   UNL     1       7.436  -4.630   9.436  1.00  0.00    -0.237 OA
ATOM     69  O   UNL     1       9.890  -4.516   9.583  1.00  0.00    -0.237 OA
ATOM     70  O   UNL     1       8.527  -3.914  11.534  1.00  0.00    -0.744 OA
ENDBRANCH  64  67
ENDBRANCH  46  60
BRANCH  47  71
ATOM     71  C   UNL     1       5.218   8.085  14.824  1.00  0.00     0.023 A 
ATOM     72  C   UNL     1       5.892   9.302  14.607  1.00  0.00     0.012 A 
ATOM     73  C   UNL     1       4.131   8.054  15.717  1.00  0.00     0.148 A 
ATOM     74  C   UNL     1       5.502  10.461  15.278  1.00  0.00     0.002 A 
ATOM     75  C   UNL     1       3.712   9.225  16.341  1.00  0.00     0.091 A 
ATOM     76  F   UNL     1       3.514   6.884  15.937  1.00  0.00    -0.205 F 
ATOM     77  C   UNL     1       4.404  10.427  16.134  1.00  0.00     0.022 A 
BRANCH  75  78
ATOM     78  S   UNL     1       2.219   9.262  17.339  1.00  0.00     0.127 S 
ATOM     79  O   UNL     1       2.741   8.999  18.677  1.00  0.00    -0.237 OA
ATOM     80  O   UNL     1       1.728  10.624  17.128  1.00  0.00    -0.237 OA
ATOM     81  O   UNL     1       1.365   8.230  16.763  1.00  0.00    -0.744 OA
ENDBRANCH  75  78
ENDBRANCH  47  71
BRANCH  59  82
ATOM     82  C   UNL     1      10.959   4.124  14.897  1.00  0.00     0.023 A 
ATOM     83  C   UNL     1      10.929   3.639  16.218  1.00  0.00     0.012 A 
ATOM     84  C   UNL     1      12.174   4.577  14.350  1.00  0.00     0.148 A 
ATOM     85  C   UNL     1      12.088   3.624  16.993  1.00  0.00     0.002 A 
ATOM     86  C   UNL     1      13.333   4.527  15.117  1.00  0.00     0.091 A 
ATOM     87  F   UNL     1      12.176   5.060  13.099  1.00  0.00    -0.205 F 
ATOM     88  C   UNL     1      13.291   4.057  16.439  1.00  0.00     0.022 A 
BRANCH  86  89
ATOM     89  S   UNL     1      14.930   4.997  14.442  1.00  0.00     0.127 S 
ATOM     90  O   UNL     1      15.052   6.381  14.893  1.00  0.00    -0.237 OA
ATOM     91  O   UNL     1      15.843   4.059  15.098  1.00  0.00    -0.237 OA
ATOM     92  O   UNL     1      14.814   4.806  13.002  1.00  0.00    -0.744 OA
ENDBRANCH  86  89
ENDBRANCH  59  82
ENDBRANCH  33  34
ENDBRANCH  26  28
ENDBRANCH  25  26
ENDBRANCH  24  25
ENDBRANCH   1  24
TORSDOF 17
