REMARK SMILES CCc1ccc2c(CC(=O)OCCOC(=O)c3ccc(-c4c5nc(c(-c6cccc(S(=O)(=O)[O-])c6F)c6ccc([nH]6)c(-c6cccc(S(=O)(=O)[O-])c6F)c6nc(c(-c7cccc(S(=O)(=O)[O-])c7F)c7ccc4[nH]7)C=C6)C=C5)cc3)c(C(=O)c3cc(C)ccn3)[nH]c2c1
REMARK SMILES IDX 12 1 11 2 9 3 10 4 8 5 7 6 3 7 4 8 92 9 5 10 91 11 6 12
REMARK SMILES IDX 90 13 80 14 2 16 1 17 81 18 82 19 83 20 84 21 89 22 85 23
REMARK SMILES IDX 88 24 86 25 87 26 13 27 14 28 15 29 16 30 17 31 18 32 79 33
REMARK SMILES IDX 19 34 78 35 20 36 21 37 22 38 72 39 23 40 77 41 71 42 73 43
REMARK SMILES IDX 24 44 76 45 70 46 69 47 25 49 57 50 37 51 56 52 38 53 41 54
REMARK SMILES IDX 55 55 74 56 39 57 40 58 54 60 75 61 42 62 26 63 27 64 35 65
REMARK SMILES IDX 28 66 30 67 36 68 29 69 31 70 32 71 33 72 34 73 58 74 59 75
REMARK SMILES IDX 67 76 60 77 62 78 68 79 61 80 63 81 64 82 65 83 66 84 43 85
REMARK SMILES IDX 44 86 52 87 45 88 47 89 53 90 46 91 48 92 49 93 50 94 51 95
REMARK H PARENT 90 15 73 48 41 59
REMARK Flexibility Score: inf
ROOT
ATOM      1  C   UNL     1       6.000   2.778  -7.139  1.00  0.00     0.274 C 
ENDROOT
BRANCH   1   2
ATOM      2  O   UNL     1       4.684   2.370  -6.712  1.00  0.00    -0.462 OA
BRANCH   2   3
ATOM      3  C   UNL     1       3.659   3.163  -7.127  1.00  0.00     0.310 C 
ATOM      4  O   UNL     1       3.810   4.213  -7.747  1.00  0.00    -0.252 OA
BRANCH   3   5
ATOM      5  C   UNL     1       2.277   2.635  -6.809  1.00  0.00     0.161 C 
BRANCH   5   6
ATOM      6  C   UNL     1       2.194   1.511  -5.820  1.00  0.00     0.000 A 
ATOM      7  C   UNL     1       1.210   1.335  -1.724  1.00  0.00    -0.046 A 
ATOM      8  C   UNL     1       1.396   2.617  -2.260  1.00  0.00     0.004 A 
ATOM      9  C   UNL     1       1.470   0.208  -2.523  1.00  0.00     0.030 A 
ATOM     10  C   UNL     1       1.803   2.805  -3.586  1.00  0.00     0.011 A 
ATOM     11  C   UNL     1       1.847   0.417  -3.856  1.00  0.00     0.046 A 
ATOM     12  C   UNL     1       1.985   1.682  -4.413  1.00  0.00     0.004 A 
ATOM     13  N   UNL     1       2.102  -0.489  -4.856  1.00  0.00    -0.352 N 
ATOM     14  C   UNL     1       2.093   0.143  -6.081  1.00  0.00     0.093 A 
ATOM     15  H   UNL     1       2.268  -1.450  -4.719  1.00  0.00     0.167 HD
BRANCH   7  16
ATOM     16  C   UNL     1       0.623   1.216  -0.336  1.00  0.00     0.032 C 
ATOM     17  C   UNL     1       1.015  -0.031   0.445  1.00  0.00     0.009 C 
ENDBRANCH   7  16
BRANCH  14  18
ATOM     18  C   UNL     1       1.887  -0.544  -7.347  1.00  0.00     0.227 C 
ATOM     19  O   UNL     1       1.393   0.001  -8.330  1.00  0.00    -0.285 OA
BRANCH  18  20
ATOM     20  C   UNL     1       2.129  -2.006  -7.419  1.00  0.00     0.113 A 
ATOM     21  C   UNL     1       1.046  -2.877  -7.399  1.00  0.00     0.036 A 
ATOM     22  N   UNL     1       3.420  -2.402  -7.496  1.00  0.00    -0.253 NA
ATOM     23  C   UNL     1       1.300  -4.247  -7.481  1.00  0.00    -0.047 A 
ATOM     24  C   UNL     1       3.632  -3.722  -7.668  1.00  0.00     0.112 A 
ATOM     25  C   UNL     1       0.191  -5.253  -7.415  1.00  0.00     0.044 C 
ATOM     26  C   UNL     1       2.621  -4.671  -7.658  1.00  0.00     0.023 A 
ENDBRANCH  18  20
ENDBRANCH  14  18
ENDBRANCH   5   6
ENDBRANCH   3   5
ENDBRANCH   2   3
ENDBRANCH   1   2
BRANCH   1  27
ATOM     27  C   UNL     1       6.498   1.882  -8.267  1.00  0.00     0.275 C 
BRANCH  27  28
ATOM     28  O   UNL     1       5.500   1.807  -9.297  1.00  0.00    -0.458 OA
BRANCH  28  29
ATOM     29  C   UNL     1       5.010   0.568  -9.530  1.00  0.00     0.338 C 
ATOM     30  O   UNL     1       5.415  -0.480  -9.037  1.00  0.00    -0.246 OA
BRANCH  29  31
ATOM     31  C   UNL     1       3.928   0.619 -10.526  1.00  0.00     0.060 A 
ATOM     32  C   UNL     1       2.902   1.561 -10.440  1.00  0.00     0.016 A 
ATOM     33  C   UNL     1       3.894  -0.362 -11.518  1.00  0.00     0.016 A 
ATOM     34  C   UNL     1       1.797   1.464 -11.288  1.00  0.00     0.010 A 
ATOM     35  C   UNL     1       2.841  -0.388 -12.433  1.00  0.00     0.010 A 
ATOM     36  C   UNL     1       1.764   0.504 -12.311  1.00  0.00    -0.014 A 
BRANCH  36  37
ATOM     37  C   UNL     1       0.635   0.448 -13.281  1.00  0.00     0.031 A 
ATOM     38  C   UNL     1      -0.165  -0.815 -13.465  1.00  0.00     0.074 A 
ATOM     39  C   UNL     1       0.378   1.518 -14.061  1.00  0.00     0.049 A 
ATOM     40  N   UNL     1      -1.044  -1.108 -14.390  1.00  0.00    -0.248 NA
ATOM     41  C   UNL     1       0.068  -1.901 -12.497  1.00  0.00     0.031 C 
ATOM     42  C   UNL     1       1.094   2.794 -14.005  1.00  0.00     0.029 A 
ATOM     43  N   UNL     1      -0.532   1.692 -15.075  1.00  0.00    -0.354 N 
ATOM     44  C   UNL     1      -1.417  -2.427 -14.161  1.00  0.00     0.074 A 
ATOM     45  C   UNL     1      -0.675  -2.878 -13.002  1.00  0.00     0.031 C 
ATOM     46  C   UNL     1       0.599   3.618 -14.939  1.00  0.00     0.029 A 
ATOM     47  C   UNL     1      -0.420   2.910 -15.704  1.00  0.00     0.049 A 
ATOM     48  H   UNL     1      -1.199   1.013 -15.326  1.00  0.00     0.167 HD
ATOM     49  C   UNL     1      -2.307  -3.187 -14.844  1.00  0.00     0.034 A 
ATOM     50  C   UNL     1      -1.033   3.397 -16.800  1.00  0.00     0.034 A 
ATOM     51  C   UNL     1      -3.105  -2.712 -15.945  1.00  0.00     0.049 A 
ATOM     52  C   UNL     1      -2.046   2.550 -17.512  1.00  0.00     0.074 A 
ATOM     53  C   UNL     1      -4.089  -3.386 -16.648  1.00  0.00     0.029 A 
ATOM     54  N   UNL     1      -3.021  -1.442 -16.496  1.00  0.00    -0.354 N 
ATOM     55  N   UNL     1      -2.451   1.337 -17.225  1.00  0.00    -0.248 NA
ATOM     56  C   UNL     1      -2.702   3.143 -18.685  1.00  0.00     0.031 C 
ATOM     57  C   UNL     1      -4.598  -2.524 -17.627  1.00  0.00     0.029 A 
ATOM     58  C   UNL     1      -3.932  -1.313 -17.532  1.00  0.00     0.049 A 
ATOM     59  H   UNL     1      -2.403  -0.737 -16.197  1.00  0.00     0.167 HD
ATOM     60  C   UNL     1      -3.415   1.024 -18.175  1.00  0.00     0.074 A 
ATOM     61  C   UNL     1      -3.558   2.188 -19.026  1.00  0.00     0.031 C 
ATOM     62  C   UNL     1      -4.099  -0.134 -18.342  1.00  0.00     0.034 A 
BRANCH  49  63
ATOM     63  C   UNL     1      -2.512  -4.609 -14.391  1.00  0.00     0.023 A 
ATOM     64  C   UNL     1      -3.283  -4.865 -13.240  1.00  0.00     0.012 A 
ATOM     65  C   UNL     1      -2.008  -5.691 -15.139  1.00  0.00     0.148 A 
ATOM     66  C   UNL     1      -3.532  -6.174 -12.828  1.00  0.00     0.002 A 
ATOM     67  C   UNL     1      -2.287  -6.994 -14.741  1.00  0.00     0.091 A 
ATOM     68  F   UNL     1      -1.255  -5.431 -16.218  1.00  0.00    -0.205 F 
ATOM     69  C   UNL     1      -3.043  -7.237 -13.583  1.00  0.00     0.022 A 
BRANCH  67  70
ATOM     70  S   UNL     1      -1.752  -8.419 -15.697  1.00  0.00     0.127 S 
ATOM     71  O   UNL     1      -0.543  -8.820 -14.979  1.00  0.00    -0.237 OA
ATOM     72  O   UNL     1      -2.880  -9.342 -15.549  1.00  0.00    -0.237 OA
ATOM     73  O   UNL     1      -1.554  -7.928 -17.053  1.00  0.00    -0.744 OA
ENDBRANCH  67  70
ENDBRANCH  49  63
BRANCH  50  74
ATOM     74  C   UNL     1      -0.708   4.776 -17.259  1.00  0.00     0.023 A 
ATOM     75  C   UNL     1      -1.649   5.804 -17.073  1.00  0.00     0.012 A 
ATOM     76  C   UNL     1       0.559   5.089 -17.791  1.00  0.00     0.148 A 
ATOM     77  C   UNL     1      -1.338   7.121 -17.414  1.00  0.00     0.002 A 
ATOM     78  C   UNL     1       0.884   6.411 -18.072  1.00  0.00     0.091 A 
ATOM     79  F   UNL     1       1.435   4.092 -17.983  1.00  0.00    -0.205 F 
ATOM     80  C   UNL     1      -0.067   7.427 -17.896  1.00  0.00     0.022 A 
BRANCH  78  81
ATOM     81  S   UNL     1       2.548   6.898 -18.545  1.00  0.00     0.127 S 
ATOM     82  O   UNL     1       2.414   7.059 -19.990  1.00  0.00    -0.237 OA
ATOM     83  O   UNL     1       2.729   8.145 -17.800  1.00  0.00    -0.237 OA
ATOM     84  O   UNL     1       3.408   5.810 -18.098  1.00  0.00    -0.744 OA
ENDBRANCH  78  81
ENDBRANCH  50  74
BRANCH  62  85
ATOM     85  C   UNL     1      -5.069  -0.202 -19.490  1.00  0.00     0.023 A 
ATOM     86  C   UNL     1      -4.574  -0.368 -20.799  1.00  0.00     0.012 A 
ATOM     87  C   UNL     1      -6.460  -0.164 -19.275  1.00  0.00     0.148 A 
ATOM     88  C   UNL     1      -5.449  -0.469 -21.880  1.00  0.00     0.002 A 
ATOM     89  C   UNL     1      -7.327  -0.302 -20.353  1.00  0.00     0.091 A 
ATOM     90  F   UNL     1      -6.911   0.019 -18.025  1.00  0.00    -0.205 F 
ATOM     91  C   UNL     1      -6.824  -0.447 -21.656  1.00  0.00     0.022 A 
BRANCH  89  92
ATOM     92  S   UNL     1      -9.110  -0.362 -20.140  1.00  0.00     0.127 S 
ATOM     93  O   UNL     1      -9.501   1.000 -20.496  1.00  0.00    -0.237 OA
ATOM     94  O   UNL     1      -9.511  -1.384 -21.108  1.00  0.00    -0.237 OA
ATOM     95  O   UNL     1      -9.327  -0.740 -18.749  1.00  0.00    -0.744 OA
ENDBRANCH  89  92
ENDBRANCH  62  85
ENDBRANCH  36  37
ENDBRANCH  29  31
ENDBRANCH  28  29
ENDBRANCH  27  28
ENDBRANCH   1  27
TORSDOF 18
