REMARK SMILES C[C@@H](C(=O)OCCOC(=O)c1ccc(-c2c3nc(c(-c4cccc(S(=O)(=O)[O-])c4F)c4ccc([nH]4)c(-c4cccc(S(=O)(=O)[O-])c4F)c4nc(c(-c5cccc(S(=O)(=O)[O-])c5F)c5ccc2[nH]5)C=C4)C=C3)cc1)n1ccc(C(=O)N2CC[NH+](Cc3cccc(F)c3)CC2)n1
REMARK SMILES IDX 6 1 5 2 3 3 4 4 2 5 1 6 74 7 75 8 94 9 76 10 77 11 78 12
REMARK SMILES IDX 79 13 80 14 81 15 93 16 82 17 92 18 83 19 84 21 85 22 86 23
REMARK SMILES IDX 91 24 87 25 89 26 88 27 90 28 7 29 8 30 9 31 10 32 11 33
REMARK SMILES IDX 12 34 73 35 13 36 72 37 14 38 15 39 16 40 66 41 17 42 71 43
REMARK SMILES IDX 65 44 67 45 18 46 70 47 64 48 63 49 19 51 51 52 31 53 50 54
REMARK SMILES IDX 32 55 35 56 49 57 68 58 33 59 34 60 48 62 69 63 36 64 20 65
REMARK SMILES IDX 21 66 29 67 22 68 24 69 30 70 23 71 25 72 26 73 27 74 28 75
REMARK SMILES IDX 52 76 53 77 61 78 54 79 56 80 62 81 55 82 57 83 58 84 59 85
REMARK SMILES IDX 60 86 37 87 38 88 46 89 39 90 41 91 47 92 40 93 42 94 43 95
REMARK SMILES IDX 44 96 45 97
REMARK H PARENT 83 20 67 50 35 61
REMARK Flexibility Score: inf
ROOT
ATOM      1  C   UNL     1       2.501   3.446  -1.863  1.00  0.00     0.274 C 
ENDROOT
BRANCH   1   2
ATOM      2  O   UNL     1       2.188   2.384  -0.938  1.00  0.00    -0.460 OA
BRANCH   2   3
ATOM      3  C   UNL     1       1.087   2.634  -0.156  1.00  0.00     0.330 C 
ATOM      4  O   UNL     1       0.469   3.672  -0.255  1.00  0.00    -0.250 OA
BRANCH   3   5
ATOM      5  C   UNL     1       0.829   1.502   0.858  1.00  0.00     0.213 C 
ATOM      6  C   UNL     1       1.198   0.128   0.284  1.00  0.00     0.046 C 
BRANCH   5   7
ATOM      7  N   UNL     1      -0.544   1.567   1.378  1.00  0.00    -0.258 N 
ATOM      8  C   UNL     1      -1.476   0.569   1.488  1.00  0.00     0.110 A 
ATOM      9  N   UNL     1      -1.014   2.744   1.838  1.00  0.00    -0.167 NA
ATOM     10  C   UNL     1      -2.655   1.188   1.843  1.00  0.00     0.056 A 
ATOM     11  C   UNL     1      -2.345   2.571   1.938  1.00  0.00     0.150 A 
BRANCH  11  12
ATOM     12  C   UNL     1      -3.289   3.680   2.193  1.00  0.00     0.274 C 
ATOM     13  O   UNL     1      -4.162   3.545   3.053  1.00  0.00    -0.267 OA
ATOM     14  N   UNL     1      -3.196   4.843   1.411  1.00  0.00    -0.326 N 
ATOM     15  C   UNL     1      -4.101   5.958   1.682  1.00  0.00     0.181 C 
ATOM     16  C   UNL     1      -2.524   4.935   0.109  1.00  0.00     0.181 C 
ATOM     17  C   UNL     1      -3.466   7.329   1.419  1.00  0.00     0.284 C 
ATOM     18  C   UNL     1      -1.872   6.307  -0.125  1.00  0.00     0.284 C 
ATOM     19  N   UNL     1      -2.733   7.458   0.154  1.00  0.00    -0.328 N 
ATOM     20  H   UNL     1      -2.061   8.211   0.299  1.00  0.00     0.348 HD
BRANCH  19  21
ATOM     21  C   UNL     1      -3.473   8.055  -0.960  1.00  0.00     0.299 C 
BRANCH  21  22
ATOM     22  C   UNL     1      -4.344   7.194  -1.849  1.00  0.00     0.009 A 
ATOM     23  C   UNL     1      -3.836   6.677  -3.056  1.00  0.00     0.010 A 
ATOM     24  C   UNL     1      -5.707   7.018  -1.581  1.00  0.00     0.048 A 
ATOM     25  C   UNL     1      -4.666   6.022  -3.972  1.00  0.00     0.004 A 
ATOM     26  C   UNL     1      -6.515   6.343  -2.497  1.00  0.00     0.123 A 
ATOM     27  C   UNL     1      -6.010   5.841  -3.683  1.00  0.00     0.039 A 
ATOM     28  F   UNL     1      -7.816   6.166  -2.258  1.00  0.00    -0.207 F 
ENDBRANCH  21  22
ENDBRANCH  19  21
ENDBRANCH  11  12
ENDBRANCH   5   7
ENDBRANCH   3   5
ENDBRANCH   2   3
ENDBRANCH   1   2
BRANCH   1  29
ATOM     29  C   UNL     1       1.850   3.254  -3.240  1.00  0.00     0.275 C 
BRANCH  29  30
ATOM     30  O   UNL     1       0.406   3.318  -3.216  1.00  0.00    -0.458 OA
BRANCH  30  31
ATOM     31  C   UNL     1      -0.221   2.120  -3.138  1.00  0.00     0.338 C 
ATOM     32  O   UNL     1       0.326   1.025  -3.079  1.00  0.00    -0.246 OA
BRANCH  31  33
ATOM     33  C   UNL     1      -1.681   2.271  -2.958  1.00  0.00     0.060 A 
ATOM     34  C   UNL     1      -2.237   1.695  -1.815  1.00  0.00     0.016 A 
ATOM     35  C   UNL     1      -2.521   2.829  -3.917  1.00  0.00     0.016 A 
ATOM     36  C   UNL     1      -3.617   1.702  -1.592  1.00  0.00     0.010 A 
ATOM     37  C   UNL     1      -3.914   2.808  -3.703  1.00  0.00     0.010 A 
ATOM     38  C   UNL     1      -4.480   2.264  -2.530  1.00  0.00    -0.014 A 
BRANCH  38  39
ATOM     39  C   UNL     1      -5.962   2.167  -2.354  1.00  0.00     0.031 A 
ATOM     40  C   UNL     1      -6.735   1.232  -3.233  1.00  0.00     0.074 A 
ATOM     41  C   UNL     1      -6.638   2.836  -1.395  1.00  0.00     0.049 A 
ATOM     42  N   UNL     1      -8.028   1.088  -3.340  1.00  0.00    -0.248 NA
ATOM     43  C   UNL     1      -5.950   0.296  -4.055  1.00  0.00     0.031 C 
ATOM     44  C   UNL     1      -6.029   3.605  -0.321  1.00  0.00     0.029 A 
ATOM     45  N   UNL     1      -7.989   3.017  -1.183  1.00  0.00    -0.354 N 
ATOM     46  C   UNL     1      -8.217   0.025  -4.207  1.00  0.00     0.074 A 
ATOM     47  C   UNL     1      -6.907  -0.403  -4.650  1.00  0.00     0.031 C 
ATOM     48  C   UNL     1      -6.979   4.271   0.355  1.00  0.00     0.029 A 
ATOM     49  C   UNL     1      -8.262   4.017  -0.268  1.00  0.00     0.049 A 
ATOM     50  H   UNL     1      -8.687   2.489  -1.636  1.00  0.00     0.167 HD
ATOM     51  C   UNL     1      -9.379  -0.574  -4.554  1.00  0.00     0.034 A 
ATOM     52  C   UNL     1      -9.389   4.715  -0.012  1.00  0.00     0.034 A 
ATOM     53  C   UNL     1     -10.674  -0.151  -4.094  1.00  0.00     0.049 A 
ATOM     54  C   UNL     1     -10.648   4.264  -0.671  1.00  0.00     0.074 A 
ATOM     55  C   UNL     1     -11.906  -0.730  -4.340  1.00  0.00     0.029 A 
ATOM     56  N   UNL     1     -10.909   0.970  -3.312  1.00  0.00    -0.354 N 
ATOM     57  N   UNL     1     -10.819   3.255  -1.488  1.00  0.00    -0.248 NA
ATOM     58  C   UNL     1     -11.878   4.976  -0.308  1.00  0.00     0.031 C 
ATOM     59  C   UNL     1     -12.890   0.065  -3.739  1.00  0.00     0.029 A 
ATOM     60  C   UNL     1     -12.268   1.120  -3.092  1.00  0.00     0.049 A 
ATOM     61  H   UNL     1     -10.212   1.571  -2.963  1.00  0.00     0.167 HD
ATOM     62  C   UNL     1     -12.187   3.148  -1.666  1.00  0.00     0.074 A 
ATOM     63  C   UNL     1     -12.793   4.235  -0.919  1.00  0.00     0.031 C 
ATOM     64  C   UNL     1     -12.870   2.195  -2.343  1.00  0.00     0.034 A 
BRANCH  51  65
ATOM     65  C   UNL     1      -9.287  -1.775  -5.451  1.00  0.00     0.023 A 
ATOM     66  C   UNL     1      -8.836  -3.004  -4.928  1.00  0.00     0.012 A 
ATOM     67  C   UNL     1      -9.669  -1.692  -6.801  1.00  0.00     0.148 A 
ATOM     68  C   UNL     1      -8.742  -4.130  -5.745  1.00  0.00     0.002 A 
ATOM     69  C   UNL     1      -9.607  -2.826  -7.601  1.00  0.00     0.091 A 
ATOM     70  F   UNL     1     -10.064  -0.505  -7.282  1.00  0.00    -0.205 F 
ATOM     71  C   UNL     1      -9.136  -4.043  -7.078  1.00  0.00     0.022 A 
BRANCH  69  72
ATOM     72  S   UNL     1     -10.140  -2.828  -9.315  1.00  0.00     0.127 S 
ATOM     73  O   UNL     1      -8.866  -2.970 -10.019  1.00  0.00    -0.237 OA
ATOM     74  O   UNL     1     -11.001  -4.009  -9.367  1.00  0.00    -0.237 OA
ATOM     75  O   UNL     1     -10.829  -1.562  -9.524  1.00  0.00    -0.744 OA
ENDBRANCH  69  72
ENDBRANCH  51  65
BRANCH  52  76
ATOM     76  C   UNL     1      -9.371   5.912   0.883  1.00  0.00     0.023 A 
ATOM     77  C   UNL     1      -9.520   5.760   2.272  1.00  0.00     0.012 A 
ATOM     78  C   UNL     1      -9.170   7.208   0.365  1.00  0.00     0.148 A 
ATOM     79  C   UNL     1      -9.433   6.869   3.122  1.00  0.00     0.002 A 
ATOM     80  C   UNL     1      -8.995   8.291   1.219  1.00  0.00     0.091 A 
ATOM     81  F   UNL     1      -9.223   7.393  -0.959  1.00  0.00    -0.205 F 
ATOM     82  C   UNL     1      -9.139   8.128   2.601  1.00  0.00     0.022 A 
BRANCH  80  83
ATOM     83  S   UNL     1      -8.435   9.889   0.610  1.00  0.00     0.127 S 
ATOM     84  O   UNL     1      -9.679  10.649   0.540  1.00  0.00    -0.237 OA
ATOM     85  O   UNL     1      -7.510  10.313   1.662  1.00  0.00    -0.237 OA
ATOM     86  O   UNL     1      -7.780   9.605  -0.661  1.00  0.00    -0.744 OA
ENDBRANCH  80  83
ENDBRANCH  52  76
BRANCH  64  87
ATOM     87  C   UNL     1     -14.366   2.235  -2.235  1.00  0.00     0.023 A 
ATOM     88  C   UNL     1     -15.104   3.205  -2.937  1.00  0.00     0.012 A 
ATOM     89  C   UNL     1     -15.036   1.288  -1.437  1.00  0.00     0.148 A 
ATOM     90  C   UNL     1     -16.492   3.251  -2.818  1.00  0.00     0.002 A 
ATOM     91  C   UNL     1     -16.421   1.309  -1.363  1.00  0.00     0.091 A 
ATOM     92  F   UNL     1     -14.306   0.394  -0.755  1.00  0.00    -0.205 F 
ATOM     93  C   UNL     1     -17.151   2.298  -2.042  1.00  0.00     0.022 A 
BRANCH  91  94
ATOM     94  S   UNL     1     -17.352   0.068  -0.460  1.00  0.00     0.127 S 
ATOM     95  O   UNL     1     -17.834   0.832   0.689  1.00  0.00    -0.237 OA
ATOM     96  O   UNL     1     -18.387  -0.303  -1.425  1.00  0.00    -0.237 OA
ATOM     97  O   UNL     1     -16.408  -0.998  -0.151  1.00  0.00    -0.744 OA
ENDBRANCH  91  94
ENDBRANCH  64  87
ENDBRANCH  38  39
ENDBRANCH  31  33
ENDBRANCH  30  31
ENDBRANCH  29  30
ENDBRANCH   1  29
TORSDOF 18
