REMARK SMILES COc1ccc(C(=O)N[C@H](C(=O)OCCOC(=O)c2ccc(-c3c4nc(c(-c5cccc(S(=O)(=O)[O-])c5F)c5ccc([nH]5)c(-c5cccc(S(=O)(=O)[O-])c5F)c5nc(c(-c6cccc(S(=O)(=O)[O-])c6F)c6ccc3[nH]6)C=C5)C=C4)cc2)C2=C(C)N=N[C@H]2C)c(F)c1F
REMARK SMILES IDX 14 1 13 2 11 3 12 4 10 5 9 6 7 7 8 8 6 10 3 11 4 12 91 13
REMARK SMILES IDX 5 14 89 15 92 16 90 17 2 18 1 19 82 20 83 21 87 22 84 23
REMARK SMILES IDX 85 24 86 25 88 26 15 27 16 28 17 29 18 30 19 31 20 32 81 33
REMARK SMILES IDX 21 34 80 35 22 36 23 37 24 38 74 39 25 40 79 41 73 42 75 43
REMARK SMILES IDX 26 44 78 45 72 46 71 47 27 49 59 50 39 51 58 52 40 53 43 54
REMARK SMILES IDX 57 55 76 56 41 57 42 58 56 60 77 61 44 62 28 63 29 64 37 65
REMARK SMILES IDX 30 66 32 67 38 68 31 69 33 70 34 71 35 72 36 73 60 74 61 75
REMARK SMILES IDX 69 76 62 77 64 78 70 79 63 80 65 81 66 82 67 83 68 84 45 85
REMARK SMILES IDX 46 86 54 87 47 88 49 89 55 90 48 91 50 92 51 93 52 94 53 95
REMARK H PARENT 9 9 75 48 43 59
REMARK Flexibility Score: inf
ROOT
ATOM      1  C   UNL     1       2.237   7.977   2.578  1.00  0.00     0.274 C 
ENDROOT
BRANCH   1   2
ATOM      2  O   UNL     1       0.831   7.808   2.312  1.00  0.00    -0.460 OA
BRANCH   2   3
ATOM      3  C   UNL     1       0.433   7.770   1.002  1.00  0.00     0.333 C 
ATOM      4  O   UNL     1       1.195   7.750   0.045  1.00  0.00    -0.249 OA
BRANCH   3   5
ATOM      5  C   UNL     1      -1.115   7.620   0.900  1.00  0.00     0.223 C 
BRANCH   5   6
ATOM      6  N   UNL     1      -1.851   8.012   2.106  1.00  0.00    -0.335 N 
ATOM      7  C   UNL     1      -2.046   9.166   2.810  1.00  0.00     0.255 C 
ATOM      8  O   UNL     1      -2.558   9.080   3.928  1.00  0.00    -0.269 OA
ATOM      9  H   UNL     1      -2.325   7.250   2.511  1.00  0.00     0.165 HD
BRANCH   7  10
ATOM     10  C   UNL     1      -1.817  10.520   2.282  1.00  0.00     0.078 A 
ATOM     11  C   UNL     1      -1.701  13.096   1.145  1.00  0.00     0.157 A 
ATOM     12  C   UNL     1      -2.848  12.671   1.817  1.00  0.00     0.050 A 
ATOM     13  C   UNL     1      -0.603  12.239   1.088  1.00  0.00     0.201 A 
ATOM     14  C   UNL     1      -2.902  11.403   2.398  1.00  0.00     0.021 A 
ATOM     15  C   UNL     1      -0.652  10.976   1.683  1.00  0.00     0.175 A 
ATOM     16  F   UNL     1       0.511  12.578   0.423  1.00  0.00    -0.200 F 
ATOM     17  F   UNL     1       0.457  10.235   1.654  1.00  0.00    -0.203 F 
BRANCH  11  18
ATOM     18  O   UNL     1      -1.816  14.336   0.590  1.00  0.00    -0.494 OA
ATOM     19  C   UNL     1      -0.621  15.023   0.241  1.00  0.00     0.278 C 
ENDBRANCH  11  18
ENDBRANCH   7  10
ENDBRANCH   5   6
BRANCH   5  20
ATOM     20  C   UNL     1      -1.729   7.951  -0.431  1.00  0.00     0.012 C 
ATOM     21  C   UNL     1      -2.109   7.117  -1.418  1.00  0.00     0.064 C 
ATOM     22  C   UNL     1      -1.785   9.295  -1.078  1.00  0.00     0.156 C 
ATOM     23  C   UNL     1      -2.305   5.641  -1.436  1.00  0.00     0.069 C 
ATOM     24  N   UNL     1      -2.233   7.754  -2.631  1.00  0.00    -0.160 NA
ATOM     25  N   UNL     1      -1.907   8.963  -2.520  1.00  0.00    -0.181 NA
ATOM     26  C   UNL     1      -3.070  10.062  -0.757  1.00  0.00     0.040 C 
ENDBRANCH   5  20
ENDBRANCH   3   5
ENDBRANCH   2   3
ENDBRANCH   1   2
BRANCH   1  27
ATOM     27  C   UNL     1       2.854   6.704   3.162  1.00  0.00     0.275 C 
BRANCH  27  28
ATOM     28  O   UNL     1       2.969   5.678   2.165  1.00  0.00    -0.458 OA
BRANCH  28  29
ATOM     29  C   UNL     1       1.859   4.924   1.989  1.00  0.00     0.338 C 
ATOM     30  O   UNL     1       0.832   4.950   2.646  1.00  0.00    -0.246 OA
BRANCH  29  31
ATOM     31  C   UNL     1       1.976   4.213   0.709  1.00  0.00     0.060 A 
ATOM     32  C   UNL     1       0.964   4.434  -0.226  1.00  0.00     0.016 A 
ATOM     33  C   UNL     1       3.042   3.363   0.416  1.00  0.00     0.016 A 
ATOM     34  C   UNL     1       1.007   3.820  -1.466  1.00  0.00     0.010 A 
ATOM     35  C   UNL     1       3.083   2.736  -0.831  1.00  0.00     0.010 A 
ATOM     36  C   UNL     1       2.065   2.965  -1.773  1.00  0.00    -0.014 A 
BRANCH  36  37
ATOM     37  C   UNL     1       2.075   2.286  -3.081  1.00  0.00     0.031 A 
ATOM     38  C   UNL     1       1.684   0.844  -3.157  1.00  0.00     0.074 A 
ATOM     39  C   UNL     1       2.423   2.977  -4.181  1.00  0.00     0.049 A 
ATOM     40  N   UNL     1       1.740   0.030  -4.174  1.00  0.00    -0.248 NA
ATOM     41  C   UNL     1       1.155   0.240  -1.923  1.00  0.00     0.031 C 
ATOM     42  C   UNL     1       2.756   4.402  -4.212  1.00  0.00     0.029 A 
ATOM     43  N   UNL     1       2.579   2.566  -5.479  1.00  0.00    -0.354 N 
ATOM     44  C   UNL     1       1.299  -1.196  -3.696  1.00  0.00     0.074 A 
ATOM     45  C   UNL     1       0.963  -1.016  -2.300  1.00  0.00     0.031 C 
ATOM     46  C   UNL     1       3.116   4.739  -5.461  1.00  0.00     0.029 A 
ATOM     47  C   UNL     1       3.085   3.545  -6.300  1.00  0.00     0.049 A 
ATOM     48  H   UNL     1       2.351   1.660  -5.791  1.00  0.00     0.167 HD
ATOM     49  C   UNL     1       1.184  -2.363  -4.370  1.00  0.00     0.034 A 
ATOM     50  C   UNL     1       3.521   3.469  -7.571  1.00  0.00     0.034 A 
ATOM     51  C   UNL     1       1.503  -2.513  -5.763  1.00  0.00     0.049 A 
ATOM     52  C   UNL     1       3.445   2.142  -8.277  1.00  0.00     0.074 A 
ATOM     53  C   UNL     1       1.396  -3.641  -6.555  1.00  0.00     0.029 A 
ATOM     54  N   UNL     1       2.004  -1.501  -6.570  1.00  0.00    -0.354 N 
ATOM     55  N   UNL     1       2.958   1.004  -7.842  1.00  0.00    -0.248 NA
ATOM     56  C   UNL     1       3.966   2.089  -9.649  1.00  0.00     0.031 C 
ATOM     57  C   UNL     1       1.856  -3.316  -7.836  1.00  0.00     0.029 A 
ATOM     58  C   UNL     1       2.233  -1.982  -7.846  1.00  0.00     0.049 A 
ATOM     59  H   UNL     1       2.173  -0.576  -6.276  1.00  0.00     0.167 HD
ATOM     60  C   UNL     1       3.099   0.103  -8.890  1.00  0.00     0.074 A 
ATOM     61  C   UNL     1       3.692   0.836  -9.991  1.00  0.00     0.031 C 
ATOM     62  C   UNL     1       2.787  -1.217  -8.934  1.00  0.00     0.034 A 
BRANCH  49  63
ATOM     63  C   UNL     1       0.691  -3.561  -3.608  1.00  0.00     0.023 A 
ATOM     64  C   UNL     1      -0.676  -3.670  -3.284  1.00  0.00     0.012 A 
ATOM     65  C   UNL     1       1.575  -4.594  -3.242  1.00  0.00     0.148 A 
ATOM     66  C   UNL     1      -1.153  -4.779  -2.587  1.00  0.00     0.002 A 
ATOM     67  C   UNL     1       1.086  -5.713  -2.578  1.00  0.00     0.091 A 
ATOM     68  F   UNL     1       2.876  -4.456  -3.531  1.00  0.00    -0.205 F 
ATOM     69  C   UNL     1      -0.275  -5.803  -2.242  1.00  0.00     0.022 A 
BRANCH  67  70
ATOM     70  S   UNL     1       2.127  -7.111  -2.144  1.00  0.00     0.127 S 
ATOM     71  O   UNL     1       2.233  -6.961  -0.694  1.00  0.00    -0.237 OA
ATOM     72  O   UNL     1       1.317  -8.248  -2.582  1.00  0.00    -0.237 OA
ATOM     73  O   UNL     1       3.368  -6.931  -2.885  1.00  0.00    -0.744 OA
ENDBRANCH  67  70
ENDBRANCH  49  63
BRANCH  50  74
ATOM     74  C   UNL     1       4.070   4.679  -8.244  1.00  0.00     0.023 A 
ATOM     75  C   UNL     1       3.352   5.271  -9.299  1.00  0.00     0.012 A 
ATOM     76  C   UNL     1       5.278   5.269  -7.819  1.00  0.00     0.148 A 
ATOM     77  C   UNL     1       3.835   6.418  -9.931  1.00  0.00     0.002 A 
ATOM     78  C   UNL     1       5.726   6.441  -8.417  1.00  0.00     0.091 A 
ATOM     79  F   UNL     1       5.962   4.677  -6.829  1.00  0.00    -0.205 F 
ATOM     80  C   UNL     1       5.013   7.010  -9.483  1.00  0.00     0.022 A 
BRANCH  78  81
ATOM     81  S   UNL     1       7.165   7.335  -7.816  1.00  0.00     0.127 S 
ATOM     82  O   UNL     1       8.156   7.033  -8.845  1.00  0.00    -0.237 OA
ATOM     83  O   UNL     1       6.686   8.718  -7.810  1.00  0.00    -0.237 OA
ATOM     84  O   UNL     1       7.437   6.792  -6.492  1.00  0.00    -0.744 OA
ENDBRANCH  78  81
ENDBRANCH  50  74
BRANCH  62  85
ATOM     85  C   UNL     1       3.078  -1.953 -10.214  1.00  0.00     0.023 A 
ATOM     86  C   UNL     1       4.408  -2.298 -10.524  1.00  0.00     0.012 A 
ATOM     87  C   UNL     1       2.033  -2.379 -11.056  1.00  0.00     0.148 A 
ATOM     88  C   UNL     1       4.696  -3.040 -11.669  1.00  0.00     0.002 A 
ATOM     89  C   UNL     1       2.324  -3.156 -12.170  1.00  0.00     0.091 A 
ATOM     90  F   UNL     1       0.778  -2.023 -10.747  1.00  0.00    -0.205 F 
ATOM     91  C   UNL     1       3.655  -3.479 -12.483  1.00  0.00     0.022 A 
BRANCH  89  92
ATOM     92  S   UNL     1       1.044  -3.844 -13.225  1.00  0.00     0.127 S 
ATOM     93  O   UNL     1       1.202  -3.051 -14.443  1.00  0.00    -0.237 OA
ATOM     94  O   UNL     1       1.462  -5.241 -13.348  1.00  0.00    -0.237 OA
ATOM     95  O   UNL     1      -0.212  -3.650 -12.513  1.00  0.00    -0.744 OA
ENDBRANCH  89  92
ENDBRANCH  62  85
ENDBRANCH  36  37
ENDBRANCH  29  31
ENDBRANCH  28  29
ENDBRANCH  27  28
ENDBRANCH   1  27
TORSDOF 18
