REMARK SMILES Cc1n[nH]c(C)c1CC(=O)N1CC[C@H](C(=O)OCCOC(=O)c2ccc(-c3c4nc(c(-c5cccc(S(=O)(=O)[O-])c5F)c5ccc([nH]5)c(-c5cccc(S(=O)(=O)[O-])c5F)c5nc(c(-c6cccc(S(=O)(=O)[O-])c6F)c6ccc3[nH]6)C=C5)C=C4)cc2)[C@H]1C
REMARK SMILES IDX 18 1 17 2 15 3 16 4 14 5 11 6 12 7 86 8 13 9 87 10 9 11
REMARK SMILES IDX 10 12 8 13 7 14 1 15 2 16 3 17 4 18 5 19 6 21 19 22 20 23
REMARK SMILES IDX 21 24 22 25 23 26 24 27 85 28 25 29 84 30 26 31 27 32 28 33
REMARK SMILES IDX 78 34 29 35 83 36 77 37 79 38 30 39 82 40 76 41 75 42 31 44
REMARK SMILES IDX 63 45 43 46 62 47 44 48 47 49 61 50 80 51 45 52 46 53 60 55
REMARK SMILES IDX 81 56 48 57 32 58 33 59 41 60 34 61 36 62 42 63 35 64 37 65
REMARK SMILES IDX 38 66 39 67 40 68 64 69 65 70 73 71 66 72 68 73 74 74 67 75
REMARK SMILES IDX 69 76 70 77 71 78 72 79 49 80 50 81 58 82 51 83 53 84 59 85
REMARK SMILES IDX 52 86 54 87 55 88 56 89 57 90
REMARK H PARENT 4 20 79 43 47 54
REMARK Flexibility Score: inf
ROOT
ATOM      1  C   UNL     1      -2.773  -0.094   5.033  1.00  0.00     0.274 C 
ENDROOT
BRANCH   1   2
ATOM      2  O   UNL     1      -1.559  -0.481   4.346  1.00  0.00    -0.462 OA
BRANCH   2   3
ATOM      3  C   UNL     1      -0.513  -0.800   5.148  1.00  0.00     0.311 C 
ATOM      4  O   UNL     1      -0.551  -0.782   6.375  1.00  0.00    -0.252 OA
BRANCH   3   5
ATOM      5  C   UNL     1       0.762  -1.171   4.415  1.00  0.00     0.123 C 
ATOM      6  N   UNL     1       0.411  -2.496   2.466  1.00  0.00    -0.339 N 
ATOM      7  C   UNL     1       0.390  -3.384   3.618  1.00  0.00     0.121 C 
ATOM      8  C   UNL     1       0.769  -1.129   2.875  1.00  0.00     0.096 C 
ATOM      9  C   UNL     1       1.139  -2.625   4.700  1.00  0.00     0.039 C 
ATOM     10  C   UNL     1       2.179  -0.751   2.413  1.00  0.00     0.032 C 
BRANCH   6  11
ATOM     11  C   UNL     1      -0.088  -2.958   1.265  1.00  0.00     0.227 C 
ATOM     12  O   UNL     1      -0.692  -4.039   1.228  1.00  0.00    -0.275 OA
BRANCH  11  13
ATOM     13  C   UNL     1       0.255  -2.296  -0.063  1.00  0.00     0.139 C 
BRANCH  13  14
ATOM     14  C   UNL     1       0.080  -0.825  -0.220  1.00  0.00     0.005 A 
ATOM     15  C   UNL     1      -2.477  -0.537   0.252  1.00  0.00     0.069 C 
ATOM     16  C   UNL     1      -1.110  -0.058  -0.075  1.00  0.00     0.063 A 
ATOM     17  N   UNL     1      -0.890   1.244  -0.295  1.00  0.00    -0.181 NA
ATOM     18  N   UNL     1       0.400   1.306  -0.644  1.00  0.00    -0.282 N 
ATOM     19  C   UNL     1       1.022   0.091  -0.664  1.00  0.00     0.036 A 
ATOM     20  H   UNL     1       0.858   2.148  -0.867  1.00  0.00     0.190 HD
ATOM     21  C   UNL     1       2.430  -0.053  -1.115  1.00  0.00     0.066 C 
ENDBRANCH  13  14
ENDBRANCH  11  13
ENDBRANCH   6  11
ENDBRANCH   3   5
ENDBRANCH   2   3
ENDBRANCH   1   2
BRANCH   1  22
ATOM     22  C   UNL     1      -3.778  -1.244   5.071  1.00  0.00     0.275 C 
BRANCH  22  23
ATOM     23  O   UNL     1      -3.186  -2.362   5.747  1.00  0.00    -0.458 OA
BRANCH  23  24
ATOM     24  C   UNL     1      -3.534  -3.586   5.291  1.00  0.00     0.338 C 
ATOM     25  O   UNL     1      -4.386  -3.822   4.440  1.00  0.00    -0.246 OA
BRANCH  24  26
ATOM     26  C   UNL     1      -2.704  -4.628   5.941  1.00  0.00     0.060 A 
ATOM     27  C   UNL     1      -1.452  -4.323   6.477  1.00  0.00     0.016 A 
ATOM     28  C   UNL     1      -3.140  -5.954   5.945  1.00  0.00     0.016 A 
ATOM     29  C   UNL     1      -0.597  -5.340   6.908  1.00  0.00     0.010 A 
ATOM     30  C   UNL     1      -2.328  -6.956   6.491  1.00  0.00     0.010 A 
ATOM     31  C   UNL     1      -1.029  -6.672   6.949  1.00  0.00    -0.014 A 
BRANCH  31  32
ATOM     32  C   UNL     1      -0.141  -7.764   7.454  1.00  0.00     0.031 A 
ATOM     33  C   UNL     1       0.089  -9.004   6.621  1.00  0.00     0.074 A 
ATOM     34  C   UNL     1       0.440  -7.680   8.671  1.00  0.00     0.049 A 
ATOM     35  N   UNL     1       0.594 -10.158   6.977  1.00  0.00    -0.248 NA
ATOM     36  C   UNL     1      -0.322  -8.945   5.208  1.00  0.00     0.031 C 
ATOM     37  C   UNL     1       0.333  -6.545   9.591  1.00  0.00     0.029 A 
ATOM     38  N   UNL     1       1.226  -8.579   9.355  1.00  0.00    -0.354 N 
ATOM     39  C   UNL     1       0.477 -10.986   5.866  1.00  0.00     0.074 A 
ATOM     40  C   UNL     1      -0.127 -10.197   4.814  1.00  0.00     0.031 C 
ATOM     41  C   UNL     1       1.044  -6.801  10.698  1.00  0.00     0.029 A 
ATOM     42  C   UNL     1       1.579  -8.154  10.617  1.00  0.00     0.049 A 
ATOM     43  H   UNL     1       1.510  -9.443   8.978  1.00  0.00     0.167 HD
ATOM     44  C   UNL     1       0.846 -12.283   5.730  1.00  0.00     0.034 A 
ATOM     45  C   UNL     1       2.212  -8.791  11.622  1.00  0.00     0.034 A 
ATOM     46  C   UNL     1       1.535 -13.041   6.741  1.00  0.00     0.049 A 
ATOM     47  C   UNL     1       2.641 -10.219  11.433  1.00  0.00     0.074 A 
ATOM     48  C   UNL     1       1.961 -14.357   6.689  1.00  0.00     0.029 A 
ATOM     49  N   UNL     1       1.930 -12.543   7.972  1.00  0.00    -0.354 N 
ATOM     50  N   UNL     1       2.520 -10.983  10.375  1.00  0.00    -0.248 NA
ATOM     51  C   UNL     1       3.296 -10.873  12.575  1.00  0.00     0.031 C 
ATOM     52  C   UNL     1       2.625 -14.651   7.885  1.00  0.00     0.029 A 
ATOM     53  C   UNL     1       2.614 -13.517   8.679  1.00  0.00     0.049 A 
ATOM     54  H   UNL     1       1.752 -11.630   8.296  1.00  0.00     0.167 HD
ATOM     55  C   UNL     1       3.095 -12.200  10.719  1.00  0.00     0.074 A 
ATOM     56  C   UNL     1       3.598 -12.061  12.069  1.00  0.00     0.031 C 
ATOM     57  C   UNL     1       3.170 -13.342   9.994  1.00  0.00     0.034 A 
BRANCH  44  58
ATOM     58  C   UNL     1       0.555 -12.971   4.422  1.00  0.00     0.023 A 
ATOM     59  C   UNL     1       1.369 -12.708   3.303  1.00  0.00     0.012 A 
ATOM     60  C   UNL     1      -0.460 -13.945   4.327  1.00  0.00     0.148 A 
ATOM     61  C   UNL     1       1.168 -13.391   2.104  1.00  0.00     0.002 A 
ATOM     62  C   UNL     1      -0.630 -14.649   3.140  1.00  0.00     0.091 A 
ATOM     63  F   UNL     1      -1.235 -14.167   5.398  1.00  0.00    -0.205 F 
ATOM     64  C   UNL     1       0.178 -14.368   2.026  1.00  0.00     0.022 A 
BRANCH  62  65
ATOM     65  S   UNL     1      -1.823 -15.981   2.963  1.00  0.00     0.127 S 
ATOM     66  O   UNL     1      -2.815 -15.374   2.076  1.00  0.00    -0.237 OA
ATOM     67  O   UNL     1      -1.019 -17.036   2.346  1.00  0.00    -0.237 OA
ATOM     68  O   UNL     1      -2.290 -16.284   4.309  1.00  0.00    -0.744 OA
ENDBRANCH  62  65
ENDBRANCH  44  58
BRANCH  45  69
ATOM     69  C   UNL     1       2.483  -8.077  12.904  1.00  0.00     0.023 A 
ATOM     70  C   UNL     1       3.811  -7.769  13.256  1.00  0.00     0.012 A 
ATOM     71  C   UNL     1       1.439  -7.671  13.757  1.00  0.00     0.148 A 
ATOM     72  C   UNL     1       4.094  -7.090  14.442  1.00  0.00     0.002 A 
ATOM     73  C   UNL     1       1.724  -6.936  14.902  1.00  0.00     0.091 A 
ATOM     74  F   UNL     1       0.180  -7.998  13.431  1.00  0.00    -0.205 F 
ATOM     75  C   UNL     1       3.051  -6.659  15.257  1.00  0.00     0.022 A 
BRANCH  73  76
ATOM     76  S   UNL     1       0.408  -6.216  15.892  1.00  0.00     0.127 S 
ATOM     77  O   UNL     1       0.180  -7.251  16.895  1.00  0.00    -0.237 OA
ATOM     78  O   UNL     1       1.027  -4.991  16.400  1.00  0.00    -0.237 OA
ATOM     79  O   UNL     1      -0.676  -5.979  14.946  1.00  0.00    -0.744 OA
ENDBRANCH  73  76
ENDBRANCH  45  69
BRANCH  57  80
ATOM     80  C   UNL     1       3.844 -14.525  10.632  1.00  0.00     0.023 A 
ATOM     81  C   UNL     1       3.157 -15.265  11.615  1.00  0.00     0.012 A 
ATOM     82  C   UNL     1       5.125 -14.940  10.220  1.00  0.00     0.148 A 
ATOM     83  C   UNL     1       3.746 -16.387  12.197  1.00  0.00     0.002 A 
ATOM     84  C   UNL     1       5.691 -16.080  10.779  1.00  0.00     0.091 A 
ATOM     85  F   UNL     1       5.771 -14.207   9.301  1.00  0.00    -0.205 F 
ATOM     86  C   UNL     1       5.007 -16.799  11.772  1.00  0.00     0.022 A 
BRANCH  84  87
ATOM     87  S   UNL     1       7.277 -16.722  10.233  1.00  0.00     0.127 S 
ATOM     88  O   UNL     1       8.168 -16.261  11.296  1.00  0.00    -0.237 OA
ATOM     89  O   UNL     1       7.045 -18.167  10.217  1.00  0.00    -0.237 OA
ATOM     90  O   UNL     1       7.509 -16.138   8.918  1.00  0.00    -0.744 OA
ENDBRANCH  84  87
ENDBRANCH  57  80
ENDBRANCH  31  32
ENDBRANCH  24  26
ENDBRANCH  23  24
ENDBRANCH  22  23
ENDBRANCH   1  22
TORSDOF 17
