REMARK SMILES CC[C@@H](C)[C@@H](NC(=O)Cn1ncc2ccccc2c1=O)C(=O)OCCOC(=O)c1ccc(-c2c3nc(c(-c4cccc(S(=O)(=O)[O-])c4F)c4ccc([nH]4)c(-c4cccc(S(=O)(=O)[O-])c4F)c4nc(c(-c5cccc(S(=O)(=O)[O-])c5F)c5ccc2[nH]5)C=C4)C=C3)cc1
REMARK SMILES IDX 24 1 23 2 21 3 22 4 5 5 3 6 4 7 2 8 1 9 6 10 7 11 8 13 9 14
REMARK SMILES IDX 10 15 11 16 19 17 12 18 18 19 20 20 13 21 17 22 14 23 16 24
REMARK SMILES IDX 15 25 25 26 26 27 27 28 28 29 29 30 30 31 91 32 31 33 90 34
REMARK SMILES IDX 32 35 33 36 34 37 84 38 35 39 89 40 83 41 85 42 36 43 88 44
REMARK SMILES IDX 82 45 81 46 37 48 69 49 49 50 68 51 50 52 53 53 67 54 86 55
REMARK SMILES IDX 51 56 52 57 66 59 87 60 54 61 38 62 39 63 47 64 40 65 42 66
REMARK SMILES IDX 48 67 41 68 43 69 44 70 45 71 46 72 70 73 71 74 79 75 72 76
REMARK SMILES IDX 74 77 80 78 73 79 75 80 76 81 77 82 78 83 55 84 56 85 64 86
REMARK SMILES IDX 57 87 59 88 65 89 58 90 60 91 61 92 62 93 63 94
REMARK H PARENT 6 12 85 47 53 58
REMARK Flexibility Score: inf
ROOT
ATOM      1  C   UNL     1       1.814   6.330  -2.594  1.00  0.00     0.274 C 
ENDROOT
BRANCH   1   2
ATOM      2  O   UNL     1       1.668   5.115  -1.814  1.00  0.00    -0.461 OA
BRANCH   2   3
ATOM      3  C   UNL     1       0.825   5.198  -0.754  1.00  0.00     0.329 C 
ATOM      4  O   UNL     1       0.178   6.209  -0.486  1.00  0.00    -0.250 OA
BRANCH   3   5
ATOM      5  C   UNL     1       0.809   3.977   0.193  1.00  0.00     0.195 C 
BRANCH   5   6
ATOM      6  C   UNL     1       1.199   2.518  -0.193  1.00  0.00     0.019 C 
ATOM      7  C   UNL     1       0.876   2.142  -1.635  1.00  0.00     0.010 C 
BRANCH   6   8
ATOM      8  C   UNL     1       0.525   1.508   0.784  1.00  0.00     0.002 C 
ATOM      9  C   UNL     1       0.953   0.057   0.584  1.00  0.00     0.004 C 
ENDBRANCH   6   8
ENDBRANCH   5   6
BRANCH   5  10
ATOM     10  N   UNL     1       1.314   4.364   1.527  1.00  0.00    -0.341 N 
ATOM     11  C   UNL     1       2.473   4.941   1.957  1.00  0.00     0.242 C 
ATOM     12  H   UNL     1       0.684   4.163   2.256  1.00  0.00     0.164 HD
ATOM     13  O   UNL     1       2.647   4.963   3.183  1.00  0.00    -0.273 OA
BRANCH  11  14
ATOM     14  C   UNL     1       3.420   5.730   1.041  1.00  0.00     0.248 C 
BRANCH  14  15
ATOM     15  N   UNL     1       4.123   5.052  -0.039  1.00  0.00    -0.220 N 
ATOM     16  N   UNL     1       4.161   3.684  -0.028  1.00  0.00    -0.177 NA
ATOM     17  C   UNL     1       4.777   5.824  -1.002  1.00  0.00     0.275 A 
ATOM     18  C   UNL     1       4.523   3.075  -1.113  1.00  0.00     0.142 A 
ATOM     19  C   UNL     1       5.130   5.125  -2.256  1.00  0.00     0.050 A 
ATOM     20  O   UNL     1       4.962   7.036  -0.916  1.00  0.00    -0.267 OA
ATOM     21  C   UNL     1       4.901   3.762  -2.337  1.00  0.00     0.007 A 
ATOM     22  C   UNL     1       5.525   5.829  -3.398  1.00  0.00     0.014 A 
ATOM     23  C   UNL     1       4.998   3.079  -3.548  1.00  0.00     0.010 A 
ATOM     24  C   UNL     1       5.635   5.156  -4.618  1.00  0.00     0.001 A 
ATOM     25  C   UNL     1       5.354   3.788  -4.696  1.00  0.00     0.001 A 
ENDBRANCH  14  15
ENDBRANCH  11  14
ENDBRANCH   5  10
ENDBRANCH   3   5
ENDBRANCH   2   3
ENDBRANCH   1   2
BRANCH   1  26
ATOM     26  C   UNL     1       1.695   6.043  -4.088  1.00  0.00     0.275 C 
BRANCH  26  27
ATOM     27  O   UNL     1       0.304   5.943  -4.412  1.00  0.00    -0.458 OA
BRANCH  27  28
ATOM     28  C   UNL     1      -0.226   4.707  -4.252  1.00  0.00     0.338 C 
ATOM     29  O   UNL     1       0.357   3.649  -4.207  1.00  0.00    -0.246 OA
BRANCH  28  30
ATOM     30  C   UNL     1      -1.639   4.916  -3.913  1.00  0.00     0.060 A 
ATOM     31  C   UNL     1      -2.478   5.545  -4.827  1.00  0.00     0.016 A 
ATOM     32  C   UNL     1      -2.097   4.531  -2.648  1.00  0.00     0.016 A 
ATOM     33  C   UNL     1      -3.793   5.795  -4.461  1.00  0.00     0.010 A 
ATOM     34  C   UNL     1      -3.417   4.770  -2.286  1.00  0.00     0.010 A 
ATOM     35  C   UNL     1      -4.268   5.402  -3.196  1.00  0.00    -0.014 A 
BRANCH  35  36
ATOM     36  C   UNL     1      -5.703   5.555  -2.905  1.00  0.00     0.031 A 
ATOM     37  C   UNL     1      -6.200   6.669  -2.043  1.00  0.00     0.074 A 
ATOM     38  C   UNL     1      -6.541   4.690  -3.505  1.00  0.00     0.049 A 
ATOM     39  N   UNL     1      -7.426   7.090  -1.898  1.00  0.00    -0.248 NA
ATOM     40  C   UNL     1      -5.209   7.407  -1.243  1.00  0.00     0.031 C 
ATOM     41  C   UNL     1      -6.119   3.536  -4.306  1.00  0.00     0.029 A 
ATOM     42  N   UNL     1      -7.906   4.663  -3.573  1.00  0.00    -0.354 N 
ATOM     43  C   UNL     1      -7.361   8.141  -0.994  1.00  0.00     0.074 A 
ATOM     44  C   UNL     1      -5.976   8.284  -0.604  1.00  0.00     0.031 C 
ATOM     45  C   UNL     1      -7.202   2.952  -4.838  1.00  0.00     0.029 A 
ATOM     46  C   UNL     1      -8.388   3.684  -4.409  1.00  0.00     0.049 A 
ATOM     47  H   UNL     1      -8.486   5.282  -3.073  1.00  0.00     0.167 HD
ATOM     48  C   UNL     1      -8.375   8.922  -0.560  1.00  0.00     0.034 A 
ATOM     49  C   UNL     1      -9.645   3.435  -4.816  1.00  0.00     0.034 A 
ATOM     50  C   UNL     1      -9.738   8.768  -0.990  1.00  0.00     0.049 A 
ATOM     51  C   UNL     1     -10.739   4.347  -4.346  1.00  0.00     0.074 A 
ATOM     52  C   UNL     1     -10.832   9.548  -0.667  1.00  0.00     0.029 A 
ATOM     53  N   UNL     1     -10.192   7.761  -1.828  1.00  0.00    -0.354 N 
ATOM     54  N   UNL     1     -10.643   5.427  -3.609  1.00  0.00    -0.248 NA
ATOM     55  C   UNL     1     -12.105   4.026  -4.777  1.00  0.00     0.031 C 
ATOM     56  C   UNL     1     -11.953   9.002  -1.296  1.00  0.00     0.029 A 
ATOM     57  C   UNL     1     -11.554   7.891  -2.023  1.00  0.00     0.049 A 
ATOM     58  H   UNL     1      -9.628   7.058  -2.224  1.00  0.00     0.167 HD
ATOM     59  C   UNL     1     -11.932   5.928  -3.502  1.00  0.00     0.074 A 
ATOM     60  C   UNL     1     -12.789   5.042  -4.264  1.00  0.00     0.031 C 
ATOM     61  C   UNL     1     -12.369   7.014  -2.821  1.00  0.00     0.034 A 
BRANCH  48  62
ATOM     62  C   UNL     1      -8.068  10.056   0.377  1.00  0.00     0.023 A 
ATOM     63  C   UNL     1      -7.559  11.259  -0.149  1.00  0.00     0.012 A 
ATOM     64  C   UNL     1      -8.430   9.988   1.736  1.00  0.00     0.148 A 
ATOM     65  C   UNL     1      -7.422  12.384   0.663  1.00  0.00     0.002 A 
ATOM     66  C   UNL     1      -8.315  11.121   2.533  1.00  0.00     0.091 A 
ATOM     67  F   UNL     1      -8.907   8.829   2.211  1.00  0.00    -0.205 F 
ATOM     68  C   UNL     1      -7.811  12.319   1.998  1.00  0.00     0.022 A 
BRANCH  66  69
ATOM     69  S   UNL     1      -8.842  11.165   4.250  1.00  0.00     0.127 S 
ATOM     70  O   UNL     1      -7.599  11.527   4.932  1.00  0.00    -0.237 OA
ATOM     71  O   UNL     1      -9.856  12.217   4.231  1.00  0.00    -0.237 OA
ATOM     72  O   UNL     1      -9.340   9.831   4.555  1.00  0.00    -0.744 OA
ENDBRANCH  66  69
ENDBRANCH  48  62
BRANCH  49  73
ATOM     73  C   UNL     1      -9.899   2.344  -5.793  1.00  0.00     0.023 A 
ATOM     74  C   UNL     1     -10.199   2.671  -7.129  1.00  0.00     0.012 A 
ATOM     75  C   UNL     1      -9.771   0.991  -5.425  1.00  0.00     0.148 A 
ATOM     76  C   UNL     1     -10.382   1.667  -8.081  1.00  0.00     0.002 A 
ATOM     77  C   UNL     1      -9.916  -0.003  -6.385  1.00  0.00     0.091 A 
ATOM     78  F   UNL     1      -9.486   0.708  -4.146  1.00  0.00    -0.205 F 
ATOM     79  C   UNL     1     -10.231   0.332  -7.711  1.00  0.00     0.022 A 
BRANCH  77  80
ATOM     80  S   UNL     1      -9.639  -1.740  -6.024  1.00  0.00     0.127 S 
ATOM     81  O   UNL     1     -10.989  -2.285  -6.132  1.00  0.00    -0.237 OA
ATOM     82  O   UNL     1      -8.727  -2.130  -7.100  1.00  0.00    -0.237 OA
ATOM     83  O   UNL     1      -9.048  -1.777  -4.693  1.00  0.00    -0.744 OA
ENDBRANCH  77  80
ENDBRANCH  49  73
BRANCH  61  84
ATOM     84  C   UNL     1     -13.839   7.315  -2.862  1.00  0.00     0.023 A 
ATOM     85  C   UNL     1     -14.712   6.584  -2.035  1.00  0.00     0.012 A 
ATOM     86  C   UNL     1     -14.325   8.403  -3.610  1.00  0.00     0.148 A 
ATOM     87  C   UNL     1     -16.059   6.931  -1.956  1.00  0.00     0.002 A 
ATOM     88  C   UNL     1     -15.660   8.766  -3.498  1.00  0.00     0.091 A 
ATOM     89  F   UNL     1     -13.467   9.074  -4.393  1.00  0.00    -0.205 F 
ATOM     90  C   UNL     1     -16.529   8.028  -2.676  1.00  0.00     0.022 A 
BRANCH  88  91
ATOM     91  S   UNL     1     -16.342  10.208  -4.322  1.00  0.00     0.127 S 
ATOM     92  O   UNL     1     -17.275   9.596  -5.267  1.00  0.00    -0.237 OA
ATOM     93  O   UNL     1     -16.975  10.924  -3.215  1.00  0.00    -0.237 OA
ATOM     94  O   UNL     1     -15.213  10.900  -4.929  1.00  0.00    -0.744 OA
ENDBRANCH  88  91
ENDBRANCH  61  84
ENDBRANCH  35  36
ENDBRANCH  28  30
ENDBRANCH  27  28
ENDBRANCH  26  27
ENDBRANCH   1  26
TORSDOF 19
