REMARK SMILES CSc1nc2nnc(C(=O)OCCOC(=O)c3ccc(-c4c5nc(c(-c6cccc(S(=O)(=O)[O-])c6F)c6ccc([nH]6)c(-c6cccc(S(=O)(=O)[O-])c6F)c6nc(c(-c7cccc(S(=O)(=O)[O-])c7F)c7ccc4[nH]7)C=C6)C=C5)cc3)c(O)n2n1
REMARK SMILES IDX 13 1 12 2 11 3 9 4 10 5 8 6 3 7 4 8 83 9 5 10 82 11 6 12
REMARK SMILES IDX 80 13 7 14 2 15 1 16 81 17 14 19 15 20 16 21 17 22 18 23
REMARK SMILES IDX 79 24 19 25 78 26 20 27 21 28 22 29 72 30 23 31 77 32 71 33
REMARK SMILES IDX 73 34 24 35 76 36 70 37 69 38 25 40 57 41 37 42 56 43 38 44
REMARK SMILES IDX 41 45 55 46 74 47 39 48 40 49 54 51 75 52 42 53 26 54 27 55
REMARK SMILES IDX 35 56 28 57 30 58 36 59 29 60 31 61 32 62 33 63 34 64 58 65
REMARK SMILES IDX 59 66 67 67 60 68 62 69 68 70 61 71 63 72 64 73 65 74 66 75
REMARK SMILES IDX 43 76 44 77 52 78 45 79 47 80 53 81 46 82 48 83 49 84 50 85
REMARK SMILES IDX 51 86
REMARK H PARENT 81 18 73 39 41 50
REMARK Flexibility Score: inf
ROOT
ATOM      1  C   UNL     1       1.035  -4.928   9.417  1.00  0.00     0.275 C 
ENDROOT
BRANCH   1   2
ATOM      2  C   UNL     1       2.449  -4.393   9.200  1.00  0.00     0.275 C 
BRANCH   2   3
ATOM      3  O   UNL     1       2.456  -3.144   8.485  1.00  0.00    -0.457 OA
BRANCH   3   4
ATOM      4  C   UNL     1       2.514  -3.264   7.135  1.00  0.00     0.364 C 
ATOM      5  O   UNL     1       2.712  -4.309   6.521  1.00  0.00    -0.244 OA
BRANCH   4   6
ATOM      6  C   UNL     1       2.194  -1.989   6.442  1.00  0.00     0.232 A 
ATOM      7  C   UNL     1       1.082   0.707   3.227  1.00  0.00     0.210 A 
ATOM      8  N   UNL     1       1.498   1.336   4.366  1.00  0.00    -0.182 NA
ATOM      9  N   UNL     1       1.023  -0.619   3.295  1.00  0.00    -0.134 NA
ATOM     10  C   UNL     1       1.717   0.338   5.199  1.00  0.00     0.275 A 
ATOM     11  N   UNL     1       1.444  -0.863   4.556  1.00  0.00    -0.159 N 
ATOM     12  N   UNL     1       2.185   0.323   6.484  1.00  0.00    -0.108 NA
ATOM     13  C   UNL     1       1.688  -2.076   5.192  1.00  0.00     0.251 A 
ATOM     14  N   UNL     1       2.413  -0.775   7.073  1.00  0.00    -0.134 NA
BRANCH   7  15
ATOM     15  S   UNL     1       0.702   1.572   1.761  1.00  0.00    -0.088 SA
ATOM     16  C   UNL     1       0.905   0.259   0.533  1.00  0.00     0.094 C 
ENDBRANCH   7  15
BRANCH  13  17
ATOM     17  O   UNL     1       1.425  -3.252   4.501  1.00  0.00    -0.491 OA
ATOM     18  H   UNL     1       1.582  -4.080   4.910  1.00  0.00     0.295 HD
ENDBRANCH  13  17
ENDBRANCH   4   6
ENDBRANCH   3   4
ENDBRANCH   2   3
ENDBRANCH   1   2
BRANCH   1  19
ATOM     19  O   UNL     1       0.412  -5.413   8.223  1.00  0.00    -0.458 OA
BRANCH  19  20
ATOM     20  C   UNL     1      -0.372  -4.502   7.599  1.00  0.00     0.338 C 
ATOM     21  O   UNL     1      -0.220  -3.292   7.607  1.00  0.00    -0.246 OA
BRANCH  20  22
ATOM     22  C   UNL     1      -1.566  -5.147   7.041  1.00  0.00     0.060 A 
ATOM     23  C   UNL     1      -2.358  -4.384   6.181  1.00  0.00     0.016 A 
ATOM     24  C   UNL     1      -1.999  -6.393   7.519  1.00  0.00     0.016 A 
ATOM     25  C   UNL     1      -3.627  -4.833   5.875  1.00  0.00     0.010 A 
ATOM     26  C   UNL     1      -3.268  -6.844   7.203  1.00  0.00     0.010 A 
ATOM     27  C   UNL     1      -4.091  -6.044   6.416  1.00  0.00    -0.014 A 
BRANCH  27  28
ATOM     28  C   UNL     1      -5.386  -6.526   5.953  1.00  0.00     0.031 A 
ATOM     29  C   UNL     1      -5.402  -6.742   4.487  1.00  0.00     0.074 A 
ATOM     30  C   UNL     1      -6.440  -6.824   6.737  1.00  0.00     0.049 A 
ATOM     31  N   UNL     1      -5.977  -5.995   3.604  1.00  0.00    -0.248 NA
ATOM     32  C   UNL     1      -4.512  -7.766   3.920  1.00  0.00     0.031 C 
ATOM     33  C   UNL     1      -6.461  -6.915   8.199  1.00  0.00     0.029 A 
ATOM     34  N   UNL     1      -7.700  -7.223   6.384  1.00  0.00    -0.354 N 
ATOM     35  C   UNL     1      -5.756  -6.638   2.389  1.00  0.00     0.074 A 
ATOM     36  C   UNL     1      -4.674  -7.556   2.612  1.00  0.00     0.031 C 
ATOM     37  C   UNL     1      -7.578  -7.572   8.588  1.00  0.00     0.029 A 
ATOM     38  C   UNL     1      -8.418  -7.804   7.426  1.00  0.00     0.049 A 
ATOM     39  H   UNL     1      -8.065  -7.109   5.477  1.00  0.00     0.167 HD
ATOM     40  C   UNL     1      -6.714  -6.601   1.424  1.00  0.00     0.034 A 
ATOM     41  C   UNL     1      -9.599  -8.462   7.327  1.00  0.00     0.034 A 
ATOM     42  C   UNL     1      -7.692  -5.584   1.716  1.00  0.00     0.049 A 
ATOM     43  C   UNL     1     -10.276  -7.984   6.104  1.00  0.00     0.074 A 
ATOM     44  C   UNL     1      -7.799  -4.214   1.651  1.00  0.00     0.029 A 
ATOM     45  N   UNL     1      -8.704  -6.040   2.514  1.00  0.00    -0.354 N 
ATOM     46  N   UNL     1     -10.767  -6.783   5.982  1.00  0.00    -0.248 NA
ATOM     47  C   UNL     1     -10.189  -8.764   4.874  1.00  0.00     0.031 C 
ATOM     48  C   UNL     1      -8.862  -3.856   2.532  1.00  0.00     0.029 A 
ATOM     49  C   UNL     1      -9.392  -5.016   3.093  1.00  0.00     0.049 A 
ATOM     50  H   UNL     1      -8.911  -6.993   2.654  1.00  0.00     0.167 HD
ATOM     51  C   UNL     1     -10.614  -6.509   4.639  1.00  0.00     0.074 A 
ATOM     52  C   UNL     1     -10.455  -7.801   3.988  1.00  0.00     0.031 C 
ATOM     53  C   UNL     1     -10.258  -5.263   4.224  1.00  0.00     0.034 A 
BRANCH  40  54
ATOM     54  C   UNL     1      -7.121  -7.776   0.544  1.00  0.00     0.023 A 
ATOM     55  C   UNL     1      -8.180  -7.539  -0.367  1.00  0.00     0.012 A 
ATOM     56  C   UNL     1      -6.782  -9.128   0.778  1.00  0.00     0.148 A 
ATOM     57  C   UNL     1      -8.912  -8.583  -0.942  1.00  0.00     0.002 A 
ATOM     58  C   UNL     1      -7.471 -10.164   0.154  1.00  0.00     0.091 A 
ATOM     59  F   UNL     1      -5.874  -9.447   1.699  1.00  0.00    -0.205 F 
ATOM     60  C   UNL     1      -8.559  -9.898  -0.680  1.00  0.00     0.022 A 
BRANCH  58  61
ATOM     61  S   UNL     1      -7.044 -11.889   0.436  1.00  0.00     0.127 S 
ATOM     62  O   UNL     1      -8.210 -12.361   1.175  1.00  0.00    -0.237 OA
ATOM     63  O   UNL     1      -6.930 -12.390  -0.934  1.00  0.00    -0.237 OA
ATOM     64  O   UNL     1      -5.787 -11.872   1.173  1.00  0.00    -0.744 OA
ENDBRANCH  58  61
ENDBRANCH  40  54
BRANCH  41  65
ATOM     65  C   UNL     1     -10.187  -9.575   8.107  1.00  0.00     0.023 A 
ATOM     66  C   UNL     1     -11.580  -9.799   8.035  1.00  0.00     0.012 A 
ATOM     67  C   UNL     1      -9.371 -10.602   8.622  1.00  0.00     0.148 A 
ATOM     68  C   UNL     1     -12.133 -11.034   8.386  1.00  0.00     0.002 A 
ATOM     69  C   UNL     1      -9.926 -11.832   8.966  1.00  0.00     0.091 A 
ATOM     70  F   UNL     1      -8.047 -10.404   8.679  1.00  0.00    -0.205 F 
ATOM     71  C   UNL     1     -11.304 -12.057   8.831  1.00  0.00     0.022 A 
BRANCH  69  72
ATOM     72  S   UNL     1      -8.923 -13.225   9.501  1.00  0.00     0.127 S 
ATOM     73  O   UNL     1      -9.646 -13.682  10.688  1.00  0.00    -0.237 OA
ATOM     74  O   UNL     1      -9.009 -14.118   8.350  1.00  0.00    -0.237 OA
ATOM     75  O   UNL     1      -7.601 -12.676   9.780  1.00  0.00    -0.744 OA
ENDBRANCH  69  72
ENDBRANCH  41  65
BRANCH  53  76
ATOM     76  C   UNL     1     -10.620  -4.097   5.085  1.00  0.00     0.023 A 
ATOM     77  C   UNL     1     -10.027  -3.845   6.335  1.00  0.00     0.012 A 
ATOM     78  C   UNL     1     -11.491  -3.148   4.526  1.00  0.00     0.148 A 
ATOM     79  C   UNL     1     -10.300  -2.653   7.013  1.00  0.00     0.002 A 
ATOM     80  C   UNL     1     -11.710  -1.944   5.172  1.00  0.00     0.091 A 
ATOM     81  F   UNL     1     -12.064  -3.433   3.346  1.00  0.00    -0.205 F 
ATOM     82  C   UNL     1     -11.124  -1.694   6.422  1.00  0.00     0.022 A 
BRANCH  80  83
ATOM     83  S   UNL     1     -12.633  -0.624   4.384  1.00  0.00     0.127 S 
ATOM     84  O   UNL     1     -13.884  -0.632   5.139  1.00  0.00    -0.237 OA
ATOM     85  O   UNL     1     -11.778   0.539   4.624  1.00  0.00    -0.237 OA
ATOM     86  O   UNL     1     -12.747  -0.997   2.979  1.00  0.00    -0.744 OA
ENDBRANCH  80  83
ENDBRANCH  53  76
ENDBRANCH  27  28
ENDBRANCH  20  22
ENDBRANCH  19  20
ENDBRANCH   1  19
TORSDOF 16
