REMARK SMILES Cc1cc2c(c(C)c1Cl)C=C(C(=O)OCCOC(=O)c1ccc(-c3c4nc(c(-c5cccc(S(=O)(=O)[O-])c5F)c5ccc([nH]5)c(-c5cccc(S(=O)(=O)[O-])c5F)c5nc(c(-c6cccc(S(=O)(=O)[O-])c6F)c6ccc3[nH]6)C=C5)C=C4)cc1)[C@H](C(F)(F)F)O2
REMARK SMILES IDX 16 1 15 2 14 3 12 4 13 5 11 6 1 7 2 8 3 9 8 10 4 11 6 12
REMARK SMILES IDX 9 13 5 14 88 15 7 16 10 17 83 18 84 19 85 20 86 21 87 22
REMARK SMILES IDX 17 23 18 24 19 25 20 26 21 27 82 28 22 29 81 30 23 31 24 32
REMARK SMILES IDX 25 33 75 34 26 35 80 36 74 37 76 38 27 39 79 40 73 41 72 42
REMARK SMILES IDX 28 44 60 45 40 46 59 47 41 48 44 49 58 50 77 51 42 52 43 53
REMARK SMILES IDX 57 55 78 56 45 57 29 58 30 59 38 60 31 61 33 62 39 63 32 64
REMARK SMILES IDX 34 65 35 66 36 67 37 68 61 69 62 70 70 71 63 72 65 73 71 74
REMARK SMILES IDX 64 75 66 76 67 77 68 78 69 79 46 80 47 81 55 82 48 83 50 84
REMARK SMILES IDX 56 85 49 86 51 87 52 88 53 89 54 90
REMARK H PARENT 76 43 44 54
REMARK Flexibility Score: inf
ROOT
ATOM      1  C   UNL     1      -1.598  -0.458  10.355  1.00  0.00     0.275 C 
ENDROOT
BRANCH   1   2
ATOM      2  C   UNL     1      -2.522  -1.164   9.365  1.00  0.00     0.275 C 
BRANCH   2   3
ATOM      3  O   UNL     1      -1.869  -1.323   8.087  1.00  0.00    -0.459 OA
BRANCH   3   4
ATOM      4  C   UNL     1      -2.343  -0.574   7.068  1.00  0.00     0.338 C 
ATOM      5  O   UNL     1      -3.299   0.178   7.112  1.00  0.00    -0.246 OA
BRANCH   4   6
ATOM      6  C   UNL     1      -1.512  -0.756   5.861  1.00  0.00     0.087 C 
ATOM      7  C   UNL     1       1.053  -0.462  -0.102  1.00  0.00     0.046 C 
ATOM      8  C   UNL     1       0.525  -0.202   1.283  1.00  0.00    -0.028 A 
ATOM      9  C   UNL     1       0.104  -1.288   2.062  1.00  0.00     0.052 A 
ATOM     10  C   UNL     1       0.456   1.096   1.823  1.00  0.00     0.047 A 
ATOM     11  C   UNL     1      -0.421  -1.090   3.337  1.00  0.00     0.128 A 
ATOM     12  C   UNL     1      -0.084   1.318   3.110  1.00  0.00    -0.021 A 
ATOM     13  Cl  UNL     1       1.039   2.422   0.862  1.00  0.00    -0.084 Cl
ATOM     14  C   UNL     1      -0.547   0.203   3.857  1.00  0.00     0.022 A 
ATOM     15  O   UNL     1      -0.851  -2.220   3.980  1.00  0.00    -0.475 OA
ATOM     16  C   UNL     1      -0.171   2.708   3.695  1.00  0.00     0.047 C 
ATOM     17  C   UNL     1      -1.246   0.339   5.133  1.00  0.00     0.027 C 
ATOM     18  C   UNL     1      -1.150  -2.139   5.403  1.00  0.00     0.316 C 
BRANCH  18  19
ATOM     19  C   UNL     1      -0.036  -2.833   6.206  1.00  0.00     0.430 C 
ATOM     20  F   UNL     1       1.015  -2.026   6.457  1.00  0.00    -0.167 F 
ATOM     21  F   UNL     1      -0.490  -3.312   7.389  1.00  0.00    -0.167 F 
ATOM     22  F   UNL     1       0.440  -3.916   5.536  1.00  0.00    -0.167 F 
ENDBRANCH  18  19
ENDBRANCH   4   6
ENDBRANCH   3   4
ENDBRANCH   2   3
ENDBRANCH   1   2
BRANCH   1  23
ATOM     23  O   UNL     1      -1.402   0.905   9.940  1.00  0.00    -0.458 OA
BRANCH  23  24
ATOM     24  C   UNL     1      -0.192   1.174   9.402  1.00  0.00     0.338 C 
ATOM     25  O   UNL     1       0.758   0.414   9.300  1.00  0.00    -0.246 OA
BRANCH  24  26
ATOM     26  C   UNL     1      -0.179   2.531   8.838  1.00  0.00     0.060 A 
ATOM     27  C   UNL     1      -1.004   2.810   7.755  1.00  0.00     0.016 A 
ATOM     28  C   UNL     1       0.790   3.450   9.233  1.00  0.00     0.016 A 
ATOM     29  C   UNL     1      -0.746   3.925   6.963  1.00  0.00     0.010 A 
ATOM     30  C   UNL     1       0.956   4.634   8.503  1.00  0.00     0.010 A 
ATOM     31  C   UNL     1       0.248   4.854   7.307  1.00  0.00    -0.014 A 
BRANCH  31  32
ATOM     32  C   UNL     1       0.608   5.991   6.397  1.00  0.00     0.031 A 
ATOM     33  C   UNL     1       2.059   6.246   6.040  1.00  0.00     0.074 A 
ATOM     34  C   UNL     1      -0.332   6.797   5.859  1.00  0.00     0.049 A 
ATOM     35  N   UNL     1       2.611   7.312   5.518  1.00  0.00    -0.248 NA
ATOM     36  C   UNL     1       3.018   5.164   6.324  1.00  0.00     0.031 C 
ATOM     37  C   UNL     1      -1.778   6.659   6.034  1.00  0.00     0.029 A 
ATOM     38  N   UNL     1      -0.207   7.905   5.051  1.00  0.00    -0.354 N 
ATOM     39  C   UNL     1       3.982   7.071   5.507  1.00  0.00     0.074 A 
ATOM     40  C   UNL     1       4.178   5.748   6.059  1.00  0.00     0.031 C 
ATOM     41  C   UNL     1      -2.405   7.604   5.322  1.00  0.00     0.029 A 
ATOM     42  C   UNL     1      -1.410   8.504   4.752  1.00  0.00     0.049 A 
ATOM     43  H   UNL     1       0.658   8.237   4.720  1.00  0.00     0.167 HD
ATOM     44  C   UNL     1       4.985   7.873   5.072  1.00  0.00     0.034 A 
ATOM     45  C   UNL     1      -1.696   9.679   4.155  1.00  0.00     0.034 A 
ATOM     46  C   UNL     1       4.780   9.143   4.425  1.00  0.00     0.049 A 
ATOM     47  C   UNL     1      -0.571  10.569   3.709  1.00  0.00     0.074 A 
ATOM     48  C   UNL     1       5.732  10.019   3.930  1.00  0.00     0.029 A 
ATOM     49  N   UNL     1       3.544   9.707   4.153  1.00  0.00    -0.354 N 
ATOM     50  N   UNL     1       0.720  10.348   3.744  1.00  0.00    -0.248 NA
ATOM     51  C   UNL     1      -0.944  11.875   3.147  1.00  0.00     0.031 C 
ATOM     52  C   UNL     1       5.071  11.120   3.376  1.00  0.00     0.029 A 
ATOM     53  C   UNL     1       3.707  10.920   3.503  1.00  0.00     0.049 A 
ATOM     54  H   UNL     1       2.676   9.305   4.388  1.00  0.00     0.167 HD
ATOM     55  C   UNL     1       1.315  11.484   3.206  1.00  0.00     0.074 A 
ATOM     56  C   UNL     1       0.239  12.370   2.810  1.00  0.00     0.031 C 
ATOM     57  C   UNL     1       2.632  11.780   3.080  1.00  0.00     0.034 A 
BRANCH  44  58
ATOM     58  C   UNL     1       6.409   7.405   5.257  1.00  0.00     0.023 A 
ATOM     59  C   UNL     1       6.925   6.373   4.449  1.00  0.00     0.012 A 
ATOM     60  C   UNL     1       7.265   8.058   6.169  1.00  0.00     0.148 A 
ATOM     61  C   UNL     1       8.259   5.980   4.563  1.00  0.00     0.002 A 
ATOM     62  C   UNL     1       8.605   7.696   6.242  1.00  0.00     0.091 A 
ATOM     63  F   UNL     1       6.754   9.027   6.942  1.00  0.00    -0.205 F 
ATOM     64  C   UNL     1       9.101   6.649   5.448  1.00  0.00     0.022 A 
BRANCH  62  65
ATOM     65  S   UNL     1       9.792   8.557   7.282  1.00  0.00     0.127 S 
ATOM     66  O   UNL     1      10.110   7.534   8.278  1.00  0.00    -0.237 OA
ATOM     67  O   UNL     1      10.873   8.845   6.339  1.00  0.00    -0.237 OA
ATOM     68  O   UNL     1       9.102   9.732   7.795  1.00  0.00    -0.744 OA
ENDBRANCH  62  65
ENDBRANCH  44  58
BRANCH  45  69
ATOM     69  C   UNL     1      -3.121  10.088   3.970  1.00  0.00     0.023 A 
ATOM     70  C   UNL     1      -3.651  10.175   2.669  1.00  0.00     0.012 A 
ATOM     71  C   UNL     1      -3.966  10.329   5.072  1.00  0.00     0.148 A 
ATOM     72  C   UNL     1      -4.994  10.502   2.469  1.00  0.00     0.002 A 
ATOM     73  C   UNL     1      -5.318  10.577   4.869  1.00  0.00     0.091 A 
ATOM     74  F   UNL     1      -3.438  10.273   6.303  1.00  0.00    -0.205 F 
ATOM     75  C   UNL     1      -5.830  10.682   3.567  1.00  0.00     0.022 A 
BRANCH  73  76
ATOM     76  S   UNL     1      -6.497  10.647   6.223  1.00  0.00     0.127 S 
ATOM     77  O   UNL     1      -6.881  12.056   6.214  1.00  0.00    -0.237 OA
ATOM     78  O   UNL     1      -7.535   9.721   5.765  1.00  0.00    -0.237 OA
ATOM     79  O   UNL     1      -5.770  10.196   7.402  1.00  0.00    -0.744 OA
ENDBRANCH  73  76
ENDBRANCH  45  69
BRANCH  57  80
ATOM     80  C   UNL     1       2.991  13.120   2.489  1.00  0.00     0.023 A 
ATOM     81  C   UNL     1       2.771  14.290   3.243  1.00  0.00     0.012 A 
ATOM     82  C   UNL     1       3.598  13.219   1.221  1.00  0.00     0.148 A 
ATOM     83  C   UNL     1       3.114  15.540   2.730  1.00  0.00     0.002 A 
ATOM     84  C   UNL     1       3.984  14.464   0.738  1.00  0.00     0.091 A 
ATOM     85  F   UNL     1       3.784  12.098   0.510  1.00  0.00    -0.205 F 
ATOM     86  C   UNL     1       3.730  15.627   1.484  1.00  0.00     0.022 A 
BRANCH  84  87
ATOM     87  S   UNL     1       4.872  14.665  -0.811  1.00  0.00     0.127 S 
ATOM     88  O   UNL     1       3.840  15.239  -1.674  1.00  0.00    -0.237 OA
ATOM     89  O   UNL     1       5.940  15.593  -0.440  1.00  0.00    -0.237 OA
ATOM     90  O   UNL     1       5.331  13.334  -1.185  1.00  0.00    -0.744 OA
ENDBRANCH  84  87
ENDBRANCH  57  80
ENDBRANCH  31  32
ENDBRANCH  24  26
ENDBRANCH  23  24
ENDBRANCH   1  23
TORSDOF 15
