REMARK SMILES CC(C)(C)NS(=O)(=O)c1csc(C(=O)Nc2ccccc2C(=O)OCCOC(=O)c2ccc(-c3c4nc(c(-c5cccc(S(=O)(=O)[O-])c5F)c5ccc([nH]5)c(-c5cccc(S(=O)(=O)[O-])c5F)c5nc(c(-c6cccc(S(=O)(=O)[O-])c6F)c6ccc3[nH]6)C=C5)C=C4)cc2)c1
REMARK SMILES IDX 25 1 24 2 22 3 23 4 21 5 16 6 17 7 18 8 20 9 19 10 15 11
REMARK SMILES IDX 13 12 14 13 12 15 9 16 10 17 93 18 11 19 6 20 7 21 8 22 5 23
REMARK SMILES IDX 2 25 1 26 3 27 4 28 26 29 27 30 28 31 29 32 30 33 31 34
REMARK SMILES IDX 92 35 32 36 91 37 33 38 34 39 35 40 85 41 36 42 90 43 84 44
REMARK SMILES IDX 86 45 37 46 89 47 83 48 82 49 38 51 70 52 50 53 69 54 51 55
REMARK SMILES IDX 54 56 68 57 87 58 52 59 53 60 67 62 88 63 55 64 39 65 40 66
REMARK SMILES IDX 48 67 41 68 43 69 49 70 42 71 44 72 45 73 46 74 47 75 71 76
REMARK SMILES IDX 72 77 80 78 73 79 75 80 81 81 74 82 76 83 77 84 78 85 79 86
REMARK SMILES IDX 56 87 57 88 65 89 58 90 60 91 66 92 59 93 61 94 62 95 63 96
REMARK SMILES IDX 64 97
REMARK H PARENT 15 14 5 24 86 50 54 61
REMARK Flexibility Score: inf
ROOT
ATOM      1  C   UNL     1       1.756   1.205   4.159  1.00  0.00     0.275 C 
ENDROOT
BRANCH   1   2
ATOM      2  O   UNL     1       2.765   2.238   4.165  1.00  0.00    -0.458 OA
BRANCH   2   3
ATOM      3  C   UNL     1       3.091   2.673   2.926  1.00  0.00     0.340 C 
ATOM      4  O   UNL     1       2.551   2.318   1.892  1.00  0.00    -0.246 OA
BRANCH   3   5
ATOM      5  C   UNL     1       4.214   3.631   2.926  1.00  0.00     0.083 A 
ATOM      6  C   UNL     1       5.499   3.302   3.374  1.00  0.00     0.056 A 
ATOM      7  C   UNL     1       6.488   4.302   3.389  1.00  0.00     0.027 A 
ATOM      8  C   UNL     1       6.252   5.555   2.820  1.00  0.00     0.002 A 
ATOM      9  C   UNL     1       3.986   4.900   2.367  1.00  0.00     0.018 A 
ATOM     10  C   UNL     1       5.005   5.846   2.285  1.00  0.00     0.001 A 
BRANCH   6  11
ATOM     11  N   UNL     1       5.929   2.034   3.797  1.00  0.00    -0.320 N 
ATOM     12  C   UNL     1       5.706   0.758   3.314  1.00  0.00     0.265 C 
ATOM     13  O   UNL     1       6.064  -0.150   4.074  1.00  0.00    -0.268 OA
ATOM     14  H   UNL     1       6.504   2.059   4.596  1.00  0.00     0.170 HD
BRANCH  12  15
ATOM     15  C   UNL     1       5.182   0.507   1.972  1.00  0.00     0.094 A 
ATOM     16  C   UNL     1       4.143   0.720  -0.114  1.00  0.00     0.093 A 
ATOM     17  C   UNL     1       4.078  -0.642   0.063  1.00  0.00     0.087 A 
ATOM     18  C   UNL     1       4.995   1.326   0.868  1.00  0.00     0.047 A 
ATOM     19  S   UNL     1       4.735  -1.112   1.568  1.00  0.00    -0.137 S 
BRANCH  16  20
ATOM     20  S   UNL     1       3.335   1.587  -1.383  1.00  0.00     0.241 S 
ATOM     21  O   UNL     1       3.634   0.824  -2.570  1.00  0.00    -0.207 OA
ATOM     22  O   UNL     1       3.817   2.947  -1.236  1.00  0.00    -0.207 OA
BRANCH  20  23
ATOM     23  N   UNL     1       1.671   1.671  -1.143  1.00  0.00    -0.206 NA
ATOM     24  H   UNL     1       1.559   2.039  -0.198  1.00  0.00     0.141 HD
BRANCH  23  25
ATOM     25  C   UNL     1       0.695   0.548  -1.235  1.00  0.00     0.025 C 
ATOM     26  C   UNL     1       0.620  -0.202   0.099  1.00  0.00     0.028 C 
ATOM     27  C   UNL     1       0.988  -0.399  -2.396  1.00  0.00     0.028 C 
ATOM     28  C   UNL     1      -0.698   1.174  -1.469  1.00  0.00     0.028 C 
ENDBRANCH  23  25
ENDBRANCH  20  23
ENDBRANCH  16  20
ENDBRANCH  12  15
ENDBRANCH   6  11
ENDBRANCH   3   5
ENDBRANCH   2   3
ENDBRANCH   1   2
BRANCH   1  29
ATOM     29  C   UNL     1       0.326   1.749   4.243  1.00  0.00     0.275 C 
BRANCH  29  30
ATOM     30  O   UNL     1      -0.029   2.528   3.086  1.00  0.00    -0.458 OA
BRANCH  30  31
ATOM     31  C   UNL     1      -0.046   3.868   3.275  1.00  0.00     0.338 C 
ATOM     32  O   UNL     1       0.171   4.468   4.315  1.00  0.00    -0.246 OA
BRANCH  31  33
ATOM     33  C   UNL     1      -0.335   4.569   2.013  1.00  0.00     0.060 A 
ATOM     34  C   UNL     1       0.637   4.611   1.017  1.00  0.00     0.016 A 
ATOM     35  C   UNL     1      -1.489   5.337   1.885  1.00  0.00     0.016 A 
ATOM     36  C   UNL     1       0.529   5.494  -0.045  1.00  0.00     0.010 A 
ATOM     37  C   UNL     1      -1.662   6.127   0.744  1.00  0.00     0.010 A 
ATOM     38  C   UNL     1      -0.642   6.233  -0.219  1.00  0.00    -0.014 A 
BRANCH  38  39
ATOM     39  C   UNL     1      -0.800   7.091  -1.418  1.00  0.00     0.031 A 
ATOM     40  C   UNL     1      -1.075   8.557  -1.262  1.00  0.00     0.074 A 
ATOM     41  C   UNL     1      -0.721   6.538  -2.645  1.00  0.00     0.049 A 
ATOM     42  N   UNL     1      -1.466   9.421  -2.160  1.00  0.00    -0.248 NA
ATOM     43  C   UNL     1      -0.900   9.127   0.084  1.00  0.00     0.031 C 
ATOM     44  C   UNL     1      -0.404   5.134  -2.922  1.00  0.00     0.029 A 
ATOM     45  N   UNL     1      -0.917   7.079  -3.890  1.00  0.00    -0.354 N 
ATOM     46  C   UNL     1      -1.675  10.610  -1.475  1.00  0.00     0.074 A 
ATOM     47  C   UNL     1      -1.334  10.367  -0.089  1.00  0.00     0.031 C 
ATOM     48  C   UNL     1      -0.404   4.929  -4.245  1.00  0.00     0.029 A 
ATOM     49  C   UNL     1      -0.837   6.153  -4.904  1.00  0.00     0.049 A 
ATOM     50  H   UNL     1      -1.097   8.035  -4.042  1.00  0.00     0.167 HD
ATOM     51  C   UNL     1      -2.120  11.791  -1.963  1.00  0.00     0.034 A 
ATOM     52  C   UNL     1      -1.148   6.254  -6.210  1.00  0.00     0.034 A 
ATOM     53  C   UNL     1      -2.391  12.025  -3.356  1.00  0.00     0.049 A 
ATOM     54  C   UNL     1      -1.685   7.560  -6.716  1.00  0.00     0.074 A 
ATOM     55  C   UNL     1      -2.784  13.200  -3.972  1.00  0.00     0.029 A 
ATOM     56  N   UNL     1      -2.304  11.061  -4.351  1.00  0.00    -0.354 N 
ATOM     57  N   UNL     1      -1.840   8.691  -6.070  1.00  0.00    -0.248 NA
ATOM     58  C   UNL     1      -2.102   7.604  -8.123  1.00  0.00     0.031 C 
ATOM     59  C   UNL     1      -2.965  12.936  -5.334  1.00  0.00     0.029 A 
ATOM     60  C   UNL     1      -2.663  11.604  -5.572  1.00  0.00     0.049 A 
ATOM     61  H   UNL     1      -2.027  10.127  -4.208  1.00  0.00     0.167 HD
ATOM     62  C   UNL     1      -2.357   9.588  -6.994  1.00  0.00     0.074 A 
ATOM     63  C   UNL     1      -2.466   8.873  -8.252  1.00  0.00     0.031 C 
ATOM     64  C   UNL     1      -2.728  10.880  -6.816  1.00  0.00     0.034 A 
BRANCH  51  65
ATOM     65  C   UNL     1      -2.360  12.910  -0.984  1.00  0.00     0.023 A 
ATOM     66  C   UNL     1      -1.274  13.591  -0.400  1.00  0.00     0.012 A 
ATOM     67  C   UNL     1      -3.675  13.305  -0.666  1.00  0.00     0.148 A 
ATOM     68  C   UNL     1      -1.493  14.623   0.513  1.00  0.00     0.002 A 
ATOM     69  C   UNL     1      -3.885  14.362   0.212  1.00  0.00     0.091 A 
ATOM     70  F   UNL     1      -4.696  12.628  -1.210  1.00  0.00    -0.205 F 
ATOM     71  C   UNL     1      -2.796  15.014   0.812  1.00  0.00     0.022 A 
BRANCH  69  72
ATOM     72  S   UNL     1      -5.527  14.980   0.600  1.00  0.00     0.127 S 
ATOM     73  O   UNL     1      -5.725  14.462   1.953  1.00  0.00    -0.237 OA
ATOM     74  O   UNL     1      -5.338  16.429   0.524  1.00  0.00    -0.237 OA
ATOM     75  O   UNL     1      -6.410  14.432  -0.419  1.00  0.00    -0.744 OA
ENDBRANCH  69  72
ENDBRANCH  51  65
BRANCH  52  76
ATOM     76  C   UNL     1      -0.975   5.076  -7.107  1.00  0.00     0.023 A 
ATOM     77  C   UNL     1       0.021   5.108  -8.100  1.00  0.00     0.012 A 
ATOM     78  C   UNL     1      -1.739   3.903  -6.939  1.00  0.00     0.148 A 
ATOM     79  C   UNL     1       0.247   3.998  -8.915  1.00  0.00     0.002 A 
ATOM     80  C   UNL     1      -1.467   2.780  -7.711  1.00  0.00     0.091 A 
ATOM     81  F   UNL     1      -2.698   3.897  -6.002  1.00  0.00    -0.205 F 
ATOM     82  C   UNL     1      -0.484   2.830  -8.711  1.00  0.00     0.022 A 
BRANCH  80  83
ATOM     83  S   UNL     1      -2.255   1.193  -7.409  1.00  0.00     0.127 S 
ATOM     84  O   UNL     1      -3.135   1.070  -8.568  1.00  0.00    -0.237 OA
ATOM     85  O   UNL     1      -1.111   0.281  -7.402  1.00  0.00    -0.237 OA
ATOM     86  O   UNL     1      -2.919   1.324  -6.119  1.00  0.00    -0.744 OA
ENDBRANCH  80  83
ENDBRANCH  52  76
BRANCH  64  87
ATOM     87  C   UNL     1      -3.273  11.610  -8.012  1.00  0.00     0.023 A 
ATOM     88  C   UNL     1      -4.581  11.335  -8.457  1.00  0.00     0.012 A 
ATOM     89  C   UNL     1      -2.523  12.622  -8.640  1.00  0.00     0.148 A 
ATOM     90  C   UNL     1      -5.127  12.044  -9.525  1.00  0.00     0.002 A 
ATOM     91  C   UNL     1      -3.091  13.357  -9.672  1.00  0.00     0.091 A 
ATOM     92  F   UNL     1      -1.274  12.852  -8.209  1.00  0.00    -0.205 F 
ATOM     93  C   UNL     1      -4.388  13.062 -10.124  1.00  0.00     0.022 A 
BRANCH  91  94
ATOM     94  S   UNL     1      -2.254  14.748 -10.440  1.00  0.00     0.127 S 
ATOM     95  O   UNL     1      -1.992  14.234 -11.783  1.00  0.00    -0.237 OA
ATOM     96  O   UNL     1      -3.274  15.795 -10.375  1.00  0.00    -0.237 OA
ATOM     97  O   UNL     1      -1.070  15.005  -9.631  1.00  0.00    -0.744 OA
ENDBRANCH  91  94
ENDBRANCH  64  87
ENDBRANCH  38  39
ENDBRANCH  31  33
ENDBRANCH  30  31
ENDBRANCH  29  30
ENDBRANCH   1  29
TORSDOF 19
