REMARK SMILES Cc1ccc(S(=O)(=O)N[C@@H](C)C(=O)Oc2csc(C(=O)OCCOC(=O)c3ccc(-c4c5nc(c(-c6cccc(S(=O)(=O)[O-])c6F)c6ccc([nH]6)c(-c6cccc(S(=O)(=O)[O-])c6F)c6nc(c(-c7cccc(S(=O)(=O)[O-])c7F)c7ccc4[nH]7)C=C6)C=C5)cc3)c2C)cc1
REMARK SMILES IDX 21 1 19 2 20 3 18 4 15 5 16 6 90 7 17 8 91 9 14 10 12 11
REMARK SMILES IDX 13 12 10 13 11 14 9 15 6 17 7 18 8 19 5 20 1 21 2 22 3 23
REMARK SMILES IDX 93 24 4 25 92 26 22 27 23 28 24 29 25 30 26 31 27 32 28 33
REMARK SMILES IDX 89 34 29 35 88 36 30 37 31 38 32 39 82 40 33 41 87 42 81 43
REMARK SMILES IDX 83 44 34 45 86 46 80 47 79 48 35 50 67 51 47 52 66 53 48 54
REMARK SMILES IDX 51 55 65 56 84 57 49 58 50 59 64 61 85 62 52 63 36 64 37 65
REMARK SMILES IDX 45 66 38 67 40 68 46 69 39 70 41 71 42 72 43 73 44 74 68 75
REMARK SMILES IDX 69 76 77 77 70 78 72 79 78 80 71 81 73 82 74 83 75 84 76 85
REMARK SMILES IDX 53 86 54 87 62 88 55 89 57 90 63 91 56 92 58 93 59 94 60 95
REMARK SMILES IDX 61 96
REMARK H PARENT 9 16 83 49 51 60
REMARK Flexibility Score: inf
ROOT
ATOM      1  O   UNL     1      -5.199   7.842  -5.089  1.00  0.00    -0.458 OA
ENDROOT
BRANCH   1   2
ATOM      2  C   UNL     1      -6.192   6.938  -5.312  1.00  0.00     0.348 C 
ATOM      3  O   UNL     1      -6.861   6.902  -6.322  1.00  0.00    -0.245 OA
BRANCH   2   4
ATOM      4  C   UNL     1      -6.316   6.086  -4.137  1.00  0.00     0.119 A 
ATOM      5  C   UNL     1      -5.958   4.713  -2.289  1.00  0.00     0.145 A 
ATOM      6  C   UNL     1      -7.320   4.910  -2.242  1.00  0.00     0.113 A 
ATOM      7  C   UNL     1      -5.335   5.445  -3.373  1.00  0.00     0.017 A 
ATOM      8  S   UNL     1      -7.902   5.788  -3.571  1.00  0.00    -0.133 S 
ATOM      9  C   UNL     1      -3.882   5.500  -3.738  1.00  0.00     0.050 C 
BRANCH   5  10
ATOM     10  O   UNL     1      -5.469   3.795  -1.421  1.00  0.00    -0.424 OA
BRANCH  10  11
ATOM     11  C   UNL     1      -4.138   3.656  -1.203  1.00  0.00     0.329 C 
ATOM     12  O   UNL     1      -3.400   4.528  -0.764  1.00  0.00    -0.250 OA
BRANCH  11  13
ATOM     13  C   UNL     1      -3.710   2.200  -1.414  1.00  0.00     0.177 C 
ATOM     14  C   UNL     1      -4.326   1.642  -2.693  1.00  0.00     0.038 C 
BRANCH  13  15
ATOM     15  N   UNL     1      -4.081   1.412  -0.227  1.00  0.00    -0.197 NA
ATOM     16  H   UNL     1      -3.787   1.966   0.578  1.00  0.00     0.142 HD
BRANCH  15  17
ATOM     17  S   UNL     1      -3.534  -0.134   0.063  1.00  0.00     0.241 S 
ATOM     18  O   UNL     1      -3.860  -0.938  -1.096  1.00  0.00    -0.207 OA
ATOM     19  O   UNL     1      -4.022  -0.497   1.375  1.00  0.00    -0.207 OA
BRANCH  17  20
ATOM     20  C   UNL     1      -1.766  -0.056   0.165  1.00  0.00     0.082 A 
ATOM     21  C   UNL     1       2.530   0.016   0.011  1.00  0.00     0.044 C 
ATOM     22  C   UNL     1       1.030  -0.013   0.089  1.00  0.00    -0.051 A 
ATOM     23  C   UNL     1       0.341  -1.222  -0.066  1.00  0.00     0.005 A 
ATOM     24  C   UNL     1       0.308   1.164   0.327  1.00  0.00     0.005 A 
ATOM     25  C   UNL     1      -1.054  -1.243  -0.042  1.00  0.00     0.022 A 
ATOM     26  C   UNL     1      -1.088   1.143   0.385  1.00  0.00     0.022 A 
ENDBRANCH  17  20
ENDBRANCH  15  17
ENDBRANCH  13  15
ENDBRANCH  11  13
ENDBRANCH  10  11
ENDBRANCH   5  10
ENDBRANCH   2   4
ENDBRANCH   1   2
BRANCH   1  27
ATOM     27  C   UNL     1      -4.968   8.835  -6.084  1.00  0.00     0.275 C 
BRANCH  27  28
ATOM     28  C   UNL     1      -6.139   9.752  -6.494  1.00  0.00     0.275 C 
BRANCH  28  29
ATOM     29  O   UNL     1      -7.374   9.872  -5.726  1.00  0.00    -0.458 OA
BRANCH  29  30
ATOM     30  C   UNL     1      -7.671   9.888  -4.405  1.00  0.00     0.338 C 
ATOM     31  O   UNL     1      -8.826   9.931  -4.005  1.00  0.00    -0.246 OA
BRANCH  30  32
ATOM     32  C   UNL     1      -6.555   9.847  -3.463  1.00  0.00     0.060 A 
ATOM     33  C   UNL     1      -6.597   9.005  -2.338  1.00  0.00     0.016 A 
ATOM     34  C   UNL     1      -5.442  10.625  -3.745  1.00  0.00     0.016 A 
ATOM     35  C   UNL     1      -5.486   8.909  -1.507  1.00  0.00     0.010 A 
ATOM     36  C   UNL     1      -4.295  10.401  -3.037  1.00  0.00     0.010 A 
ATOM     37  C   UNL     1      -4.354   9.634  -1.860  1.00  0.00    -0.014 A 
BRANCH  37  38
ATOM     38  C   UNL     1      -3.325  10.021  -0.908  1.00  0.00     0.031 A 
ATOM     39  C   UNL     1      -2.242   9.133  -0.496  1.00  0.00     0.074 A 
ATOM     40  C   UNL     1      -3.377  11.346  -0.640  1.00  0.00     0.049 A 
ATOM     41  N   UNL     1      -1.516   9.349   0.542  1.00  0.00    -0.248 NA
ATOM     42  C   UNL     1      -1.904   7.904  -1.197  1.00  0.00     0.031 C 
ATOM     43  C   UNL     1      -2.357  12.268  -0.195  1.00  0.00     0.029 A 
ATOM     44  N   UNL     1      -4.537  12.133  -0.720  1.00  0.00    -0.354 N 
ATOM     45  C   UNL     1      -0.444   8.484   0.477  1.00  0.00     0.074 A 
ATOM     46  C   UNL     1      -0.800   7.525  -0.541  1.00  0.00     0.031 C 
ATOM     47  C   UNL     1      -2.958  13.417   0.177  1.00  0.00     0.029 A 
ATOM     48  C   UNL     1      -4.400  13.183   0.179  1.00  0.00     0.049 A 
ATOM     49  H   UNL     1      -5.309  11.970  -1.308  1.00  0.00     0.167 HD
ATOM     50  C   UNL     1       0.690   8.816   1.158  1.00  0.00     0.034 A 
ATOM     51  C   UNL     1      -5.259  13.312   1.235  1.00  0.00     0.034 A 
ATOM     52  C   UNL     1       0.467  10.068   1.909  1.00  0.00     0.049 A 
ATOM     53  C   UNL     1      -4.510  13.091   2.541  1.00  0.00     0.074 A 
ATOM     54  C   UNL     1       0.715  11.393   1.582  1.00  0.00     0.029 A 
ATOM     55  N   UNL     1      -0.429  10.093   2.974  1.00  0.00    -0.354 N 
ATOM     56  N   UNL     1      -3.283  12.653   2.619  1.00  0.00    -0.248 NA
ATOM     57  C   UNL     1      -5.111  13.292   3.854  1.00  0.00     0.031 C 
ATOM     58  C   UNL     1      -0.131  12.209   2.384  1.00  0.00     0.029 A 
ATOM     59  C   UNL     1      -0.866  11.390   3.225  1.00  0.00     0.049 A 
ATOM     60  H   UNL     1      -0.716   9.299   3.481  1.00  0.00     0.167 HD
ATOM     61  C   UNL     1      -2.982  12.351   3.916  1.00  0.00     0.074 A 
ATOM     62  C   UNL     1      -4.128  12.855   4.660  1.00  0.00     0.031 C 
ATOM     63  C   UNL     1      -1.864  11.643   4.266  1.00  0.00     0.034 A 
BRANCH  50  64
ATOM     64  C   UNL     1       2.082   8.262   0.872  1.00  0.00     0.023 A 
ATOM     65  C   UNL     1       3.178   9.078   1.240  1.00  0.00     0.012 A 
ATOM     66  C   UNL     1       2.415   7.045   0.227  1.00  0.00     0.148 A 
ATOM     67  C   UNL     1       4.503   8.769   0.911  1.00  0.00     0.002 A 
ATOM     68  C   UNL     1       3.736   6.753  -0.143  1.00  0.00     0.091 A 
ATOM     69  F   UNL     1       1.471   6.125   0.018  1.00  0.00    -0.205 F 
ATOM     70  C   UNL     1       4.781   7.619   0.193  1.00  0.00     0.022 A 
BRANCH  68  71
ATOM     71  S   UNL     1       4.190   5.293  -1.104  1.00  0.00     0.127 S 
ATOM     72  O   UNL     1       4.880   5.884  -2.253  1.00  0.00    -0.237 OA
ATOM     73  O   UNL     1       5.061   4.566  -0.182  1.00  0.00    -0.237 OA
ATOM     74  O   UNL     1       2.942   4.617  -1.439  1.00  0.00    -0.744 OA
ENDBRANCH  68  71
ENDBRANCH  50  64
BRANCH  51  75
ATOM     75  C   UNL     1      -6.646  12.771   0.962  1.00  0.00     0.023 A 
ATOM     76  C   UNL     1      -7.348  13.259  -0.172  1.00  0.00     0.012 A 
ATOM     77  C   UNL     1      -7.066  11.552   1.519  1.00  0.00     0.148 A 
ATOM     78  C   UNL     1      -8.320  12.479  -0.814  1.00  0.00     0.002 A 
ATOM     79  C   UNL     1      -8.014  10.769   0.858  1.00  0.00     0.091 A 
ATOM     80  F   UNL     1      -6.491  11.113   2.645  1.00  0.00    -0.205 F 
ATOM     81  C   UNL     1      -8.626  11.215  -0.320  1.00  0.00     0.022 A 
BRANCH  79  82
ATOM     82  S   UNL     1      -8.281   9.081   1.415  1.00  0.00     0.127 S 
ATOM     83  O   UNL     1      -8.940   8.449   0.272  1.00  0.00    -0.237 OA
ATOM     84  O   UNL     1      -6.931   8.590   1.659  1.00  0.00    -0.237 OA
ATOM     85  O   UNL     1      -9.132   9.277   2.584  1.00  0.00    -0.744 OA
ENDBRANCH  79  82
ENDBRANCH  51  75
BRANCH  63  86
ATOM     86  C   UNL     1      -1.616  11.114   5.657  1.00  0.00     0.023 A 
ATOM     87  C   UNL     1      -2.668  10.772   6.528  1.00  0.00     0.012 A 
ATOM     88  C   UNL     1      -0.301  10.807   6.083  1.00  0.00     0.148 A 
ATOM     89  C   UNL     1      -2.426  10.251   7.802  1.00  0.00     0.002 A 
ATOM     90  C   UNL     1      -0.077  10.163   7.293  1.00  0.00     0.091 A 
ATOM     91  F   UNL     1       0.747  11.153   5.320  1.00  0.00    -0.205 F 
ATOM     92  C   UNL     1      -1.130   9.927   8.178  1.00  0.00     0.022 A 
BRANCH  90  93
ATOM     93  S   UNL     1       1.537   9.467   7.668  1.00  0.00     0.127 S 
ATOM     94  O   UNL     1       2.187  10.566   8.378  1.00  0.00    -0.237 OA
ATOM     95  O   UNL     1       1.198   8.316   8.507  1.00  0.00    -0.237 OA
ATOM     96  O   UNL     1       2.101   9.112   6.372  1.00  0.00    -0.744 OA
ENDBRANCH  90  93
ENDBRANCH  63  86
ENDBRANCH  37  38
ENDBRANCH  30  32
ENDBRANCH  29  30
ENDBRANCH  28  29
ENDBRANCH  27  28
ENDBRANCH   1  27
TORSDOF 20
