REMARK SMILES CC1(C)S[C@H](c2ccc(-c3ccccc3)o2)[NH2+][C@H]1C(=O)OCCOC(=O)c1ccc(-c2c3nc(c(-c4cccc(S(=O)(=O)[O-])c4F)c4ccc([nH]4)c(-c4cccc(S(=O)(=O)[O-])c4F)c4nc(c(-c5cccc(S(=O)(=O)[O-])c5F)c5ccc2[nH]5)C=C4)C=C3)cc1
REMARK SMILES IDX 23 1 22 2 21 3 19 4 20 5 18 6 1 7 2 8 3 9 4 10 5 11 17 12
REMARK SMILES IDX 6 15 7 16 16 17 8 18 9 19 10 20 11 21 15 22 12 23 14 24
REMARK SMILES IDX 13 25 24 26 25 27 26 28 27 29 28 30 89 31 29 32 88 33 30 34
REMARK SMILES IDX 31 35 32 36 82 37 33 38 87 39 81 40 83 41 34 42 86 43 80 44
REMARK SMILES IDX 79 45 35 47 67 48 47 49 66 50 48 51 51 52 65 53 84 54 49 55
REMARK SMILES IDX 50 56 64 58 85 59 52 60 36 61 37 62 45 63 38 64 40 65 46 66
REMARK SMILES IDX 39 67 41 68 42 69 43 70 44 71 68 72 69 73 77 74 70 75 72 76
REMARK SMILES IDX 78 77 71 78 73 79 74 80 75 81 76 82 53 83 54 84 62 85 55 86
REMARK SMILES IDX 57 87 63 88 56 89 58 90 59 91 60 92 61 93
REMARK H PARENT 17 13 17 14 83 46 51 57
REMARK Flexibility Score: inf
ROOT
ATOM      1  C   UNL     1       2.309   4.699   0.609  1.00  0.00     0.275 C 
ENDROOT
BRANCH   1   2
ATOM      2  C   UNL     1       0.974   4.311   1.248  1.00  0.00     0.274 C 
BRANCH   2   3
ATOM      3  O   UNL     1       0.649   2.921   1.032  1.00  0.00    -0.458 OA
BRANCH   3   4
ATOM      4  C   UNL     1      -0.170   2.654  -0.018  1.00  0.00     0.366 C 
ATOM      5  O   UNL     1      -0.644   3.525  -0.740  1.00  0.00    -0.245 OA
BRANCH   4   6
ATOM      6  C   UNL     1      -0.528   1.161  -0.179  1.00  0.00     0.310 C 
ATOM      7  C   UNL     1       1.207   0.279   1.603  1.00  0.00     0.030 C 
ATOM      8  C   UNL     1       0.477   0.068   0.274  1.00  0.00     0.079 C 
ATOM      9  C   UNL     1       1.475  -0.287  -0.831  1.00  0.00     0.030 C 
ATOM     10  S   UNL     1      -0.604  -1.405   0.532  1.00  0.00    -0.078 SA
ATOM     11  C   UNL     1      -2.154  -0.501   0.252  1.00  0.00     0.311 C 
ATOM     12  N   UNL     1      -1.848   0.913   0.465  1.00  0.00    -0.316 N 
ATOM     13  H   UNL     1      -1.797   1.116   1.463  1.00  0.00     0.348 HD
ATOM     14  H   UNL     1      -2.572   1.511   0.067  1.00  0.00     0.348 HD
BRANCH  11  15
ATOM     15  C   UNL     1      -2.751  -0.881  -1.075  1.00  0.00     0.172 A 
ATOM     16  C   UNL     1      -3.211  -2.105  -1.534  1.00  0.00     0.054 A 
ATOM     17  O   UNL     1      -2.939   0.069  -2.051  1.00  0.00    -0.454 OA
ATOM     18  C   UNL     1      -3.719  -1.894  -2.832  1.00  0.00     0.051 A 
ATOM     19  C   UNL     1      -3.542  -0.555  -3.109  1.00  0.00     0.134 A 
BRANCH  19  20
ATOM     20  C   UNL     1      -3.905   0.250  -4.264  1.00  0.00     0.017 A 
ATOM     21  C   UNL     1      -2.932   0.877  -5.048  1.00  0.00     0.012 A 
ATOM     22  C   UNL     1      -5.247   0.313  -4.670  1.00  0.00     0.012 A 
ATOM     23  C   UNL     1      -3.292   1.540  -6.226  1.00  0.00     0.001 A 
ATOM     24  C   UNL     1      -5.608   0.986  -5.840  1.00  0.00     0.001 A 
ATOM     25  C   UNL     1      -4.628   1.594  -6.621  1.00  0.00     0.000 A 
ENDBRANCH  19  20
ENDBRANCH  11  15
ENDBRANCH   4   6
ENDBRANCH   3   4
ENDBRANCH   2   3
ENDBRANCH   1   2
BRANCH   1  26
ATOM     26  O   UNL     1       2.253   4.589  -0.823  1.00  0.00    -0.458 OA
BRANCH  26  27
ATOM     27  C   UNL     1       2.849   3.492  -1.343  1.00  0.00     0.338 C 
ATOM     28  O   UNL     1       3.460   2.629  -0.739  1.00  0.00    -0.246 OA
BRANCH  27  29
ATOM     29  C   UNL     1       2.561   3.417  -2.782  1.00  0.00     0.060 A 
ATOM     30  C   UNL     1       1.479   2.646  -3.210  1.00  0.00     0.016 A 
ATOM     31  C   UNL     1       3.406   4.026  -3.707  1.00  0.00     0.016 A 
ATOM     32  C   UNL     1       1.239   2.465  -4.567  1.00  0.00     0.010 A 
ATOM     33  C   UNL     1       3.150   3.866  -5.072  1.00  0.00     0.010 A 
ATOM     34  C   UNL     1       2.072   3.075  -5.510  1.00  0.00    -0.014 A 
BRANCH  34  35
ATOM     35  C   UNL     1       1.825   2.868  -6.956  1.00  0.00     0.031 A 
ATOM     36  C   UNL     1       2.777   2.037  -7.766  1.00  0.00     0.074 A 
ATOM     37  C   UNL     1       0.757   3.444  -7.537  1.00  0.00     0.049 A 
ATOM     38  N   UNL     1       2.802   1.837  -9.057  1.00  0.00    -0.248 NA
ATOM     39  C   UNL     1       3.845   1.345  -7.027  1.00  0.00     0.031 C 
ATOM     40  C   UNL     1      -0.243   4.260  -6.846  1.00  0.00     0.029 A 
ATOM     41  N   UNL     1       0.350   3.454  -8.848  1.00  0.00    -0.354 N 
ATOM     42  C   UNL     1       3.913   1.038  -9.295  1.00  0.00     0.074 A 
ATOM     43  C   UNL     1       4.534   0.783  -8.012  1.00  0.00     0.031 C 
ATOM     44  C   UNL     1      -1.134   4.712  -7.743  1.00  0.00     0.029 A 
ATOM     45  C   UNL     1      -0.746   4.253  -9.073  1.00  0.00     0.049 A 
ATOM     46  H   UNL     1       0.799   2.940  -9.557  1.00  0.00     0.167 HD
ATOM     47  C   UNL     1       4.368   0.554 -10.474  1.00  0.00     0.034 A 
ATOM     48  C   UNL     1      -1.348   4.604 -10.226  1.00  0.00     0.034 A 
ATOM     49  C   UNL     1       3.721   0.774 -11.740  1.00  0.00     0.049 A 
ATOM     50  C   UNL     1      -0.817   4.058 -11.523  1.00  0.00     0.074 A 
ATOM     51  C   UNL     1       4.080   0.290 -12.985  1.00  0.00     0.029 A 
ATOM     52  N   UNL     1       2.581   1.542 -11.922  1.00  0.00    -0.354 N 
ATOM     53  N   UNL     1       0.182   3.233 -11.723  1.00  0.00    -0.248 NA
ATOM     54  C   UNL     1      -1.507   4.474 -12.752  1.00  0.00     0.031 C 
ATOM     55  C   UNL     1       3.161   0.773 -13.923  1.00  0.00     0.029 A 
ATOM     56  C   UNL     1       2.224   1.550 -13.260  1.00  0.00     0.049 A 
ATOM     57  H   UNL     1       2.096   2.011 -11.206  1.00  0.00     0.167 HD
ATOM     58  C   UNL     1       0.227   3.011 -13.094  1.00  0.00     0.074 A 
ATOM     59  C   UNL     1      -0.862   3.771 -13.675  1.00  0.00     0.031 C 
ATOM     60  C   UNL     1       1.102   2.265 -13.812  1.00  0.00     0.034 A 
BRANCH  47  61
ATOM     61  C   UNL     1       5.612  -0.291 -10.449  1.00  0.00     0.023 A 
ATOM     62  C   UNL     1       5.537  -1.624 -10.000  1.00  0.00     0.012 A 
ATOM     63  C   UNL     1       6.840   0.214 -10.920  1.00  0.00     0.148 A 
ATOM     64  C   UNL     1       6.671  -2.436  -9.998  1.00  0.00     0.002 A 
ATOM     65  C   UNL     1       7.957  -0.613 -10.948  1.00  0.00     0.091 A 
ATOM     66  F   UNL     1       6.896   1.493 -11.317  1.00  0.00    -0.205 F 
ATOM     67  C   UNL     1       7.877  -1.935 -10.481  1.00  0.00     0.022 A 
BRANCH  65  68
ATOM     68  S   UNL     1       9.537  -0.072 -11.614  1.00  0.00     0.127 S 
ATOM     69  O   UNL     1      10.309   0.154 -10.394  1.00  0.00    -0.237 OA
ATOM     70  O   UNL     1       9.960  -1.235 -12.396  1.00  0.00    -0.237 OA
ATOM     71  O   UNL     1       9.248   1.115 -12.406  1.00  0.00    -0.744 OA
ENDBRANCH  65  68
ENDBRANCH  47  61
BRANCH  48  72
ATOM     72  C   UNL     1      -2.539   5.497 -10.196  1.00  0.00     0.023 A 
ATOM     73  C   UNL     1      -3.806   4.967 -10.506  1.00  0.00     0.012 A 
ATOM     74  C   UNL     1      -2.432   6.851  -9.823  1.00  0.00     0.148 A 
ATOM     75  C   UNL     1      -4.943   5.775 -10.464  1.00  0.00     0.002 A 
ATOM     76  C   UNL     1      -3.575   7.637  -9.732  1.00  0.00     0.091 A 
ATOM     77  F   UNL     1      -1.214   7.344  -9.557  1.00  0.00    -0.205 F 
ATOM     78  C   UNL     1      -4.830   7.104 -10.065  1.00  0.00     0.022 A 
BRANCH  76  79
ATOM     79  S   UNL     1      -3.528   9.319  -9.104  1.00  0.00     0.127 S 
ATOM     80  O   UNL     1      -3.632  10.101 -10.332  1.00  0.00    -0.237 OA
ATOM     81  O   UNL     1      -4.713   9.361  -8.245  1.00  0.00    -0.237 OA
ATOM     82  O   UNL     1      -2.267   9.427  -8.383  1.00  0.00    -0.744 OA
ENDBRANCH  76  79
ENDBRANCH  48  72
BRANCH  60  83
ATOM     83  C   UNL     1       0.911   2.211 -15.304  1.00  0.00     0.023 A 
ATOM     84  C   UNL     1       1.289   3.317 -16.091  1.00  0.00     0.012 A 
ATOM     85  C   UNL     1       0.438   1.043 -15.931  1.00  0.00     0.148 A 
ATOM     86  C   UNL     1       1.175   3.268 -17.479  1.00  0.00     0.002 A 
ATOM     87  C   UNL     1       0.366   0.987 -17.318  1.00  0.00     0.091 A 
ATOM     88  F   UNL     1       0.063   0.009 -15.162  1.00  0.00    -0.205 F 
ATOM     89  C   UNL     1       0.727   2.101 -18.093  1.00  0.00     0.022 A 
BRANCH  87  90
ATOM     90  S   UNL     1      -0.117  -0.507 -18.191  1.00  0.00     0.127 S 
ATOM     91  O   UNL     1      -1.493  -0.197 -18.574  1.00  0.00    -0.237 OA
ATOM     92  O   UNL     1       0.832  -0.542 -19.304  1.00  0.00    -0.237 OA
ATOM     93  O   UNL     1       0.041  -1.594 -17.234  1.00  0.00    -0.744 OA
ENDBRANCH  87  90
ENDBRANCH  60  83
ENDBRANCH  34  35
ENDBRANCH  27  29
ENDBRANCH  26  27
ENDBRANCH   1  26
TORSDOF 16
