REMARK SMILES Cc1ccc(C)c(N2C(=O)S[C@H](CC(=O)Nc3ccc(C(=O)OCCOC(=O)c4ccc(-c5c6nc(c(-c7cccc(S(=O)(=O)[O-])c7F)c7ccc([nH]7)c(-c7cccc(S(=O)(=O)[O-])c7F)c7nc(c(-c8cccc(S(=O)(=O)[O-])c8F)c8ccc5[nH]8)C=C7)C=C6)cc4)c(O)c3)C2=O)c1
REMARK SMILES IDX 24 1 23 2 21 3 22 4 20 5 17 6 18 7 94 8 19 9 92 10 16 11
REMARK SMILES IDX 14 12 15 13 13 15 12 16 8 17 9 18 95 19 10 20 11 21 96 22
REMARK SMILES IDX 7 23 1 24 2 25 3 26 97 27 4 28 5 29 6 30 93 31 25 33 26 34
REMARK SMILES IDX 27 35 28 36 29 37 30 38 91 39 31 40 90 41 32 42 33 43 34 44
REMARK SMILES IDX 84 45 35 46 89 47 83 48 85 49 36 50 88 51 82 52 81 53 37 55
REMARK SMILES IDX 69 56 49 57 68 58 50 59 53 60 67 61 86 62 51 63 52 64 66 66
REMARK SMILES IDX 87 67 54 68 38 69 39 70 47 71 40 72 42 73 48 74 41 75 43 76
REMARK SMILES IDX 44 77 45 78 46 79 70 80 71 81 79 82 72 83 74 84 80 85 73 86
REMARK SMILES IDX 75 87 76 88 77 89 78 90 55 91 56 92 64 93 57 94 59 95 65 96
REMARK SMILES IDX 58 97 60 98 61 99 62 100 63 101
REMARK H PARENT 16 14 93 32 85 54 53 65
REMARK Flexibility Score: inf
ROOT
ATOM      1  C   UNL     1       3.535   5.587  -3.033  1.00  0.00     0.275 C 
ENDROOT
BRANCH   1   2
ATOM      2  O   UNL     1       2.342   5.817  -2.281  1.00  0.00    -0.458 OA
BRANCH   2   3
ATOM      3  C   UNL     1       1.626   6.874  -2.730  1.00  0.00     0.342 C 
ATOM      4  O   UNL     1       1.923   7.657  -3.611  1.00  0.00    -0.246 OA
BRANCH   3   5
ATOM      5  C   UNL     1       0.478   7.071  -1.853  1.00  0.00     0.101 A 
ATOM      6  C   UNL     1      -1.600   7.335  -0.029  1.00  0.00     0.044 A 
ATOM      7  C   UNL     1      -1.648   6.364  -1.030  1.00  0.00     0.027 A 
ATOM      8  C   UNL     1      -0.578   8.282  -0.044  1.00  0.00     0.073 A 
ATOM      9  C   UNL     1      -0.595   6.194  -1.915  1.00  0.00     0.022 A 
ATOM     10  C   UNL     1       0.456   8.153  -0.972  1.00  0.00     0.132 A 
BRANCH   6  11
ATOM     11  N   UNL     1      -2.592   7.377   0.962  1.00  0.00    -0.326 N 
ATOM     12  C   UNL     1      -3.205   6.301   1.568  1.00  0.00     0.226 C 
ATOM     13  O   UNL     1      -4.269   6.448   2.169  1.00  0.00    -0.275 OA
ATOM     14  H   UNL     1      -2.882   8.271   1.255  1.00  0.00     0.169 HD
BRANCH  12  15
ATOM     15  C   UNL     1      -2.423   4.997   1.670  1.00  0.00     0.125 C 
BRANCH  15  16
ATOM     16  C   UNL     1      -3.211   3.731   1.359  1.00  0.00     0.156 C 
ATOM     17  N   UNL     1      -1.802   2.083   0.328  1.00  0.00    -0.240 N 
ATOM     18  C   UNL     1      -2.418   2.550  -0.812  1.00  0.00     0.293 C 
ATOM     19  C   UNL     1      -2.281   2.544   1.541  1.00  0.00     0.248 C 
ATOM     20  O   UNL     1      -2.197   2.289  -1.972  1.00  0.00    -0.261 OA
ATOM     21  S   UNL     1      -3.763   3.594  -0.361  1.00  0.00    -0.050 SA
ATOM     22  O   UNL     1      -2.009   2.096   2.653  1.00  0.00    -0.273 OA
BRANCH  17  23
ATOM     23  C   UNL     1      -0.966   0.944   0.263  1.00  0.00     0.056 A 
ATOM     24  C   UNL     1       2.769   0.143   0.094  1.00  0.00     0.044 C 
ATOM     25  C   UNL     1       1.276  -0.009   0.161  1.00  0.00    -0.049 A 
ATOM     26  C   UNL     1       0.714  -1.286   0.081  1.00  0.00     0.004 A 
ATOM     27  C   UNL     1       0.429   1.104   0.274  1.00  0.00     0.030 A 
ATOM     28  C   UNL     1      -0.671  -1.450   0.086  1.00  0.00     0.006 A 
ATOM     29  C   UNL     1      -1.528  -0.343   0.165  1.00  0.00    -0.027 A 
ATOM     30  C   UNL     1      -3.009  -0.599   0.145  1.00  0.00     0.046 C 
ENDBRANCH  17  23
ENDBRANCH  15  16
ENDBRANCH  12  15
ENDBRANCH   6  11
BRANCH  10  31
ATOM     31  O   UNL     1       1.435   9.107  -0.962  1.00  0.00    -0.507 OA
ATOM     32  H   UNL     1       2.146   9.056  -1.569  1.00  0.00     0.293 HD
ENDBRANCH  10  31
ENDBRANCH   3   5
ENDBRANCH   2   3
ENDBRANCH   1   2
BRANCH   1  33
ATOM     33  C   UNL     1       4.092   4.187  -2.756  1.00  0.00     0.275 C 
BRANCH  33  34
ATOM     34  O   UNL     1       3.151   3.089  -2.552  1.00  0.00    -0.458 OA
BRANCH  34  35
ATOM     35  C   UNL     1       1.878   3.018  -3.022  1.00  0.00     0.338 C 
ATOM     36  O   UNL     1       0.957   2.640  -2.313  1.00  0.00    -0.246 OA
BRANCH  35  37
ATOM     37  C   UNL     1       1.643   3.452  -4.415  1.00  0.00     0.060 A 
ATOM     38  C   UNL     1       0.391   3.973  -4.771  1.00  0.00     0.016 A 
ATOM     39  C   UNL     1       2.705   3.517  -5.303  1.00  0.00     0.016 A 
ATOM     40  C   UNL     1       0.271   4.765  -5.912  1.00  0.00     0.010 A 
ATOM     41  C   UNL     1       2.616   4.399  -6.359  1.00  0.00     0.010 A 
ATOM     42  C   UNL     1       1.408   5.033  -6.679  1.00  0.00    -0.014 A 
BRANCH  42  43
ATOM     43  C   UNL     1       1.364   5.994  -7.784  1.00  0.00     0.031 A 
ATOM     44  C   UNL     1       0.804   7.369  -7.551  1.00  0.00     0.074 A 
ATOM     45  C   UNL     1       2.007   5.766  -8.949  1.00  0.00     0.049 A 
ATOM     46  N   UNL     1      -0.263   7.890  -8.071  1.00  0.00    -0.248 NA
ATOM     47  C   UNL     1       1.507   8.274  -6.636  1.00  0.00     0.031 C 
ATOM     48  C   UNL     1       2.863   4.633  -9.329  1.00  0.00     0.029 A 
ATOM     49  N   UNL     1       2.131   6.605 -10.009  1.00  0.00    -0.354 N 
ATOM     50  C   UNL     1      -0.282   9.240  -7.691  1.00  0.00     0.074 A 
ATOM     51  C   UNL     1       0.760   9.380  -6.707  1.00  0.00     0.031 C 
ATOM     52  C   UNL     1       3.629   4.982 -10.383  1.00  0.00     0.029 A 
ATOM     53  C   UNL     1       3.142   6.249 -10.884  1.00  0.00     0.049 A 
ATOM     54  H   UNL     1       1.556   7.392 -10.143  1.00  0.00     0.167 HD
ATOM     55  C   UNL     1      -1.045  10.174  -8.334  1.00  0.00     0.034 A 
ATOM     56  C   UNL     1       3.549   6.939 -11.967  1.00  0.00     0.034 A 
ATOM     57  C   UNL     1      -1.973   9.557  -9.246  1.00  0.00     0.049 A 
ATOM     58  C   UNL     1       2.404   7.767 -12.401  1.00  0.00     0.074 A 
ATOM     59  C   UNL     1      -3.032   8.679  -9.145  1.00  0.00     0.029 A 
ATOM     60  N   UNL     1      -1.648   9.589 -10.581  1.00  0.00    -0.354 N 
ATOM     61  N   UNL     1       1.274   7.260 -12.815  1.00  0.00    -0.248 NA
ATOM     62  C   UNL     1       2.354   9.160 -11.996  1.00  0.00     0.031 C 
ATOM     63  C   UNL     1      -2.928   7.859 -10.309  1.00  0.00     0.029 A 
ATOM     64  C   UNL     1      -1.840   8.320 -11.056  1.00  0.00     0.049 A 
ATOM     65  H   UNL     1      -1.338  10.370 -11.094  1.00  0.00     0.167 HD
ATOM     66  C   UNL     1       0.301   8.116 -12.316  1.00  0.00     0.074 A 
ATOM     67  C   UNL     1       1.030   9.327 -11.941  1.00  0.00     0.031 C 
ATOM     68  C   UNL     1      -0.953   7.667 -11.996  1.00  0.00     0.034 A 
BRANCH  55  69
ATOM     69  C   UNL     1      -0.824  11.676  -8.403  1.00  0.00     0.023 A 
ATOM     70  C   UNL     1      -1.858  12.458  -8.983  1.00  0.00     0.012 A 
ATOM     71  C   UNL     1       0.409  12.326  -8.186  1.00  0.00     0.148 A 
ATOM     72  C   UNL     1      -1.659  13.783  -9.386  1.00  0.00     0.002 A 
ATOM     73  C   UNL     1       0.581  13.671  -8.524  1.00  0.00     0.091 A 
ATOM     74  F   UNL     1       1.467  11.625  -7.769  1.00  0.00    -0.205 F 
ATOM     75  C   UNL     1      -0.437  14.393  -9.152  1.00  0.00     0.022 A 
BRANCH  73  76
ATOM     76  S   UNL     1       2.122  14.537  -8.194  1.00  0.00     0.127 S 
ATOM     77  O   UNL     1       2.752  14.528  -9.511  1.00  0.00    -0.237 OA
ATOM     78  O   UNL     1       1.647  15.847  -7.746  1.00  0.00    -0.237 OA
ATOM     79  O   UNL     1       2.781  13.757  -7.154  1.00  0.00    -0.744 OA
ENDBRANCH  73  76
ENDBRANCH  55  69
BRANCH  56  80
ATOM     80  C   UNL     1       4.917   7.053 -12.497  1.00  0.00     0.023 A 
ATOM     81  C   UNL     1       5.129   7.278 -13.866  1.00  0.00     0.012 A 
ATOM     82  C   UNL     1       6.013   7.173 -11.609  1.00  0.00     0.148 A 
ATOM     83  C   UNL     1       6.396   7.636 -14.339  1.00  0.00     0.002 A 
ATOM     84  C   UNL     1       7.269   7.532 -12.084  1.00  0.00     0.091 A 
ATOM     85  F   UNL     1       5.798   7.012 -10.296  1.00  0.00    -0.205 F 
ATOM     86  C   UNL     1       7.461   7.772 -13.450  1.00  0.00     0.022 A 
BRANCH  84  87
ATOM     87  S   UNL     1       8.682   7.753 -10.995  1.00  0.00     0.127 S 
ATOM     88  O   UNL     1       9.726   7.003 -11.694  1.00  0.00    -0.237 OA
ATOM     89  O   UNL     1       8.853   9.203 -11.014  1.00  0.00    -0.237 OA
ATOM     90  O   UNL     1       8.291   7.178  -9.713  1.00  0.00    -0.744 OA
ENDBRANCH  84  87
ENDBRANCH  56  80
BRANCH  68  91
ATOM     91  C   UNL     1      -1.334   6.251 -12.370  1.00  0.00     0.023 A 
ATOM     92  C   UNL     1      -0.673   5.139 -11.807  1.00  0.00     0.012 A 
ATOM     93  C   UNL     1      -2.513   6.030 -13.102  1.00  0.00     0.148 A 
ATOM     94  C   UNL     1      -1.162   3.842 -11.975  1.00  0.00     0.002 A 
ATOM     95  C   UNL     1      -3.023   4.741 -13.232  1.00  0.00     0.091 A 
ATOM     96  F   UNL     1      -3.144   7.092 -13.625  1.00  0.00    -0.205 F 
ATOM     97  C   UNL     1      -2.347   3.643 -12.676  1.00  0.00     0.022 A 
BRANCH  95  98
ATOM     98  S   UNL     1      -4.615   4.433 -14.002  1.00  0.00     0.127 S 
ATOM     99  O   UNL     1      -4.227   3.931 -15.318  1.00  0.00    -0.237 OA
ATOM    100  O   UNL     1      -5.210   3.430 -13.116  1.00  0.00    -0.237 OA
ATOM    101  O   UNL     1      -5.313   5.714 -13.996  1.00  0.00    -0.744 OA
ENDBRANCH  95  98
ENDBRANCH  68  91
ENDBRANCH  42  43
ENDBRANCH  35  37
ENDBRANCH  34  35
ENDBRANCH  33  34
ENDBRANCH   1  33
TORSDOF 19
