REMARK SMILES CC[C@@H](O)C[NH+]1CC(n2cc(C(=O)OCCOC(=O)c3ccc(-c4c5nc(c(-c6cccc(S(=O)(=O)[O-])c6F)c6ccc([nH]6)c(-c6cccc(S(=O)(=O)[O-])c6F)c6nc(c(-c7cccc(S(=O)(=O)[O-])c7F)c7ccc4[nH]7)C=C6)C=C5)cc3)nn2)C1
REMARK SMILES IDX 15 1 14 2 12 3 13 4 11 5 9 6 10 7 84 8 83 9 8 10 6 11 7 12
REMARK SMILES IDX 85 13 5 15 3 16 2 17 1 18 4 19 16 21 17 22 18 23 19 24 20 25
REMARK SMILES IDX 21 26 82 27 22 28 81 29 23 30 24 31 25 32 75 33 26 34 80 35
REMARK SMILES IDX 74 36 76 37 27 38 79 39 73 40 72 41 28 43 60 44 40 45 59 46
REMARK SMILES IDX 41 47 44 48 58 49 77 50 42 51 43 52 57 54 78 55 45 56 29 57
REMARK SMILES IDX 30 58 38 59 31 60 33 61 39 62 32 63 34 64 35 65 36 66 37 67
REMARK SMILES IDX 61 68 62 69 70 70 63 71 65 72 71 73 64 74 66 75 67 76 68 77
REMARK SMILES IDX 69 78 46 79 47 80 55 81 48 82 50 83 56 84 49 85 51 86 52 87
REMARK SMILES IDX 53 88 54 89
REMARK H PARENT 6 14 4 20 76 42 44 53
REMARK Flexibility Score: inf
ROOT
ATOM      1  C   UNL     1      -0.089  -8.093   2.567  1.00  0.00     0.275 C 
ENDROOT
BRANCH   1   2
ATOM      2  O   UNL     1      -0.005  -6.699   2.917  1.00  0.00    -0.457 OA
BRANCH   2   3
ATOM      3  C   UNL     1      -1.193  -6.091   3.230  1.00  0.00     0.360 C 
ATOM      4  O   UNL     1      -2.296  -6.565   2.965  1.00  0.00    -0.244 OA
BRANCH   3   5
ATOM      5  C   UNL     1      -1.013  -4.831   3.936  1.00  0.00     0.190 A 
ATOM      6  N   UNL     1      -0.221  -3.039   4.870  1.00  0.00    -0.237 N 
ATOM      7  C   UNL     1       0.171  -4.221   4.306  1.00  0.00     0.147 A 
ATOM      8  N   UNL     1      -1.560  -2.936   4.897  1.00  0.00    -0.066 NA
ATOM      9  N   UNL     1      -2.058  -4.041   4.356  1.00  0.00    -0.123 NA
BRANCH   6  10
ATOM     10  C   UNL     1       0.681  -1.937   5.012  1.00  0.00     0.218 C 
ATOM     11  N   UNL     1       1.017  -0.023   4.202  1.00  0.00    -0.329 N 
ATOM     12  C   UNL     1       0.095  -0.532   5.282  1.00  0.00     0.296 C 
ATOM     13  C   UNL     1       0.946  -1.371   3.603  1.00  0.00     0.296 C 
ATOM     14  H   UNL     1       1.908   0.429   4.407  1.00  0.00     0.348 HD
BRANCH  11  15
ATOM     15  C   UNL     1       0.339   0.983   3.362  1.00  0.00     0.294 C 
BRANCH  15  16
ATOM     16  C   UNL     1       0.948   1.221   1.946  1.00  0.00     0.169 C 
BRANCH  16  17
ATOM     17  C   UNL     1       0.556   0.141   0.920  1.00  0.00     0.034 C 
ATOM     18  C   UNL     1       1.028   0.397  -0.502  1.00  0.00     0.007 C 
ENDBRANCH  16  17
BRANCH  16  19
ATOM     19  O   UNL     1       0.472   2.491   1.479  1.00  0.00    -0.387 OA
ATOM     20  H   UNL     1      -0.496   2.470   1.414  1.00  0.00     0.211 HD
ENDBRANCH  16  19
ENDBRANCH  15  16
ENDBRANCH  11  15
ENDBRANCH   6  10
ENDBRANCH   3   5
ENDBRANCH   2   3
ENDBRANCH   1   2
BRANCH   1  21
ATOM     21  C   UNL     1       0.037  -8.972   3.802  1.00  0.00     0.275 C 
BRANCH  21  22
ATOM     22  O   UNL     1      -1.074  -8.786   4.676  1.00  0.00    -0.458 OA
BRANCH  22  23
ATOM     23  C   UNL     1      -0.854  -7.899   5.672  1.00  0.00     0.338 C 
ATOM     24  O   UNL     1      -0.019  -7.010   5.698  1.00  0.00    -0.246 OA
BRANCH  23  25
ATOM     25  C   UNL     1      -1.604  -8.308   6.853  1.00  0.00     0.060 A 
ATOM     26  C   UNL     1      -1.700  -7.393   7.908  1.00  0.00     0.016 A 
ATOM     27  C   UNL     1      -1.886  -9.670   7.007  1.00  0.00     0.016 A 
ATOM     28  C   UNL     1      -1.940  -7.879   9.174  1.00  0.00     0.010 A 
ATOM     29  C   UNL     1      -2.087 -10.156   8.269  1.00  0.00     0.010 A 
ATOM     30  C   UNL     1      -2.056  -9.261   9.341  1.00  0.00    -0.014 A 
BRANCH  30  31
ATOM     31  C   UNL     1      -2.324  -9.786  10.662  1.00  0.00     0.031 A 
ATOM     32  C   UNL     1      -3.744  -9.587  11.060  1.00  0.00     0.074 A 
ATOM     33  C   UNL     1      -1.394 -10.540  11.283  1.00  0.00     0.049 A 
ATOM     34  N   UNL     1      -4.200  -9.013  12.123  1.00  0.00    -0.248 NA
ATOM     35  C   UNL     1      -4.791  -9.905  10.066  1.00  0.00     0.031 C 
ATOM     36  C   UNL     1      -0.099 -10.966  10.736  1.00  0.00     0.029 A 
ATOM     37  N   UNL     1      -1.485 -11.259  12.436  1.00  0.00    -0.354 N 
ATOM     38  C   UNL     1      -5.586  -9.146  12.037  1.00  0.00     0.074 A 
ATOM     39  C   UNL     1      -5.889  -9.460  10.672  1.00  0.00     0.031 C 
ATOM     40  C   UNL     1       0.314 -12.070  11.395  1.00  0.00     0.029 A 
ATOM     41  C   UNL     1      -0.638 -12.369  12.450  1.00  0.00     0.049 A 
ATOM     42  H   UNL     1      -2.084 -11.021  13.181  1.00  0.00     0.167 HD
ATOM     43  C   UNL     1      -6.336  -9.326  13.157  1.00  0.00     0.034 A 
ATOM     44  C   UNL     1      -0.812 -13.516  13.160  1.00  0.00     0.034 A 
ATOM     45  C   UNL     1      -5.636  -8.866  14.328  1.00  0.00     0.049 A 
ATOM     46  C   UNL     1      -1.798 -13.229  14.230  1.00  0.00     0.074 A 
ATOM     47  C   UNL     1      -5.041  -7.672  14.689  1.00  0.00     0.029 A 
ATOM     48  N   UNL     1      -5.107  -9.822  15.160  1.00  0.00    -0.354 N 
ATOM     49  N   UNL     1      -1.575 -12.402  15.213  1.00  0.00    -0.248 NA
ATOM     50  C   UNL     1      -3.198 -13.494  13.936  1.00  0.00     0.031 C 
ATOM     51  C   UNL     1      -3.846  -8.052  15.364  1.00  0.00     0.029 A 
ATOM     52  C   UNL     1      -3.825  -9.445  15.457  1.00  0.00     0.049 A 
ATOM     53  H   UNL     1      -5.565 -10.631  15.483  1.00  0.00     0.167 HD
ATOM     54  C   UNL     1      -2.761 -11.687  15.327  1.00  0.00     0.074 A 
ATOM     55  C   UNL     1      -3.752 -12.465  14.584  1.00  0.00     0.031 C 
ATOM     56  C   UNL     1      -2.764 -10.384  15.736  1.00  0.00     0.034 A 
BRANCH  43  57
ATOM     57  C   UNL     1      -7.494 -10.300  13.246  1.00  0.00     0.023 A 
ATOM     58  C   UNL     1      -8.225 -10.306  14.453  1.00  0.00     0.012 A 
ATOM     59  C   UNL     1      -7.716 -11.384  12.360  1.00  0.00     0.148 A 
ATOM     60  C   UNL     1      -9.067 -11.369  14.795  1.00  0.00     0.002 A 
ATOM     61  C   UNL     1      -8.615 -12.397  12.669  1.00  0.00     0.091 A 
ATOM     62  F   UNL     1      -6.968 -11.532  11.266  1.00  0.00    -0.205 F 
ATOM     63  C   UNL     1      -9.265 -12.414  13.902  1.00  0.00     0.022 A 
BRANCH  61  64
ATOM     64  S   UNL     1      -8.939 -13.750  11.528  1.00  0.00     0.127 S 
ATOM     65  O   UNL     1      -8.259 -14.859  12.191  1.00  0.00    -0.237 OA
ATOM     66  O   UNL     1     -10.400 -13.813  11.551  1.00  0.00    -0.237 OA
ATOM     67  O   UNL     1      -8.381 -13.331  10.249  1.00  0.00    -0.744 OA
ENDBRANCH  61  64
ENDBRANCH  43  57
BRANCH  44  68
ATOM     68  C   UNL     1      -0.482 -14.910  12.755  1.00  0.00     0.023 A 
ATOM     69  C   UNL     1      -0.455 -15.937  13.721  1.00  0.00     0.012 A 
ATOM     70  C   UNL     1      -0.445 -15.293  11.394  1.00  0.00     0.148 A 
ATOM     71  C   UNL     1      -0.408 -17.288  13.345  1.00  0.00     0.002 A 
ATOM     72  C   UNL     1      -0.370 -16.633  11.024  1.00  0.00     0.091 A 
ATOM     73  F   UNL     1      -0.593 -14.357  10.449  1.00  0.00    -0.205 F 
ATOM     74  C   UNL     1      -0.364 -17.637  11.997  1.00  0.00     0.022 A 
BRANCH  72  75
ATOM     75  S   UNL     1      -0.302 -17.126   9.296  1.00  0.00     0.127 S 
ATOM     76  O   UNL     1       0.716 -18.178   9.316  1.00  0.00    -0.237 OA
ATOM     77  O   UNL     1      -1.663 -17.594   9.059  1.00  0.00    -0.237 OA
ATOM     78  O   UNL     1       0.099 -15.931   8.562  1.00  0.00    -0.744 OA
ENDBRANCH  72  75
ENDBRANCH  44  68
BRANCH  56  79
ATOM     79  C   UNL     1      -1.496  -9.800  16.302  1.00  0.00     0.023 A 
ATOM     80  C   UNL     1      -0.307  -9.673  15.553  1.00  0.00     0.012 A 
ATOM     81  C   UNL     1      -1.572  -9.188  17.563  1.00  0.00     0.148 A 
ATOM     82  C   UNL     1       0.786  -8.965  16.062  1.00  0.00     0.002 A 
ATOM     83  C   UNL     1      -0.504  -8.445  18.044  1.00  0.00     0.091 A 
ATOM     84  F   UNL     1      -2.711  -9.318  18.262  1.00  0.00    -0.205 F 
ATOM     85  C   UNL     1       0.682  -8.338  17.302  1.00  0.00     0.022 A 
BRANCH  83  86
ATOM     86  S   UNL     1      -0.636  -7.514  19.570  1.00  0.00     0.127 S 
ATOM     87  O   UNL     1       0.117  -8.350  20.502  1.00  0.00    -0.237 OA
ATOM     88  O   UNL     1       0.008  -6.246  19.225  1.00  0.00    -0.237 OA
ATOM     89  O   UNL     1      -2.064  -7.397  19.844  1.00  0.00    -0.744 OA
ENDBRANCH  83  86
ENDBRANCH  56  79
ENDBRANCH  30  31
ENDBRANCH  23  25
ENDBRANCH  22  23
ENDBRANCH  21  22
ENDBRANCH   1  21
TORSDOF 19
