REMARK SMILES O=C(OCCOC(=O)[C@H]1CCCN(C(=O)CCOc2ccc(F)cc2)C1)c1ccc(-c2c3nc(c(-c4cccc(S(=O)(=O)[O-])c4F)c4ccc([nH]4)c(-c4cccc(S(=O)(=O)[O-])c4F)c4nc(c(-c5cccc(S(=O)(=O)[O-])c5F)c5ccc2[nH]5)C=C4)C=C3)cc1
REMARK SMILES IDX 5 1 4 2 3 3 2 4 1 5 27 6 28 7 89 8 29 9 88 10 30 11 31 12
REMARK SMILES IDX 32 13 82 14 33 15 87 16 81 17 83 18 34 19 86 20 80 21 79 22
REMARK SMILES IDX 35 24 67 25 47 26 66 27 48 28 51 29 65 30 84 31 49 32 50 33
REMARK SMILES IDX 64 35 85 36 52 37 36 38 37 39 45 40 38 41 40 42 46 43 39 44
REMARK SMILES IDX 41 45 42 46 43 47 44 48 68 49 69 50 77 51 70 52 72 53 78 54
REMARK SMILES IDX 71 55 73 56 74 57 75 58 76 59 53 60 54 61 62 62 55 63 57 64
REMARK SMILES IDX 63 65 56 66 58 67 59 68 60 69 61 70 6 71 7 72 8 73 9 74
REMARK SMILES IDX 10 75 26 76 11 77 13 78 12 79 14 80 15 81 16 82 17 83 18 84
REMARK SMILES IDX 19 85 20 86 25 87 21 88 24 89 22 90 23 91
REMARK H PARENT 83 23 51 34
REMARK Flexibility Score: inf
ROOT
ATOM      1  C   UNL     1       2.986   3.806  -5.487  1.00  0.00     0.274 C 
ENDROOT
BRANCH   1   2
ATOM      2  C   UNL     1       4.476   4.157  -5.406  1.00  0.00     0.275 C 
BRANCH   2   3
ATOM      3  O   UNL     1       5.218   3.109  -4.775  1.00  0.00    -0.458 OA
BRANCH   3   4
ATOM      4  C   UNL     1       5.860   3.228  -3.588  1.00  0.00     0.338 C 
ATOM      5  O   UNL     1       6.931   2.640  -3.442  1.00  0.00    -0.246 OA
BRANCH   4   6
ATOM      6  C   UNL     1       5.225   3.884  -2.388  1.00  0.00     0.060 A 
ATOM      7  C   UNL     1       4.266   4.905  -2.346  1.00  0.00     0.016 A 
ATOM      8  C   UNL     1       5.644   3.384  -1.158  1.00  0.00     0.016 A 
ATOM      9  C   UNL     1       3.683   5.346  -1.131  1.00  0.00     0.010 A 
ATOM     10  C   UNL     1       5.010   3.773   0.030  1.00  0.00     0.010 A 
ATOM     11  C   UNL     1       3.983   4.733   0.082  1.00  0.00    -0.014 A 
BRANCH  11  12
ATOM     12  C   UNL     1       3.290   5.004   1.400  1.00  0.00     0.031 A 
ATOM     13  C   UNL     1       4.132   5.037   2.660  1.00  0.00     0.074 A 
ATOM     14  C   UNL     1       1.941   5.048   1.558  1.00  0.00     0.049 A 
ATOM     15  N   UNL     1       3.768   4.896   3.908  1.00  0.00    -0.248 NA
ATOM     16  C   UNL     1       5.590   5.198   2.483  1.00  0.00     0.031 C 
ATOM     17  C   UNL     1       0.924   5.094   0.507  1.00  0.00     0.029 A 
ATOM     18  N   UNL     1       1.177   4.950   2.711  1.00  0.00    -0.354 N 
ATOM     19  C   UNL     1       4.948   4.952   4.636  1.00  0.00     0.074 A 
ATOM     20  C   UNL     1       6.036   4.887   3.689  1.00  0.00     0.031 C 
ATOM     21  C   UNL     1      -0.293   4.855   1.037  1.00  0.00     0.029 A 
ATOM     22  C   UNL     1      -0.161   4.684   2.475  1.00  0.00     0.049 A 
ATOM     23  H   UNL     1       1.552   5.060   3.615  1.00  0.00     0.167 HD
ATOM     24  C   UNL     1       5.136   5.242   5.944  1.00  0.00     0.034 A 
ATOM     25  C   UNL     1      -1.169   4.340   3.308  1.00  0.00     0.034 A 
ATOM     26  C   UNL     1       4.074   5.503   6.865  1.00  0.00     0.049 A 
ATOM     27  C   UNL     1      -0.952   4.506   4.790  1.00  0.00     0.074 A 
ATOM     28  C   UNL     1       4.154   6.008   8.148  1.00  0.00     0.029 A 
ATOM     29  N   UNL     1       2.735   5.300   6.589  1.00  0.00    -0.354 N 
ATOM     30  N   UNL     1       0.151   4.808   5.425  1.00  0.00    -0.248 NA
ATOM     31  C   UNL     1      -2.142   4.442   5.656  1.00  0.00     0.031 C 
ATOM     32  C   UNL     1       2.855   6.104   8.655  1.00  0.00     0.029 A 
ATOM     33  C   UNL     1       1.972   5.665   7.681  1.00  0.00     0.049 A 
ATOM     34  H   UNL     1       2.378   4.948   5.742  1.00  0.00     0.167 HD
ATOM     35  C   UNL     1      -0.232   5.103   6.729  1.00  0.00     0.074 A 
ATOM     36  C   UNL     1      -1.660   4.888   6.809  1.00  0.00     0.031 C 
ATOM     37  C   UNL     1       0.539   5.551   7.747  1.00  0.00     0.034 A 
BRANCH  24  38
ATOM     38  C   UNL     1       6.551   5.511   6.378  1.00  0.00     0.023 A 
ATOM     39  C   UNL     1       7.204   6.659   5.873  1.00  0.00     0.012 A 
ATOM     40  C   UNL     1       7.227   4.663   7.269  1.00  0.00     0.148 A 
ATOM     41  C   UNL     1       8.533   6.918   6.185  1.00  0.00     0.002 A 
ATOM     42  C   UNL     1       8.537   4.962   7.623  1.00  0.00     0.091 A 
ATOM     43  F   UNL     1       6.587   3.583   7.736  1.00  0.00    -0.205 F 
ATOM     44  C   UNL     1       9.197   6.072   7.065  1.00  0.00     0.022 A 
BRANCH  42  45
ATOM     45  S   UNL     1       9.468   3.994   8.812  1.00  0.00     0.127 S 
ATOM     46  O   UNL     1      10.584   3.515   7.995  1.00  0.00    -0.237 OA
ATOM     47  O   UNL     1       9.829   5.005   9.805  1.00  0.00    -0.237 OA
ATOM     48  O   UNL     1       8.563   2.957   9.287  1.00  0.00    -0.744 OA
ENDBRANCH  42  45
ENDBRANCH  24  38
BRANCH  25  49
ATOM     49  C   UNL     1      -2.536   3.993   2.806  1.00  0.00     0.023 A 
ATOM     50  C   UNL     1      -3.533   4.988   2.811  1.00  0.00     0.012 A 
ATOM     51  C   UNL     1      -2.886   2.679   2.425  1.00  0.00     0.148 A 
ATOM     52  C   UNL     1      -4.857   4.679   2.497  1.00  0.00     0.002 A 
ATOM     53  C   UNL     1      -4.207   2.383   2.085  1.00  0.00     0.091 A 
ATOM     54  F   UNL     1      -1.929   1.740   2.427  1.00  0.00    -0.205 F 
ATOM     55  C   UNL     1      -5.195   3.379   2.136  1.00  0.00     0.022 A 
BRANCH  53  56
ATOM     56  S   UNL     1      -4.761   0.752   1.563  1.00  0.00     0.127 S 
ATOM     57  O   UNL     1      -5.758   0.429   2.582  1.00  0.00    -0.237 OA
ATOM     58  O   UNL     1      -5.304   1.038   0.236  1.00  0.00    -0.237 OA
ATOM     59  O   UNL     1      -3.574  -0.089   1.569  1.00  0.00    -0.744 OA
ENDBRANCH  53  56
ENDBRANCH  25  49
BRANCH  37  60
ATOM     60  C   UNL     1      -0.117   5.953   9.038  1.00  0.00     0.023 A 
ATOM     61  C   UNL     1      -0.608   4.971   9.916  1.00  0.00     0.012 A 
ATOM     62  C   UNL     1      -0.088   7.303   9.448  1.00  0.00     0.148 A 
ATOM     63  C   UNL     1      -1.063   5.326  11.185  1.00  0.00     0.002 A 
ATOM     64  C   UNL     1      -0.483   7.640  10.735  1.00  0.00     0.091 A 
ATOM     65  F   UNL     1       0.360   8.225   8.583  1.00  0.00    -0.205 F 
ATOM     66  C   UNL     1      -0.980   6.654  11.602  1.00  0.00     0.022 A 
BRANCH  64  67
ATOM     67  S   UNL     1      -0.279   9.296  11.402  1.00  0.00     0.127 S 
ATOM     68  O   UNL     1      -1.665   9.748  11.508  1.00  0.00    -0.237 OA
ATOM     69  O   UNL     1       0.377   9.033  12.684  1.00  0.00    -0.237 OA
ATOM     70  O   UNL     1       0.541  10.020  10.441  1.00  0.00    -0.744 OA
ENDBRANCH  64  67
ENDBRANCH  37  60
ENDBRANCH  11  12
ENDBRANCH   4   6
ENDBRANCH   3   4
ENDBRANCH   2   3
ENDBRANCH   1   2
BRANCH   1  71
ATOM     71  O   UNL     1       2.531   3.166  -4.280  1.00  0.00    -0.462 OA
BRANCH  71  72
ATOM     72  C   UNL     1       1.605   2.159  -4.398  1.00  0.00     0.310 C 
ATOM     73  O   UNL     1       1.117   1.797  -5.463  1.00  0.00    -0.252 OA
BRANCH  72  74
ATOM     74  C   UNL     1       1.313   1.531  -3.038  1.00  0.00     0.119 C 
ATOM     75  C   UNL     1       1.185   2.639  -1.982  1.00  0.00     0.019 C 
ATOM     76  C   UNL     1       0.066   0.603  -3.032  1.00  0.00     0.134 C 
ATOM     77  C   UNL     1       0.749   2.053  -0.658  1.00  0.00     0.022 C 
ATOM     78  N   UNL     1      -0.387   0.253  -1.659  1.00  0.00    -0.342 N 
ATOM     79  C   UNL     1      -0.604   1.411  -0.809  1.00  0.00     0.119 C 
BRANCH  78  80
ATOM     80  C   UNL     1      -0.367  -1.056  -1.174  1.00  0.00     0.226 C 
ATOM     81  O   UNL     1      -0.003  -1.993  -1.895  1.00  0.00    -0.275 OA
BRANCH  80  82
ATOM     82  C   UNL     1      -0.851  -1.350   0.257  1.00  0.00     0.141 C 
BRANCH  82  83
ATOM     83  C   UNL     1       0.138  -1.985   1.241  1.00  0.00     0.239 C 
BRANCH  83  84
ATOM     84  O   UNL     1       1.202  -1.139   1.689  1.00  0.00    -0.493 OA
BRANCH  84  85
ATOM     85  C   UNL     1       2.271  -0.977   0.859  1.00  0.00     0.119 A 
ATOM     86  C   UNL     1       2.546  -1.755  -0.267  1.00  0.00     0.049 A 
ATOM     87  C   UNL     1       3.072   0.125   1.141  1.00  0.00     0.049 A 
ATOM     88  C   UNL     1       3.466  -1.320  -1.219  1.00  0.00     0.043 A 
ATOM     89  C   UNL     1       4.023   0.525   0.208  1.00  0.00     0.043 A 
ATOM     90  C   UNL     1       4.170  -0.155  -0.990  1.00  0.00     0.123 A 
ATOM     91  F   UNL     1       4.961   0.342  -1.949  1.00  0.00    -0.207 F 
ENDBRANCH  84  85
ENDBRANCH  83  84
ENDBRANCH  82  83
ENDBRANCH  80  82
ENDBRANCH  78  80
ENDBRANCH  72  74
ENDBRANCH  71  72
ENDBRANCH   1  71
TORSDOF 19
