REMARK SMILES C[C@@H]1[C@H](C(=O)OCCOC(=O)c2ccc(-c3c4nc(c(-c5cccc(S(=O)(=O)[O-])c5F)c5ccc([nH]5)c(-c5cccc(S(=O)(=O)[O-])c5F)c5nc(c(-c6cccc(S(=O)(=O)[O-])c6F)c6ccc3[nH]6)C=C5)C=C4)cc2)CCN1C(=O)COCc1ccccc1
REMARK SMILES IDX 7 1 6 2 4 3 5 4 3 5 1 6 2 7 77 8 75 9 76 10 78 11 79 12
REMARK SMILES IDX 80 13 81 14 82 15 83 16 84 17 88 18 85 19 87 20 86 21 8 22
REMARK SMILES IDX 9 23 10 24 11 25 12 26 13 27 74 28 14 29 73 30 15 31 16 32
REMARK SMILES IDX 17 33 67 34 18 35 72 36 66 37 68 38 19 39 71 40 65 41 64 42
REMARK SMILES IDX 20 44 52 45 32 46 51 47 33 48 36 49 50 50 69 51 34 52 35 53
REMARK SMILES IDX 49 55 70 56 37 57 21 58 22 59 30 60 23 61 25 62 31 63 24 64
REMARK SMILES IDX 26 65 27 66 28 67 29 68 53 69 54 70 62 71 55 72 57 73 63 74
REMARK SMILES IDX 56 75 58 76 59 77 60 78 61 79 38 80 39 81 47 82 40 83 42 84
REMARK SMILES IDX 48 85 41 86 43 87 44 88 45 89 46 90
REMARK H PARENT 68 43 36 54
REMARK Flexibility Score: inf
ROOT
ATOM      1  C   UNL     1       1.968   3.896   1.091  1.00  0.00     0.274 C 
ENDROOT
BRANCH   1   2
ATOM      2  O   UNL     1       1.413   2.570   0.977  1.00  0.00    -0.462 OA
BRANCH   2   3
ATOM      3  C   UNL     1       0.204   2.462   0.385  1.00  0.00     0.311 C 
ATOM      4  O   UNL     1      -0.506   3.417   0.089  1.00  0.00    -0.252 OA
BRANCH   3   5
ATOM      5  C   UNL     1      -0.236   1.043   0.119  1.00  0.00     0.123 C 
ATOM      6  C   UNL     1       1.772  -0.188   1.226  1.00  0.00     0.032 C 
ATOM      7  C   UNL     1       0.752  -0.136   0.086  1.00  0.00     0.096 C 
ATOM      8  N   UNL     1      -0.166  -1.289   0.188  1.00  0.00    -0.337 N 
ATOM      9  C   UNL     1      -1.313   0.571   1.091  1.00  0.00     0.039 C 
ATOM     10  C   UNL     1      -1.468  -0.890   0.702  1.00  0.00     0.121 C 
BRANCH   8  11
ATOM     11  C   UNL     1       0.030  -2.579  -0.262  1.00  0.00     0.248 C 
ATOM     12  O   UNL     1      -0.856  -3.432  -0.161  1.00  0.00    -0.272 OA
BRANCH  11  13
ATOM     13  C   UNL     1       1.383  -2.932  -0.902  1.00  0.00     0.260 C 
BRANCH  13  14
ATOM     14  O   UNL     1       1.639  -2.446  -2.210  1.00  0.00    -0.367 OA
BRANCH  14  15
ATOM     15  C   UNL     1       0.712  -2.906  -3.198  1.00  0.00     0.196 C 
BRANCH  15  16
ATOM     16  C   UNL     1       0.726  -4.405  -3.373  1.00  0.00    -0.022 A 
ATOM     17  C   UNL     1      -0.472  -5.131  -3.324  1.00  0.00     0.006 A 
ATOM     18  C   UNL     1       1.931  -5.094  -3.570  1.00  0.00     0.006 A 
ATOM     19  C   UNL     1      -0.462  -6.521  -3.444  1.00  0.00     0.000 A 
ATOM     20  C   UNL     1       1.940  -6.486  -3.682  1.00  0.00     0.000 A 
ATOM     21  C   UNL     1       0.744  -7.198  -3.616  1.00  0.00     0.000 A 
ENDBRANCH  15  16
ENDBRANCH  14  15
ENDBRANCH  13  14
ENDBRANCH  11  13
ENDBRANCH   8  11
ENDBRANCH   3   5
ENDBRANCH   2   3
ENDBRANCH   1   2
BRANCH   1  22
ATOM     22  C   UNL     1       3.081   4.107   0.059  1.00  0.00     0.275 C 
BRANCH  22  23
ATOM     23  O   UNL     1       2.561   4.207  -1.280  1.00  0.00    -0.458 OA
BRANCH  23  24
ATOM     24  C   UNL     1       2.422   3.029  -1.933  1.00  0.00     0.338 C 
ATOM     25  O   UNL     1       2.708   1.920  -1.512  1.00  0.00    -0.246 OA
BRANCH  24  26
ATOM     26  C   UNL     1       1.717   3.241  -3.208  1.00  0.00     0.060 A 
ATOM     27  C   UNL     1       0.527   2.539  -3.418  1.00  0.00     0.016 A 
ATOM     28  C   UNL     1       2.244   4.056  -4.209  1.00  0.00     0.016 A 
ATOM     29  C   UNL     1      -0.145   2.645  -4.631  1.00  0.00     0.010 A 
ATOM     30  C   UNL     1       1.568   4.162  -5.430  1.00  0.00     0.010 A 
ATOM     31  C   UNL     1       0.376   3.450  -5.650  1.00  0.00    -0.014 A 
BRANCH  31  32
ATOM     32  C   UNL     1      -0.318   3.513  -6.957  1.00  0.00     0.031 A 
ATOM     33  C   UNL     1       0.261   2.802  -8.147  1.00  0.00     0.074 A 
ATOM     34  C   UNL     1      -1.471   4.198  -7.067  1.00  0.00     0.049 A 
ATOM     35  N   UNL     1      -0.163   2.784  -9.383  1.00  0.00    -0.248 NA
ATOM     36  C   UNL     1       1.478   2.006  -7.916  1.00  0.00     0.031 C 
ATOM     37  C   UNL     1      -2.135   4.910  -5.973  1.00  0.00     0.029 A 
ATOM     38  N   UNL     1      -2.280   4.421  -8.152  1.00  0.00    -0.354 N 
ATOM     39  C   UNL     1       0.748   2.007 -10.086  1.00  0.00     0.074 A 
ATOM     40  C   UNL     1       1.753   1.572  -9.139  1.00  0.00     0.031 C 
ATOM     41  C   UNL     1      -3.245   5.500  -6.446  1.00  0.00     0.029 A 
ATOM     42  C   UNL     1      -3.350   5.240  -7.879  1.00  0.00     0.049 A 
ATOM     43  H   UNL     1      -2.111   4.032  -9.040  1.00  0.00     0.167 HD
ATOM     44  C   UNL     1       0.739   1.673 -11.398  1.00  0.00     0.034 A 
ATOM     45  C   UNL     1      -4.296   5.741  -8.697  1.00  0.00     0.034 A 
ATOM     46  C   UNL     1      -0.281   2.081 -12.327  1.00  0.00     0.049 A 
ATOM     47  C   UNL     1      -4.269   5.370 -10.155  1.00  0.00     0.074 A 
ATOM     48  C   UNL     1      -0.390   1.777 -13.673  1.00  0.00     0.029 A 
ATOM     49  N   UNL     1      -1.369   2.878 -12.008  1.00  0.00    -0.354 N 
ATOM     50  N   UNL     1      -3.446   4.567 -10.787  1.00  0.00    -0.248 NA
ATOM     51  C   UNL     1      -5.313   5.953 -11.010  1.00  0.00     0.031 C 
ATOM     52  C   UNL     1      -1.541   2.399 -14.169  1.00  0.00     0.029 A 
ATOM     53  C   UNL     1      -2.154   3.080 -13.130  1.00  0.00     0.049 A 
ATOM     54  H   UNL     1      -1.555   3.247 -11.114  1.00  0.00     0.167 HD
ATOM     55  C   UNL     1      -3.889   4.527 -12.104  1.00  0.00     0.074 A 
ATOM     56  C   UNL     1      -5.067   5.367 -12.174  1.00  0.00     0.031 C 
ATOM     57  C   UNL     1      -3.357   3.872 -13.165  1.00  0.00     0.034 A 
BRANCH  44  58
ATOM     58  C   UNL     1       1.850   0.793 -11.902  1.00  0.00     0.023 A 
ATOM     59  C   UNL     1       1.832  -0.584 -11.603  1.00  0.00     0.012 A 
ATOM     60  C   UNL     1       2.878   1.311 -12.714  1.00  0.00     0.148 A 
ATOM     61  C   UNL     1       2.831  -1.429 -12.084  1.00  0.00     0.002 A 
ATOM     62  C   UNL     1       3.852   0.457 -13.220  1.00  0.00     0.091 A 
ATOM     63  F   UNL     1       2.892   2.628 -12.966  1.00  0.00    -0.205 F 
ATOM     64  C   UNL     1       3.834  -0.911 -12.900  1.00  0.00     0.022 A 
BRANCH  62  65
ATOM     65  S   UNL     1       5.146   1.020 -14.331  1.00  0.00     0.127 S 
ATOM     66  O   UNL     1       6.315   1.009 -13.452  1.00  0.00    -0.237 OA
ATOM     67  O   UNL     1       5.148  -0.022 -15.359  1.00  0.00    -0.237 OA
ATOM     68  O   UNL     1       4.727   2.332 -14.801  1.00  0.00    -0.744 OA
ENDBRANCH  62  65
ENDBRANCH  44  58
BRANCH  45  69
ATOM     69  C   UNL     1      -5.370   6.616  -8.148  1.00  0.00     0.023 A 
ATOM     70  C   UNL     1      -6.692   6.136  -8.095  1.00  0.00     0.012 A 
ATOM     71  C   UNL     1      -5.087   7.904  -7.654  1.00  0.00     0.148 A 
ATOM     72  C   UNL     1      -7.718   6.932  -7.582  1.00  0.00     0.002 A 
ATOM     73  C   UNL     1      -6.103   8.671  -7.094  1.00  0.00     0.091 A 
ATOM     74  F   UNL     1      -3.827   8.356  -7.735  1.00  0.00    -0.205 F 
ATOM     75  C   UNL     1      -7.421   8.193  -7.071  1.00  0.00     0.022 A 
BRANCH  73  76
ATOM     76  S   UNL     1      -5.775  10.247  -6.296  1.00  0.00     0.127 S 
ATOM     77  O   UNL     1      -6.204  11.196  -7.319  1.00  0.00    -0.237 OA
ATOM     78  O   UNL     1      -6.638  10.181  -5.116  1.00  0.00    -0.237 OA
ATOM     79  O   UNL     1      -4.350  10.235  -5.992  1.00  0.00    -0.744 OA
ENDBRANCH  73  76
ENDBRANCH  45  69
BRANCH  57  80
ATOM     80  C   UNL     1      -4.056   4.013 -14.491  1.00  0.00     0.023 A 
ATOM     81  C   UNL     1      -3.926   5.212 -15.219  1.00  0.00     0.012 A 
ATOM     82  C   UNL     1      -4.775   2.938 -15.048  1.00  0.00     0.148 A 
ATOM     83  C   UNL     1      -4.524   5.348 -16.471  1.00  0.00     0.002 A 
ATOM     84  C   UNL     1      -5.332   3.066 -16.315  1.00  0.00     0.091 A 
ATOM     85  F   UNL     1      -4.905   1.813 -14.329  1.00  0.00    -0.205 F 
ATOM     86  C   UNL     1      -5.216   4.272 -17.024  1.00  0.00     0.022 A 
BRANCH  84  87
ATOM     87  S   UNL     1      -6.164   1.702 -17.137  1.00  0.00     0.127 S 
ATOM     88  O   UNL     1      -7.569   2.071 -16.982  1.00  0.00    -0.237 OA
ATOM     89  O   UNL     1      -5.654   1.803 -18.506  1.00  0.00    -0.237 OA
ATOM     90  O   UNL     1      -5.747   0.498 -16.430  1.00  0.00    -0.744 OA
ENDBRANCH  84  87
ENDBRANCH  57  80
ENDBRANCH  31  32
ENDBRANCH  24  26
ENDBRANCH  23  24
ENDBRANCH  22  23
ENDBRANCH   1  22
TORSDOF 19
