REMARK SMILES Cc1cc(C)c2c(O[C@@H](C)C(=O)OCCOC(=O)c3ccc(-c4c5nc(c(-c6cccc(S(=O)(=O)[O-])c6F)c6ccc([nH]6)c(-c6cccc(S(=O)(=O)[O-])c6F)c6nc(c(-c7cccc(S(=O)(=O)[O-])c7F)c7ccc4[nH]7)C=C6)C=C5)cc3)nsc2n1
REMARK SMILES IDX 15 1 14 2 13 3 11 4 12 5 9 6 10 7 8 8 7 9 1 10 2 11 3 12
REMARK SMILES IDX 85 13 4 14 84 15 5 16 6 17 83 18 82 19 16 20 17 21 18 22
REMARK SMILES IDX 19 23 20 24 81 25 21 26 80 27 22 28 23 29 24 30 74 31 25 32
REMARK SMILES IDX 79 33 73 34 75 35 26 36 78 37 72 38 71 39 27 41 59 42 39 43
REMARK SMILES IDX 58 44 40 45 43 46 57 47 76 48 41 49 42 50 56 52 77 53 44 54
REMARK SMILES IDX 28 55 29 56 37 57 30 58 32 59 38 60 31 61 33 62 34 63 35 64
REMARK SMILES IDX 36 65 60 66 61 67 69 68 62 69 64 70 70 71 63 72 65 73 66 74
REMARK SMILES IDX 67 75 68 76 45 77 46 78 54 79 47 80 49 81 55 82 48 83 50 84
REMARK SMILES IDX 51 85 52 86 53 87
REMARK H PARENT 75 40 43 51
REMARK Flexibility Score: inf
ROOT
ATOM      1  C   UNL     1      -4.072  -0.201  -2.976  1.00  0.00     0.275 C 
ENDROOT
BRANCH   1   2
ATOM      2  C   UNL     1      -2.876  -1.119  -3.127  1.00  0.00     0.274 C 
BRANCH   2   3
ATOM      3  O   UNL     1      -2.000  -0.584  -4.134  1.00  0.00    -0.459 OA
BRANCH   3   4
ATOM      4  C   UNL     1      -1.892  -1.205  -5.335  1.00  0.00     0.347 C 
ATOM      5  O   UNL     1      -2.445  -2.265  -5.612  1.00  0.00    -0.248 OA
BRANCH   4   6
ATOM      6  C   UNL     1      -0.974  -0.430  -6.319  1.00  0.00     0.281 C 
ATOM      7  C   UNL     1       0.008  -1.365  -7.035  1.00  0.00     0.066 C 
BRANCH   6   8
ATOM      8  O   UNL     1      -0.228   0.743  -6.134  1.00  0.00    -0.462 OA
BRANCH   8   9
ATOM      9  C   UNL     1       0.050   1.232  -4.909  1.00  0.00     0.236 A 
ATOM     10  C   UNL     1       1.249   0.300   0.560  1.00  0.00     0.067 C 
ATOM     11  C   UNL     1       0.955   0.405  -0.905  1.00  0.00     0.039 A 
ATOM     12  C   UNL     1       0.873  -0.743  -1.673  1.00  0.00     0.027 A 
ATOM     13  N   UNL     1       0.850   1.638  -1.410  1.00  0.00    -0.240 NA
ATOM     14  C   UNL     1       0.656  -0.680  -3.067  1.00  0.00    -0.034 A 
ATOM     15  C   UNL     1       0.578   1.686  -2.727  1.00  0.00     0.147 A 
ATOM     16  C   UNL     1       0.617  -2.029  -3.742  1.00  0.00     0.045 C 
ATOM     17  C   UNL     1       0.432   0.623  -3.632  1.00  0.00     0.078 A 
ATOM     18  S   UNL     1       0.389   3.184  -3.503  1.00  0.00    -0.012 S 
ATOM     19  N   UNL     1       0.085   2.562  -4.987  1.00  0.00    -0.153 NA
ENDBRANCH   8   9
ENDBRANCH   6   8
ENDBRANCH   4   6
ENDBRANCH   3   4
ENDBRANCH   2   3
ENDBRANCH   1   2
BRANCH   1  20
ATOM     20  O   UNL     1      -4.889  -0.324  -4.132  1.00  0.00    -0.458 OA
BRANCH  20  21
ATOM     21  C   UNL     1      -4.522   0.453  -5.175  1.00  0.00     0.338 C 
ATOM     22  O   UNL     1      -3.528   1.144  -5.282  1.00  0.00    -0.246 OA
BRANCH  21  23
ATOM     23  C   UNL     1      -5.606   0.472  -6.147  1.00  0.00     0.060 A 
ATOM     24  C   UNL     1      -5.371   1.183  -7.327  1.00  0.00     0.016 A 
ATOM     25  C   UNL     1      -6.885   0.070  -5.740  1.00  0.00     0.016 A 
ATOM     26  C   UNL     1      -6.457   1.671  -8.008  1.00  0.00     0.010 A 
ATOM     27  C   UNL     1      -7.965   0.581  -6.403  1.00  0.00     0.010 A 
ATOM     28  C   UNL     1      -7.728   1.431  -7.478  1.00  0.00    -0.014 A 
BRANCH  28  29
ATOM     29  C   UNL     1      -8.852   2.042  -8.135  1.00  0.00     0.031 A 
ATOM     30  C   UNL     1      -9.244   1.340  -9.370  1.00  0.00     0.074 A 
ATOM     31  C   UNL     1      -9.520   3.064  -7.577  1.00  0.00     0.049 A 
ATOM     32  N   UNL     1      -9.168   1.776 -10.582  1.00  0.00    -0.248 NA
ATOM     33  C   UNL     1      -9.587  -0.086  -9.255  1.00  0.00     0.031 C 
ATOM     34  C   UNL     1      -9.390   3.585  -6.212  1.00  0.00     0.029 A 
ATOM     35  N   UNL     1     -10.581   3.746  -8.076  1.00  0.00    -0.354 N 
ATOM     36  C   UNL     1      -9.681   0.746 -11.362  1.00  0.00     0.074 A 
ATOM     37  C   UNL     1      -9.702  -0.429 -10.536  1.00  0.00     0.031 C 
ATOM     38  C   UNL     1     -10.492   4.310  -5.917  1.00  0.00     0.029 A 
ATOM     39  C   UNL     1     -11.322   4.405  -7.106  1.00  0.00     0.049 A 
ATOM     40  H   UNL     1     -10.803   3.771  -9.035  1.00  0.00     0.167 HD
ATOM     41  C   UNL     1     -10.312   1.003 -12.537  1.00  0.00     0.034 A 
ATOM     42  C   UNL     1     -12.575   4.889  -7.271  1.00  0.00     0.034 A 
ATOM     43  C   UNL     1     -10.016   2.328 -13.016  1.00  0.00     0.049 A 
ATOM     44  C   UNL     1     -12.809   5.011  -8.731  1.00  0.00     0.074 A 
ATOM     45  C   UNL     1      -8.870   2.999 -13.387  1.00  0.00     0.029 A 
ATOM     46  N   UNL     1     -10.976   3.286 -12.800  1.00  0.00    -0.354 N 
ATOM     47  N   UNL     1     -12.184   5.856  -9.503  1.00  0.00    -0.248 NA
ATOM     48  C   UNL     1     -13.482   3.920  -9.419  1.00  0.00     0.031 C 
ATOM     49  C   UNL     1      -9.080   4.349 -12.984  1.00  0.00     0.029 A 
ATOM     50  C   UNL     1     -10.352   4.442 -12.415  1.00  0.00     0.049 A 
ATOM     51  H   UNL     1     -11.947   3.162 -12.905  1.00  0.00     0.167 HD
ATOM     52  C   UNL     1     -12.014   5.175 -10.702  1.00  0.00     0.074 A 
ATOM     53  C   UNL     1     -12.954   4.061 -10.638  1.00  0.00     0.031 C 
ATOM     54  C   UNL     1     -10.925   5.406 -11.495  1.00  0.00     0.034 A 
BRANCH  41  55
ATOM     55  C   UNL     1     -11.482   0.207 -13.060  1.00  0.00     0.023 A 
ATOM     56  C   UNL     1     -11.926   0.502 -14.366  1.00  0.00     0.012 A 
ATOM     57  C   UNL     1     -12.318  -0.619 -12.271  1.00  0.00     0.148 A 
ATOM     58  C   UNL     1     -13.153   0.034 -14.846  1.00  0.00     0.002 A 
ATOM     59  C   UNL     1     -13.488  -1.163 -12.787  1.00  0.00     0.091 A 
ATOM     60  F   UNL     1     -12.077  -0.779 -10.967  1.00  0.00    -0.205 F 
ATOM     61  C   UNL     1     -13.928  -0.812 -14.062  1.00  0.00     0.022 A 
BRANCH  59  62
ATOM     62  S   UNL     1     -14.475  -2.323 -11.834  1.00  0.00     0.127 S 
ATOM     63  O   UNL     1     -15.583  -1.480 -11.398  1.00  0.00    -0.237 OA
ATOM     64  O   UNL     1     -14.818  -3.325 -12.844  1.00  0.00    -0.237 OA
ATOM     65  O   UNL     1     -13.588  -2.818 -10.787  1.00  0.00    -0.744 OA
ENDBRANCH  59  62
ENDBRANCH  41  55
BRANCH  42  66
ATOM     66  C   UNL     1     -13.684   4.995  -6.297  1.00  0.00     0.023 A 
ATOM     67  C   UNL     1     -14.770   5.842  -6.596  1.00  0.00     0.012 A 
ATOM     68  C   UNL     1     -13.830   4.070  -5.239  1.00  0.00     0.148 A 
ATOM     69  C   UNL     1     -15.979   5.737  -5.902  1.00  0.00     0.002 A 
ATOM     70  C   UNL     1     -15.033   3.975  -4.545  1.00  0.00     0.091 A 
ATOM     71  F   UNL     1     -12.831   3.217  -4.978  1.00  0.00    -0.205 F 
ATOM     72  C   UNL     1     -16.115   4.797  -4.885  1.00  0.00     0.022 A 
BRANCH  70  73
ATOM     73  S   UNL     1     -15.292   2.765  -3.240  1.00  0.00     0.127 S 
ATOM     74  O   UNL     1     -15.952   3.566  -2.207  1.00  0.00    -0.237 OA
ATOM     75  O   UNL     1     -16.154   1.789  -3.901  1.00  0.00    -0.237 OA
ATOM     76  O   UNL     1     -13.964   2.292  -2.869  1.00  0.00    -0.744 OA
ENDBRANCH  70  73
ENDBRANCH  42  66
BRANCH  54  77
ATOM     77  C   UNL     1     -10.077   6.622 -11.202  1.00  0.00     0.023 A 
ATOM     78  C   UNL     1      -9.381   6.776  -9.984  1.00  0.00     0.012 A 
ATOM     79  C   UNL     1      -9.821   7.529 -12.246  1.00  0.00     0.148 A 
ATOM     80  C   UNL     1      -8.466   7.817  -9.806  1.00  0.00     0.002 A 
ATOM     81  C   UNL     1      -8.870   8.529 -12.085  1.00  0.00     0.091 A 
ATOM     82  F   UNL     1     -10.489   7.373 -13.400  1.00  0.00    -0.205 F 
ATOM     83  C   UNL     1      -8.198   8.684 -10.863  1.00  0.00     0.022 A 
BRANCH  81  84
ATOM     84  S   UNL     1      -8.370   9.578 -13.454  1.00  0.00     0.127 S 
ATOM     85  O   UNL     1      -9.048  10.834 -13.141  1.00  0.00    -0.237 OA
ATOM     86  O   UNL     1      -6.914   9.616 -13.308  1.00  0.00    -0.237 OA
ATOM     87  O   UNL     1      -8.826   8.900 -14.662  1.00  0.00    -0.744 OA
ENDBRANCH  81  84
ENDBRANCH  54  77
ENDBRANCH  28  29
ENDBRANCH  21  23
ENDBRANCH  20  21
ENDBRANCH   1  20
TORSDOF 16
