REMARK SMILES COC[C@@H](C)Nc1cnn(-c2ccccc2C(=O)OCCOC(=O)c2ccc(-c3c4nc(c(-c5cccc(S(=O)(=O)[O-])c5F)c5ccc([nH]5)c(-c5cccc(S(=O)(=O)[O-])c5F)c5nc(c(-c6cccc(S(=O)(=O)[O-])c6F)c6ccc3[nH]6)C=C5)C=C4)cc2)c(=O)c1Cl
REMARK SMILES IDX 20 1 19 2 17 3 18 4 16 5 11 6 12 7 13 8 15 9 14 10 10 11
REMARK SMILES IDX 7 12 8 13 90 14 9 15 88 16 91 17 89 18 6 19 4 21 5 22 3 23
REMARK SMILES IDX 2 24 1 25 21 26 22 27 23 28 24 29 25 30 26 31 87 32 27 33
REMARK SMILES IDX 86 34 28 35 29 36 30 37 80 38 31 39 85 40 79 41 81 42 32 43
REMARK SMILES IDX 84 44 78 45 77 46 33 48 65 49 45 50 64 51 46 52 49 53 63 54
REMARK SMILES IDX 82 55 47 56 48 57 62 59 83 60 50 61 34 62 35 63 43 64 36 65
REMARK SMILES IDX 38 66 44 67 37 68 39 69 40 70 41 71 42 72 66 73 67 74 75 75
REMARK SMILES IDX 68 76 70 77 76 78 69 79 71 80 72 81 73 82 74 83 51 84 52 85
REMARK SMILES IDX 60 86 53 87 55 88 61 89 54 90 56 91 57 92 58 93 59 94
REMARK H PARENT 6 20 81 47 49 58
REMARK Flexibility Score: inf
ROOT
ATOM      1  C   UNL     1      -2.114  -6.781  -3.765  1.00  0.00     0.275 C 
ENDROOT
BRANCH   1   2
ATOM      2  O   UNL     1      -2.384  -6.100  -5.006  1.00  0.00    -0.458 OA
BRANCH   2   3
ATOM      3  C   UNL     1      -2.145  -6.783  -6.157  1.00  0.00     0.340 C 
ATOM      4  O   UNL     1      -1.823  -7.958  -6.232  1.00  0.00    -0.246 OA
BRANCH   3   5
ATOM      5  C   UNL     1      -2.486  -5.961  -7.353  1.00  0.00     0.085 A 
ATOM      6  C   UNL     1      -2.254  -4.577  -7.454  1.00  0.00     0.083 A 
ATOM      7  C   UNL     1      -2.784  -3.889  -8.564  1.00  0.00     0.029 A 
ATOM      8  C   UNL     1      -3.535  -4.546  -9.540  1.00  0.00     0.002 A 
ATOM      9  C   UNL     1      -3.188  -6.624  -8.379  1.00  0.00     0.018 A 
ATOM     10  C   UNL     1      -3.737  -5.916  -9.448  1.00  0.00     0.001 A 
BRANCH   6  11
ATOM     11  N   UNL     1      -1.494  -3.854  -6.489  1.00  0.00    -0.195 N 
ATOM     12  C   UNL     1      -0.005  -2.667  -4.401  1.00  0.00     0.079 A 
ATOM     13  C   UNL     1       0.300  -3.944  -5.106  1.00  0.00     0.161 A 
ATOM     14  C   UNL     1      -1.065  -2.026  -4.925  1.00  0.00     0.132 A 
ATOM     15  N   UNL     1      -0.371  -4.506  -6.051  1.00  0.00    -0.171 NA
ATOM     16  C   UNL     1      -1.875  -2.587  -6.050  1.00  0.00     0.292 A 
ATOM     17  Cl  UNL     1      -1.613  -0.471  -4.370  1.00  0.00    -0.076 Cl
ATOM     18  O   UNL     1      -2.833  -1.947  -6.486  1.00  0.00    -0.266 OA
BRANCH  12  19
ATOM     19  N   UNL     1       0.846  -2.352  -3.348  1.00  0.00    -0.378 N 
ATOM     20  H   UNL     1       1.700  -2.841  -3.326  1.00  0.00     0.161 HD
BRANCH  19  21
ATOM     21  C   UNL     1       0.636  -1.386  -2.268  1.00  0.00     0.102 C 
ATOM     22  C   UNL     1       1.305  -0.069  -2.666  1.00  0.00     0.033 C 
BRANCH  21  23
ATOM     23  C   UNL     1       1.200  -1.963  -0.946  1.00  0.00     0.184 C 
BRANCH  23  24
ATOM     24  O   UNL     1       0.620  -1.420   0.241  1.00  0.00    -0.383 OA
ATOM     25  C   UNL     1       1.011  -0.089   0.534  1.00  0.00     0.194 C 
ENDBRANCH  23  24
ENDBRANCH  21  23
ENDBRANCH  19  21
ENDBRANCH  12  19
ENDBRANCH   6  11
ENDBRANCH   3   5
ENDBRANCH   2   3
ENDBRANCH   1   2
BRANCH   1  26
ATOM     26  C   UNL     1      -3.334  -6.718  -2.846  1.00  0.00     0.275 C 
BRANCH  26  27
ATOM     27  O   UNL     1      -4.392  -7.534  -3.373  1.00  0.00    -0.458 OA
BRANCH  27  28
ATOM     28  C   UNL     1      -5.269  -6.885  -4.173  1.00  0.00     0.338 C 
ATOM     29  O   UNL     1      -5.342  -5.685  -4.385  1.00  0.00    -0.246 OA
BRANCH  28  30
ATOM     30  C   UNL     1      -6.042  -7.896  -4.902  1.00  0.00     0.060 A 
ATOM     31  C   UNL     1      -7.122  -8.553  -4.322  1.00  0.00     0.016 A 
ATOM     32  C   UNL     1      -5.663  -8.174  -6.213  1.00  0.00     0.016 A 
ATOM     33  C   UNL     1      -7.797  -9.527  -5.064  1.00  0.00     0.010 A 
ATOM     34  C   UNL     1      -6.363  -9.108  -6.967  1.00  0.00     0.010 A 
ATOM     35  C   UNL     1      -7.422  -9.818  -6.392  1.00  0.00    -0.014 A 
BRANCH  35  36
ATOM     36  C   UNL     1      -8.135 -10.854  -7.184  1.00  0.00     0.031 A 
ATOM     37  C   UNL     1      -7.410 -12.077  -7.688  1.00  0.00     0.074 A 
ATOM     38  C   UNL     1      -9.435 -10.673  -7.489  1.00  0.00     0.049 A 
ATOM     39  N   UNL     1      -7.883 -13.086  -8.375  1.00  0.00    -0.248 NA
ATOM     40  C   UNL     1      -5.967 -12.176  -7.407  1.00  0.00     0.031 C 
ATOM     41  C   UNL     1     -10.226  -9.490  -7.144  1.00  0.00     0.029 A 
ATOM     42  N   UNL     1     -10.320 -11.479  -8.159  1.00  0.00    -0.354 N 
ATOM     43  C   UNL     1      -6.799 -13.917  -8.632  1.00  0.00     0.074 A 
ATOM     44  C   UNL     1      -5.634 -13.283  -8.058  1.00  0.00     0.031 C 
ATOM     45  C   UNL     1     -11.487  -9.665  -7.568  1.00  0.00     0.029 A 
ATOM     46  C   UNL     1     -11.589 -10.956  -8.240  1.00  0.00     0.049 A 
ATOM     47  H   UNL     1     -10.070 -12.350  -8.546  1.00  0.00     0.167 HD
ATOM     48  C   UNL     1      -6.779 -15.119  -9.254  1.00  0.00     0.034 A 
ATOM     49  C   UNL     1     -12.712 -11.460  -8.787  1.00  0.00     0.034 A 
ATOM     50  C   UNL     1      -7.947 -15.781  -9.768  1.00  0.00     0.049 A 
ATOM     51  C   UNL     1     -12.676 -12.818  -9.424  1.00  0.00     0.074 A 
ATOM     52  C   UNL     1      -8.040 -17.044 -10.327  1.00  0.00     0.029 A 
ATOM     53  N   UNL     1      -9.221 -15.239  -9.787  1.00  0.00    -0.354 N 
ATOM     54  N   UNL     1     -11.668 -13.648  -9.531  1.00  0.00    -0.248 NA
ATOM     55  C   UNL     1     -13.934 -13.321  -9.995  1.00  0.00     0.031 C 
ATOM     56  C   UNL     1      -9.370 -17.260 -10.697  1.00  0.00     0.029 A 
ATOM     57  C   UNL     1     -10.107 -16.137 -10.355  1.00  0.00     0.049 A 
ATOM     58  H   UNL     1      -9.461 -14.347  -9.447  1.00  0.00     0.167 HD
ATOM     59  C   UNL     1     -12.168 -14.774 -10.173  1.00  0.00     0.074 A 
ATOM     60  C   UNL     1     -13.577 -14.532 -10.406  1.00  0.00     0.031 C 
ATOM     61  C   UNL     1     -11.512 -15.897 -10.553  1.00  0.00     0.034 A 
BRANCH  48  62
ATOM     62  C   UNL     1      -5.467 -15.851  -9.346  1.00  0.00     0.023 A 
ATOM     63  C   UNL     1      -4.962 -16.496  -8.199  1.00  0.00     0.012 A 
ATOM     64  C   UNL     1      -4.797 -15.997 -10.577  1.00  0.00     0.148 A 
ATOM     65  C   UNL     1      -3.802 -17.266  -8.271  1.00  0.00     0.002 A 
ATOM     66  C   UNL     1      -3.659 -16.793 -10.648  1.00  0.00     0.091 A 
ATOM     67  F   UNL     1      -5.294 -15.369 -11.652  1.00  0.00    -0.205 F 
ATOM     68  C   UNL     1      -3.159 -17.423  -9.496  1.00  0.00     0.022 A 
BRANCH  66  69
ATOM     69  S   UNL     1      -2.780 -17.108 -12.182  1.00  0.00     0.127 S 
ATOM     70  O   UNL     1      -1.473 -16.515 -11.902  1.00  0.00    -0.237 OA
ATOM     71  O   UNL     1      -2.786 -18.570 -12.242  1.00  0.00    -0.237 OA
ATOM     72  O   UNL     1      -3.544 -16.447 -13.231  1.00  0.00    -0.744 OA
ENDBRANCH  66  69
ENDBRANCH  48  62
BRANCH  49  73
ATOM     73  C   UNL     1     -13.981 -10.691  -8.677  1.00  0.00     0.023 A 
ATOM     74  C   UNL     1     -14.950 -11.095  -7.739  1.00  0.00     0.012 A 
ATOM     75  C   UNL     1     -14.195  -9.524  -9.435  1.00  0.00     0.148 A 
ATOM     76  C   UNL     1     -16.116 -10.351  -7.561  1.00  0.00     0.002 A 
ATOM     77  C   UNL     1     -15.341  -8.767  -9.226  1.00  0.00     0.091 A 
ATOM     78  F   UNL     1     -13.255  -9.163 -10.319  1.00  0.00    -0.205 F 
ATOM     79  C   UNL     1     -16.307  -9.183  -8.295  1.00  0.00     0.022 A 
BRANCH  77  80
ATOM     80  S   UNL     1     -15.636  -7.201 -10.054  1.00  0.00     0.127 S 
ATOM     81  O   UNL     1     -16.848  -7.490 -10.816  1.00  0.00    -0.237 OA
ATOM     82  O   UNL     1     -15.822  -6.296  -8.919  1.00  0.00    -0.237 OA
ATOM     83  O   UNL     1     -14.445  -6.941 -10.850  1.00  0.00    -0.744 OA
ENDBRANCH  77  80
ENDBRANCH  49  73
BRANCH  61  84
ATOM     84  C   UNL     1     -12.296 -16.958 -11.274  1.00  0.00     0.023 A 
ATOM     85  C   UNL     1     -12.615 -16.772 -12.633  1.00  0.00     0.012 A 
ATOM     86  C   UNL     1     -12.617 -18.175 -10.643  1.00  0.00     0.148 A 
ATOM     87  C   UNL     1     -13.257 -17.778 -13.352  1.00  0.00     0.002 A 
ATOM     88  C   UNL     1     -13.227 -19.187 -11.375  1.00  0.00     0.091 A 
ATOM     89  F   UNL     1     -12.306 -18.324  -9.347  1.00  0.00    -0.205 F 
ATOM     90  C   UNL     1     -13.552 -18.988 -12.727  1.00  0.00     0.022 A 
BRANCH  88  91
ATOM     91  S   UNL     1     -13.588 -20.803 -10.680  1.00  0.00     0.127 S 
ATOM     92  O   UNL     1     -15.050 -20.802 -10.669  1.00  0.00    -0.237 OA
ATOM     93  O   UNL     1     -12.986 -21.704 -11.663  1.00  0.00    -0.237 OA
ATOM     94  O   UNL     1     -12.959 -20.829  -9.366  1.00  0.00    -0.744 OA
ENDBRANCH  88  91
ENDBRANCH  61  84
ENDBRANCH  35  36
ENDBRANCH  28  30
ENDBRANCH  27  28
ENDBRANCH  26  27
ENDBRANCH   1  26
TORSDOF 19
