REMARK SMILES O=C(Cc1ccn(-c2ccccc2F)c1)OCCOC(=O)c1ccc(-c2c3nc(c(-c4cccc(S(=O)(=O)[O-])c4F)c4ccc([nH]4)c(-c4cccc(S(=O)(=O)[O-])c4F)c4nc(c(-c5cccc(S(=O)(=O)[O-])c5F)c5ccc2[nH]5)C=C4)C=C3)cc1
REMARK SMILES IDX 18 1 17 2 16 3 2 4 1 5 3 6 4 7 5 8 15 9 6 10 7 11 8 12 9 13
REMARK SMILES IDX 13 14 10 15 12 16 14 17 11 18 19 19 20 20 21 21 22 22 23 23
REMARK SMILES IDX 84 24 24 25 83 26 25 27 26 28 27 29 77 30 28 31 82 32 76 33
REMARK SMILES IDX 78 34 29 35 81 36 75 37 74 38 30 40 62 41 42 42 61 43 43 44
REMARK SMILES IDX 46 45 60 46 79 47 44 48 45 49 59 51 80 52 47 53 31 54 32 55
REMARK SMILES IDX 40 56 33 57 35 58 41 59 34 60 36 61 37 62 38 63 39 64 63 65
REMARK SMILES IDX 64 66 72 67 65 68 67 69 73 70 66 71 68 72 69 73 70 74 71 75
REMARK SMILES IDX 48 76 49 77 57 78 50 79 52 80 58 81 51 82 53 83 54 84 55 85
REMARK SMILES IDX 56 86
REMARK H PARENT 78 39 46 50
REMARK Flexibility Score: inf
ROOT
ATOM      1  C   UNL     1       4.637  -0.213  -1.852  1.00  0.00     0.275 C 
ENDROOT
BRANCH   1   2
ATOM      2  C   UNL     1       4.295  -1.037  -0.626  1.00  0.00     0.274 C 
BRANCH   2   3
ATOM      3  O   UNL     1       2.867  -1.133  -0.394  1.00  0.00    -0.462 OA
BRANCH   3   4
ATOM      4  C   UNL     1       2.094  -0.338   0.393  1.00  0.00     0.310 C 
ATOM      5  O   UNL     1       0.882  -0.557   0.467  1.00  0.00    -0.252 OA
BRANCH   4   6
ATOM      6  C   UNL     1       2.722   0.774   1.219  1.00  0.00     0.159 C 
BRANCH   6   7
ATOM      7  C   UNL     1       3.645   0.290   2.278  1.00  0.00    -0.019 A 
ATOM      8  C   UNL     1       4.520   1.060   3.095  1.00  0.00     0.024 A 
ATOM      9  C   UNL     1       3.841  -1.024   2.636  1.00  0.00     0.095 A 
ATOM     10  C   UNL     1       5.195   0.184   3.924  1.00  0.00     0.091 A 
ATOM     11  N   UNL     1       4.830  -1.091   3.575  1.00  0.00    -0.321 N 
BRANCH  11  12
ATOM     12  C   UNL     1       5.231  -2.304   4.138  1.00  0.00     0.081 A 
ATOM     13  C   UNL     1       4.891  -2.571   5.463  1.00  0.00     0.030 A 
ATOM     14  C   UNL     1       5.701  -3.311   3.294  1.00  0.00     0.147 A 
ATOM     15  C   UNL     1       4.994  -3.883   5.923  1.00  0.00     0.002 A 
ATOM     16  C   UNL     1       5.843  -4.606   3.768  1.00  0.00     0.041 A 
ATOM     17  F   UNL     1       6.013  -3.051   2.014  1.00  0.00    -0.205 F 
ATOM     18  C   UNL     1       5.469  -4.896   5.081  1.00  0.00     0.003 A 
ENDBRANCH  11  12
ENDBRANCH   6   7
ENDBRANCH   4   6
ENDBRANCH   3   4
ENDBRANCH   2   3
ENDBRANCH   1   2
BRANCH   1  19
ATOM     19  O   UNL     1       4.321   1.143  -1.594  1.00  0.00    -0.458 OA
BRANCH  19  20
ATOM     20  C   UNL     1       3.060   1.496  -1.931  1.00  0.00     0.338 C 
ATOM     21  O   UNL     1       2.162   0.775  -2.307  1.00  0.00    -0.246 OA
BRANCH  20  22
ATOM     22  C   UNL     1       2.956   2.948  -1.846  1.00  0.00     0.060 A 
ATOM     23  C   UNL     1       1.680   3.495  -2.003  1.00  0.00     0.016 A 
ATOM     24  C   UNL     1       4.130   3.693  -1.969  1.00  0.00     0.016 A 
ATOM     25  C   UNL     1       1.589   4.762  -2.525  1.00  0.00     0.010 A 
ATOM     26  C   UNL     1       4.038   4.914  -2.570  1.00  0.00     0.010 A 
ATOM     27  C   UNL     1       2.774   5.414  -2.879  1.00  0.00    -0.014 A 
BRANCH  27  28
ATOM     28  C   UNL     1       2.688   6.743  -3.465  1.00  0.00     0.031 A 
ATOM     29  C   UNL     1       2.654   7.776  -2.302  1.00  0.00     0.074 A 
ATOM     30  C   UNL     1       2.611   6.735  -4.840  1.00  0.00     0.049 A 
ATOM     31  N   UNL     1       2.049   8.918  -2.226  1.00  0.00    -0.248 NA
ATOM     32  C   UNL     1       3.274   7.446  -0.975  1.00  0.00     0.031 C 
ATOM     33  C   UNL     1       2.730   5.535  -5.723  1.00  0.00     0.029 A 
ATOM     34  N   UNL     1       2.427   7.708  -5.794  1.00  0.00    -0.354 N 
ATOM     35  C   UNL     1       2.452   9.537  -1.014  1.00  0.00     0.074 A 
ATOM     36  C   UNL     1       3.061   8.526  -0.219  1.00  0.00     0.031 C 
ATOM     37  C   UNL     1       2.492   5.845  -7.022  1.00  0.00     0.029 A 
ATOM     38  C   UNL     1       2.235   7.267  -7.137  1.00  0.00     0.049 A 
ATOM     39  H   UNL     1       2.427   8.664  -5.561  1.00  0.00     0.167 HD
ATOM     40  C   UNL     1       2.404  10.890  -0.832  1.00  0.00     0.034 A 
ATOM     41  C   UNL     1       1.849   8.017  -8.225  1.00  0.00     0.034 A 
ATOM     42  C   UNL     1       1.915  11.487  -2.032  1.00  0.00     0.049 A 
ATOM     43  C   UNL     1       1.896   9.398  -7.726  1.00  0.00     0.074 A 
ATOM     44  C   UNL     1       0.663  11.488  -2.590  1.00  0.00     0.029 A 
ATOM     45  N   UNL     1       2.868  11.719  -2.999  1.00  0.00    -0.354 N 
ATOM     46  N   UNL     1       2.992  10.033  -7.428  1.00  0.00    -0.248 NA
ATOM     47  C   UNL     1       0.634  10.049  -7.362  1.00  0.00     0.031 C 
ATOM     48  C   UNL     1       0.943  11.189  -3.937  1.00  0.00     0.029 A 
ATOM     49  C   UNL     1       2.309  11.363  -4.198  1.00  0.00     0.049 A 
ATOM     50  H   UNL     1       3.775  12.072  -2.857  1.00  0.00     0.167 HD
ATOM     51  C   UNL     1       2.543  10.950  -6.513  1.00  0.00     0.074 A 
ATOM     52  C   UNL     1       1.128  11.134  -6.775  1.00  0.00     0.031 C 
ATOM     53  C   UNL     1       3.175  11.081  -5.314  1.00  0.00     0.034 A 
BRANCH  40  54
ATOM     54  C   UNL     1       2.948  11.847   0.195  1.00  0.00     0.023 A 
ATOM     55  C   UNL     1       2.326  13.129   0.201  1.00  0.00     0.012 A 
ATOM     56  C   UNL     1       4.163  11.712   0.886  1.00  0.00     0.148 A 
ATOM     57  C   UNL     1       2.938  14.256   0.740  1.00  0.00     0.002 A 
ATOM     58  C   UNL     1       4.751  12.840   1.471  1.00  0.00     0.091 A 
ATOM     59  F   UNL     1       4.776  10.524   0.906  1.00  0.00    -0.205 F 
ATOM     60  C   UNL     1       4.162  14.112   1.362  1.00  0.00     0.022 A 
BRANCH  58  61
ATOM     61  S   UNL     1       6.302  12.794   2.378  1.00  0.00     0.127 S 
ATOM     62  O   UNL     1       7.189  13.557   1.502  1.00  0.00    -0.237 OA
ATOM     63  O   UNL     1       5.939  13.483   3.619  1.00  0.00    -0.237 OA
ATOM     64  O   UNL     1       6.623  11.385   2.549  1.00  0.00    -0.744 OA
ENDBRANCH  58  61
ENDBRANCH  40  54
BRANCH  41  65
ATOM     65  C   UNL     1       1.289   7.833  -9.630  1.00  0.00     0.023 A 
ATOM     66  C   UNL     1       1.239   6.619 -10.326  1.00  0.00     0.012 A 
ATOM     67  C   UNL     1       0.627   8.934 -10.273  1.00  0.00     0.148 A 
ATOM     68  C   UNL     1       0.484   6.490 -11.518  1.00  0.00     0.002 A 
ATOM     69  C   UNL     1      -0.233   8.771 -11.354  1.00  0.00     0.091 A 
ATOM     70  F   UNL     1       0.855  10.183  -9.851  1.00  0.00    -0.205 F 
ATOM     71  C   UNL     1      -0.298   7.543 -11.998  1.00  0.00     0.022 A 
BRANCH  69  72
ATOM     72  S   UNL     1      -1.408  10.057 -11.844  1.00  0.00     0.127 S 
ATOM     73  O   UNL     1      -1.177  10.164 -13.283  1.00  0.00    -0.237 OA
ATOM     74  O   UNL     1      -2.683   9.443 -11.471  1.00  0.00    -0.237 OA
ATOM     75  O   UNL     1      -1.062  11.244 -11.074  1.00  0.00    -0.744 OA
ENDBRANCH  69  72
ENDBRANCH  41  65
BRANCH  53  76
ATOM     76  C   UNL     1       4.652  10.661  -5.275  1.00  0.00     0.023 A 
ATOM     77  C   UNL     1       5.506  11.297  -6.199  1.00  0.00     0.012 A 
ATOM     78  C   UNL     1       5.242   9.655  -4.462  1.00  0.00     0.148 A 
ATOM     79  C   UNL     1       6.858  10.961  -6.323  1.00  0.00     0.002 A 
ATOM     80  C   UNL     1       6.595   9.301  -4.601  1.00  0.00     0.091 A 
ATOM     81  F   UNL     1       4.493   9.048  -3.546  1.00  0.00    -0.205 F 
ATOM     82  C   UNL     1       7.403   9.964  -5.528  1.00  0.00     0.022 A 
BRANCH  80  83
ATOM     83  S   UNL     1       7.404   7.967  -3.685  1.00  0.00     0.127 S 
ATOM     84  O   UNL     1       8.029   7.180  -4.752  1.00  0.00    -0.237 OA
ATOM     85  O   UNL     1       8.353   8.693  -2.846  1.00  0.00    -0.237 OA
ATOM     86  O   UNL     1       6.349   7.263  -2.970  1.00  0.00    -0.744 OA
ENDBRANCH  80  83
ENDBRANCH  53  76
ENDBRANCH  27  28
ENDBRANCH  20  22
ENDBRANCH  19  20
ENDBRANCH   1  19
TORSDOF 16
