REMARK SMILES Cc1nn(-c2cccc(C(F)(F)F)c2)c(C)c1CC(=O)OCCOC(=O)c1ccc(-c2c3nc(c(-c4cccc(S(=O)(=O)[O-])c4F)c4ccc([nH]4)c(-c4cccc(S(=O)(=O)[O-])c4F)c4nc(c(-c5cccc(S(=O)(=O)[O-])c5F)c5ccc2[nH]5)C=C4)C=C3)cc1
REMARK SMILES IDX 22 1 21 2 19 3 20 4 18 5 17 6 1 7 2 8 3 9 4 10 15 11 16 12
REMARK SMILES IDX 5 13 6 14 14 15 7 16 9 17 8 18 10 19 11 20 12 21 13 22 23 23
REMARK SMILES IDX 24 24 25 25 26 26 27 27 28 28 89 29 29 30 88 31 30 32 31 33
REMARK SMILES IDX 32 34 82 35 33 36 87 37 81 38 83 39 34 40 86 41 80 42 79 43
REMARK SMILES IDX 35 45 67 46 47 47 66 48 48 49 51 50 65 51 84 52 49 53 50 54
REMARK SMILES IDX 64 56 85 57 52 58 36 59 37 60 45 61 38 62 40 63 46 64 39 65
REMARK SMILES IDX 41 66 42 67 43 68 44 69 68 70 69 71 77 72 70 73 72 74 78 75
REMARK SMILES IDX 71 76 73 77 74 78 75 79 76 80 53 81 54 82 62 83 55 84 57 85
REMARK SMILES IDX 63 86 56 87 58 88 59 89 60 90 61 91
REMARK H PARENT 83 44 51 55
REMARK Flexibility Score: inf
ROOT
ATOM      1  C   UNL     1       5.040   2.665  -0.620  1.00  0.00     0.274 C 
ENDROOT
BRANCH   1   2
ATOM      2  O   UNL     1       3.639   2.321  -0.495  1.00  0.00    -0.462 OA
BRANCH   2   3
ATOM      3  C   UNL     1       3.025   2.707   0.656  1.00  0.00     0.310 C 
ATOM      4  O   UNL     1       3.624   3.201   1.613  1.00  0.00    -0.252 OA
BRANCH   3   5
ATOM      5  C   UNL     1       1.541   2.399   0.739  1.00  0.00     0.162 C 
BRANCH   5   6
ATOM      6  C   UNL     1       0.763   2.288  -0.537  1.00  0.00     0.007 A 
ATOM      7  C   UNL     1       0.761  -0.294  -0.875  1.00  0.00     0.069 C 
ATOM      8  C   UNL     1       0.427   1.102  -1.251  1.00  0.00     0.064 A 
ATOM      9  N   UNL     1      -0.347   1.346  -2.318  1.00  0.00    -0.173 NA
ATOM     10  N   UNL     1      -0.414   2.693  -2.367  1.00  0.00    -0.238 N 
ATOM     11  C   UNL     1       0.038   3.268  -1.198  1.00  0.00     0.045 A 
ATOM     12  C   UNL     1      -0.312   4.668  -0.849  1.00  0.00     0.067 C 
BRANCH  10  13
ATOM     13  C   UNL     1      -1.015   3.390  -3.435  1.00  0.00     0.065 A 
ATOM     14  C   UNL     1      -2.398   3.325  -3.607  1.00  0.00     0.028 A 
ATOM     15  C   UNL     1      -0.233   4.293  -4.170  1.00  0.00     0.041 A 
ATOM     16  C   UNL     1      -3.008   4.209  -4.498  1.00  0.00     0.003 A 
ATOM     17  C   UNL     1      -0.839   5.148  -5.103  1.00  0.00     0.058 A 
ATOM     18  C   UNL     1      -2.237   5.112  -5.240  1.00  0.00     0.013 A 
BRANCH  17  19
ATOM     19  C   UNL     1      -0.018   6.093  -5.949  1.00  0.00     0.416 C 
ATOM     20  F   UNL     1      -0.119   5.804  -7.278  1.00  0.00    -0.166 F 
ATOM     21  F   UNL     1      -0.397   7.390  -5.817  1.00  0.00    -0.166 F 
ATOM     22  F   UNL     1       1.315   6.053  -5.668  1.00  0.00    -0.166 F 
ENDBRANCH  17  19
ENDBRANCH  10  13
ENDBRANCH   5   6
ENDBRANCH   3   5
ENDBRANCH   2   3
ENDBRANCH   1   2
BRANCH   1  23
ATOM     23  C   UNL     1       5.294   3.967  -1.391  1.00  0.00     0.275 C 
BRANCH  23  24
ATOM     24  O   UNL     1       4.957   5.145  -0.644  1.00  0.00    -0.458 OA
BRANCH  24  25
ATOM     25  C   UNL     1       3.650   5.447  -0.740  1.00  0.00     0.338 C 
ATOM     26  O   UNL     1       2.779   4.737  -1.232  1.00  0.00    -0.246 OA
BRANCH  25  27
ATOM     27  C   UNL     1       3.331   6.825  -0.373  1.00  0.00     0.060 A 
ATOM     28  C   UNL     1       2.011   7.029   0.037  1.00  0.00     0.016 A 
ATOM     29  C   UNL     1       4.078   7.842  -0.964  1.00  0.00     0.016 A 
ATOM     30  C   UNL     1       1.333   8.130  -0.440  1.00  0.00     0.010 A 
ATOM     31  C   UNL     1       3.415   8.989  -1.364  1.00  0.00     0.010 A 
ATOM     32  C   UNL     1       2.022   9.060  -1.223  1.00  0.00    -0.014 A 
BRANCH  32  33
ATOM     33  C   UNL     1       1.238  10.114  -1.867  1.00  0.00     0.031 A 
ATOM     34  C   UNL     1       0.466  10.998  -0.947  1.00  0.00     0.074 A 
ATOM     35  C   UNL     1       1.333  10.372  -3.188  1.00  0.00     0.049 A 
ATOM     36  N   UNL     1      -0.763  11.400  -1.042  1.00  0.00    -0.248 NA
ATOM     37  C   UNL     1       1.147  11.418   0.288  1.00  0.00     0.031 C 
ATOM     38  C   UNL     1       2.251   9.749  -4.149  1.00  0.00     0.029 A 
ATOM     39  N   UNL     1       0.781  11.398  -3.903  1.00  0.00    -0.354 N 
ATOM     40  C   UNL     1      -0.949  12.272   0.031  1.00  0.00     0.074 A 
ATOM     41  C   UNL     1       0.203  12.139   0.884  1.00  0.00     0.031 C 
ATOM     42  C   UNL     1       2.439  10.600  -5.179  1.00  0.00     0.029 A 
ATOM     43  C   UNL     1       1.559  11.741  -5.003  1.00  0.00     0.049 A 
ATOM     44  H   UNL     1      -0.066  11.841  -3.667  1.00  0.00     0.167 HD
ATOM     45  C   UNL     1      -1.941  13.199   0.079  1.00  0.00     0.034 A 
ATOM     46  C   UNL     1       1.582  12.935  -5.639  1.00  0.00     0.034 A 
ATOM     47  C   UNL     1      -3.002  12.944  -0.847  1.00  0.00     0.049 A 
ATOM     48  C   UNL     1       0.352  13.675  -5.285  1.00  0.00     0.074 A 
ATOM     49  C   UNL     1      -3.927  11.937  -1.030  1.00  0.00     0.029 A 
ATOM     50  N   UNL     1      -3.064  13.726  -1.972  1.00  0.00    -0.354 N 
ATOM     51  N   UNL     1      -0.846  13.339  -5.674  1.00  0.00    -0.248 NA
ATOM     52  C   UNL     1       0.409  14.630  -4.190  1.00  0.00     0.031 C 
ATOM     53  C   UNL     1      -4.182  11.914  -2.431  1.00  0.00     0.029 A 
ATOM     54  C   UNL     1      -3.383  12.899  -3.015  1.00  0.00     0.049 A 
ATOM     55  H   UNL     1      -2.909  14.697  -2.020  1.00  0.00     0.167 HD
ATOM     56  C   UNL     1      -1.672  13.706  -4.621  1.00  0.00     0.074 A 
ATOM     57  C   UNL     1      -0.870  14.616  -3.811  1.00  0.00     0.031 C 
ATOM     58  C   UNL     1      -2.816  13.012  -4.343  1.00  0.00     0.034 A 
BRANCH  45  59
ATOM     59  C   UNL     1      -1.821  14.512   0.803  1.00  0.00     0.023 A 
ATOM     60  C   UNL     1      -2.999  15.235   1.084  1.00  0.00     0.012 A 
ATOM     61  C   UNL     1      -0.591  15.175   1.013  1.00  0.00     0.148 A 
ATOM     62  C   UNL     1      -2.952  16.554   1.548  1.00  0.00     0.002 A 
ATOM     63  C   UNL     1      -0.549  16.451   1.562  1.00  0.00     0.091 A 
ATOM     64  F   UNL     1       0.549  14.630   0.569  1.00  0.00    -0.205 F 
ATOM     65  C   UNL     1      -1.726  17.157   1.808  1.00  0.00     0.022 A 
BRANCH  63  66
ATOM     66  S   UNL     1       1.027  17.194   1.994  1.00  0.00     0.127 S 
ATOM     67  O   UNL     1       1.376  17.895   0.763  1.00  0.00    -0.237 OA
ATOM     68  O   UNL     1       0.669  18.059   3.119  1.00  0.00    -0.237 OA
ATOM     69  O   UNL     1       1.868  16.061   2.365  1.00  0.00    -0.744 OA
ENDBRANCH  63  66
ENDBRANCH  45  59
BRANCH  46  70
ATOM     70  C   UNL     1       2.723  13.575  -6.331  1.00  0.00     0.023 A 
ATOM     71  C   UNL     1       2.482  14.517  -7.348  1.00  0.00     0.012 A 
ATOM     72  C   UNL     1       4.048  13.426  -5.860  1.00  0.00     0.148 A 
ATOM     73  C   UNL     1       3.526  15.283  -7.880  1.00  0.00     0.002 A 
ATOM     74  C   UNL     1       5.087  14.170  -6.410  1.00  0.00     0.091 A 
ATOM     75  F   UNL     1       4.279  12.622  -4.812  1.00  0.00    -0.205 F 
ATOM     76  C   UNL     1       4.827  15.108  -7.416  1.00  0.00     0.022 A 
BRANCH  74  77
ATOM     77  S   UNL     1       6.789  13.970  -5.865  1.00  0.00     0.127 S 
ATOM     78  O   UNL     1       7.525  14.013  -7.130  1.00  0.00    -0.237 OA
ATOM     79  O   UNL     1       6.974  15.138  -5.010  1.00  0.00    -0.237 OA
ATOM     80  O   UNL     1       6.835  12.675  -5.197  1.00  0.00    -0.744 OA
ENDBRANCH  74  77
ENDBRANCH  46  70
BRANCH  58  81
ATOM     81  C   UNL     1      -3.314  12.008  -5.354  1.00  0.00     0.023 A 
ATOM     82  C   UNL     1      -2.540  10.883  -5.706  1.00  0.00     0.012 A 
ATOM     83  C   UNL     1      -4.653  12.068  -5.781  1.00  0.00     0.148 A 
ATOM     84  C   UNL     1      -3.075   9.854  -6.483  1.00  0.00     0.002 A 
ATOM     85  C   UNL     1      -5.199  11.017  -6.511  1.00  0.00     0.091 A 
ATOM     86  F   UNL     1      -5.387  13.136  -5.431  1.00  0.00    -0.205 F 
ATOM     87  C   UNL     1      -4.410   9.913  -6.873  1.00  0.00     0.022 A 
BRANCH  85  88
ATOM     88  S   UNL     1      -6.950  10.953  -6.907  1.00  0.00     0.127 S 
ATOM     89  O   UNL     1      -6.963  11.346  -8.314  1.00  0.00    -0.237 OA
ATOM     90  O   UNL     1      -7.279   9.546  -6.662  1.00  0.00    -0.237 OA
ATOM     91  O   UNL     1      -7.599  11.879  -5.986  1.00  0.00    -0.744 OA
ENDBRANCH  85  88
ENDBRANCH  58  81
ENDBRANCH  32  33
ENDBRANCH  25  27
ENDBRANCH  24  25
ENDBRANCH  23  24
ENDBRANCH   1  23
TORSDOF 17
