REMARK SMILES CCCCCCNC(=O)Oc1cccc(-c2ccc([C@@H](C)C(=O)OCCOC(=O)c3ccc(-c4c5nc(c(-c6cccc(S(=O)(=O)[O-])c6F)c6ccc([nH]6)c(-c6cccc(S(=O)(=O)[O-])c6F)c6nc(c(-c7cccc(S(=O)(=O)[O-])c7F)c7ccc4[nH]7)C=C6)C=C5)cc3)cc2F)c1
REMARK SMILES IDX 20 1 21 2 19 3 16 4 17 5 94 6 18 7 93 8 95 9 15 10 11 11
REMARK SMILES IDX 12 12 96 13 13 14 14 15 10 16 8 17 7 18 9 20 6 21 5 22 4 23
REMARK SMILES IDX 3 24 2 25 1 26 22 27 23 28 24 29 25 30 26 31 27 32 28 33
REMARK SMILES IDX 29 34 30 35 31 36 92 37 32 38 91 39 33 40 34 41 35 42 85 43
REMARK SMILES IDX 36 44 90 45 84 46 86 47 37 48 89 49 83 50 82 51 38 53 70 54
REMARK SMILES IDX 50 55 69 56 51 57 54 58 68 59 87 60 52 61 53 62 67 64 88 65
REMARK SMILES IDX 55 66 39 67 40 68 48 69 41 70 43 71 49 72 42 73 44 74 45 75
REMARK SMILES IDX 46 76 47 77 71 78 72 79 80 80 73 81 75 82 81 83 74 84 76 85
REMARK SMILES IDX 77 86 78 87 79 88 56 89 57 90 65 91 58 92 60 93 66 94 59 95
REMARK SMILES IDX 61 96 62 97 63 98 64 99
REMARK H PARENT 7 19 86 52 54 63
REMARK Flexibility Score: inf
ROOT
ATOM      1  C   UNL     1      -5.345 -12.503   5.964  1.00  0.00     0.126 C 
ATOM      2  C   UNL     1      -6.697 -13.214   6.007  1.00  0.00     0.025 C 
ENDROOT
BRANCH   1   3
ATOM      3  C   UNL     1      -5.217 -11.583   4.758  1.00  0.00    -0.031 A 
ATOM      4  C   UNL     1      -5.083  -9.797   2.538  1.00  0.00     0.018 A 
ATOM      5  C   UNL     1      -5.285 -11.176   2.357  1.00  0.00     0.012 A 
ATOM      6  C   UNL     1      -4.914  -9.344   3.852  1.00  0.00     0.131 A 
ATOM      7  C   UNL     1      -5.356 -12.053   3.446  1.00  0.00     0.005 A 
ATOM      8  C   UNL     1      -4.986 -10.211   4.943  1.00  0.00     0.044 A 
ATOM      9  F   UNL     1      -4.729  -8.037   4.100  1.00  0.00    -0.206 F 
BRANCH   4  10
ATOM     10  C   UNL     1      -5.113  -8.872   1.391  1.00  0.00    -0.012 A 
ATOM     11  C   UNL     1      -4.196  -7.036   0.097  1.00  0.00     0.133 A 
ATOM     12  C   UNL     1      -5.276  -7.074  -0.782  1.00  0.00     0.047 A 
ATOM     13  C   UNL     1      -4.110  -7.911   1.183  1.00  0.00     0.056 A 
ATOM     14  C   UNL     1      -6.275  -8.021  -0.590  1.00  0.00     0.004 A 
ATOM     15  C   UNL     1      -6.193  -8.909   0.485  1.00  0.00     0.009 A 
BRANCH  11  16
ATOM     16  O   UNL     1      -3.274  -5.993  -0.084  1.00  0.00    -0.410 OA
BRANCH  16  17
ATOM     17  C   UNL     1      -1.943  -6.335  -0.267  1.00  0.00     0.412 C 
ATOM     18  N   UNL     1      -1.131  -5.247  -0.447  1.00  0.00    -0.321 N 
ATOM     19  H   UNL     1      -0.168  -5.427  -0.543  1.00  0.00     0.167 HD
ATOM     20  O   UNL     1      -1.488  -7.472  -0.305  1.00  0.00    -0.224 OA
BRANCH  18  21
ATOM     21  C   UNL     1      -1.540  -3.858  -0.511  1.00  0.00     0.119 C 
BRANCH  21  22
ATOM     22  C   UNL     1      -0.914  -3.012   0.597  1.00  0.00     0.021 C 
BRANCH  22  23
ATOM     23  C   UNL     1       0.615  -2.902   0.542  1.00  0.00     0.002 C 
BRANCH  23  24
ATOM     24  C   UNL     1       1.195  -2.323  -0.753  1.00  0.00    -0.000 C 
BRANCH  24  25
ATOM     25  C   UNL     1       0.709  -0.921  -1.127  1.00  0.00    -0.003 C 
ATOM     26  C   UNL     1       1.087   0.141  -0.105  1.00  0.00     0.004 C 
ENDBRANCH  24  25
ENDBRANCH  23  24
ENDBRANCH  22  23
ENDBRANCH  21  22
ENDBRANCH  18  21
ENDBRANCH  16  17
ENDBRANCH  11  16
ENDBRANCH   4  10
ENDBRANCH   1   3
BRANCH   1  27
ATOM     27  C   UNL     1      -4.225 -13.517   6.170  1.00  0.00     0.313 C 
ATOM     28  O   UNL     1      -3.967 -13.982   7.276  1.00  0.00    -0.252 OA
BRANCH  27  29
ATOM     29  O   UNL     1      -3.598 -13.888   5.023  1.00  0.00    -0.462 OA
BRANCH  29  30
ATOM     30  C   UNL     1      -2.495 -14.806   5.157  1.00  0.00     0.274 C 
BRANCH  30  31
ATOM     31  C   UNL     1      -1.151 -14.085   5.021  1.00  0.00     0.275 C 
BRANCH  31  32
ATOM     32  O   UNL     1      -0.915 -13.201   6.132  1.00  0.00    -0.458 OA
BRANCH  32  33
ATOM     33  C   UNL     1      -1.264 -11.912   5.912  1.00  0.00     0.338 C 
ATOM     34  O   UNL     1      -1.703 -11.435   4.879  1.00  0.00    -0.246 OA
BRANCH  33  35
ATOM     35  C   UNL     1      -1.178 -11.144   7.161  1.00  0.00     0.060 A 
ATOM     36  C   UNL     1      -2.370 -10.671   7.711  1.00  0.00     0.016 A 
ATOM     37  C   UNL     1       0.049 -10.785   7.719  1.00  0.00     0.016 A 
ATOM     38  C   UNL     1      -2.349  -9.799   8.792  1.00  0.00     0.010 A 
ATOM     39  C   UNL     1       0.070  -9.922   8.823  1.00  0.00     0.010 A 
ATOM     40  C   UNL     1      -1.127  -9.399   9.346  1.00  0.00    -0.014 A 
BRANCH  40  41
ATOM     41  C   UNL     1      -1.125  -8.385  10.429  1.00  0.00     0.031 A 
ATOM     42  C   UNL     1      -0.645  -6.987  10.149  1.00  0.00     0.074 A 
ATOM     43  C   UNL     1      -1.579  -8.711  11.655  1.00  0.00     0.049 A 
ATOM     44  N   UNL     1      -0.567  -5.965  10.961  1.00  0.00    -0.248 NA
ATOM     45  C   UNL     1      -0.190  -6.699   8.778  1.00  0.00     0.031 C 
ATOM     46  C   UNL     1      -2.062 -10.035  12.050  1.00  0.00     0.029 A 
ATOM     47  N   UNL     1      -1.695  -7.958  12.796  1.00  0.00    -0.354 N 
ATOM     48  C   UNL     1      -0.009  -4.931  10.220  1.00  0.00     0.074 A 
ATOM     49  C   UNL     1       0.228  -5.445   8.889  1.00  0.00     0.031 C 
ATOM     50  C   UNL     1      -2.407 -10.005  13.348  1.00  0.00     0.029 A 
ATOM     51  C   UNL     1      -2.146  -8.671  13.882  1.00  0.00     0.049 A 
ATOM     52  H   UNL     1      -1.475  -6.999  12.834  1.00  0.00     0.167 HD
ATOM     53  C   UNL     1       0.267  -3.664  10.610  1.00  0.00     0.034 A 
ATOM     54  C   UNL     1      -2.312  -8.297  15.166  1.00  0.00     0.034 A 
ATOM     55  C   UNL     1      -0.032  -3.134  11.913  1.00  0.00     0.049 A 
ATOM     56  C   UNL     1      -2.027  -6.872  15.558  1.00  0.00     0.074 A 
ATOM     57  C   UNL     1       0.130  -1.838  12.370  1.00  0.00     0.029 A 
ATOM     58  N   UNL     1      -0.550  -3.869  12.967  1.00  0.00    -0.354 N 
ATOM     59  N   UNL     1      -1.637  -5.871  14.805  1.00  0.00    -0.248 NA
ATOM     60  C   UNL     1      -2.236  -6.514  16.969  1.00  0.00     0.031 C 
ATOM     61  C   UNL     1      -0.273  -1.793  13.708  1.00  0.00     0.029 A 
ATOM     62  C   UNL     1      -0.699  -3.058  14.079  1.00  0.00     0.049 A 
ATOM     63  H   UNL     1      -0.778  -4.826  12.931  1.00  0.00     0.167 HD
ATOM     64  C   UNL     1      -1.577  -4.764  15.644  1.00  0.00     0.074 A 
ATOM     65  C   UNL     1      -2.003  -5.208  16.955  1.00  0.00     0.031 C 
ATOM     66  C   UNL     1      -1.182  -3.498  15.361  1.00  0.00     0.034 A 
BRANCH  53  67
ATOM     67  C   UNL     1       0.897  -2.736   9.608  1.00  0.00     0.023 A 
ATOM     68  C   UNL     1       0.106  -2.163   8.593  1.00  0.00     0.012 A 
ATOM     69  C   UNL     1       2.249  -2.357   9.732  1.00  0.00     0.148 A 
ATOM     70  C   UNL     1       0.654  -1.237   7.707  1.00  0.00     0.002 A 
ATOM     71  C   UNL     1       2.779  -1.407   8.868  1.00  0.00     0.091 A 
ATOM     72  F   UNL     1       2.987  -2.930  10.694  1.00  0.00    -0.205 F 
ATOM     73  C   UNL     1       1.985  -0.851   7.851  1.00  0.00     0.022 A 
BRANCH  71  74
ATOM     74  S   UNL     1       4.459  -0.789   9.014  1.00  0.00     0.127 S 
ATOM     75  O   UNL     1       5.079  -1.333   7.806  1.00  0.00    -0.237 OA
ATOM     76  O   UNL     1       4.257   0.660   8.995  1.00  0.00    -0.237 OA
ATOM     77  O   UNL     1       4.976  -1.316  10.270  1.00  0.00    -0.744 OA
ENDBRANCH  71  74
ENDBRANCH  53  67
BRANCH  54  78
ATOM     78  C   UNL     1      -2.800  -9.281  16.174  1.00  0.00     0.023 A 
ATOM     79  C   UNL     1      -4.080  -9.125  16.739  1.00  0.00     0.012 A 
ATOM     80  C   UNL     1      -2.005 -10.375  16.570  1.00  0.00     0.148 A 
ATOM     81  C   UNL     1      -4.545 -10.020  17.703  1.00  0.00     0.002 A 
ATOM     82  C   UNL     1      -2.498 -11.294  17.488  1.00  0.00     0.091 A 
ATOM     83  F   UNL     1      -0.777 -10.496  16.044  1.00  0.00    -0.205 F 
ATOM     84  C   UNL     1      -3.760 -11.110  18.070  1.00  0.00     0.022 A 
BRANCH  82  85
ATOM     85  S   UNL     1      -1.593 -12.791  17.898  1.00  0.00     0.127 S 
ATOM     86  O   UNL     1      -0.929 -12.412  19.141  1.00  0.00    -0.237 OA
ATOM     87  O   UNL     1      -2.668 -13.774  18.049  1.00  0.00    -0.237 OA
ATOM     88  O   UNL     1      -0.726 -13.035  16.752  1.00  0.00    -0.744 OA
ENDBRANCH  82  85
ENDBRANCH  54  78
BRANCH  66  89
ATOM     89  C   UNL     1      -1.205  -2.492  16.481  1.00  0.00     0.023 A 
ATOM     90  C   UNL     1      -0.222  -2.553  17.488  1.00  0.00     0.012 A 
ATOM     91  C   UNL     1      -2.147  -1.445  16.496  1.00  0.00     0.148 A 
ATOM     92  C   UNL     1      -0.193  -1.604  18.509  1.00  0.00     0.002 A 
ATOM     93  C   UNL     1      -2.084  -0.477  17.491  1.00  0.00     0.091 A 
ATOM     94  F   UNL     1      -3.088  -1.415  15.540  1.00  0.00    -0.205 F 
ATOM     95  C   UNL     1      -1.115  -0.560  18.504  1.00  0.00     0.022 A 
BRANCH  93  96
ATOM     96  S   UNL     1      -3.174   0.952  17.506  1.00  0.00     0.127 S 
ATOM     97  O   UNL     1      -4.141   0.580  18.537  1.00  0.00    -0.237 OA
ATOM     98  O   UNL     1      -2.267   2.037  17.883  1.00  0.00    -0.237 OA
ATOM     99  O   UNL     1      -3.705   1.058  16.153  1.00  0.00    -0.744 OA
ENDBRANCH  93  96
ENDBRANCH  66  89
ENDBRANCH  40  41
ENDBRANCH  33  35
ENDBRANCH  32  33
ENDBRANCH  31  32
ENDBRANCH  30  31
ENDBRANCH  29  30
ENDBRANCH  27  29
ENDBRANCH   1  27
TORSDOF 23
