REMARK SMILES CC(C)N1C[C@@H](C(=O)N2CCC(C(=O)OCCOC(=O)c3ccc(-c4c5nc(c(-c6cccc(S(=O)(=O)[O-])c6F)c6ccc([nH]6)c(-c6cccc(S(=O)(=O)[O-])c6F)c6nc(c(-c7cccc(S(=O)(=O)[O-])c7F)c7ccc4[nH]7)C=C6)C=C5)cc3)CC2)CC1=O
REMARK SMILES IDX 17 1 16 2 15 3 13 4 14 5 12 6 7 7 8 8 9 9 10 10 85 11 11 12
REMARK SMILES IDX 84 13 6 14 4 15 5 16 87 17 86 18 88 19 2 20 1 21 3 22 18 23
REMARK SMILES IDX 19 24 20 25 21 26 22 27 83 28 23 29 82 30 24 31 25 32 26 33
REMARK SMILES IDX 76 34 27 35 81 36 75 37 77 38 28 39 80 40 74 41 73 42 29 44
REMARK SMILES IDX 61 45 41 46 60 47 42 48 45 49 59 50 78 51 43 52 44 53 58 55
REMARK SMILES IDX 79 56 46 57 30 58 31 59 39 60 32 61 34 62 40 63 33 64 35 65
REMARK SMILES IDX 36 66 37 67 38 68 62 69 63 70 71 71 64 72 66 73 72 74 65 75
REMARK SMILES IDX 67 76 68 77 69 78 70 79 47 80 48 81 56 82 49 83 51 84 57 85
REMARK SMILES IDX 50 86 52 87 53 88 54 89 55 90
REMARK H PARENT 77 43 45 54
REMARK Flexibility Score: inf
ROOT
ATOM      1  C   UNL     1      -9.872  -4.239   6.533  1.00  0.00     0.275 C 
ENDROOT
BRANCH   1   2
ATOM      2  C   UNL     1      -9.755  -2.938   5.734  1.00  0.00     0.274 C 
BRANCH   2   3
ATOM      3  O   UNL     1      -8.470  -2.838   5.092  1.00  0.00    -0.462 OA
BRANCH   3   4
ATOM      4  C   UNL     1      -7.571  -2.010   5.680  1.00  0.00     0.309 C 
ATOM      5  O   UNL     1      -7.808  -1.289   6.642  1.00  0.00    -0.252 OA
BRANCH   4   6
ATOM      6  C   UNL     1      -6.200  -2.063   5.040  1.00  0.00     0.103 C 
ATOM      7  C   UNL     1      -4.119  -1.704   1.615  1.00  0.00     0.227 C 
ATOM      8  O   UNL     1      -4.778  -2.427   0.861  1.00  0.00    -0.274 OA
ATOM      9  N   UNL     1      -4.207  -1.845   2.987  1.00  0.00    -0.342 N 
ATOM     10  C   UNL     1      -4.551  -3.164   3.520  1.00  0.00     0.120 C 
ATOM     11  C   UNL     1      -4.388  -0.745   3.929  1.00  0.00     0.120 C 
ATOM     12  C   UNL     1      -5.984  -3.199   4.035  1.00  0.00     0.037 C 
ATOM     13  C   UNL     1      -5.839  -0.714   4.417  1.00  0.00     0.037 C 
BRANCH   7  14
ATOM     14  C   UNL     1      -3.038  -0.823   1.007  1.00  0.00     0.107 C 
ATOM     15  N   UNL     1      -0.849  -0.068   1.286  1.00  0.00    -0.339 N 
ATOM     16  C   UNL     1      -1.671  -1.222   1.537  1.00  0.00     0.133 C 
ATOM     17  C   UNL     1      -1.602   1.066   1.028  1.00  0.00     0.223 C 
ATOM     18  C   UNL     1      -3.065   0.694   1.103  1.00  0.00     0.115 C 
ATOM     19  O   UNL     1      -1.185   2.192   0.806  1.00  0.00    -0.275 OA
BRANCH  15  20
ATOM     20  C   UNL     1       0.610  -0.145   1.348  1.00  0.00     0.078 C 
ATOM     21  C   UNL     1       1.233   0.110  -0.022  1.00  0.00     0.031 C 
ATOM     22  C   UNL     1       1.191   0.784   2.411  1.00  0.00     0.031 C 
ENDBRANCH  15  20
ENDBRANCH   7  14
ENDBRANCH   4   6
ENDBRANCH   3   4
ENDBRANCH   2   3
ENDBRANCH   1   2
BRANCH   1  23
ATOM     23  O   UNL     1      -8.959  -4.267   7.646  1.00  0.00    -0.458 OA
BRANCH  23  24
ATOM     24  C   UNL     1      -7.787  -4.900   7.411  1.00  0.00     0.338 C 
ATOM     25  O   UNL     1      -7.434  -5.443   6.378  1.00  0.00    -0.246 OA
BRANCH  24  26
ATOM     26  C   UNL     1      -6.892  -4.750   8.567  1.00  0.00     0.060 A 
ATOM     27  C   UNL     1      -5.790  -3.904   8.435  1.00  0.00     0.016 A 
ATOM     28  C   UNL     1      -7.060  -5.517   9.718  1.00  0.00     0.016 A 
ATOM     29  C   UNL     1      -4.831  -3.834   9.439  1.00  0.00     0.010 A 
ATOM     30  C   UNL     1      -6.106  -5.432  10.739  1.00  0.00     0.010 A 
ATOM     31  C   UNL     1      -4.977  -4.604  10.598  1.00  0.00    -0.014 A 
BRANCH  31  32
ATOM     32  C   UNL     1      -3.922  -4.571  11.640  1.00  0.00     0.031 A 
ATOM     33  C   UNL     1      -3.047  -5.772  11.858  1.00  0.00     0.074 A 
ATOM     34  C   UNL     1      -3.751  -3.460  12.382  1.00  0.00     0.049 A 
ATOM     35  N   UNL     1      -2.140  -5.976  12.777  1.00  0.00    -0.248 NA
ATOM     36  C   UNL     1      -3.214  -6.893  10.918  1.00  0.00     0.031 C 
ATOM     37  C   UNL     1      -4.523  -2.224  12.242  1.00  0.00     0.029 A 
ATOM     38  N   UNL     1      -2.886  -3.199  13.414  1.00  0.00    -0.354 N 
ATOM     39  C   UNL     1      -1.659  -7.261  12.557  1.00  0.00     0.074 A 
ATOM     40  C   UNL     1      -2.374  -7.791  11.416  1.00  0.00     0.031 C 
ATOM     41  C   UNL     1      -4.109  -1.342  13.165  1.00  0.00     0.029 A 
ATOM     42  C   UNL     1      -3.077  -1.964  13.989  1.00  0.00     0.049 A 
ATOM     43  H   UNL     1      -2.196  -3.834  13.714  1.00  0.00     0.167 HD
ATOM     44  C   UNL     1      -0.697  -7.932  13.236  1.00  0.00     0.034 A 
ATOM     45  C   UNL     1      -2.507  -1.410  15.077  1.00  0.00     0.034 A 
ATOM     46  C   UNL     1       0.034  -7.386  14.348  1.00  0.00     0.049 A 
ATOM     47  C   UNL     1      -1.460  -2.188  15.827  1.00  0.00     0.074 A 
ATOM     48  C   UNL     1       1.038  -7.979  15.092  1.00  0.00     0.029 A 
ATOM     49  N   UNL     1      -0.156  -6.117  14.873  1.00  0.00    -0.354 N 
ATOM     50  N   UNL     1      -0.967  -3.374  15.563  1.00  0.00    -0.248 NA
ATOM     51  C   UNL     1      -0.875  -1.544  17.011  1.00  0.00     0.031 C 
ATOM     52  C   UNL     1       1.449  -7.071  16.074  1.00  0.00     0.029 A 
ATOM     53  C   UNL     1       0.711  -5.907  15.931  1.00  0.00     0.049 A 
ATOM     54  H   UNL     1      -0.812  -5.462  14.543  1.00  0.00     0.167 HD
ATOM     55  C   UNL     1       0.007  -3.605  16.528  1.00  0.00     0.074 A 
ATOM     56  C   UNL     1       0.050  -2.425  17.368  1.00  0.00     0.031 C 
ATOM     57  C   UNL     1       0.781  -4.702  16.716  1.00  0.00     0.034 A 
BRANCH  44  58
ATOM     58  C   UNL     1      -0.357  -9.323  12.772  1.00  0.00     0.023 A 
ATOM     59  C   UNL     1       0.401  -9.496  11.596  1.00  0.00     0.012 A 
ATOM     60  C   UNL     1      -0.736 -10.453  13.523  1.00  0.00     0.148 A 
ATOM     61  C   UNL     1       0.753 -10.772  11.160  1.00  0.00     0.002 A 
ATOM     62  C   UNL     1      -0.349 -11.720  13.102  1.00  0.00     0.091 A 
ATOM     63  F   UNL     1      -1.477 -10.269  14.625  1.00  0.00    -0.205 F 
ATOM     64  C   UNL     1       0.388 -11.882  11.917  1.00  0.00     0.022 A 
BRANCH  62  65
ATOM     65  S   UNL     1      -0.714 -13.206  14.044  1.00  0.00     0.127 S 
ATOM     66  O   UNL     1      -1.756 -13.825  13.227  1.00  0.00    -0.237 OA
ATOM     67  O   UNL     1       0.571 -13.907  14.027  1.00  0.00    -0.237 OA
ATOM     68  O   UNL     1      -1.137 -12.750  15.361  1.00  0.00    -0.744 OA
ENDBRANCH  62  65
ENDBRANCH  44  58
BRANCH  45  69
ATOM     69  C   UNL     1      -2.896  -0.037  15.505  1.00  0.00     0.023 A 
ATOM     70  C   UNL     1      -1.967   1.014  15.388  1.00  0.00     0.012 A 
ATOM     71  C   UNL     1      -4.183   0.239  16.007  1.00  0.00     0.148 A 
ATOM     72  C   UNL     1      -2.303   2.309  15.786  1.00  0.00     0.002 A 
ATOM     73  C   UNL     1      -4.530   1.541  16.349  1.00  0.00     0.091 A 
ATOM     74  F   UNL     1      -5.048  -0.777  16.136  1.00  0.00    -0.205 F 
ATOM     75  C   UNL     1      -3.587   2.575  16.255  1.00  0.00     0.022 A 
BRANCH  73  76
ATOM     76  S   UNL     1      -6.203   1.985  16.831  1.00  0.00     0.127 S 
ATOM     77  O   UNL     1      -6.075   2.106  18.280  1.00  0.00    -0.237 OA
ATOM     78  O   UNL     1      -6.403   3.249  16.122  1.00  0.00    -0.237 OA
ATOM     79  O   UNL     1      -7.043   0.895  16.352  1.00  0.00    -0.744 OA
ENDBRANCH  73  76
ENDBRANCH  45  69
BRANCH  57  80
ATOM     80  C   UNL     1       1.768  -4.668  17.853  1.00  0.00     0.023 A 
ATOM     81  C   UNL     1       1.309  -4.803  19.178  1.00  0.00     0.012 A 
ATOM     82  C   UNL     1       3.151  -4.574  17.605  1.00  0.00     0.148 A 
ATOM     83  C   UNL     1       2.210  -4.816  20.241  1.00  0.00     0.002 A 
ATOM     84  C   UNL     1       4.046  -4.632  18.666  1.00  0.00     0.091 A 
ATOM     85  F   UNL     1       3.565  -4.424  16.338  1.00  0.00    -0.205 F 
ATOM     86  C   UNL     1       3.578  -4.743  19.985  1.00  0.00     0.022 A 
BRANCH  84  87
ATOM     87  S   UNL     1       5.825  -4.635  18.419  1.00  0.00     0.127 S 
ATOM     88  O   UNL     1       6.183  -3.273  18.812  1.00  0.00    -0.237 OA
ATOM     89  O   UNL     1       6.269  -5.674  19.349  1.00  0.00    -0.237 OA
ATOM     90  O   UNL     1       6.032  -4.958  17.014  1.00  0.00    -0.744 OA
ENDBRANCH  84  87
ENDBRANCH  57  80
ENDBRANCH  31  32
ENDBRANCH  24  26
ENDBRANCH  23  24
ENDBRANCH   1  23
TORSDOF 16
