REMARK SMILES C[C@@H]1OCC[C@@H]1c1nnc(-c2cccc(C(=O)OCCOC(=O)c3ccc(-c4c5nc(c(-c6cccc(S(=O)(=O)[O-])c6F)c6ccc([nH]6)c(-c6cccc(S(=O)(=O)[O-])c6F)c6nc(c(-c7cccc(S(=O)(=O)[O-])c7F)c7ccc4[nH]7)C=C6)C=C5)cc3)c2)o1
REMARK SMILES IDX 20 1 19 2 18 3 16 4 17 5 15 6 11 7 12 8 87 9 13 10 14 11
REMARK SMILES IDX 10 12 7 13 8 14 88 15 9 16 6 17 1 18 2 19 3 20 4 21 5 22
REMARK SMILES IDX 21 23 22 24 23 25 24 26 25 27 86 28 26 29 85 30 27 31 28 32
REMARK SMILES IDX 29 33 79 34 30 35 84 36 78 37 80 38 31 39 83 40 77 41 76 42
REMARK SMILES IDX 32 44 64 45 44 46 63 47 45 48 48 49 62 50 81 51 46 52 47 53
REMARK SMILES IDX 61 55 82 56 49 57 33 58 34 59 42 60 35 61 37 62 43 63 36 64
REMARK SMILES IDX 38 65 39 66 40 67 41 68 65 69 66 70 74 71 67 72 69 73 75 74
REMARK SMILES IDX 68 75 70 76 71 77 72 78 73 79 50 80 51 81 59 82 52 83 54 84
REMARK SMILES IDX 60 85 53 86 55 87 56 88 57 89 58 90
REMARK H PARENT 80 43 48 54
REMARK Flexibility Score: inf
ROOT
ATOM      1  C   UNL     1       7.828   4.089  -4.149  1.00  0.00     0.275 C 
ENDROOT
BRANCH   1   2
ATOM      2  C   UNL     1       7.520   2.995  -3.126  1.00  0.00     0.275 C 
BRANCH   2   3
ATOM      3  O   UNL     1       6.433   3.391  -2.263  1.00  0.00    -0.458 OA
BRANCH   3   4
ATOM      4  C   UNL     1       6.768   3.701  -0.986  1.00  0.00     0.338 C 
ATOM      5  O   UNL     1       7.880   3.632  -0.489  1.00  0.00    -0.246 OA
BRANCH   4   6
ATOM      6  C   UNL     1       5.595   4.252  -0.261  1.00  0.00     0.060 A 
ATOM      7  C   UNL     1       3.207   4.468   0.102  1.00  0.00     0.040 A 
ATOM      8  C   UNL     1       3.444   5.461   1.060  1.00  0.00     0.014 A 
ATOM      9  C   UNL     1       4.285   3.887  -0.584  1.00  0.00     0.029 A 
ATOM     10  C   UNL     1       4.750   5.803   1.404  1.00  0.00     0.002 A 
ATOM     11  C   UNL     1       5.820   5.169   0.775  1.00  0.00     0.016 A 
BRANCH   7  12
ATOM     12  C   UNL     1       1.868   3.961  -0.093  1.00  0.00     0.247 A 
ATOM     13  C   UNL     1       0.371   2.463   0.050  1.00  0.00     0.222 A 
ATOM     14  N   UNL     1      -0.235   3.556  -0.365  1.00  0.00    -0.112 NA
ATOM     15  O   UNL     1       1.705   2.649   0.257  1.00  0.00    -0.420 OA
ATOM     16  N   UNL     1       0.739   4.538  -0.441  1.00  0.00    -0.108 NA
BRANCH  13  17
ATOM     17  C   UNL     1      -0.200   1.151   0.410  1.00  0.00     0.109 C 
ATOM     18  C   UNL     1       1.759  -0.151  -0.732  1.00  0.00     0.039 C 
ATOM     19  C   UNL     1       0.739  -0.058   0.402  1.00  0.00     0.127 C 
ATOM     20  O   UNL     1      -0.127  -1.211   0.269  1.00  0.00    -0.378 OA
ATOM     21  C   UNL     1      -1.426  -0.769  -0.149  1.00  0.00     0.161 C 
ATOM     22  C   UNL     1      -1.307   0.693  -0.514  1.00  0.00     0.044 C 
ENDBRANCH  13  17
ENDBRANCH   7  12
ENDBRANCH   4   6
ENDBRANCH   3   4
ENDBRANCH   2   3
ENDBRANCH   1   2
BRANCH   1  23
ATOM     23  O   UNL     1       8.349   5.254  -3.483  1.00  0.00    -0.458 OA
BRANCH  23  24
ATOM     24  C   UNL     1       7.568   6.357  -3.539  1.00  0.00     0.338 C 
ATOM     25  O   UNL     1       6.514   6.493  -4.136  1.00  0.00    -0.246 OA
BRANCH  24  26
ATOM     26  C   UNL     1       8.124   7.392  -2.655  1.00  0.00     0.060 A 
ATOM     27  C   UNL     1       7.753   7.359  -1.314  1.00  0.00     0.016 A 
ATOM     28  C   UNL     1       8.871   8.456  -3.152  1.00  0.00     0.016 A 
ATOM     29  C   UNL     1       8.075   8.414  -0.465  1.00  0.00     0.010 A 
ATOM     30  C   UNL     1       9.236   9.498  -2.287  1.00  0.00     0.010 A 
ATOM     31  C   UNL     1       8.807   9.507  -0.945  1.00  0.00    -0.014 A 
BRANCH  31  32
ATOM     32  C   UNL     1       9.023  10.690  -0.064  1.00  0.00     0.031 A 
ATOM     33  C   UNL     1       8.395  12.015  -0.415  1.00  0.00     0.074 A 
ATOM     34  C   UNL     1       9.742  10.578   1.071  1.00  0.00     0.049 A 
ATOM     35  N   UNL     1       8.514  13.172   0.185  1.00  0.00    -0.248 NA
ATOM     36  C   UNL     1       7.523  12.045  -1.601  1.00  0.00     0.031 C 
ATOM     37  C   UNL     1      10.395   9.356   1.542  1.00  0.00     0.029 A 
ATOM     38  N   UNL     1      10.044  11.508   2.036  1.00  0.00    -0.354 N 
ATOM     39  C   UNL     1       7.794  14.077  -0.586  1.00  0.00     0.074 A 
ATOM     40  C   UNL     1       7.235  13.335  -1.695  1.00  0.00     0.031 C 
ATOM     41  C   UNL     1      11.005   9.606   2.712  1.00  0.00     0.029 A 
ATOM     42  C   UNL     1      10.829  11.015   3.052  1.00  0.00     0.049 A 
ATOM     43  H   UNL     1       9.727  12.440   2.004  1.00  0.00     0.167 HD
ATOM     44  C   UNL     1       7.598  15.403  -0.384  1.00  0.00     0.034 A 
ATOM     45  C   UNL     1      11.362  11.629   4.128  1.00  0.00     0.034 A 
ATOM     46  C   UNL     1       8.083  16.130   0.758  1.00  0.00     0.049 A 
ATOM     47  C   UNL     1      11.091  13.092   4.353  1.00  0.00     0.074 A 
ATOM     48  C   UNL     1       7.908  17.469   1.063  1.00  0.00     0.029 A 
ATOM     49  N   UNL     1       8.820  15.579   1.794  1.00  0.00    -0.354 N 
ATOM     50  N   UNL     1      10.359  13.915   3.642  1.00  0.00    -0.248 NA
ATOM     51  C   UNL     1      11.700  13.707   5.542  1.00  0.00     0.031 C 
ATOM     52  C   UNL     1       8.539  17.727   2.286  1.00  0.00     0.029 A 
ATOM     53  C   UNL     1       9.098  16.546   2.746  1.00  0.00     0.049 A 
ATOM     54  H   UNL     1       9.105  14.638   1.846  1.00  0.00     0.167 HD
ATOM     55  C   UNL     1      10.398  15.135   4.310  1.00  0.00     0.074 A 
ATOM     56  C   UNL     1      11.201  14.935   5.498  1.00  0.00     0.031 C 
ATOM     57  C   UNL     1       9.842  16.320   3.957  1.00  0.00     0.034 A 
BRANCH  44  58
ATOM     58  C   UNL     1       6.791  16.153  -1.410  1.00  0.00     0.023 A 
ATOM     59  C   UNL     1       5.391  15.993  -1.451  1.00  0.00     0.012 A 
ATOM     60  C   UNL     1       7.411  17.052  -2.300  1.00  0.00     0.148 A 
ATOM     61  C   UNL     1       4.624  16.695  -2.381  1.00  0.00     0.002 A 
ATOM     62  C   UNL     1       6.635  17.779  -3.197  1.00  0.00     0.091 A 
ATOM     63  F   UNL     1       8.746  17.172  -2.263  1.00  0.00    -0.205 F 
ATOM     64  C   UNL     1       5.244  17.594  -3.245  1.00  0.00     0.022 A 
BRANCH  62  65
ATOM     65  S   UNL     1       7.338  19.014  -4.295  1.00  0.00     0.127 S 
ATOM     66  O   UNL     1       7.327  18.312  -5.577  1.00  0.00    -0.237 OA
ATOM     67  O   UNL     1       6.372  20.109  -4.192  1.00  0.00    -0.237 OA
ATOM     68  O   UNL     1       8.656  19.321  -3.757  1.00  0.00    -0.744 OA
ENDBRANCH  62  65
ENDBRANCH  44  58
BRANCH  45  69
ATOM     69  C   UNL     1      12.173  10.846   5.105  1.00  0.00     0.023 A 
ATOM     70  C   UNL     1      11.662  10.610   6.396  1.00  0.00     0.012 A 
ATOM     71  C   UNL     1      13.429  10.314   4.756  1.00  0.00     0.148 A 
ATOM     72  C   UNL     1      12.398   9.878   7.329  1.00  0.00     0.002 A 
ATOM     73  C   UNL     1      14.129   9.535   5.670  1.00  0.00     0.091 A 
ATOM     74  F   UNL     1      13.913  10.572   3.533  1.00  0.00    -0.205 F 
ATOM     75  C   UNL     1      13.624   9.329   6.963  1.00  0.00     0.022 A 
BRANCH  73  76
ATOM     76  S   UNL     1      15.644   8.678   5.226  1.00  0.00     0.127 S 
ATOM     77  O   UNL     1      16.660   9.515   5.857  1.00  0.00    -0.237 OA
ATOM     78  O   UNL     1      15.450   7.368   5.851  1.00  0.00    -0.237 OA
ATOM     79  O   UNL     1      15.656   8.646   3.769  1.00  0.00    -0.744 OA
ENDBRANCH  73  76
ENDBRANCH  45  69
BRANCH  57  80
ATOM     80  C   UNL     1      10.051  17.490   4.882  1.00  0.00     0.023 A 
ATOM     81  C   UNL     1      11.309  18.122   4.932  1.00  0.00     0.012 A 
ATOM     82  C   UNL     1       8.991  17.999   5.656  1.00  0.00     0.148 A 
ATOM     83  C   UNL     1      11.518  19.221   5.764  1.00  0.00     0.002 A 
ATOM     84  C   UNL     1       9.195  19.122   6.452  1.00  0.00     0.091 A 
ATOM     85  F   UNL     1       7.806  17.372   5.616  1.00  0.00    -0.205 F 
ATOM     86  C   UNL     1      10.460  19.728   6.515  1.00  0.00     0.022 A 
BRANCH  84  87
ATOM     87  S   UNL     1       7.856  19.881   7.378  1.00  0.00     0.127 S 
ATOM     88  O   UNL     1       8.049  19.309   8.709  1.00  0.00    -0.237 OA
ATOM     89  O   UNL     1       8.167  21.308   7.278  1.00  0.00    -0.237 OA
ATOM     90  O   UNL     1       6.633  19.488   6.690  1.00  0.00    -0.744 OA
ENDBRANCH  84  87
ENDBRANCH  57  80
ENDBRANCH  31  32
ENDBRANCH  24  26
ENDBRANCH  23  24
ENDBRANCH   1  23
TORSDOF 16
