REMARK SMILES CC[NH2+][C@@]1(C(=O)OCCOC(=O)c2ccc(-c3c4nc(c(-c5cccc(S(=O)(=O)[O-])c5F)c5ccc([nH]5)c(-c5cccc(S(=O)(=O)[O-])c5F)c5nc(c(-c6cccc(S(=O)(=O)[O-])c6F)c6ccc3[nH]6)C=C5)C=C4)cc2)CCC[C@@H](Sc2ncc(C)cn2)C1
REMARK SMILES IDX 9 1 8 2 7 3 5 4 6 5 4 6 76 7 88 8 77 9 79 10 78 11 3 12 2 15
REMARK SMILES IDX 1 16 80 17 81 18 82 19 87 20 83 21 86 22 84 23 85 24 10 25
REMARK SMILES IDX 11 26 12 27 13 28 14 29 75 30 15 31 74 32 16 33 17 34 18 35
REMARK SMILES IDX 68 36 19 37 73 38 67 39 69 40 20 41 72 42 66 43 65 44 21 46
REMARK SMILES IDX 53 47 33 48 52 49 34 50 37 51 51 52 70 53 35 54 36 55 50 57
REMARK SMILES IDX 71 58 38 59 22 60 23 61 31 62 24 63 26 64 32 65 25 66 27 67
REMARK SMILES IDX 28 68 29 69 30 70 54 71 55 72 63 73 56 74 58 75 64 76 57 77
REMARK SMILES IDX 59 78 60 79 61 80 62 81 39 82 40 83 48 84 41 85 43 86 49 87
REMARK SMILES IDX 42 88 44 89 45 90 46 91 47 92
REMARK H PARENT 3 13 3 14 69 45 37 56
REMARK Flexibility Score: inf
ROOT
ATOM      1  C   UNL     1       3.374  -0.163  -6.910  1.00  0.00     0.275 C 
ENDROOT
BRANCH   1   2
ATOM      2  C   UNL     1       1.855  -0.219  -7.019  1.00  0.00     0.274 C 
BRANCH   2   3
ATOM      3  O   UNL     1       1.245   0.554  -5.964  1.00  0.00    -0.457 OA
BRANCH   3   4
ATOM      4  C   UNL     1       0.628  -0.154  -4.976  1.00  0.00     0.368 C 
ATOM      5  O   UNL     1       0.559  -1.379  -4.963  1.00  0.00    -0.245 OA
BRANCH   4   6
ATOM      6  C   UNL     1      -0.035   0.765  -3.887  1.00  0.00     0.195 C 
ATOM      7  C   UNL     1      -1.558   0.551  -4.034  1.00  0.00     0.081 C 
ATOM      8  C   UNL     1       0.349   2.259  -4.031  1.00  0.00     0.096 C 
ATOM      9  C   UNL     1      -2.107   1.191  -5.307  1.00  0.00     0.008 C 
ATOM     10  C   UNL     1      -0.371   3.020  -5.157  1.00  0.00     0.061 C 
ATOM     11  C   UNL     1      -1.863   2.694  -5.283  1.00  0.00     0.015 C 
BRANCH   6  12
ATOM     12  N   UNL     1       0.485   0.272  -2.574  1.00  0.00    -0.332 N 
ATOM     13  H   UNL     1       0.489  -0.748  -2.612  1.00  0.00     0.347 HD
ATOM     14  H   UNL     1       1.400   0.713  -2.478  1.00  0.00     0.347 HD
BRANCH  12  15
ATOM     15  C   UNL     1      -0.237   0.659  -1.365  1.00  0.00     0.257 C 
ATOM     16  C   UNL     1       0.475   0.090  -0.143  1.00  0.00     0.071 C 
ENDBRANCH  12  15
ENDBRANCH   6  12
BRANCH  10  17
ATOM     17  S   UNL     1      -0.088   4.844  -5.054  1.00  0.00    -0.083 SA
BRANCH  17  18
ATOM     18  C   UNL     1      -1.014   5.260  -3.596  1.00  0.00     0.187 A 
ATOM     19  N   UNL     1      -0.502   4.913  -2.405  1.00  0.00    -0.231 NA
ATOM     20  N   UNL     1      -2.189   5.888  -3.768  1.00  0.00    -0.231 NA
ATOM     21  C   UNL     1      -1.249   5.189  -1.320  1.00  0.00     0.119 A 
ATOM     22  C   UNL     1      -2.888   6.157  -2.647  1.00  0.00     0.119 A 
ATOM     23  C   UNL     1      -2.477   5.808  -1.377  1.00  0.00    -0.014 A 
ATOM     24  C   UNL     1      -3.276   6.126  -0.162  1.00  0.00     0.048 C 
ENDBRANCH  17  18
ENDBRANCH  10  17
ENDBRANCH   4   6
ENDBRANCH   3   4
ENDBRANCH   2   3
ENDBRANCH   1   2
BRANCH   1  25
ATOM     25  O   UNL     1       3.785  -0.774  -5.677  1.00  0.00    -0.458 OA
BRANCH  25  26
ATOM     26  C   UNL     1       4.427   0.040  -4.809  1.00  0.00     0.338 C 
ATOM     27  O   UNL     1       4.761   1.198  -4.988  1.00  0.00    -0.246 OA
BRANCH  26  28
ATOM     28  C   UNL     1       4.653  -0.666  -3.537  1.00  0.00     0.060 A 
ATOM     29  C   UNL     1       3.564  -1.138  -2.809  1.00  0.00     0.016 A 
ATOM     30  C   UNL     1       5.936  -0.718  -2.994  1.00  0.00     0.016 A 
ATOM     31  C   UNL     1       3.738  -1.534  -1.484  1.00  0.00     0.010 A 
ATOM     32  C   UNL     1       6.120  -1.229  -1.706  1.00  0.00     0.010 A 
ATOM     33  C   UNL     1       5.017  -1.585  -0.908  1.00  0.00    -0.014 A 
BRANCH  33  34
ATOM     34  C   UNL     1       5.193  -1.956   0.528  1.00  0.00     0.031 A 
ATOM     35  C   UNL     1       5.918  -1.027   1.475  1.00  0.00     0.074 A 
ATOM     36  C   UNL     1       4.703  -3.120   1.003  1.00  0.00     0.049 A 
ATOM     37  N   UNL     1       6.299  -1.238   2.710  1.00  0.00    -0.248 NA
ATOM     38  C   UNL     1       6.283   0.305   0.963  1.00  0.00     0.031 C 
ATOM     39  C   UNL     1       3.984  -4.121   0.214  1.00  0.00     0.029 A 
ATOM     40  N   UNL     1       4.730  -3.656   2.268  1.00  0.00    -0.354 N 
ATOM     41  C   UNL     1       7.028  -0.114   3.084  1.00  0.00     0.074 A 
ATOM     42  C   UNL     1       7.018   0.789   1.954  1.00  0.00     0.031 C 
ATOM     43  C   UNL     1       3.593  -5.120   1.018  1.00  0.00     0.029 A 
ATOM     44  C   UNL     1       4.097  -4.874   2.365  1.00  0.00     0.049 A 
ATOM     45  H   UNL     1       5.161  -3.211   3.033  1.00  0.00     0.167 HD
ATOM     46  C   UNL     1       7.639   0.151   4.264  1.00  0.00     0.034 A 
ATOM     47  C   UNL     1       3.950  -5.713   3.410  1.00  0.00     0.034 A 
ATOM     48  C   UNL     1       7.554  -0.687   5.429  1.00  0.00     0.049 A 
ATOM     49  C   UNL     1       4.558  -5.350   4.736  1.00  0.00     0.074 A 
ATOM     50  C   UNL     1       8.111  -0.482   6.680  1.00  0.00     0.029 A 
ATOM     51  N   UNL     1       6.838  -1.871   5.501  1.00  0.00    -0.354 N 
ATOM     52  N   UNL     1       5.221  -4.271   5.071  1.00  0.00    -0.248 NA
ATOM     53  C   UNL     1       4.392  -6.319   5.830  1.00  0.00     0.031 C 
ATOM     54  C   UNL     1       7.718  -1.535   7.513  1.00  0.00     0.029 A 
ATOM     55  C   UNL     1       6.922  -2.398   6.779  1.00  0.00     0.049 A 
ATOM     56  H   UNL     1       6.344  -2.279   4.753  1.00  0.00     0.167 HD
ATOM     57  C   UNL     1       5.551  -4.428   6.411  1.00  0.00     0.074 A 
ATOM     58  C   UNL     1       4.976  -5.687   6.840  1.00  0.00     0.031 C 
ATOM     59  C   UNL     1       6.297  -3.622   7.206  1.00  0.00     0.034 A 
BRANCH  46  60
ATOM     60  C   UNL     1       8.425   1.431   4.373  1.00  0.00     0.023 A 
ATOM     61  C   UNL     1       7.747   2.651   4.559  1.00  0.00     0.012 A 
ATOM     62  C   UNL     1       9.834   1.417   4.356  1.00  0.00     0.148 A 
ATOM     63  C   UNL     1       8.459   3.842   4.703  1.00  0.00     0.002 A 
ATOM     64  C   UNL     1      10.537   2.604   4.535  1.00  0.00     0.091 A 
ATOM     65  F   UNL     1      10.463   0.251   4.150  1.00  0.00    -0.205 F 
ATOM     66  C   UNL     1       9.851   3.817   4.702  1.00  0.00     0.022 A 
BRANCH  64  67
ATOM     67  S   UNL     1      12.332   2.644   4.620  1.00  0.00     0.127 S 
ATOM     68  O   UNL     1      12.685   3.050   3.261  1.00  0.00    -0.237 OA
ATOM     69  O   UNL     1      12.578   3.662   5.642  1.00  0.00    -0.237 OA
ATOM     70  O   UNL     1      12.735   1.299   5.006  1.00  0.00    -0.744 OA
ENDBRANCH  64  67
ENDBRANCH  46  60
BRANCH  47  71
ATOM     71  C   UNL     1       3.150  -6.960   3.246  1.00  0.00     0.023 A 
ATOM     72  C   UNL     1       1.895  -7.057   3.878  1.00  0.00     0.012 A 
ATOM     73  C   UNL     1       3.584  -8.014   2.421  1.00  0.00     0.148 A 
ATOM     74  C   UNL     1       1.093  -8.185   3.697  1.00  0.00     0.002 A 
ATOM     75  C   UNL     1       2.754  -9.106   2.196  1.00  0.00     0.091 A 
ATOM     76  F   UNL     1       4.795  -7.925   1.852  1.00  0.00    -0.205 F 
ATOM     77  C   UNL     1       1.514  -9.201   2.843  1.00  0.00     0.022 A 
BRANCH  75  78
ATOM     78  S   UNL     1       3.175 -10.358   0.978  1.00  0.00     0.127 S 
ATOM     79  O   UNL     1       3.844 -11.365   1.797  1.00  0.00    -0.237 OA
ATOM     80  O   UNL     1       1.864 -10.755   0.463  1.00  0.00    -0.237 OA
ATOM     81  O   UNL     1       4.006  -9.662   0.003  1.00  0.00    -0.744 OA
ENDBRANCH  75  78
ENDBRANCH  47  71
BRANCH  59  82
ATOM     82  C   UNL     1       6.538  -4.076   8.618  1.00  0.00     0.023 A 
ATOM     83  C   UNL     1       7.497  -5.080   8.860  1.00  0.00     0.012 A 
ATOM     84  C   UNL     1       5.872  -3.479   9.704  1.00  0.00     0.148 A 
ATOM     85  C   UNL     1       7.771  -5.499  10.161  1.00  0.00     0.002 A 
ATOM     86  C   UNL     1       6.175  -3.879  11.002  1.00  0.00     0.091 A 
ATOM     87  F   UNL     1       4.944  -2.543   9.456  1.00  0.00    -0.205 F 
ATOM     88  C   UNL     1       7.119  -4.893  11.232  1.00  0.00     0.022 A 
BRANCH  86  89
ATOM     89  S   UNL     1       5.420  -3.085  12.425  1.00  0.00     0.127 S 
ATOM     90  O   UNL     1       4.256  -3.936  12.665  1.00  0.00    -0.237 OA
ATOM     91  O   UNL     1       6.466  -3.184  13.445  1.00  0.00    -0.237 OA
ATOM     92  O   UNL     1       5.137  -1.721  11.996  1.00  0.00    -0.744 OA
ENDBRANCH  86  89
ENDBRANCH  59  82
ENDBRANCH  33  34
ENDBRANCH  26  28
ENDBRANCH  25  26
ENDBRANCH   1  25
TORSDOF 18
