REMARK SMILES CC(C)Cc1ccc([C@H](C)C(=O)OCCOC(=O)c2ccc(-c3c4nc(c(-c5cccc(S(=O)(=O)[O-])c5F)c5ccc([nH]5)c(-c5cccc(S(=O)(=O)[O-])c5F)c5nc(c(-c6cccc(S(=O)(=O)[O-])c6F)c6ccc3[nH]6)C=C5)C=C4)cc2)cc1
REMARK SMILES IDX 14 1 13 2 11 3 12 4 9 5 10 6 8 7 5 8 6 9 83 10 7 11 82 12
REMARK SMILES IDX 4 13 2 14 1 15 3 16 15 17 16 18 17 19 18 20 19 21 20 22
REMARK SMILES IDX 81 23 21 24 80 25 22 26 23 27 24 28 74 29 25 30 79 31 73 32
REMARK SMILES IDX 75 33 26 34 78 35 72 36 71 37 27 39 59 40 39 41 58 42 40 43
REMARK SMILES IDX 43 44 57 45 76 46 41 47 42 48 56 50 77 51 44 52 28 53 29 54
REMARK SMILES IDX 37 55 30 56 32 57 38 58 31 59 33 60 34 61 35 62 36 63 60 64
REMARK SMILES IDX 61 65 69 66 62 67 64 68 70 69 63 70 65 71 66 72 67 73 68 74
REMARK SMILES IDX 45 75 46 76 54 77 47 78 49 79 55 80 48 81 50 82 51 83 52 84
REMARK SMILES IDX 53 85
REMARK H PARENT 75 38 43 49
REMARK Flexibility Score: inf
ROOT
ATOM      1  C   UNL     1      -1.755  -1.485  -5.642  1.00  0.00     0.274 C 
ENDROOT
BRANCH   1   2
ATOM      2  O   UNL     1      -2.201  -1.925  -4.346  1.00  0.00    -0.462 OA
BRANCH   2   3
ATOM      3  C   UNL     1      -2.473  -3.255  -4.242  1.00  0.00     0.313 C 
ATOM      4  O   UNL     1      -2.372  -4.054  -5.167  1.00  0.00    -0.252 OA
BRANCH   3   5
ATOM      5  C   UNL     1      -2.977  -3.661  -2.854  1.00  0.00     0.126 C 
ATOM      6  C   UNL     1      -2.452  -2.768  -1.731  1.00  0.00     0.025 C 
BRANCH   5   7
ATOM      7  C   UNL     1      -4.480  -3.859  -2.903  1.00  0.00    -0.034 A 
ATOM      8  C   UNL     1      -7.233  -4.155  -3.405  1.00  0.00    -0.048 A 
ATOM      9  C   UNL     1      -6.342  -5.167  -3.770  1.00  0.00     0.004 A 
ATOM     10  C   UNL     1      -6.750  -3.040  -2.708  1.00  0.00     0.004 A 
ATOM     11  C   UNL     1      -4.980  -5.020  -3.519  1.00  0.00     0.005 A 
ATOM     12  C   UNL     1      -5.385  -2.886  -2.469  1.00  0.00     0.005 A 
BRANCH   8  13
ATOM     13  C   UNL     1      -8.675  -4.215  -3.844  1.00  0.00     0.038 C 
BRANCH  13  14
ATOM     14  C   UNL     1      -9.025  -3.103  -4.857  1.00  0.00    -0.013 C 
ATOM     15  C   UNL     1      -8.248  -3.246  -6.170  1.00  0.00     0.008 C 
ATOM     16  C   UNL     1     -10.527  -3.104  -5.139  1.00  0.00     0.008 C 
ENDBRANCH  13  14
ENDBRANCH   8  13
ENDBRANCH   5   7
ENDBRANCH   3   5
ENDBRANCH   2   3
ENDBRANCH   1   2
BRANCH   1  17
ATOM     17  C   UNL     1      -0.228  -1.414  -5.735  1.00  0.00     0.275 C 
BRANCH  17  18
ATOM     18  O   UNL     1       0.383  -2.710  -5.612  1.00  0.00    -0.458 OA
BRANCH  18  19
ATOM     19  C   UNL     1       0.797  -3.032  -4.364  1.00  0.00     0.338 C 
ATOM     20  O   UNL     1       0.738  -2.337  -3.364  1.00  0.00    -0.246 OA
BRANCH  19  21
ATOM     21  C   UNL     1       1.240  -4.433  -4.332  1.00  0.00     0.060 A 
ATOM     22  C   UNL     1       0.402  -5.374  -3.730  1.00  0.00     0.016 A 
ATOM     23  C   UNL     1       2.506  -4.799  -4.786  1.00  0.00     0.016 A 
ATOM     24  C   UNL     1       0.826  -6.687  -3.562  1.00  0.00     0.010 A 
ATOM     25  C   UNL     1       2.928  -6.123  -4.628  1.00  0.00     0.010 A 
ATOM     26  C   UNL     1       2.098  -7.069  -3.999  1.00  0.00    -0.014 A 
BRANCH  26  27
ATOM     27  C   UNL     1       2.571  -8.450  -3.755  1.00  0.00     0.031 A 
ATOM     28  C   UNL     1       3.634  -8.705  -2.726  1.00  0.00     0.074 A 
ATOM     29  C   UNL     1       2.049  -9.469  -4.462  1.00  0.00     0.049 A 
ATOM     30  N   UNL     1       4.240  -9.824  -2.426  1.00  0.00    -0.248 NA
ATOM     31  C   UNL     1       4.078  -7.548  -1.932  1.00  0.00     0.031 C 
ATOM     32  C   UNL     1       1.004  -9.340  -5.479  1.00  0.00     0.029 A 
ATOM     33  N   UNL     1       2.344 -10.809  -4.451  1.00  0.00    -0.354 N 
ATOM     34  C   UNL     1       5.171  -9.499  -1.448  1.00  0.00     0.074 A 
ATOM     35  C   UNL     1       5.046  -8.079  -1.199  1.00  0.00     0.031 C 
ATOM     36  C   UNL     1       0.760 -10.549  -6.009  1.00  0.00     0.029 A 
ATOM     37  C   UNL     1       1.655 -11.527  -5.399  1.00  0.00     0.049 A 
ATOM     38  H   UNL     1       2.986 -11.215  -3.825  1.00  0.00     0.167 HD
ATOM     39  C   UNL     1       6.042 -10.315  -0.808  1.00  0.00     0.034 A 
ATOM     40  C   UNL     1       1.756 -12.823  -5.755  1.00  0.00     0.034 A 
ATOM     41  C   UNL     1       6.127 -11.734  -1.026  1.00  0.00     0.049 A 
ATOM     42  C   UNL     1       2.728 -13.708  -5.025  1.00  0.00     0.074 A 
ATOM     43  C   UNL     1       6.937 -12.655  -0.387  1.00  0.00     0.029 A 
ATOM     44  N   UNL     1       5.375 -12.437  -1.955  1.00  0.00    -0.354 N 
ATOM     45  N   UNL     1       3.532 -13.407  -4.034  1.00  0.00    -0.248 NA
ATOM     46  C   UNL     1       2.791 -15.115  -5.444  1.00  0.00     0.031 C 
ATOM     47  C   UNL     1       6.683 -13.916  -0.938  1.00  0.00     0.029 A 
ATOM     48  C   UNL     1       5.708 -13.781  -1.914  1.00  0.00     0.049 A 
ATOM     49  H   UNL     1       4.704 -12.040  -2.556  1.00  0.00     0.167 HD
ATOM     50  C   UNL     1       4.181 -14.588  -3.696  1.00  0.00     0.074 A 
ATOM     51  C   UNL     1       3.658 -15.616  -4.573  1.00  0.00     0.031 C 
ATOM     52  C   UNL     1       5.139 -14.799  -2.760  1.00  0.00     0.034 A 
BRANCH  39  53
ATOM     53  C   UNL     1       6.955  -9.692   0.213  1.00  0.00     0.023 A 
ATOM     54  C   UNL     1       6.444  -9.329   1.475  1.00  0.00     0.012 A 
ATOM     55  C   UNL     1       8.324  -9.503  -0.060  1.00  0.00     0.148 A 
ATOM     56  C   UNL     1       7.275  -8.763   2.441  1.00  0.00     0.002 A 
ATOM     57  C   UNL     1       9.154  -8.971   0.921  1.00  0.00     0.091 A 
ATOM     58  F   UNL     1       8.786  -9.825  -1.277  1.00  0.00    -0.205 F 
ATOM     59  C   UNL     1       8.630  -8.594   2.168  1.00  0.00     0.022 A 
BRANCH  57  60
ATOM     60  S   UNL     1      10.923  -8.780   0.675  1.00  0.00     0.127 S 
ATOM     61  O   UNL     1      11.029  -7.352   0.381  1.00  0.00    -0.237 OA
ATOM     62  O   UNL     1      11.465  -9.175   1.976  1.00  0.00    -0.237 OA
ATOM     63  O   UNL     1      11.269  -9.678  -0.417  1.00  0.00    -0.744 OA
ENDBRANCH  57  60
ENDBRANCH  39  53
BRANCH  40  64
ATOM     64  C   UNL     1       0.882 -13.355  -6.837  1.00  0.00     0.023 A 
ATOM     65  C   UNL     1      -0.167 -14.234  -6.508  1.00  0.00     0.012 A 
ATOM     66  C   UNL     1       1.045 -12.949  -8.176  1.00  0.00     0.148 A 
ATOM     67  C   UNL     1      -1.031 -14.709  -7.495  1.00  0.00     0.002 A 
ATOM     68  C   UNL     1       0.148 -13.383  -9.145  1.00  0.00     0.091 A 
ATOM     69  F   UNL     1       2.064 -12.130  -8.473  1.00  0.00    -0.205 F 
ATOM     70  C   UNL     1      -0.883 -14.273  -8.810  1.00  0.00     0.022 A 
BRANCH  68  71
ATOM     71  S   UNL     1       0.185 -12.762 -10.831  1.00  0.00     0.127 S 
ATOM     72  O   UNL     1       0.734 -13.902 -11.559  1.00  0.00    -0.237 OA
ATOM     73  O   UNL     1      -1.230 -12.490 -11.088  1.00  0.00    -0.237 OA
ATOM     74  O   UNL     1       1.022 -11.570 -10.789  1.00  0.00    -0.744 OA
ENDBRANCH  68  71
ENDBRANCH  40  64
BRANCH  52  75
ATOM     75  C   UNL     1       5.681 -16.197  -2.623  1.00  0.00     0.023 A 
ATOM     76  C   UNL     1       6.583 -16.687  -3.588  1.00  0.00     0.012 A 
ATOM     77  C   UNL     1       5.362 -16.993  -1.506  1.00  0.00     0.148 A 
ATOM     78  C   UNL     1       7.141 -17.957  -3.456  1.00  0.00     0.002 A 
ATOM     79  C   UNL     1       5.953 -18.242  -1.360  1.00  0.00     0.091 A 
ATOM     80  F   UNL     1       4.484 -16.518  -0.610  1.00  0.00    -0.205 F 
ATOM     81  C   UNL     1       6.836 -18.730  -2.337  1.00  0.00     0.022 A 
BRANCH  79  82
ATOM     82  S   UNL     1       5.682 -19.262   0.095  1.00  0.00     0.127 S 
ATOM     83  O   UNL     1       4.715 -20.239  -0.401  1.00  0.00    -0.237 OA
ATOM     84  O   UNL     1       7.017 -19.802   0.356  1.00  0.00    -0.237 OA
ATOM     85  O   UNL     1       5.191 -18.356   1.126  1.00  0.00    -0.744 OA
ENDBRANCH  79  82
ENDBRANCH  52  75
ENDBRANCH  26  27
ENDBRANCH  19  21
ENDBRANCH  18  19
ENDBRANCH  17  18
ENDBRANCH   1  17
TORSDOF 17
