REMARK SMILES COCCS(=O)(=O)Cc1ccc(C(=O)OCCOC(=O)c2ccc(-c3c4nc(c(-c5cccc(S(=O)(=O)[O-])c5F)c5ccc([nH]5)c(-c5cccc(S(=O)(=O)[O-])c5F)c5nc(c(-c6cccc(S(=O)(=O)[O-])c6F)c6ccc3[nH]6)C=C5)C=C4)cc2)cn1
REMARK SMILES IDX 16 1 15 2 13 3 14 4 12 5 9 6 10 7 85 8 11 9 84 10 8 11 5 12
REMARK SMILES IDX 6 13 7 14 4 15 3 16 2 17 1 18 17 19 18 20 19 21 20 22 21 23
REMARK SMILES IDX 22 24 83 25 23 26 82 27 24 28 25 29 26 30 76 31 27 32 81 33
REMARK SMILES IDX 75 34 77 35 28 36 80 37 74 38 73 39 29 41 61 42 41 43 60 44
REMARK SMILES IDX 42 45 45 46 59 47 78 48 43 49 44 50 58 52 79 53 46 54 30 55
REMARK SMILES IDX 31 56 39 57 32 58 34 59 40 60 33 61 35 62 36 63 37 64 38 65
REMARK SMILES IDX 62 66 63 67 71 68 64 69 66 70 72 71 65 72 67 73 68 74 69 75
REMARK SMILES IDX 70 76 47 77 48 78 56 79 49 80 51 81 57 82 50 83 52 84 53 85
REMARK SMILES IDX 54 86 55 87
REMARK H PARENT 77 40 45 51
REMARK Flexibility Score: inf
ROOT
ATOM      1  C   UNL     1      -7.246  -0.309  -1.432  1.00  0.00     0.275 C 
ENDROOT
BRANCH   1   2
ATOM      2  O   UNL     1      -5.808  -0.380  -1.369  1.00  0.00    -0.458 OA
BRANCH   2   3
ATOM      3  C   UNL     1      -5.148   0.481  -2.180  1.00  0.00     0.339 C 
ATOM      4  O   UNL     1      -5.662   1.278  -2.953  1.00  0.00    -0.246 OA
BRANCH   3   5
ATOM      5  C   UNL     1      -3.686   0.387  -2.012  1.00  0.00     0.078 A 
ATOM      6  C   UNL     1      -0.904   0.316  -1.942  1.00  0.00     0.055 A 
ATOM      7  C   UNL     1      -1.650  -0.700  -1.349  1.00  0.00     0.026 A 
ATOM      8  N   UNL     1      -1.531   1.391  -2.477  1.00  0.00    -0.259 NA
ATOM      9  C   UNL     1      -3.047  -0.681  -1.401  1.00  0.00     0.019 A 
ATOM     10  C   UNL     1      -2.886   1.403  -2.510  1.00  0.00     0.127 A 
BRANCH   6  11
ATOM     11  C   UNL     1       0.594   0.415  -1.938  1.00  0.00     0.193 C 
BRANCH  11  12
ATOM     12  S   UNL     1       1.449  -0.962  -2.680  1.00  0.00     0.158 S 
ATOM     13  O   UNL     1       2.874  -0.702  -2.524  1.00  0.00    -0.228 OA
ATOM     14  O   UNL     1       0.921  -1.179  -4.016  1.00  0.00    -0.228 OA
BRANCH  12  15
ATOM     15  C   UNL     1       1.141  -2.462  -1.772  1.00  0.00     0.165 C 
BRANCH  15  16
ATOM     16  C   UNL     1       1.607  -2.415  -0.329  1.00  0.00     0.176 C 
BRANCH  16  17
ATOM     17  O   UNL     1       0.685  -1.665   0.453  1.00  0.00    -0.384 OA
ATOM     18  C   UNL     1       1.262  -0.663   1.282  1.00  0.00     0.194 C 
ENDBRANCH  16  17
ENDBRANCH  15  16
ENDBRANCH  12  15
ENDBRANCH  11  12
ENDBRANCH   6  11
ENDBRANCH   3   5
ENDBRANCH   2   3
ENDBRANCH   1   2
BRANCH   1  19
ATOM     19  C   UNL     1      -7.828   0.453  -0.240  1.00  0.00     0.275 C 
BRANCH  19  20
ATOM     20  O   UNL     1      -7.442   1.840  -0.265  1.00  0.00    -0.458 OA
BRANCH  20  21
ATOM     21  C   UNL     1      -6.408   2.155   0.548  1.00  0.00     0.338 C 
ATOM     22  O   UNL     1      -5.809   1.405   1.303  1.00  0.00    -0.246 OA
BRANCH  21  23
ATOM     23  C   UNL     1      -5.977   3.541   0.325  1.00  0.00     0.060 A 
ATOM     24  C   UNL     1      -5.016   3.759  -0.655  1.00  0.00     0.016 A 
ATOM     25  C   UNL     1      -6.338   4.570   1.191  1.00  0.00     0.016 A 
ATOM     26  C   UNL     1      -4.328   4.964  -0.712  1.00  0.00     0.010 A 
ATOM     27  C   UNL     1      -5.721   5.823   1.057  1.00  0.00     0.010 A 
ATOM     28  C   UNL     1      -4.679   6.025   0.131  1.00  0.00    -0.014 A 
BRANCH  28  29
ATOM     29  C   UNL     1      -3.938   7.319   0.047  1.00  0.00     0.031 A 
ATOM     30  C   UNL     1      -3.290   7.912   1.274  1.00  0.00     0.074 A 
ATOM     31  C   UNL     1      -3.837   7.969  -1.132  1.00  0.00     0.049 A 
ATOM     32  N   UNL     1      -2.753   9.094   1.436  1.00  0.00    -0.248 NA
ATOM     33  C   UNL     1      -3.256   7.073   2.483  1.00  0.00     0.031 C 
ATOM     34  C   UNL     1      -4.391   7.505  -2.407  1.00  0.00     0.029 A 
ATOM     35  N   UNL     1      -3.243   9.166  -1.453  1.00  0.00    -0.354 N 
ATOM     36  C   UNL     1      -2.395   9.174   2.778  1.00  0.00     0.074 A 
ATOM     37  C   UNL     1      -2.768   7.914   3.385  1.00  0.00     0.031 C 
ATOM     38  C   UNL     1      -4.092   8.386  -3.370  1.00  0.00     0.029 A 
ATOM     39  C   UNL     1      -3.420   9.530  -2.769  1.00  0.00     0.049 A 
ATOM     40  H   UNL     1      -2.740   9.711  -0.805  1.00  0.00     0.167 HD
ATOM     41  C   UNL     1      -1.808  10.199   3.442  1.00  0.00     0.034 A 
ATOM     42  C   UNL     1      -3.135  10.677  -3.416  1.00  0.00     0.034 A 
ATOM     43  C   UNL     1      -1.380  11.424   2.818  1.00  0.00     0.049 A 
ATOM     44  C   UNL     1      -2.499  11.803  -2.654  1.00  0.00     0.074 A 
ATOM     45  C   UNL     1      -0.730  12.501   3.394  1.00  0.00     0.029 A 
ATOM     46  N   UNL     1      -1.558  11.737   1.478  1.00  0.00    -0.354 N 
ATOM     47  N   UNL     1      -2.132  11.844  -1.397  1.00  0.00    -0.248 NA
ATOM     48  C   UNL     1      -2.228  13.038  -3.402  1.00  0.00     0.031 C 
ATOM     49  C   UNL     1      -0.550  13.481   2.413  1.00  0.00     0.029 A 
ATOM     50  C   UNL     1      -1.045  12.996   1.213  1.00  0.00     0.049 A 
ATOM     51  H   UNL     1      -1.986  11.151   0.814  1.00  0.00     0.167 HD
ATOM     52  C   UNL     1      -1.561  13.096  -1.208  1.00  0.00     0.074 A 
ATOM     53  C   UNL     1      -1.608  13.772  -2.489  1.00  0.00     0.031 C 
ATOM     54  C   UNL     1      -1.057  13.642  -0.075  1.00  0.00     0.034 A 
BRANCH  41  55
ATOM     55  C   UNL     1      -1.591  10.047   4.928  1.00  0.00     0.023 A 
ATOM     56  C   UNL     1      -0.617   9.155   5.418  1.00  0.00     0.012 A 
ATOM     57  C   UNL     1      -2.321  10.838   5.840  1.00  0.00     0.148 A 
ATOM     58  C   UNL     1      -0.401   9.021   6.790  1.00  0.00     0.002 A 
ATOM     59  C   UNL     1      -2.066  10.735   7.202  1.00  0.00     0.091 A 
ATOM     60  F   UNL     1      -3.256  11.670   5.359  1.00  0.00    -0.205 F 
ATOM     61  C   UNL     1      -1.117   9.818   7.680  1.00  0.00     0.022 A 
BRANCH  59  62
ATOM     62  S   UNL     1      -2.876  11.776   8.423  1.00  0.00     0.127 S 
ATOM     63  O   UNL     1      -3.721  10.808   9.121  1.00  0.00    -0.237 OA
ATOM     64  O   UNL     1      -1.742  12.270   9.205  1.00  0.00    -0.237 OA
ATOM     65  O   UNL     1      -3.589  12.799   7.672  1.00  0.00    -0.744 OA
ENDBRANCH  59  62
ENDBRANCH  41  55
BRANCH  42  66
ATOM     66  C   UNL     1      -3.470  10.818  -4.863  1.00  0.00     0.023 A 
ATOM     67  C   UNL     1      -2.434  10.920  -5.811  1.00  0.00     0.012 A 
ATOM     68  C   UNL     1      -4.808  10.822  -5.305  1.00  0.00     0.148 A 
ATOM     69  C   UNL     1      -2.725  11.049  -7.170  1.00  0.00     0.002 A 
ATOM     70  C   UNL     1      -5.090  10.885  -6.664  1.00  0.00     0.091 A 
ATOM     71  F   UNL     1      -5.781  10.742  -4.386  1.00  0.00    -0.205 F 
ATOM     72  C   UNL     1      -4.051  11.018  -7.597  1.00  0.00     0.022 A 
BRANCH  70  73
ATOM     73  S   UNL     1      -6.756  10.712  -7.311  1.00  0.00     0.127 S 
ATOM     74  O   UNL     1      -7.019  12.054  -7.823  1.00  0.00    -0.237 OA
ATOM     75  O   UNL     1      -6.574   9.685  -8.339  1.00  0.00    -0.237 OA
ATOM     76  O   UNL     1      -7.577  10.293  -6.184  1.00  0.00    -0.744 OA
ENDBRANCH  70  73
ENDBRANCH  42  66
BRANCH  54  77
ATOM     77  C   UNL     1      -0.469  15.025  -0.173  1.00  0.00     0.023 A 
ATOM     78  C   UNL     1      -1.311  16.140  -0.355  1.00  0.00     0.012 A 
ATOM     79  C   UNL     1       0.918  15.221  -0.028  1.00  0.00     0.148 A 
ATOM     80  C   UNL     1      -0.777  17.425  -0.430  1.00  0.00     0.002 A 
ATOM     81  C   UNL     1       1.437  16.509  -0.048  1.00  0.00     0.091 A 
ATOM     82  F   UNL     1       1.704  14.145   0.126  1.00  0.00    -0.205 F 
ATOM     83  C   UNL     1       0.594  17.611  -0.264  1.00  0.00     0.022 A 
BRANCH  81  84
ATOM     84  S   UNL     1       3.173  16.854   0.256  1.00  0.00     0.127 S 
ATOM     85  O   UNL     1       3.625  17.292  -1.064  1.00  0.00    -0.237 OA
ATOM     86  O   UNL     1       3.106  17.914   1.261  1.00  0.00    -0.237 OA
ATOM     87  O   UNL     1       3.756  15.606   0.730  1.00  0.00    -0.744 OA
ENDBRANCH  81  84
ENDBRANCH  54  77
ENDBRANCH  28  29
ENDBRANCH  21  23
ENDBRANCH  20  21
ENDBRANCH  19  20
ENDBRANCH   1  19
TORSDOF 19
