REMARK SMILES N#Cc1ccccc1C[C@@H](NC(=O)OCC1c2ccccc2-c2ccccc21)C(=O)OCCOC(=O)c1ccc(-c2c3nc(c(-c4cccc(S(=O)(=O)[O-])c4F)c4ccc([nH]4)c(-c4cccc(S(=O)(=O)[O-])c4F)c4nc(c(-c5cccc(S(=O)(=O)[O-])c5F)c5ccc2[nH]5)C=C4)C=C3)cc1
REMARK SMILES IDX 32 1 31 2 29 3 30 4 10 5 9 6 8 7 3 8 4 9 5 10 7 11 6 12 2 13
REMARK SMILES IDX 1 14 11 15 12 16 13 18 14 19 15 20 16 21 17 22 28 23 18 24
REMARK SMILES IDX 22 25 23 26 27 27 19 28 21 29 24 30 26 31 20 32 25 33 33 34
REMARK SMILES IDX 34 35 35 36 36 37 37 38 38 39 99 40 39 41 98 42 40 43 41 44
REMARK SMILES IDX 42 45 92 46 43 47 97 48 91 49 93 50 44 51 96 52 90 53 89 54
REMARK SMILES IDX 45 56 77 57 57 58 76 59 58 60 61 61 75 62 94 63 59 64 60 65
REMARK SMILES IDX 74 67 95 68 62 69 46 70 47 71 55 72 48 73 50 74 56 75 49 76
REMARK SMILES IDX 51 77 52 78 53 79 54 80 78 81 79 82 87 83 80 84 82 85 88 86
REMARK SMILES IDX 81 87 83 88 84 89 85 90 86 91 63 92 64 93 72 94 65 95 67 96
REMARK SMILES IDX 73 97 66 98 68 99 69 100 70 101 71 102
REMARK H PARENT 11 17 93 55 61 66
REMARK Flexibility Score: inf
ROOT
ATOM      1  C   UNL     1      -1.893  -6.477  -0.496  1.00  0.00     0.274 C 
ENDROOT
BRANCH   1   2
ATOM      2  O   UNL     1      -1.193  -5.243  -0.248  1.00  0.00    -0.461 OA
BRANCH   2   3
ATOM      3  C   UNL     1      -0.589  -4.683  -1.337  1.00  0.00     0.329 C 
ATOM      4  O   UNL     1      -0.628  -5.146  -2.473  1.00  0.00    -0.250 OA
BRANCH   3   5
ATOM      5  C   UNL     1       0.324  -3.508  -0.946  1.00  0.00     0.199 C 
BRANCH   5   6
ATOM      6  C   UNL     1      -0.174  -2.667   0.253  1.00  0.00     0.074 C 
BRANCH   6   7
ATOM      7  C   UNL     1       0.390  -1.244   0.256  1.00  0.00    -0.028 A 
ATOM      8  C   UNL     1      -0.396  -0.097   0.011  1.00  0.00     0.055 A 
ATOM      9  C   UNL     1       0.214   1.169  -0.074  1.00  0.00     0.020 A 
ATOM     10  C   UNL     1       1.591   1.312   0.083  1.00  0.00     0.001 A 
ATOM     11  C   UNL     1       1.767  -1.059   0.487  1.00  0.00     0.005 A 
ATOM     12  C   UNL     1       2.365   0.197   0.374  1.00  0.00     0.000 A 
BRANCH   8  13
ATOM     13  C   UNL     1      -1.829  -0.138  -0.122  1.00  0.00     0.099 C 
ATOM     14  N   UNL     1      -2.981  -0.111  -0.205  1.00  0.00    -0.192 NA
ENDBRANCH   8  13
ENDBRANCH   6   7
ENDBRANCH   5   6
BRANCH   5  15
ATOM     15  N   UNL     1       1.734  -3.898  -0.832  1.00  0.00    -0.308 N 
ATOM     16  C   UNL     1       2.226  -5.110  -0.447  1.00  0.00     0.407 C 
ATOM     17  H   UNL     1       2.399  -3.208  -1.058  1.00  0.00     0.168 HD
ATOM     18  O   UNL     1       3.337  -5.226   0.048  1.00  0.00    -0.225 OA
BRANCH  16  19
ATOM     19  O   UNL     1       1.421  -6.119  -0.835  1.00  0.00    -0.449 OA
BRANCH  19  20
ATOM     20  C   UNL     1       2.014  -7.403  -1.050  1.00  0.00     0.248 C 
BRANCH  20  21
ATOM     21  C   UNL     1       2.533  -7.588  -2.499  1.00  0.00     0.088 C 
ATOM     22  C   UNL     1       3.745  -6.709  -2.785  1.00  0.00    -0.029 A 
ATOM     23  C   UNL     1       3.159  -8.976  -2.570  1.00  0.00    -0.029 A 
ATOM     24  C   UNL     1       3.780  -5.356  -3.083  1.00  0.00     0.005 A 
ATOM     25  C   UNL     1       4.927  -7.466  -2.659  1.00  0.00    -0.014 A 
ATOM     26  C   UNL     1       4.568  -8.867  -2.565  1.00  0.00    -0.014 A 
ATOM     27  C   UNL     1       2.519 -10.206  -2.573  1.00  0.00     0.005 A 
ATOM     28  C   UNL     1       5.019  -4.718  -3.090  1.00  0.00     0.000 A 
ATOM     29  C   UNL     1       6.158  -6.834  -2.666  1.00  0.00     0.009 A 
ATOM     30  C   UNL     1       5.353 -10.005  -2.532  1.00  0.00     0.009 A 
ATOM     31  C   UNL     1       3.314 -11.351  -2.546  1.00  0.00     0.000 A 
ATOM     32  C   UNL     1       6.196  -5.447  -2.851  1.00  0.00     0.001 A 
ATOM     33  C   UNL     1       4.716 -11.251  -2.516  1.00  0.00     0.001 A 
ENDBRANCH  20  21
ENDBRANCH  19  20
ENDBRANCH  16  19
ENDBRANCH   5  15
ENDBRANCH   3   5
ENDBRANCH   2   3
ENDBRANCH   1   2
BRANCH   1  34
ATOM     34  C   UNL     1      -3.393  -6.254  -0.702  1.00  0.00     0.275 C 
BRANCH  34  35
ATOM     35  O   UNL     1      -3.671  -5.508  -1.899  1.00  0.00    -0.458 OA
BRANCH  35  36
ATOM     36  C   UNL     1      -3.613  -4.162  -1.755  1.00  0.00     0.338 C 
ATOM     37  O   UNL     1      -3.399  -3.543  -0.727  1.00  0.00    -0.246 OA
BRANCH  36  38
ATOM     38  C   UNL     1      -3.655  -3.529  -3.079  1.00  0.00     0.060 A 
ATOM     39  C   UNL     1      -2.516  -2.855  -3.532  1.00  0.00     0.016 A 
ATOM     40  C   UNL     1      -4.817  -3.558  -3.843  1.00  0.00     0.016 A 
ATOM     41  C   UNL     1      -2.518  -2.222  -4.766  1.00  0.00     0.010 A 
ATOM     42  C   UNL     1      -4.824  -2.916  -5.080  1.00  0.00     0.010 A 
ATOM     43  C   UNL     1      -3.676  -2.248  -5.545  1.00  0.00    -0.014 A 
BRANCH  43  44
ATOM     44  C   UNL     1      -3.710  -1.536  -6.837  1.00  0.00     0.031 A 
ATOM     45  C   UNL     1      -4.523  -0.285  -6.958  1.00  0.00     0.074 A 
ATOM     46  C   UNL     1      -3.045  -2.041  -7.890  1.00  0.00     0.049 A 
ATOM     47  N   UNL     1      -4.826   0.400  -8.027  1.00  0.00    -0.248 NA
ATOM     48  C   UNL     1      -5.075   0.262  -5.708  1.00  0.00     0.031 C 
ATOM     49  C   UNL     1      -2.188  -3.228  -7.860  1.00  0.00     0.029 A 
ATOM     50  N   UNL     1      -3.014  -1.637  -9.199  1.00  0.00    -0.354 N 
ATOM     51  C   UNL     1      -5.647   1.431  -7.590  1.00  0.00     0.074 A 
ATOM     52  C   UNL     1      -5.795   1.280  -6.158  1.00  0.00     0.031 C 
ATOM     53  C   UNL     1      -1.738  -3.474  -9.100  1.00  0.00     0.029 A 
ATOM     54  C   UNL     1      -2.321  -2.499 -10.016  1.00  0.00     0.049 A 
ATOM     55  H   UNL     1      -3.444  -0.812  -9.522  1.00  0.00     0.167 HD
ATOM     56  C   UNL     1      -6.221   2.413  -8.322  1.00  0.00     0.034 A 
ATOM     57  C   UNL     1      -2.214  -2.524 -11.358  1.00  0.00     0.034 A 
ATOM     58  C   UNL     1      -6.053   2.546  -9.745  1.00  0.00     0.049 A 
ATOM     59  C   UNL     1      -2.924  -1.464 -12.157  1.00  0.00     0.074 A 
ATOM     60  C   UNL     1      -6.562   3.519 -10.585  1.00  0.00     0.029 A 
ATOM     61  N   UNL     1      -5.334   1.665 -10.540  1.00  0.00    -0.354 N 
ATOM     62  N   UNL     1      -3.635  -0.447 -11.732  1.00  0.00    -0.248 NA
ATOM     63  C   UNL     1      -2.804  -1.545 -13.619  1.00  0.00     0.031 C 
ATOM     64  C   UNL     1      -6.184   3.202 -11.894  1.00  0.00     0.029 A 
ATOM     65  C   UNL     1      -5.404   2.057 -11.866  1.00  0.00     0.049 A 
ATOM     66  H   UNL     1      -4.845   0.876 -10.210  1.00  0.00     0.167 HD
ATOM     67  C   UNL     1      -4.020   0.252 -12.869  1.00  0.00     0.074 A 
ATOM     68  C   UNL     1      -3.447  -0.449 -14.001  1.00  0.00     0.031 C 
ATOM     69  C   UNL     1      -4.788   1.366 -12.972  1.00  0.00     0.034 A 
BRANCH  56  70
ATOM     70  C   UNL     1      -7.085   3.409  -7.593  1.00  0.00     0.023 A 
ATOM     71  C   UNL     1      -6.498   4.336  -6.708  1.00  0.00     0.012 A 
ATOM     72  C   UNL     1      -8.479   3.437  -7.797  1.00  0.00     0.148 A 
ATOM     73  C   UNL     1      -7.288   5.243  -6.003  1.00  0.00     0.002 A 
ATOM     74  C   UNL     1      -9.254   4.377  -7.128  1.00  0.00     0.091 A 
ATOM     75  F   UNL     1      -9.023   2.535  -8.625  1.00  0.00    -0.205 F 
ATOM     76  C   UNL     1      -8.663   5.270  -6.219  1.00  0.00     0.022 A 
BRANCH  74  77
ATOM     77  S   UNL     1     -11.021   4.545  -7.399  1.00  0.00     0.127 S 
ATOM     78  O   UNL     1     -11.562   4.058  -6.130  1.00  0.00    -0.237 OA
ATOM     79  O   UNL     1     -11.164   5.986  -7.609  1.00  0.00    -0.237 OA
ATOM     80  O   UNL     1     -11.330   3.728  -8.563  1.00  0.00    -0.744 OA
ENDBRANCH  74  77
ENDBRANCH  56  70
BRANCH  57  81
ATOM     81  C   UNL     1      -1.395  -3.575 -12.024  1.00  0.00     0.023 A 
ATOM     82  C   UNL     1      -0.201  -3.207 -12.671  1.00  0.00     0.012 A 
ATOM     83  C   UNL     1      -1.773  -4.933 -11.997  1.00  0.00     0.148 A 
ATOM     84  C   UNL     1       0.589  -4.166 -13.305  1.00  0.00     0.002 A 
ATOM     85  C   UNL     1      -0.954  -5.890 -12.584  1.00  0.00     0.091 A 
ATOM     86  F   UNL     1      -2.919  -5.261 -11.384  1.00  0.00    -0.205 F 
ATOM     87  C   UNL     1       0.219  -5.507 -13.253  1.00  0.00     0.022 A 
BRANCH  85  88
ATOM     88  S   UNL     1      -1.287  -7.652 -12.472  1.00  0.00     0.127 S 
ATOM     89  O   UNL     1      -1.558  -7.994 -13.866  1.00  0.00    -0.237 OA
ATOM     90  O   UNL     1      -0.020  -8.162 -11.947  1.00  0.00    -0.237 OA
ATOM     91  O   UNL     1      -2.416  -7.786 -11.562  1.00  0.00    -0.744 OA
ENDBRANCH  85  88
ENDBRANCH  57  81
BRANCH  69  92
ATOM     92  C   UNL     1      -5.027   1.923 -14.351  1.00  0.00     0.023 A 
ATOM     93  C   UNL     1      -5.892   1.254 -15.239  1.00  0.00     0.012 A 
ATOM     94  C   UNL     1      -4.463   3.157 -14.729  1.00  0.00     0.148 A 
ATOM     95  C   UNL     1      -6.172   1.794 -16.494  1.00  0.00     0.002 A 
ATOM     96  C   UNL     1      -4.788   3.715 -15.959  1.00  0.00     0.091 A 
ATOM     97  F   UNL     1      -3.631   3.768 -13.873  1.00  0.00    -0.205 F 
ATOM     98  C   UNL     1      -5.632   3.029 -16.848  1.00  0.00     0.022 A 
BRANCH  96  99
ATOM     99  S   UNL     1      -4.224   5.344 -16.463  1.00  0.00     0.127 S 
ATOM    100  O   UNL     1      -3.353   5.021 -17.592  1.00  0.00    -0.237 OA
ATOM    101  O   UNL     1      -5.478   6.003 -16.829  1.00  0.00    -0.237 OA
ATOM    102  O   UNL     1      -3.550   5.916 -15.305  1.00  0.00    -0.744 OA
ENDBRANCH  96  99
ENDBRANCH  69  92
ENDBRANCH  43  44
ENDBRANCH  36  38
ENDBRANCH  35  36
ENDBRANCH  34  35
ENDBRANCH   1  34
TORSDOF 21
