REMARK SMILES CCN(C(=O)Cc1c(C(=O)OCCOC(=O)c2ccc(-c3c4nc(c(-c5cccc(S(=O)(=O)[O-])c5F)c5ccc([nH]5)c(-c5cccc(S(=O)(=O)[O-])c5F)c5nc(c(-c6cccc(S(=O)(=O)[O-])c6F)c6ccc3[nH]6)C=C5)C=C4)cc2)[nH]c2ccccc12)c1cccc(C)c1
REMARK SMILES IDX 12 1 11 2 9 3 10 4 8 5 7 6 86 7 80 8 81 9 85 10 82 12 84 13
REMARK SMILES IDX 83 14 6 15 4 16 5 17 3 18 2 19 1 20 87 21 88 22 93 23 89 24
REMARK SMILES IDX 91 25 90 26 92 27 13 28 14 29 15 30 16 31 17 32 18 33 79 34
REMARK SMILES IDX 19 35 78 36 20 37 21 38 22 39 72 40 23 41 77 42 71 43 73 44
REMARK SMILES IDX 24 45 76 46 70 47 69 48 25 50 57 51 37 52 56 53 38 54 41 55
REMARK SMILES IDX 55 56 74 57 39 58 40 59 54 61 75 62 42 63 26 64 27 65 35 66
REMARK SMILES IDX 28 67 30 68 36 69 29 70 31 71 32 72 33 73 34 74 58 75 59 76
REMARK SMILES IDX 67 77 60 78 62 79 68 80 61 81 63 82 64 83 65 84 66 85 43 86
REMARK SMILES IDX 44 87 52 88 45 89 47 90 53 91 46 92 48 93 49 94 50 95 51 96
REMARK H PARENT 80 11 73 49 41 60
REMARK Flexibility Score: inf
ROOT
ATOM      1  C   UNL     1       0.361  -1.852  -5.289  1.00  0.00     0.275 C 
ENDROOT
BRANCH   1   2
ATOM      2  O   UNL     1      -0.525  -1.748  -4.153  1.00  0.00    -0.457 OA
BRANCH   2   3
ATOM      3  C   UNL     1      -0.215  -0.739  -3.285  1.00  0.00     0.355 C 
ATOM      4  O   UNL     1       0.774  -0.031  -3.402  1.00  0.00    -0.244 OA
BRANCH   3   5
ATOM      5  C   UNL     1      -1.182  -0.676  -2.206  1.00  0.00     0.129 A 
ATOM      6  C   UNL     1      -1.569   0.370  -1.358  1.00  0.00     0.002 A 
ATOM      7  C   UNL     1      -2.618  -0.140  -0.517  1.00  0.00     0.004 A 
ATOM      8  N   UNL     1      -1.893  -1.790  -1.800  1.00  0.00    -0.349 N 
ATOM      9  C   UNL     1      -2.731  -1.504  -0.754  1.00  0.00     0.046 A 
ATOM     10  C   UNL     1      -3.468   0.451   0.442  1.00  0.00     0.010 A 
ATOM     11  H   UNL     1      -1.808  -2.680  -2.213  1.00  0.00     0.167 HD
ATOM     12  C   UNL     1      -3.589  -2.329  -0.017  1.00  0.00     0.027 A 
ATOM     13  C   UNL     1      -4.359  -0.349   1.161  1.00  0.00     0.001 A 
ATOM     14  C   UNL     1      -4.399  -1.724   0.951  1.00  0.00     0.002 A 
BRANCH   6  15
ATOM     15  C   UNL     1      -1.126   1.811  -1.268  1.00  0.00     0.139 C 
BRANCH  15  16
ATOM     16  C   UNL     1       0.264   2.141  -1.771  1.00  0.00     0.231 C 
ATOM     17  O   UNL     1       0.349   2.704  -2.866  1.00  0.00    -0.274 OA
BRANCH  16  18
ATOM     18  N   UNL     1       1.355   1.742  -0.979  1.00  0.00    -0.312 N 
BRANCH  18  19
ATOM     19  C   UNL     1       1.214   1.322   0.424  1.00  0.00     0.122 C 
ATOM     20  C   UNL     1       1.037  -0.174   0.650  1.00  0.00     0.028 C 
ENDBRANCH  18  19
BRANCH  18  21
ATOM     21  C   UNL     1       2.687   1.773  -1.523  1.00  0.00     0.044 A 
ATOM     22  C   UNL     1       3.111   2.781  -2.396  1.00  0.00     0.026 A 
ATOM     23  C   UNL     1       3.600   0.753  -1.210  1.00  0.00     0.029 A 
ATOM     24  C   UNL     1       4.402   2.775  -2.931  1.00  0.00     0.002 A 
ATOM     25  C   UNL     1       4.886   0.715  -1.768  1.00  0.00    -0.049 A 
ATOM     26  C   UNL     1       5.286   1.744  -2.621  1.00  0.00     0.003 A 
ATOM     27  C   UNL     1       5.814  -0.420  -1.458  1.00  0.00     0.044 C 
ENDBRANCH  18  21
ENDBRANCH  16  18
ENDBRANCH  15  16
ENDBRANCH   6  15
ENDBRANCH   3   5
ENDBRANCH   2   3
ENDBRANCH   1   2
BRANCH   1  28
ATOM     28  C   UNL     1      -0.261  -1.271  -6.562  1.00  0.00     0.275 C 
BRANCH  28  29
ATOM     29  O   UNL     1      -0.579   0.126  -6.420  1.00  0.00    -0.458 OA
BRANCH  29  30
ATOM     30  C   UNL     1      -1.891   0.401  -6.222  1.00  0.00     0.338 C 
ATOM     31  O   UNL     1      -2.810  -0.403  -6.208  1.00  0.00    -0.246 OA
BRANCH  30  32
ATOM     32  C   UNL     1      -2.064   1.815  -5.845  1.00  0.00     0.060 A 
ATOM     33  C   UNL     1      -2.575   2.062  -4.572  1.00  0.00     0.016 A 
ATOM     34  C   UNL     1      -1.806   2.878  -6.716  1.00  0.00     0.016 A 
ATOM     35  C   UNL     1      -2.783   3.371  -4.145  1.00  0.00     0.010 A 
ATOM     36  C   UNL     1      -2.026   4.199  -6.285  1.00  0.00     0.010 A 
ATOM     37  C   UNL     1      -2.497   4.452  -4.986  1.00  0.00    -0.014 A 
BRANCH  37  38
ATOM     38  C   UNL     1      -2.789   5.815  -4.475  1.00  0.00     0.031 A 
ATOM     39  C   UNL     1      -4.152   6.403  -4.689  1.00  0.00     0.074 A 
ATOM     40  C   UNL     1      -1.898   6.467  -3.703  1.00  0.00     0.049 A 
ATOM     41  N   UNL     1      -4.634   7.545  -4.274  1.00  0.00    -0.248 NA
ATOM     42  C   UNL     1      -5.106   5.581  -5.449  1.00  0.00     0.031 C 
ATOM     43  C   UNL     1      -0.577   5.966  -3.334  1.00  0.00     0.029 A 
ATOM     44  N   UNL     1      -1.980   7.688  -3.075  1.00  0.00    -0.354 N 
ATOM     45  C   UNL     1      -5.939   7.595  -4.744  1.00  0.00     0.074 A 
ATOM     46  C   UNL     1      -6.178   6.359  -5.460  1.00  0.00     0.031 C 
ATOM     47  C   UNL     1       0.033   6.871  -2.550  1.00  0.00     0.029 A 
ATOM     48  C   UNL     1      -0.836   8.037  -2.396  1.00  0.00     0.049 A 
ATOM     49  H   UNL     1      -2.782   8.258  -3.109  1.00  0.00     0.167 HD
ATOM     50  C   UNL     1      -6.855   8.581  -4.596  1.00  0.00     0.034 A 
ATOM     51  C   UNL     1      -0.514   9.178  -1.750  1.00  0.00     0.034 A 
ATOM     52  C   UNL     1      -6.624   9.812  -3.889  1.00  0.00     0.049 A 
ATOM     53  C   UNL     1      -1.526  10.295  -1.678  1.00  0.00     0.074 A 
ATOM     54  C   UNL     1      -7.490  10.877  -3.716  1.00  0.00     0.029 A 
ATOM     55  N   UNL     1      -5.441  10.152  -3.253  1.00  0.00    -0.354 N 
ATOM     56  N   UNL     1      -2.772  10.314  -2.087  1.00  0.00    -0.248 NA
ATOM     57  C   UNL     1      -1.091  11.546  -1.037  1.00  0.00     0.031 C 
ATOM     58  C   UNL     1      -6.819  11.875  -3.000  1.00  0.00     0.029 A 
ATOM     59  C   UNL     1      -5.548  11.417  -2.696  1.00  0.00     0.049 A 
ATOM     60  H   UNL     1      -4.642   9.579  -3.203  1.00  0.00     0.167 HD
ATOM     61  C   UNL     1      -3.275  11.561  -1.730  1.00  0.00     0.074 A 
ATOM     62  C   UNL     1      -2.209  12.260  -1.043  1.00  0.00     0.031 C 
ATOM     63  C   UNL     1      -4.502  12.088  -1.968  1.00  0.00     0.034 A 
BRANCH  50  64
ATOM     64  C   UNL     1      -8.194   8.373  -5.249  1.00  0.00     0.023 A 
ATOM     65  C   UNL     1      -9.125   7.481  -4.681  1.00  0.00     0.012 A 
ATOM     66  C   UNL     1      -8.534   9.086  -6.414  1.00  0.00     0.148 A 
ATOM     67  C   UNL     1     -10.366   7.278  -5.284  1.00  0.00     0.002 A 
ATOM     68  C   UNL     1      -9.788   8.911  -6.984  1.00  0.00     0.091 A 
ATOM     69  F   UNL     1      -7.621   9.909  -6.949  1.00  0.00    -0.205 F 
ATOM     70  C   UNL     1     -10.700   7.999  -6.429  1.00  0.00     0.022 A 
BRANCH  68  71
ATOM     71  S   UNL     1     -10.335   9.847  -8.416  1.00  0.00     0.127 S 
ATOM     72  O   UNL     1     -10.353   8.816  -9.453  1.00  0.00    -0.237 OA
ATOM     73  O   UNL     1     -11.657  10.309  -7.993  1.00  0.00    -0.237 OA
ATOM     74  O   UNL     1      -9.353  10.905  -8.604  1.00  0.00    -0.744 OA
ENDBRANCH  68  71
ENDBRANCH  50  64
BRANCH  51  75
ATOM     75  C   UNL     1       0.834   9.344  -1.129  1.00  0.00     0.023 A 
ATOM     76  C   UNL     1       0.950   9.492   0.267  1.00  0.00     0.012 A 
ATOM     77  C   UNL     1       1.998   9.392  -1.921  1.00  0.00     0.148 A 
ATOM     78  C   UNL     1       2.195   9.721   0.857  1.00  0.00     0.002 A 
ATOM     79  C   UNL     1       3.240   9.561  -1.322  1.00  0.00     0.091 A 
ATOM     80  F   UNL     1       1.866   9.283  -3.251  1.00  0.00    -0.205 F 
ATOM     81  C   UNL     1       3.340   9.746   0.065  1.00  0.00     0.022 A 
BRANCH  79  82
ATOM     82  S   UNL     1       4.775   9.498  -2.252  1.00  0.00     0.127 S 
ATOM     83  O   UNL     1       5.219  10.888  -2.192  1.00  0.00    -0.237 OA
ATOM     84  O   UNL     1       5.572   8.563  -1.456  1.00  0.00    -0.237 OA
ATOM     85  O   UNL     1       4.417   9.006  -3.575  1.00  0.00    -0.744 OA
ENDBRANCH  79  82
ENDBRANCH  51  75
BRANCH  63  86
ATOM     86  C   UNL     1      -4.782  13.479  -1.455  1.00  0.00     0.023 A 
ATOM     87  C   UNL     1      -4.164  14.592  -2.061  1.00  0.00     0.012 A 
ATOM     88  C   UNL     1      -5.709  13.691  -0.414  1.00  0.00     0.148 A 
ATOM     89  C   UNL     1      -4.433  15.886  -1.615  1.00  0.00     0.002 A 
ATOM     90  C   UNL     1      -6.011  14.987  -0.009  1.00  0.00     0.091 A 
ATOM     91  F   UNL     1      -6.276  12.623   0.166  1.00  0.00    -0.205 F 
ATOM     92  C   UNL     1      -5.364  16.084  -0.599  1.00  0.00     0.022 A 
BRANCH  90  93
ATOM     93  S   UNL     1      -7.269  15.340   1.225  1.00  0.00     0.127 S 
ATOM     94  O   UNL     1      -6.456  15.705   2.384  1.00  0.00    -0.237 OA
ATOM     95  O   UNL     1      -7.999  16.454   0.617  1.00  0.00    -0.237 OA
ATOM     96  O   UNL     1      -8.047  14.116   1.365  1.00  0.00    -0.744 OA
ENDBRANCH  90  93
ENDBRANCH  63  86
ENDBRANCH  37  38
ENDBRANCH  30  32
ENDBRANCH  29  30
ENDBRANCH  28  29
ENDBRANCH   1  28
TORSDOF 19
