REMARK SMILES Cc1ccc(C2=NN(C(=O)CCC(=O)OCCOC(=O)c3ccc(-c4c5nc(c(-c6cccc(S(=O)(=O)[O-])c6F)c6ccc([nH]6)c(-c6cccc(S(=O)(=O)[O-])c6F)c6nc(c(-c7cccc(S(=O)(=O)[O-])c7F)c7ccc4[nH]7)C=C6)C=C5)cc3)[C@H](C[C@@H]3C=c4cccc(C)c4=NC3=O)C2)cc1
REMARK SMILES IDX 16 1 15 2 13 3 14 4 12 5 11 6 9 7 10 8 8 9 6 10 7 11 98 12
REMARK SMILES IDX 84 13 5 14 1 15 2 16 3 17 100 18 4 19 99 20 85 21 86 22
REMARK SMILES IDX 87 23 96 24 88 25 95 26 97 27 89 28 94 29 90 30 92 31 91 32
REMARK SMILES IDX 93 33 17 34 18 35 19 36 20 37 21 38 22 39 83 40 23 41 82 42
REMARK SMILES IDX 24 43 25 44 26 45 76 46 27 47 81 48 75 49 77 50 28 51 80 52
REMARK SMILES IDX 74 53 73 54 29 56 61 57 41 58 60 59 42 60 45 61 59 62 78 63
REMARK SMILES IDX 43 64 44 65 58 67 79 68 46 69 30 70 31 71 39 72 32 73 34 74
REMARK SMILES IDX 40 75 33 76 35 77 36 78 37 79 38 80 62 81 63 82 71 83 64 84
REMARK SMILES IDX 66 85 72 86 65 87 67 88 68 89 69 90 70 91 47 92 48 93 56 94
REMARK SMILES IDX 49 95 51 96 57 97 50 98 52 99 53 100 54 101 55 102
REMARK H PARENT 77 55 45 66
REMARK Flexibility Score: inf
ROOT
ATOM      1  C   UNL     1      -4.874   1.796  -1.447  1.00  0.00     0.274 C 
ENDROOT
BRANCH   1   2
ATOM      2  O   UNL     1      -5.349   1.596  -0.101  1.00  0.00    -0.462 OA
BRANCH   2   3
ATOM      3  C   UNL     1      -6.408   0.849   0.251  1.00  0.00     0.306 C 
ATOM      4  O   UNL     1      -7.193   0.317  -0.514  1.00  0.00    -0.252 OA
BRANCH   3   5
ATOM      5  C   UNL     1      -6.430   0.539   1.709  1.00  0.00     0.132 C 
BRANCH   5   6
ATOM      6  C   UNL     1      -6.646  -0.957   1.827  1.00  0.00     0.114 C 
BRANCH   6   7
ATOM      7  C   UNL     1      -5.330  -1.712   1.806  1.00  0.00     0.243 C 
ATOM      8  O   UNL     1      -5.003  -2.307   2.842  1.00  0.00    -0.273 OA
BRANCH   7   9
ATOM      9  N   UNL     1      -4.510  -1.725   0.678  1.00  0.00    -0.230 N 
ATOM     10  C   UNL     1      -2.540  -1.229  -0.068  1.00  0.00     0.070 C 
ATOM     11  N   UNL     1      -3.189  -1.489   1.012  1.00  0.00    -0.174 NA
ATOM     12  C   UNL     1      -3.273  -1.442  -1.341  1.00  0.00     0.086 C 
ATOM     13  C   UNL     1      -4.706  -1.571  -0.802  1.00  0.00     0.118 C 
BRANCH  10  14
ATOM     14  C   UNL     1      -1.144  -0.818  -0.070  1.00  0.00    -0.002 A 
ATOM     15  C   UNL     1       2.988   0.280   0.029  1.00  0.00     0.044 C 
ATOM     16  C   UNL     1       1.535  -0.089  -0.015  1.00  0.00    -0.051 A 
ATOM     17  C   UNL     1       1.170  -1.443  -0.029  1.00  0.00     0.004 A 
ATOM     18  C   UNL     1       0.538   0.898  -0.014  1.00  0.00     0.004 A 
ATOM     19  C   UNL     1      -0.171  -1.811  -0.054  1.00  0.00     0.010 A 
ATOM     20  C   UNL     1      -0.809   0.536  -0.038  1.00  0.00     0.010 A 
ENDBRANCH  10  14
BRANCH  13  21
ATOM     21  C   UNL     1      -5.452  -2.619  -1.664  1.00  0.00     0.045 C 
BRANCH  21  22
ATOM     22  C   UNL     1      -6.939  -2.837  -1.368  1.00  0.00     0.106 C 
ATOM     23  C   UNL     1      -7.068  -3.588  -0.091  1.00  0.00    -0.003 C 
ATOM     24  C   UNL     1      -7.687  -3.551  -2.515  1.00  0.00     0.253 C 
ATOM     25  C   UNL     1      -8.046  -4.443   0.169  1.00  0.00    -0.003 A 
ATOM     26  N   UNL     1      -8.708  -4.435  -2.211  1.00  0.00    -0.212 NA
ATOM     27  O   UNL     1      -7.382  -3.327  -3.686  1.00  0.00    -0.272 OA
ATOM     28  C   UNL     1      -8.290  -4.929   1.499  1.00  0.00     0.010 A 
ATOM     29  C   UNL     1      -8.869  -4.853  -0.995  1.00  0.00     0.077 A 
ATOM     30  C   UNL     1      -9.275  -5.804   1.713  1.00  0.00     0.001 A 
ATOM     31  C   UNL     1      -9.880  -5.919  -0.667  1.00  0.00    -0.025 A 
ATOM     32  C   UNL     1     -10.036  -6.332   0.606  1.00  0.00     0.005 A 
ATOM     33  C   UNL     1     -10.584  -6.554  -1.820  1.00  0.00     0.047 C 
ENDBRANCH  21  22
ENDBRANCH  13  21
ENDBRANCH   7   9
ENDBRANCH   6   7
ENDBRANCH   5   6
ENDBRANCH   3   5
ENDBRANCH   2   3
ENDBRANCH   1   2
BRANCH   1  34
ATOM     34  C   UNL     1      -5.483   1.249  -2.782  1.00  0.00     0.275 C 
BRANCH  34  35
ATOM     35  O   UNL     1      -6.788   0.626  -2.962  1.00  0.00    -0.458 OA
BRANCH  35  36
ATOM     36  C   UNL     1      -8.064   1.151  -2.948  1.00  0.00     0.338 C 
ATOM     37  O   UNL     1      -9.008   0.592  -3.445  1.00  0.00    -0.246 OA
BRANCH  36  38
ATOM     38  C   UNL     1      -8.201   2.416  -2.200  1.00  0.00     0.060 A 
ATOM     39  C   UNL     1      -8.889   2.476  -0.972  1.00  0.00     0.016 A 
ATOM     40  C   UNL     1      -7.323   3.397  -2.573  1.00  0.00     0.016 A 
ATOM     41  C   UNL     1      -8.487   3.396   0.010  1.00  0.00     0.010 A 
ATOM     42  C   UNL     1      -6.793   4.128  -1.550  1.00  0.00     0.010 A 
ATOM     43  C   UNL     1      -7.359   4.167  -0.246  1.00  0.00    -0.014 A 
BRANCH  43  44
ATOM     44  C   UNL     1      -6.786   5.238   0.584  1.00  0.00     0.031 A 
ATOM     45  C   UNL     1      -6.140   5.149   1.909  1.00  0.00     0.074 A 
ATOM     46  C   UNL     1      -6.692   6.380  -0.134  1.00  0.00     0.049 A 
ATOM     47  N   UNL     1      -5.948   6.182   2.662  1.00  0.00    -0.248 NA
ATOM     48  C   UNL     1      -5.627   3.930   2.513  1.00  0.00     0.031 C 
ATOM     49  C   UNL     1      -5.829   7.530  -0.012  1.00  0.00     0.029 A 
ATOM     50  N   UNL     1      -7.497   6.678  -1.239  1.00  0.00    -0.354 N 
ATOM     51  C   UNL     1      -5.098   5.820   3.692  1.00  0.00     0.074 A 
ATOM     52  C   UNL     1      -5.004   4.384   3.611  1.00  0.00     0.031 C 
ATOM     53  C   UNL     1      -6.307   8.496  -0.825  1.00  0.00     0.029 A 
ATOM     54  C   UNL     1      -7.600   8.046  -1.340  1.00  0.00     0.049 A 
ATOM     55  H   UNL     1      -7.918   6.021  -1.840  1.00  0.00     0.167 HD
ATOM     56  C   UNL     1      -4.433   6.788   4.388  1.00  0.00     0.034 A 
ATOM     57  C   UNL     1      -8.829   8.623  -1.206  1.00  0.00     0.034 A 
ATOM     58  C   UNL     1      -4.725   8.104   3.808  1.00  0.00     0.049 A 
ATOM     59  C   UNL     1      -8.823   9.512   0.010  1.00  0.00     0.074 A 
ATOM     60  C   UNL     1      -4.059   8.852   2.852  1.00  0.00     0.029 A 
ATOM     61  N   UNL     1      -5.978   8.676   3.962  1.00  0.00    -0.354 N 
ATOM     62  N   UNL     1      -7.917   9.446   0.945  1.00  0.00    -0.248 NA
ATOM     63  C   UNL     1      -9.798  10.562   0.252  1.00  0.00     0.031 C 
ATOM     64  C   UNL     1      -4.959   9.834   2.363  1.00  0.00     0.029 A 
ATOM     65  C   UNL     1      -6.157   9.703   3.047  1.00  0.00     0.049 A 
ATOM     66  H   UNL     1      -6.647   8.394   4.628  1.00  0.00     0.167 HD
ATOM     67  C   UNL     1      -8.163  10.381   1.903  1.00  0.00     0.074 A 
ATOM     68  C   UNL     1      -9.333  11.085   1.402  1.00  0.00     0.031 C 
ATOM     69  C   UNL     1      -7.400  10.465   3.033  1.00  0.00     0.034 A 
BRANCH  56  70
ATOM     70  C   UNL     1      -3.279   6.586   5.365  1.00  0.00     0.023 A 
ATOM     71  C   UNL     1      -2.370   7.665   5.516  1.00  0.00     0.012 A 
ATOM     72  C   UNL     1      -3.003   5.438   6.143  1.00  0.00     0.148 A 
ATOM     73  C   UNL     1      -1.217   7.591   6.303  1.00  0.00     0.002 A 
ATOM     74  C   UNL     1      -1.827   5.348   6.907  1.00  0.00     0.091 A 
ATOM     75  F   UNL     1      -3.903   4.449   6.194  1.00  0.00    -0.205 F 
ATOM     76  C   UNL     1      -0.930   6.420   6.979  1.00  0.00     0.022 A 
BRANCH  74  77
ATOM     77  S   UNL     1      -1.331   3.860   7.798  1.00  0.00     0.127 S 
ATOM     78  O   UNL     1       0.013   3.619   7.266  1.00  0.00    -0.237 OA
ATOM     79  O   UNL     1      -1.359   4.299   9.191  1.00  0.00    -0.237 OA
ATOM     80  O   UNL     1      -2.306   2.836   7.444  1.00  0.00    -0.744 OA
ENDBRANCH  74  77
ENDBRANCH  56  70
BRANCH  57  81
ATOM     81  C   UNL     1      -9.971   7.739  -1.668  1.00  0.00     0.023 A 
ATOM     82  C   UNL     1      -9.928   7.304  -3.022  1.00  0.00     0.012 A 
ATOM     83  C   UNL     1     -10.782   7.011  -0.772  1.00  0.00     0.148 A 
ATOM     84  C   UNL     1     -10.563   6.127  -3.437  1.00  0.00     0.002 A 
ATOM     85  C   UNL     1     -11.420   5.836  -1.199  1.00  0.00     0.091 A 
ATOM     86  F   UNL     1     -10.858   7.418   0.501  1.00  0.00    -0.205 F 
ATOM     87  C   UNL     1     -11.288   5.380  -2.519  1.00  0.00     0.022 A 
BRANCH  85  88
ATOM     88  S   UNL     1     -12.319   4.781  -0.045  1.00  0.00     0.127 S 
ATOM     89  O   UNL     1     -13.660   5.355  -0.107  1.00  0.00    -0.237 OA
ATOM     90  O   UNL     1     -12.193   3.452  -0.646  1.00  0.00    -0.237 OA
ATOM     91  O   UNL     1     -11.602   4.928   1.214  1.00  0.00    -0.744 OA
ENDBRANCH  85  88
ENDBRANCH  57  81
BRANCH  69  92
ATOM     92  C   UNL     1      -7.761  11.270   4.255  1.00  0.00     0.023 A 
ATOM     93  C   UNL     1      -9.091  11.618   4.547  1.00  0.00     0.012 A 
ATOM     94  C   UNL     1      -6.791  11.531   5.256  1.00  0.00     0.148 A 
ATOM     95  C   UNL     1      -9.442  12.238   5.748  1.00  0.00     0.002 A 
ATOM     96  C   UNL     1      -7.167  12.027   6.498  1.00  0.00     0.091 A 
ATOM     97  F   UNL     1      -5.491  11.306   5.013  1.00  0.00    -0.205 F 
ATOM     98  C   UNL     1      -8.485  12.413   6.738  1.00  0.00     0.022 A 
BRANCH  96  99
ATOM     99  S   UNL     1      -6.005  11.991   7.868  1.00  0.00     0.127 S 
ATOM    100  O   UNL     1      -5.315  13.270   7.719  1.00  0.00    -0.237 OA
ATOM    101  O   UNL     1      -6.888  11.907   9.033  1.00  0.00    -0.237 OA
ATOM    102  O   UNL     1      -5.207  10.793   7.638  1.00  0.00    -0.744 OA
ENDBRANCH  96  99
ENDBRANCH  69  92
ENDBRANCH  43  44
ENDBRANCH  36  38
ENDBRANCH  35  36
ENDBRANCH  34  35
ENDBRANCH   1  34
TORSDOF 20
