REMARK SMILES C[NH2+][C@@]1(C(=O)OCCOC(=O)c2ccc(-c3c4nc(c(-c5cccc(S(=O)(=O)[O-])c5F)c5ccc([nH]5)c(-c5cccc(S(=O)(=O)[O-])c5F)c5nc(c(-c6cccc(S(=O)(=O)[O-])c6F)c6ccc3[nH]6)C=C5)C=C4)cc2)CC[C@H](n2ccc(C)n2)C1
REMARK SMILES IDX 8 1 7 2 6 3 4 4 5 5 3 6 75 7 84 8 76 9 77 10 2 11 1 12 78 15
REMARK SMILES IDX 79 16 83 17 80 18 81 19 82 20 9 21 10 22 11 23 12 24 13 25
REMARK SMILES IDX 74 26 14 27 73 28 15 29 16 30 17 31 67 32 18 33 72 34 66 35
REMARK SMILES IDX 68 36 19 37 71 38 65 39 64 40 20 42 52 43 32 44 51 45 33 46
REMARK SMILES IDX 36 47 50 48 69 49 34 50 35 51 49 53 70 54 37 55 21 56 22 57
REMARK SMILES IDX 30 58 23 59 25 60 31 61 24 62 26 63 27 64 28 65 29 66 53 67
REMARK SMILES IDX 54 68 62 69 55 70 57 71 63 72 56 73 58 74 59 75 60 76 61 77
REMARK SMILES IDX 38 78 39 79 47 80 40 81 42 82 48 83 41 84 43 85 44 86 45 87
REMARK SMILES IDX 46 88
REMARK H PARENT 2 13 2 14 68 41 36 52
REMARK Flexibility Score: inf
ROOT
ATOM      1  C   UNL     1      -2.263  -0.247   2.649  1.00  0.00     0.275 C 
ENDROOT
BRANCH   1   2
ATOM      2  C   UNL     1      -2.862   0.779   1.693  1.00  0.00     0.274 C 
BRANCH   2   3
ATOM      3  O   UNL     1      -2.595   0.398   0.329  1.00  0.00    -0.457 OA
BRANCH   3   4
ATOM      4  C   UNL     1      -1.568   1.008  -0.309  1.00  0.00     0.368 C 
ATOM      5  O   UNL     1      -0.880   1.903   0.175  1.00  0.00    -0.245 OA
BRANCH   4   6
ATOM      6  C   UNL     1      -1.414   0.536  -1.788  1.00  0.00     0.196 C 
ATOM      7  C   UNL     1      -2.215   1.504  -2.666  1.00  0.00     0.083 C 
ATOM      8  C   UNL     1      -2.057  -0.817  -2.128  1.00  0.00     0.108 C 
ATOM      9  C   UNL     1      -3.650   1.002  -2.550  1.00  0.00     0.034 C 
ATOM     10  C   UNL     1      -3.546  -0.531  -2.430  1.00  0.00     0.114 C 
BRANCH   6  11
ATOM     11  N   UNL     1       0.019   0.639  -2.173  1.00  0.00    -0.334 N 
ATOM     12  C   UNL     1       0.799  -0.563  -1.904  1.00  0.00     0.331 C 
ATOM     13  H   UNL     1       0.068   0.835  -3.173  1.00  0.00     0.347 HD
ATOM     14  H   UNL     1       0.422   1.383  -1.604  1.00  0.00     0.347 HD
ENDBRANCH   6  11
BRANCH  10  15
ATOM     15  N   UNL     1      -4.505  -1.096  -1.493  1.00  0.00    -0.269 N 
ATOM     16  C   UNL     1      -5.848  -0.838  -1.445  1.00  0.00     0.109 A 
ATOM     17  N   UNL     1      -4.124  -2.010  -0.583  1.00  0.00    -0.178 NA
ATOM     18  C   UNL     1      -6.336  -1.549  -0.374  1.00  0.00     0.045 A 
ATOM     19  C   UNL     1      -5.221  -2.246   0.140  1.00  0.00     0.059 A 
ATOM     20  C   UNL     1      -5.160  -3.145   1.317  1.00  0.00     0.069 C 
ENDBRANCH  10  15
ENDBRANCH   4   6
ENDBRANCH   3   4
ENDBRANCH   2   3
ENDBRANCH   1   2
BRANCH   1  21
ATOM     21  O   UNL     1      -0.835  -0.185   2.534  1.00  0.00    -0.458 OA
BRANCH  21  22
ATOM     22  C   UNL     1      -0.178  -1.363   2.638  1.00  0.00     0.338 C 
ATOM     23  O   UNL     1      -0.661  -2.443   2.932  1.00  0.00    -0.246 OA
BRANCH  22  24
ATOM     24  C   UNL     1       1.256  -1.155   2.328  1.00  0.00     0.060 A 
ATOM     25  C   UNL     1       1.663  -0.192   1.403  1.00  0.00     0.016 A 
ATOM     26  C   UNL     1       2.206  -1.991   2.914  1.00  0.00     0.016 A 
ATOM     27  C   UNL     1       2.995  -0.128   0.993  1.00  0.00     0.010 A 
ATOM     28  C   UNL     1       3.557  -1.851   2.580  1.00  0.00     0.010 A 
ATOM     29  C   UNL     1       3.967  -0.944   1.587  1.00  0.00    -0.014 A 
BRANCH  29  30
ATOM     30  C   UNL     1       5.397  -0.872   1.166  1.00  0.00     0.031 A 
ATOM     31  C   UNL     1       6.122  -2.120   0.727  1.00  0.00     0.074 A 
ATOM     32  C   UNL     1       6.066   0.299   1.200  1.00  0.00     0.049 A 
ATOM     33  N   UNL     1       7.404  -2.314   0.556  1.00  0.00    -0.248 NA
ATOM     34  C   UNL     1       5.299  -3.315   0.471  1.00  0.00     0.031 C 
ATOM     35  C   UNL     1       5.497   1.590   1.589  1.00  0.00     0.029 A 
ATOM     36  N   UNL     1       7.378   0.592   0.913  1.00  0.00    -0.354 N 
ATOM     37  C   UNL     1       7.551  -3.667   0.271  1.00  0.00     0.074 A 
ATOM     38  C   UNL     1       6.224  -4.243   0.265  1.00  0.00     0.031 C 
ATOM     39  C   UNL     1       6.439   2.538   1.485  1.00  0.00     0.029 A 
ATOM     40  C   UNL     1       7.703   1.914   1.115  1.00  0.00     0.049 A 
ATOM     41  H   UNL     1       8.024  -0.080   0.595  1.00  0.00     0.167 HD
ATOM     42  C   UNL     1       8.688  -4.364   0.032  1.00  0.00     0.034 A 
ATOM     43  C   UNL     1       8.889   2.552   1.057  1.00  0.00     0.034 A 
ATOM     44  C   UNL     1       9.995  -3.770  -0.066  1.00  0.00     0.049 A 
ATOM     45  C   UNL     1      10.128   1.766   0.735  1.00  0.00     0.074 A 
ATOM     46  C   UNL     1      11.202  -4.389  -0.345  1.00  0.00     0.029 A 
ATOM     47  N   UNL     1      10.264  -2.419   0.083  1.00  0.00    -0.354 N 
ATOM     48  N   UNL     1      10.246   0.490   0.460  1.00  0.00    -0.248 NA
ATOM     49  C   UNL     1      11.398   2.506   0.715  1.00  0.00     0.031 C 
ATOM     50  C   UNL     1      12.201  -3.409  -0.371  1.00  0.00     0.029 A 
ATOM     51  C   UNL     1      11.615  -2.181  -0.111  1.00  0.00     0.049 A 
ATOM     52  H   UNL     1       9.594  -1.730   0.294  1.00  0.00     0.167 HD
ATOM     53  C   UNL     1      11.599   0.274   0.232  1.00  0.00     0.074 A 
ATOM     54  C   UNL     1      12.256   1.558   0.361  1.00  0.00     0.031 C 
ATOM     55  C   UNL     1      12.244  -0.889  -0.028  1.00  0.00     0.034 A 
BRANCH  42  56
ATOM     56  C   UNL     1       8.573  -5.851  -0.174  1.00  0.00     0.023 A 
ATOM     57  C   UNL     1       8.098  -6.353  -1.401  1.00  0.00     0.012 A 
ATOM     58  C   UNL     1       9.007  -6.751   0.820  1.00  0.00     0.148 A 
ATOM     59  C   UNL     1       8.034  -7.728  -1.627  1.00  0.00     0.002 A 
ATOM     60  C   UNL     1       8.978  -8.119   0.573  1.00  0.00     0.091 A 
ATOM     61  F   UNL     1       9.432  -6.256   1.992  1.00  0.00    -0.205 F 
ATOM     62  C   UNL     1       8.485  -8.610  -0.647  1.00  0.00     0.022 A 
BRANCH  60  63
ATOM     63  S   UNL     1       9.612  -9.322   1.748  1.00  0.00     0.127 S 
ATOM     64  O   UNL     1       8.378  -9.844   2.333  1.00  0.00    -0.237 OA
ATOM     65  O   UNL     1      10.321 -10.264   0.881  1.00  0.00    -0.237 OA
ATOM     66  O   UNL     1      10.473  -8.573   2.654  1.00  0.00    -0.744 OA
ENDBRANCH  60  63
ENDBRANCH  42  56
BRANCH  43  67
ATOM     67  C   UNL     1       8.944   4.022   1.298  1.00  0.00     0.023 A 
ATOM     68  C   UNL     1       9.222   4.887   0.223  1.00  0.00     0.012 A 
ATOM     69  C   UNL     1       8.641   4.572   2.559  1.00  0.00     0.148 A 
ATOM     70  C   UNL     1       9.202   6.272   0.402  1.00  0.00     0.002 A 
ATOM     71  C   UNL     1       8.554   5.951   2.712  1.00  0.00     0.091 A 
ATOM     72  F   UNL     1       8.414   3.736   3.583  1.00  0.00    -0.205 F 
ATOM     73  C   UNL     1       8.848   6.803   1.639  1.00  0.00     0.022 A 
BRANCH  71  74
ATOM     74  S   UNL     1       7.926   6.686   4.227  1.00  0.00     0.127 S 
ATOM     75  O   UNL     1       9.158   7.035   4.928  1.00  0.00    -0.237 OA
ATOM     76  O   UNL     1       7.158   7.827   3.726  1.00  0.00    -0.237 OA
ATOM     77  O   UNL     1       7.108   5.647   4.840  1.00  0.00    -0.744 OA
ENDBRANCH  71  74
ENDBRANCH  43  67
BRANCH  55  78
ATOM     78  C   UNL     1      13.738  -0.828  -0.196  1.00  0.00     0.023 A 
ATOM     79  C   UNL     1      14.553  -0.706   0.946  1.00  0.00     0.012 A 
ATOM     80  C   UNL     1      14.334  -0.952  -1.465  1.00  0.00     0.148 A 
ATOM     81  C   UNL     1      15.942  -0.682   0.825  1.00  0.00     0.002 A 
ATOM     82  C   UNL     1      15.720  -0.963  -1.575  1.00  0.00     0.091 A 
ATOM     83  F   UNL     1      13.539  -1.043  -2.541  1.00  0.00    -0.205 F 
ATOM     84  C   UNL     1      16.525  -0.821  -0.432  1.00  0.00     0.022 A 
BRANCH  82  85
ATOM     85  S   UNL     1      16.548  -1.212  -3.149  1.00  0.00     0.127 S 
ATOM     86  O   UNL     1      16.923   0.154  -3.509  1.00  0.00    -0.237 OA
ATOM     87  O   UNL     1      17.671  -2.076  -2.783  1.00  0.00    -0.237 OA
ATOM     88  O   UNL     1      15.563  -1.846  -4.016  1.00  0.00    -0.744 OA
ENDBRANCH  82  85
ENDBRANCH  55  78
ENDBRANCH  29  30
ENDBRANCH  22  24
ENDBRANCH  21  22
ENDBRANCH   1  21
TORSDOF 16
