REMARK SMILES Cc1ccccc1OCC(=O)Nc1ccc2c(c1)C(=O)N(CC(=O)OCCOC(=O)c1ccc(-c3c4nc(c(-c5cccc(S(=O)(=O)[O-])c5F)c5ccc([nH]5)c(-c5cccc(S(=O)(=O)[O-])c5F)c5nc(c(-c6cccc(S(=O)(=O)[O-])c6F)c6ccc3[nH]6)C=C5)C=C4)cc1)C2=O
REMARK SMILES IDX 26 1 25 2 23 3 24 4 22 5 21 6 13 7 14 8 18 9 15 10 17 11
REMARK SMILES IDX 16 12 19 13 94 14 20 15 95 16 12 17 10 18 11 19 9 21 8 22
REMARK SMILES IDX 7 23 1 24 2 25 3 26 4 27 6 28 5 29 27 30 28 31 29 32 30 33
REMARK SMILES IDX 31 34 32 35 93 36 33 37 92 38 34 39 35 40 36 41 86 42 37 43
REMARK SMILES IDX 91 44 85 45 87 46 38 47 90 48 84 49 83 50 39 52 71 53 51 54
REMARK SMILES IDX 70 55 52 56 55 57 69 58 88 59 53 60 54 61 68 63 89 64 56 65
REMARK SMILES IDX 40 66 41 67 49 68 42 69 44 70 50 71 43 72 45 73 46 74 47 75
REMARK SMILES IDX 48 76 72 77 73 78 81 79 74 80 76 81 82 82 75 83 77 84 78 85
REMARK SMILES IDX 79 86 80 87 57 88 58 89 66 90 59 91 61 92 67 93 60 94 62 95
REMARK SMILES IDX 63 96 64 97 65 98
REMARK H PARENT 12 20 87 51 55 62
REMARK Flexibility Score: inf
ROOT
ATOM      1  C   UNL     1       0.883   6.490  10.083  1.00  0.00     0.274 C 
ENDROOT
BRANCH   1   2
ATOM      2  O   UNL     1       0.219   7.250   9.068  1.00  0.00    -0.461 OA
BRANCH   2   3
ATOM      3  C   UNL     1       1.070   7.898   8.092  1.00  0.00     0.326 C 
ATOM      4  O   UNL     1       2.166   8.086   8.685  1.00  0.00    -0.250 OA
BRANCH   3   5
ATOM      5  C   UNL     1       0.501   8.181   5.990  1.00  0.00     0.251 C 
BRANCH   5   6
ATOM      6  N   UNL     1       0.571   7.274   4.667  1.00  0.00    -0.263 N 
ATOM      7  C   UNL     1       1.519   3.487   2.568  1.00  0.00     0.042 A 
ATOM      8  C   UNL     1       0.182   3.584   2.125  1.00  0.00     0.027 A 
ATOM      9  C   UNL     1       2.133   4.551   3.201  1.00  0.00     0.040 A 
ATOM     10  C   UNL     1      -0.593   4.725   2.395  1.00  0.00     0.017 A 
ATOM     11  C   UNL     1       1.372   5.681   3.352  1.00  0.00     0.055 A 
ATOM     12  C   UNL     1       0.028   5.744   3.080  1.00  0.00     0.053 A 
ATOM     13  C   UNL     1       1.724   6.878   4.056  1.00  0.00     0.262 C 
ATOM     14  C   UNL     1      -0.487   6.857   3.893  1.00  0.00     0.262 C 
ATOM     15  O   UNL     1       2.859   7.306   4.038  1.00  0.00    -0.269 OA
ATOM     16  O   UNL     1      -1.643   7.229   3.867  1.00  0.00    -0.269 OA
BRANCH   7  17
ATOM     17  N   UNL     1       2.275   2.322   2.452  1.00  0.00    -0.323 N 
ATOM     18  C   UNL     1       2.851   1.890   1.291  1.00  0.00     0.262 C 
ATOM     19  O   UNL     1       3.835   1.148   1.373  1.00  0.00    -0.271 OA
ATOM     20  H   UNL     1       2.403   1.774   3.260  1.00  0.00     0.170 HD
BRANCH  18  21
ATOM     21  C   UNL     1       2.362   2.430  -0.063  1.00  0.00     0.329 C 
BRANCH  21  22
ATOM     22  O   UNL     1       1.089   2.144  -0.600  1.00  0.00    -0.483 OA
BRANCH  22  23
ATOM     23  C   UNL     1       0.477   0.942  -0.402  1.00  0.00     0.122 A 
ATOM     24  C   UNL     1       2.491  -0.680  -0.495  1.00  0.00     0.048 C 
ATOM     25  C   UNL     1       1.042  -0.335  -0.322  1.00  0.00    -0.009 A 
ATOM     26  C   UNL     1       0.185  -1.432  -0.080  1.00  0.00     0.007 A 
ATOM     27  C   UNL     1      -1.197  -1.279   0.024  1.00  0.00     0.001 A 
ATOM     28  C   UNL     1      -0.923   1.075  -0.339  1.00  0.00     0.047 A 
ATOM     29  C   UNL     1      -1.756  -0.020  -0.117  1.00  0.00     0.004 A 
ENDBRANCH  22  23
ENDBRANCH  21  22
ENDBRANCH  18  21
ENDBRANCH   7  17
ENDBRANCH   5   6
ENDBRANCH   3   5
ENDBRANCH   2   3
ENDBRANCH   1   2
BRANCH   1  30
ATOM     30  C   UNL     1       1.406   5.192   9.453  1.00  0.00     0.275 C 
BRANCH  30  31
ATOM     31  O   UNL     1       2.563   5.303   8.569  1.00  0.00    -0.458 OA
BRANCH  31  32
ATOM     32  C   UNL     1       2.505   5.415   7.209  1.00  0.00     0.338 C 
ATOM     33  O   UNL     1       3.252   4.817   6.449  1.00  0.00    -0.246 OA
BRANCH  32  34
ATOM     34  C   UNL     1       1.665   6.522   6.709  1.00  0.00     0.060 A 
ATOM     35  C   UNL     1       2.511   8.122   6.575  1.00  0.00     0.016 A 
ATOM     36  C   UNL     1      -0.106   6.463   7.027  1.00  0.00     0.016 A 
ATOM     37  C   UNL     1       1.640   9.632   7.055  1.00  0.00     0.010 A 
ATOM     38  C   UNL     1      -0.983   7.977   7.468  1.00  0.00     0.010 A 
ATOM     39  C   UNL     1      -0.060   9.533   7.565  1.00  0.00    -0.014 A 
BRANCH  39  40
ATOM     40  C   UNL     1      -0.526  10.378   8.658  1.00  0.00     0.031 A 
ATOM     41  C   UNL     1      -1.794  11.057   8.387  1.00  0.00     0.074 A 
ATOM     42  C   UNL     1       0.046  10.313   9.897  1.00  0.00     0.049 A 
ATOM     43  N   UNL     1      -2.256  11.992   9.126  1.00  0.00    -0.248 NA
ATOM     44  C   UNL     1      -2.607  10.804   7.193  1.00  0.00     0.031 C 
ATOM     45  C   UNL     1      -0.605  10.606  11.177  1.00  0.00     0.029 A 
ATOM     46  N   UNL     1       1.342   9.982  10.317  1.00  0.00    -0.354 N 
ATOM     47  C   UNL     1      -3.546  12.214   8.713  1.00  0.00     0.074 A 
ATOM     48  C   UNL     1      -3.643  11.616   7.413  1.00  0.00     0.031 C 
ATOM     49  C   UNL     1       0.319  10.685  12.153  1.00  0.00     0.029 A 
ATOM     50  C   UNL     1       1.622  10.633  11.524  1.00  0.00     0.049 A 
ATOM     51  H   UNL     1       1.959   9.383   9.837  1.00  0.00     0.167 HD
ATOM     52  C   UNL     1      -4.413  12.713   9.627  1.00  0.00     0.034 A 
ATOM     53  C   UNL     1       2.631  11.536  11.736  1.00  0.00     0.034 A 
ATOM     54  C   UNL     1      -3.668  13.168  10.816  1.00  0.00     0.049 A 
ATOM     55  C   UNL     1       2.050  12.934  11.980  1.00  0.00     0.074 A 
ATOM     56  C   UNL     1      -3.460  12.619  12.070  1.00  0.00     0.029 A 
ATOM     57  N   UNL     1      -2.677  14.138  10.651  1.00  0.00    -0.354 N 
ATOM     58  N   UNL     1       0.773  13.205  11.958  1.00  0.00    -0.248 NA
ATOM     59  C   UNL     1       2.849  14.135  12.220  1.00  0.00     0.031 C 
ATOM     60  C   UNL     1      -2.280  13.212  12.614  1.00  0.00     0.029 A 
ATOM     61  C   UNL     1      -1.801  14.164  11.727  1.00  0.00     0.049 A 
ATOM     62  H   UNL     1      -2.609  14.730   9.868  1.00  0.00     0.167 HD
ATOM     63  C   UNL     1       0.566  14.557  11.989  1.00  0.00     0.074 A 
ATOM     64  C   UNL     1       1.899  15.087  12.242  1.00  0.00     0.031 C 
ATOM     65  C   UNL     1      -0.671  15.106  11.745  1.00  0.00     0.034 A 
BRANCH  52  66
ATOM     66  C   UNL     1      -5.924  12.604   9.547  1.00  0.00     0.023 A 
ATOM     67  C   UNL     1      -6.647  13.211  10.594  1.00  0.00     0.012 A 
ATOM     68  C   UNL     1      -6.696  11.881   8.595  1.00  0.00     0.148 A 
ATOM     69  C   UNL     1      -8.039  13.112  10.699  1.00  0.00     0.002 A 
ATOM     70  C   UNL     1      -8.093  11.839   8.663  1.00  0.00     0.091 A 
ATOM     71  F   UNL     1      -6.101  11.142   7.658  1.00  0.00    -0.205 F 
ATOM     72  C   UNL     1      -8.765  12.442   9.725  1.00  0.00     0.022 A 
BRANCH  70  73
ATOM     73  S   UNL     1      -9.112  11.026   7.412  1.00  0.00     0.127 S 
ATOM     74  O   UNL     1      -9.711   9.928   8.170  1.00  0.00    -0.237 OA
ATOM     75  O   UNL     1     -10.049  12.086   7.037  1.00  0.00    -0.237 OA
ATOM     76  O   UNL     1      -8.209  10.615   6.345  1.00  0.00    -0.744 OA
ENDBRANCH  70  73
ENDBRANCH  52  66
BRANCH  53  77
ATOM     77  C   UNL     1       3.865  11.267  10.934  1.00  0.00     0.023 A 
ATOM     78  C   UNL     1       4.452   9.985  11.057  1.00  0.00     0.012 A 
ATOM     79  C   UNL     1       4.076  11.997   9.763  1.00  0.00     0.148 A 
ATOM     80  C   UNL     1       4.951   9.338   9.925  1.00  0.00     0.002 A 
ATOM     81  C   UNL     1       4.534  11.341   8.632  1.00  0.00     0.091 A 
ATOM     82  F   UNL     1       3.732  13.290   9.717  1.00  0.00    -0.205 F 
ATOM     83  C   UNL     1       4.921   9.995   8.694  1.00  0.00     0.022 A 
BRANCH  81  84
ATOM     84  S   UNL     1       4.319  12.180   7.057  1.00  0.00     0.127 S 
ATOM     85  O   UNL     1       4.455  11.092   6.090  1.00  0.00    -0.237 OA
ATOM     86  O   UNL     1       2.969  12.723   7.151  1.00  0.00    -0.237 OA
ATOM     87  O   UNL     1       5.410  13.146   7.062  1.00  0.00    -0.744 OA
ENDBRANCH  81  84
ENDBRANCH  53  77
BRANCH  65  88
ATOM     88  C   UNL     1      -0.945  16.596  11.542  1.00  0.00     0.023 A 
ATOM     89  C   UNL     1       0.080  17.537  11.331  1.00  0.00     0.012 A 
ATOM     90  C   UNL     1      -2.272  17.108  11.483  1.00  0.00     0.148 A 
ATOM     91  C   UNL     1      -0.172  18.909  11.216  1.00  0.00     0.002 A 
ATOM     92  C   UNL     1      -2.524  18.451  11.221  1.00  0.00     0.091 A 
ATOM     93  F   UNL     1      -3.317  16.308  11.723  1.00  0.00    -0.205 F 
ATOM     94  C   UNL     1      -1.477  19.366  11.147  1.00  0.00     0.022 A 
BRANCH  92  95
ATOM     95  S   UNL     1      -4.178  19.053  10.854  1.00  0.00     0.127 S 
ATOM     96  O   UNL     1      -4.515  19.767  12.084  1.00  0.00    -0.237 OA
ATOM     97  O   UNL     1      -3.937  19.914   9.695  1.00  0.00    -0.237 OA
ATOM     98  O   UNL     1      -4.980  17.872  10.565  1.00  0.00    -0.744 OA
ENDBRANCH  92  95
ENDBRANCH  65  88
ENDBRANCH  39  40
ENDBRANCH  32  34
ENDBRANCH  31  32
ENDBRANCH  30  31
ENDBRANCH   1  30
TORSDOF 19
