REMARK SMILES O=C(OCCOC(=O)[C@@H]1CCCCC[C@H]1NS(=O)(=O)c1cccnc1Cl)c1ccc(-c2c3nc(c(-c4cccc(S(=O)(=O)[O-])c4F)c4ccc([nH]4)c(-c4cccc(S(=O)(=O)[O-])c4F)c4nc(c(-c5cccc(S(=O)(=O)[O-])c5F)c5ccc2[nH]5)C=C4)C=C3)cc1
REMARK SMILES IDX 5 1 4 2 3 3 2 4 1 5 27 6 28 7 89 8 29 9 88 10 30 11 31 12
REMARK SMILES IDX 32 13 82 14 33 15 87 16 81 17 83 18 34 19 86 20 80 21 79 22
REMARK SMILES IDX 35 24 67 25 47 26 66 27 48 28 51 29 65 30 84 31 49 32 50 33
REMARK SMILES IDX 64 35 85 36 52 37 36 38 37 39 45 40 38 41 40 42 46 43 39 44
REMARK SMILES IDX 41 45 42 46 43 47 44 48 68 49 69 50 77 51 70 52 72 53 78 54
REMARK SMILES IDX 71 55 73 56 74 57 75 58 76 59 53 60 54 61 62 62 55 63 57 64
REMARK SMILES IDX 63 65 56 66 58 67 59 68 60 69 61 70 6 71 7 72 8 73 9 74
REMARK SMILES IDX 10 75 11 76 15 78 14 79 13 80 12 81 16 83 17 85 18 86 19 87
REMARK SMILES IDX 20 88 21 89 25 90 22 91 24 92 26 93 23 94
REMARK H PARENT 83 23 51 34 16 84
REMARK Flexibility Score: 100.00
ROOT
ATOM      1  C   UNL     1       3.461   0.548   2.364  1.00  0.00     0.274 C 
ENDROOT
BRANCH   1   2
ATOM      2  C   UNL     1       4.135   1.413   1.297  1.00  0.00     0.275 C 
BRANCH   2   3
ATOM      3  O   UNL     1       3.562   1.344  -0.013  1.00  0.00    -0.458 OA
BRANCH   3   4
ATOM      4  C   UNL     1       3.676   0.379  -0.952  1.00  0.00     0.338 C 
ATOM      5  O   UNL     1       3.005   0.488  -1.977  1.00  0.00    -0.246 OA
BRANCH   4   6
ATOM      6  C   UNL     1       4.497  -0.861  -0.774  1.00  0.00     0.060 A 
ATOM      7  C   UNL     1       5.610  -1.030   0.056  1.00  0.00     0.016 A 
ATOM      8  C   UNL     1       4.079  -1.967  -1.518  1.00  0.00     0.016 A 
ATOM      9  C   UNL     1       6.191  -2.295   0.255  1.00  0.00     0.010 A 
ATOM     10  C   UNL     1       4.632  -3.228  -1.296  1.00  0.00     0.010 A 
ATOM     11  C   UNL     1       5.676  -3.425  -0.379  1.00  0.00    -0.014 A 
BRANCH  11  12
ATOM     12  C   UNL     1       6.206  -4.801  -0.133  1.00  0.00     0.031 A 
ATOM     13  C   UNL     1       6.623  -5.644  -1.313  1.00  0.00     0.074 A 
ATOM     14  C   UNL     1       6.197  -5.357   1.102  1.00  0.00     0.049 A 
ATOM     15  N   UNL     1       6.996  -6.897  -1.344  1.00  0.00    -0.248 NA
ATOM     16  C   UNL     1       6.567  -5.007  -2.641  1.00  0.00     0.031 C 
ATOM     17  C   UNL     1       5.748  -4.711   2.339  1.00  0.00     0.029 A 
ATOM     18  N   UNL     1       6.523  -6.631   1.513  1.00  0.00    -0.354 N 
ATOM     19  C   UNL     1       7.190  -7.190  -2.688  1.00  0.00     0.074 A 
ATOM     20  C   UNL     1       6.745  -6.042  -3.443  1.00  0.00     0.031 C 
ATOM     21  C   UNL     1       5.768  -5.602   3.347  1.00  0.00     0.029 A 
ATOM     22  C   UNL     1       6.245  -6.883   2.840  1.00  0.00     0.049 A 
ATOM     23  H   UNL     1       6.919  -7.302   0.912  1.00  0.00     0.167 HD
ATOM     24  C   UNL     1       7.802  -8.257  -3.253  1.00  0.00     0.034 A 
ATOM     25  C   UNL     1       6.369  -8.012   3.568  1.00  0.00     0.034 A 
ATOM     26  C   UNL     1       8.341  -9.347  -2.499  1.00  0.00     0.049 A 
ATOM     27  C   UNL     1       7.035  -9.208   2.933  1.00  0.00     0.074 A 
ATOM     28  C   UNL     1       9.127 -10.397  -2.934  1.00  0.00     0.029 A 
ATOM     29  N   UNL     1       8.148  -9.521  -1.138  1.00  0.00    -0.354 N 
ATOM     30  N   UNL     1       7.454  -9.357   1.700  1.00  0.00    -0.248 NA
ATOM     31  C   UNL     1       7.337 -10.350   3.810  1.00  0.00     0.031 C 
ATOM     32  C   UNL     1       9.406 -11.211  -1.831  1.00  0.00     0.029 A 
ATOM     33  C   UNL     1       8.803 -10.659  -0.711  1.00  0.00     0.049 A 
ATOM     34  H   UNL     1       7.621  -8.922  -0.561  1.00  0.00     0.167 HD
ATOM     35  C   UNL     1       8.149 -10.561   1.677  1.00  0.00     0.074 A 
ATOM     36  C   UNL     1       8.075 -11.113   3.014  1.00  0.00     0.031 C 
ATOM     37  C   UNL     1       8.802 -11.146   0.644  1.00  0.00     0.034 A 
BRANCH  24  38
ATOM     38  C   UNL     1       8.037  -8.188  -4.739  1.00  0.00     0.023 A 
ATOM     39  C   UNL     1       8.931  -7.214  -5.240  1.00  0.00     0.012 A 
ATOM     40  C   UNL     1       7.367  -9.036  -5.636  1.00  0.00     0.148 A 
ATOM     41  C   UNL     1       9.087  -7.026  -6.610  1.00  0.00     0.002 A 
ATOM     42  C   UNL     1       7.571  -8.879  -7.003  1.00  0.00     0.091 A 
ATOM     43  F   UNL     1       6.522  -9.953  -5.144  1.00  0.00    -0.205 F 
ATOM     44  C   UNL     1       8.409  -7.860  -7.491  1.00  0.00     0.022 A 
BRANCH  42  45
ATOM     45  S   UNL     1       6.817  -9.950  -8.231  1.00  0.00     0.127 S 
ATOM     46  O   UNL     1       5.902  -9.030  -8.905  1.00  0.00    -0.237 OA
ATOM     47  O   UNL     1       7.974 -10.351  -9.032  1.00  0.00    -0.237 OA
ATOM     48  O   UNL     1       6.185 -11.031  -7.490  1.00  0.00    -0.744 OA
ENDBRANCH  42  45
ENDBRANCH  24  38
BRANCH  25  49
ATOM     49  C   UNL     1       5.995  -8.046   5.014  1.00  0.00     0.023 A 
ATOM     50  C   UNL     1       7.018  -8.031   5.984  1.00  0.00     0.012 A 
ATOM     51  C   UNL     1       4.654  -8.141   5.436  1.00  0.00     0.148 A 
ATOM     52  C   UNL     1       6.720  -8.163   7.341  1.00  0.00     0.002 A 
ATOM     53  C   UNL     1       4.362  -8.239   6.795  1.00  0.00     0.091 A 
ATOM     54  F   UNL     1       3.694  -8.149   4.502  1.00  0.00    -0.205 F 
ATOM     55  C   UNL     1       5.394  -8.268   7.747  1.00  0.00     0.022 A 
BRANCH  53  56
ATOM     56  S   UNL     1       2.682  -8.302   7.433  1.00  0.00     0.127 S 
ATOM     57  O   UNL     1       2.620  -9.656   7.979  1.00  0.00    -0.237 OA
ATOM     58  O   UNL     1       2.703  -7.236   8.435  1.00  0.00    -0.237 OA
ATOM     59  O   UNL     1       1.816  -8.040   6.292  1.00  0.00    -0.744 OA
ENDBRANCH  53  56
ENDBRANCH  25  49
BRANCH  37  60
ATOM     60  C   UNL     1       9.585 -12.401   0.915  1.00  0.00     0.023 A 
ATOM     61  C   UNL     1       8.918 -13.624   1.109  1.00  0.00     0.012 A 
ATOM     62  C   UNL     1      10.993 -12.379   0.844  1.00  0.00     0.148 A 
ATOM     63  C   UNL     1       9.643 -14.807   1.243  1.00  0.00     0.002 A 
ATOM     64  C   UNL     1      11.704 -13.568   0.920  1.00  0.00     0.091 A 
ATOM     65  F   UNL     1      11.607 -11.197   0.684  1.00  0.00    -0.205 F 
ATOM     66  C   UNL     1      11.032 -14.782   1.130  1.00  0.00     0.022 A 
BRANCH  64  67
ATOM     67  S   UNL     1      13.481 -13.640   0.662  1.00  0.00     0.127 S 
ATOM     68  O   UNL     1      13.970 -13.889   2.017  1.00  0.00    -0.237 OA
ATOM     69  O   UNL     1      13.616 -14.773  -0.254  1.00  0.00    -0.237 OA
ATOM     70  O   UNL     1      13.855 -12.354   0.089  1.00  0.00    -0.744 OA
ENDBRANCH  64  67
ENDBRANCH  37  60
ENDBRANCH  11  12
ENDBRANCH   4   6
ENDBRANCH   3   4
ENDBRANCH   2   3
ENDBRANCH   1   2
BRANCH   1  71
ATOM     71  O   UNL     1       3.119  -0.801   1.984  1.00  0.00    -0.462 OA
BRANCH  71  72
ATOM     72  C   UNL     1       1.787  -1.024   1.777  1.00  0.00     0.310 C 
ATOM     73  O   UNL     1       0.972  -0.127   1.587  1.00  0.00    -0.252 OA
BRANCH  72  74
ATOM     74  C   UNL     1       1.378  -2.498   1.865  1.00  0.00     0.117 C 
BRANCH  74  75
ATOM     75  C   UNL     1       2.045  -3.173   3.078  1.00  0.00     0.017 C 
BRANCH  75  76
ATOM     76  C   UNL     1       1.407  -4.513   3.454  1.00  0.00     0.001 CG0
ATOM     77  G   UNL     1       1.978  -5.718   2.720  1.00  0.00     0.000 G0
ENDBRANCH  75  76
ENDBRANCH  74  75
BRANCH  74  78
ATOM     78  C   UNL     1       1.504  -3.215   0.495  1.00  0.00     0.084 C 
BRANCH  78  79
ATOM     79  C   UNL     1       2.364  -4.484   0.523  1.00  0.00     0.021 C 
BRANCH  79  80
ATOM     80  C   UNL     1       1.779  -5.707   1.215  1.00  0.00     0.002 C 
BRANCH  80  81
ATOM     81  C   UNL     1       1.978  -5.718   2.720  1.00  0.00     0.000 CG0
ATOM     82  G   UNL     1       1.407  -4.513   3.454  1.00  0.00     0.000 G0
ENDBRANCH  80  81
ENDBRANCH  79  80
ENDBRANCH  78  79
BRANCH  78  83
ATOM     83  N   UNL     1       0.144  -3.457  -0.069  1.00  0.00    -0.207 NA
ATOM     84  H   UNL     1      -0.306  -2.543  -0.106  1.00  0.00     0.141 HD
BRANCH  83  85
ATOM     85  S   UNL     1      -0.143  -4.174  -1.582  1.00  0.00     0.243 S 
ATOM     86  O   UNL     1       0.679  -5.345  -1.674  1.00  0.00    -0.207 OA
ATOM     87  O   UNL     1      -1.591  -4.264  -1.669  1.00  0.00    -0.207 OA
BRANCH  85  88
ATOM     88  C   UNL     1       0.339  -2.992  -2.778  1.00  0.00     0.119 A 
ATOM     89  C   UNL     1       0.131  -1.631  -2.535  1.00  0.00     0.026 A 
ATOM     90  C   UNL     1       0.885  -3.364  -3.994  1.00  0.00     0.149 A 
ATOM     91  C   UNL     1       0.487  -0.701  -3.508  1.00  0.00     0.022 A 
ATOM     92  N   UNL     1       1.252  -2.467  -4.946  1.00  0.00    -0.243 NA
ATOM     93  Cl  UNL     1       1.137  -4.969  -4.548  1.00  0.00    -0.061 Cl
ATOM     94  C   UNL     1       1.050  -1.161  -4.684  1.00  0.00     0.113 A 
ENDBRANCH  85  88
ENDBRANCH  83  85
ENDBRANCH  78  83
ENDBRANCH  74  78
ENDBRANCH  72  74
ENDBRANCH  71  72
ENDBRANCH   1  71
TORSDOF 17
