REMARK SMILES Cc1c(C(=O)OCCOC(=O)c2ccc(-c3c4nc(c(-c5cccc(S(=O)(=O)[O-])c5F)c5ccc([nH]5)c(-c5cccc(S(=O)(=O)[O-])c5F)c5nc(c(-c6cccc(S(=O)(=O)[O-])c6F)c6ccc3[nH]6)C=C5)C=C4)cc2)cccc1N1[C@@H](C)C=C(/C=C(\C#N)C(=O)NCCc2c[nH]c3ccccc23)[C@@H]1C
REMARK SMILES IDX 6 1 4 2 5 3 3 4 1 5 2 6 78 7 75 8 77 9 76 10 79 11 80 12
REMARK SMILES IDX 102 13 82 14 81 15 83 16 103 17 84 18 85 19 86 20 87 21
REMARK SMILES IDX 88 22 89 23 90 24 91 26 92 27 93 28 94 29 101 30 95 31 96 32
REMARK SMILES IDX 100 33 97 35 99 36 98 37 7 38 8 39 9 40 10 41 11 42 12 43
REMARK SMILES IDX 13 44 74 45 14 46 73 47 15 48 16 49 17 50 67 51 18 52 72 53
REMARK SMILES IDX 66 54 68 55 19 56 71 57 65 58 64 59 20 61 52 62 32 63 51 64
REMARK SMILES IDX 33 65 36 66 50 67 69 68 34 69 35 70 49 72 70 73 37 74 21 75
REMARK SMILES IDX 22 76 30 77 23 78 25 79 31 80 24 81 26 82 27 83 28 84 29 85
REMARK SMILES IDX 53 86 54 87 62 88 55 89 57 90 63 91 56 92 58 93 59 94 60 95
REMARK SMILES IDX 61 96 38 97 39 98 47 99 40 100 42 101 48 102 41 103 43 104
REMARK SMILES IDX 44 105 45 106 46 107
REMARK H PARENT 90 25 95 34 68 60 36 71
REMARK Flexibility Score: inf
ROOT
ATOM      1  O   UNL     1       2.558  -2.101   1.288  1.00  0.00    -0.458 OA
ENDROOT
BRANCH   1   2
ATOM      2  C   UNL     1       1.697  -1.537   2.158  1.00  0.00     0.338 C 
ATOM      3  O   UNL     1       1.585  -1.803   3.341  1.00  0.00    -0.246 OA
BRANCH   2   4
ATOM      4  C   UNL     1       0.866  -0.565   1.414  1.00  0.00     0.065 A 
ATOM      5  C   UNL     1       2.928   0.708   0.670  1.00  0.00     0.047 C 
ATOM      6  C   UNL     1       1.434   0.538   0.735  1.00  0.00    -0.013 A 
ATOM      7  C   UNL     1       0.553   1.482   0.159  1.00  0.00     0.041 A 
ATOM      8  C   UNL     1      -0.522  -0.752   1.472  1.00  0.00     0.016 A 
ATOM      9  C   UNL     1      -0.827   1.195   0.114  1.00  0.00     0.026 A 
ATOM     10  C   UNL     1      -1.364   0.089   0.760  1.00  0.00     0.003 A 
BRANCH   7  11
ATOM     11  N   UNL     1       0.909   2.801  -0.054  1.00  0.00    -0.358 N 
ATOM     12  C   UNL     1       0.509   3.763   0.987  1.00  0.00     0.103 C 
ATOM     13  C   UNL     1       1.983   3.313  -0.916  1.00  0.00     0.110 C 
ATOM     14  C   UNL     1       1.603   4.769   0.886  1.00  0.00     0.003 C 
ATOM     15  C   UNL     1       0.528   3.213   2.420  1.00  0.00     0.035 C 
ATOM     16  C   UNL     1       2.510   4.444  -0.046  1.00  0.00    -0.026 C 
ATOM     17  C   UNL     1       1.374   3.858  -2.212  1.00  0.00     0.036 C 
BRANCH  16  18
ATOM     18  C   UNL     1       3.787   5.090  -0.256  1.00  0.00     0.031 C 
ATOM     19  C   UNL     1       4.513   5.774   0.661  1.00  0.00     0.117 C 
BRANCH  19  20
ATOM     20  C   UNL     1       4.124   5.923   2.015  1.00  0.00     0.105 C 
ATOM     21  N   UNL     1       3.793   6.090   3.124  1.00  0.00    -0.192 NA
ENDBRANCH  19  20
BRANCH  19  22
ATOM     22  C   UNL     1       5.608   6.626   0.120  1.00  0.00     0.261 C 
ATOM     23  O   UNL     1       5.827   6.706  -1.088  1.00  0.00    -0.268 OA
ATOM     24  N   UNL     1       6.224   7.540   0.917  1.00  0.00    -0.351 N 
ATOM     25  H   UNL     1       6.259   8.443   0.525  1.00  0.00     0.163 HD
BRANCH  24  26
ATOM     26  C   UNL     1       6.847   7.453   2.242  1.00  0.00     0.121 C 
BRANCH  26  27
ATOM     27  C   UNL     1       8.221   6.720   2.283  1.00  0.00     0.059 C 
BRANCH  27  28
ATOM     28  C   UNL     1       9.331   7.416   1.489  1.00  0.00    -0.021 A 
ATOM     29  C   UNL     1       9.302   8.770   1.154  1.00  0.00     0.087 A 
ATOM     30  C   UNL     1       9.943   6.875   0.310  1.00  0.00     0.003 A 
ATOM     31  N   UNL     1       8.748   8.680  -0.126  1.00  0.00    -0.361 N 
ATOM     32  C   UNL     1       9.274   7.549  -0.712  1.00  0.00     0.046 A 
ATOM     33  C   UNL     1      10.832   5.845  -0.043  1.00  0.00     0.010 A 
ATOM     34  H   UNL     1       8.105   9.306  -0.532  1.00  0.00     0.166 HD
ATOM     35  C   UNL     1       9.238   7.109  -2.031  1.00  0.00     0.026 A 
ATOM     36  C   UNL     1      10.970   5.524  -1.405  1.00  0.00     0.001 A 
ATOM     37  C   UNL     1      10.128   6.090  -2.365  1.00  0.00     0.002 A 
ENDBRANCH  27  28
ENDBRANCH  26  27
ENDBRANCH  24  26
ENDBRANCH  19  22
ENDBRANCH  16  18
ENDBRANCH   7  11
ENDBRANCH   2   4
ENDBRANCH   1   2
BRANCH   1  38
ATOM     38  C   UNL     1       3.486  -3.063   1.782  1.00  0.00     0.275 C 
BRANCH  38  39
ATOM     39  C   UNL     1       2.962  -4.276   2.581  1.00  0.00     0.275 C 
BRANCH  39  40
ATOM     40  O   UNL     1       1.579  -4.756   2.571  1.00  0.00    -0.458 OA
BRANCH  40  41
ATOM     41  C   UNL     1       0.549  -4.606   1.705  1.00  0.00     0.338 C 
ATOM     42  O   UNL     1      -0.612  -4.810   2.027  1.00  0.00    -0.246 OA
BRANCH  41  43
ATOM     43  C   UNL     1       0.899  -4.232   0.339  1.00  0.00     0.060 A 
ATOM     44  C   UNL     1       0.116  -3.314  -0.380  1.00  0.00     0.016 A 
ATOM     45  C   UNL     1       2.084  -4.740  -0.170  1.00  0.00     0.016 A 
ATOM     46  C   UNL     1       0.553  -2.853  -1.609  1.00  0.00     0.010 A 
ATOM     47  C   UNL     1       2.622  -4.130  -1.261  1.00  0.00     0.010 A 
ATOM     48  C   UNL     1       1.794  -3.303  -2.034  1.00  0.00    -0.014 A 
BRANCH  48  49
ATOM     49  C   UNL     1       2.195  -3.329  -3.421  1.00  0.00     0.031 A 
ATOM     50  C   UNL     1       2.748  -2.121  -4.030  1.00  0.00     0.074 A 
ATOM     51  C   UNL     1       2.188  -4.605  -3.884  1.00  0.00     0.049 A 
ATOM     52  N   UNL     1       2.677  -1.857  -5.283  1.00  0.00    -0.248 NA
ATOM     53  C   UNL     1       3.394  -1.055  -3.257  1.00  0.00     0.031 C 
ATOM     54  C   UNL     1       2.932  -5.272  -4.932  1.00  0.00     0.029 A 
ATOM     55  N   UNL     1       1.471  -5.677  -3.354  1.00  0.00    -0.354 N 
ATOM     56  C   UNL     1       3.635  -0.889  -5.506  1.00  0.00     0.074 A 
ATOM     57  C   UNL     1       3.868  -0.263  -4.229  1.00  0.00     0.031 C 
ATOM     58  C   UNL     1       2.376  -6.490  -5.144  1.00  0.00     0.029 A 
ATOM     59  C   UNL     1       1.147  -6.559  -4.359  1.00  0.00     0.049 A 
ATOM     60  H   UNL     1       1.232  -5.786  -2.405  1.00  0.00     0.167 HD
ATOM     61  C   UNL     1       4.382  -0.971  -6.642  1.00  0.00     0.034 A 
ATOM     62  C   UNL     1      -0.140  -6.571  -4.837  1.00  0.00     0.034 A 
ATOM     63  C   UNL     1       4.030  -2.210  -7.364  1.00  0.00     0.049 A 
ATOM     64  C   UNL     1      -0.198  -5.999  -6.249  1.00  0.00     0.074 A 
ATOM     65  C   UNL     1       4.616  -3.466  -7.420  1.00  0.00     0.029 A 
ATOM     66  N   UNL     1       2.735  -2.382  -7.825  1.00  0.00    -0.354 N 
ATOM     67  N   UNL     1       0.783  -5.362  -6.826  1.00  0.00    -0.248 NA
ATOM     68  C   UNL     1      -1.395  -6.035  -7.079  1.00  0.00     0.031 C 
ATOM     69  C   UNL     1       3.663  -4.381  -7.960  1.00  0.00     0.029 A 
ATOM     70  C   UNL     1       2.494  -3.689  -8.216  1.00  0.00     0.049 A 
ATOM     71  H   UNL     1       2.066  -1.662  -7.869  1.00  0.00     0.167 HD
ATOM     72  C   UNL     1       0.368  -4.815  -8.006  1.00  0.00     0.074 A 
ATOM     73  C   UNL     1      -1.016  -5.263  -8.112  1.00  0.00     0.031 C 
ATOM     74  C   UNL     1       1.182  -4.015  -8.769  1.00  0.00     0.034 A 
BRANCH  61  75
ATOM     75  C   UNL     1       5.660  -0.196  -6.914  1.00  0.00     0.023 A 
ATOM     76  C   UNL     1       6.596  -0.799  -7.785  1.00  0.00     0.012 A 
ATOM     77  C   UNL     1       6.009   1.081  -6.410  1.00  0.00     0.148 A 
ATOM     78  C   UNL     1       7.833  -0.227  -8.087  1.00  0.00     0.002 A 
ATOM     79  C   UNL     1       7.265   1.645  -6.689  1.00  0.00     0.091 A 
ATOM     80  F   UNL     1       5.112   1.780  -5.703  1.00  0.00    -0.205 F 
ATOM     81  C   UNL     1       8.177   0.988  -7.524  1.00  0.00     0.022 A 
BRANCH  79  82
ATOM     82  S   UNL     1       7.838   3.201  -5.979  1.00  0.00     0.127 S 
ATOM     83  O   UNL     1       9.149   2.831  -5.438  1.00  0.00    -0.237 OA
ATOM     84  O   UNL     1       7.896   4.079  -7.145  1.00  0.00    -0.237 OA
ATOM     85  O   UNL     1       6.856   3.562  -4.964  1.00  0.00    -0.744 OA
ENDBRANCH  79  82
ENDBRANCH  61  75
BRANCH  62  86
ATOM     86  C   UNL     1      -1.187  -6.276  -3.776  1.00  0.00     0.023 A 
ATOM     87  C   UNL     1      -1.167  -7.049  -2.584  1.00  0.00     0.012 A 
ATOM     88  C   UNL     1      -1.926  -5.076  -3.764  1.00  0.00     0.148 A 
ATOM     89  C   UNL     1      -1.714  -6.561  -1.391  1.00  0.00     0.002 A 
ATOM     90  C   UNL     1      -2.487  -4.605  -2.574  1.00  0.00     0.091 A 
ATOM     91  F   UNL     1      -2.051  -4.375  -4.897  1.00  0.00    -0.205 F 
ATOM     92  C   UNL     1      -2.350  -5.325  -1.381  1.00  0.00     0.022 A 
BRANCH  90  93
ATOM     93  S   UNL     1      -3.269  -2.982  -2.516  1.00  0.00     0.127 S 
ATOM     94  O   UNL     1      -4.633  -3.296  -2.933  1.00  0.00    -0.237 OA
ATOM     95  O   UNL     1      -3.136  -2.595  -1.110  1.00  0.00    -0.237 OA
ATOM     96  O   UNL     1      -2.480  -2.168  -3.429  1.00  0.00    -0.744 OA
ENDBRANCH  90  93
ENDBRANCH  62  86
BRANCH  74  97
ATOM     97  C   UNL     1       0.796  -3.415 -10.110  1.00  0.00     0.023 A 
ATOM     98  C   UNL     1      -0.224  -3.972 -10.897  1.00  0.00     0.012 A 
ATOM     99  C   UNL     1       1.501  -2.322 -10.688  1.00  0.00     0.148 A 
ATOM    100  C   UNL     1      -0.643  -3.383 -12.093  1.00  0.00     0.002 A 
ATOM    101  C   UNL     1       1.108  -1.754 -11.890  1.00  0.00     0.091 A 
ATOM    102  F   UNL     1       2.609  -1.847 -10.116  1.00  0.00    -0.205 F 
ATOM    103  C   UNL     1       0.008  -2.259 -12.578  1.00  0.00     0.022 A 
BRANCH 101 104
ATOM    104  S   UNL     1       2.013  -0.398 -12.648  1.00  0.00     0.127 S 
ATOM    105  O   UNL     1       2.539  -1.041 -13.853  1.00  0.00    -0.237 OA
ATOM    106  O   UNL     1       0.947   0.574 -12.889  1.00  0.00    -0.237 OA
ATOM    107  O   UNL     1       3.019   0.024 -11.685  1.00  0.00    -0.744 OA
ENDBRANCH 101 104
ENDBRANCH  74  97
ENDBRANCH  48  49
ENDBRANCH  41  43
ENDBRANCH  40  41
ENDBRANCH  39  40
ENDBRANCH  38  39
ENDBRANCH   1  38
TORSDOF 21
