REMARK SMILES CCc1cccc(C)c1Nc1ccccc1CC(=O)OCCOC(=O)c1ccc(-c2c3nc(c(-c4cccc(S(=O)(=O)[O-])c4F)c4ccc([nH]4)c(-c4cccc(S(=O)(=O)[O-])c4F)c4nc(c(-c5cccc(S(=O)(=O)[O-])c5F)c5ccc2[nH]5)C=C4)C=C3)cc1
REMARK SMILES IDX 21 1 20 2 18 3 19 4 17 5 16 6 11 7 12 8 13 9 15 10 14 11
REMARK SMILES IDX 10 12 9 14 3 15 4 16 5 17 7 18 6 19 8 20 2 21 1 22 22 23
REMARK SMILES IDX 23 24 24 25 25 26 26 27 27 28 88 29 28 30 87 31 29 32 30 33
REMARK SMILES IDX 31 34 81 35 32 36 86 37 80 38 82 39 33 40 85 41 79 42 78 43
REMARK SMILES IDX 34 45 66 46 46 47 65 48 47 49 50 50 64 51 83 52 48 53 49 54
REMARK SMILES IDX 63 56 84 57 51 58 35 59 36 60 44 61 37 62 39 63 45 64 38 65
REMARK SMILES IDX 40 66 41 67 42 68 43 69 67 70 68 71 76 72 69 73 71 74 77 75
REMARK SMILES IDX 70 76 72 77 73 78 74 79 75 80 52 81 53 82 61 83 54 84 56 85
REMARK SMILES IDX 62 86 55 87 57 88 58 89 59 90 60 91
REMARK H PARENT 10 13 82 44 50 55
REMARK Flexibility Score: inf
ROOT
ATOM      1  C   UNL     1       0.557   5.821  -2.409  1.00  0.00     0.274 C 
ENDROOT
BRANCH   1   2
ATOM      2  O   UNL     1       1.063   6.006  -1.061  1.00  0.00    -0.462 OA
BRANCH   2   3
ATOM      3  C   UNL     1       1.154   4.946  -0.242  1.00  0.00     0.310 C 
ATOM      4  O   UNL     1       0.960   3.814  -0.643  1.00  0.00    -0.252 OA
BRANCH   3   5
ATOM      5  C   UNL     1       1.350   5.227   1.204  1.00  0.00     0.160 C 
BRANCH   5   6
ATOM      6  C   UNL     1       2.418   4.417   1.931  1.00  0.00    -0.013 A 
ATOM      7  C   UNL     1       3.008   3.167   1.583  1.00  0.00     0.042 A 
ATOM      8  C   UNL     1       4.035   2.668   2.405  1.00  0.00     0.026 A 
ATOM      9  C   UNL     1       4.485   3.353   3.532  1.00  0.00     0.002 A 
ATOM     10  C   UNL     1       2.844   5.051   3.127  1.00  0.00     0.006 A 
ATOM     11  C   UNL     1       3.873   4.537   3.908  1.00  0.00     0.000 A 
BRANCH   7  12
ATOM     12  N   UNL     1       2.620   2.272   0.548  1.00  0.00    -0.355 N 
ATOM     13  H   UNL     1       2.056   1.529   0.864  1.00  0.00     0.167 HD
BRANCH  12  14
ATOM     14  C   UNL     1       2.884   2.228  -0.862  1.00  0.00     0.045 A 
ATOM     15  C   UNL     1       2.252   1.230  -1.673  1.00  0.00    -0.024 A 
ATOM     16  C   UNL     1       2.201   1.429  -3.076  1.00  0.00     0.006 A 
ATOM     17  C   UNL     1       2.800   2.516  -3.689  1.00  0.00     0.001 A 
ATOM     18  C   UNL     1       3.621   3.261  -1.518  1.00  0.00    -0.027 A 
ATOM     19  C   UNL     1       3.520   3.412  -2.917  1.00  0.00     0.005 A 
ATOM     20  C   UNL     1       4.382   4.347  -0.806  1.00  0.00     0.046 C 
BRANCH  15  21
ATOM     21  C   UNL     1       1.547  -0.059  -1.268  1.00  0.00     0.034 C 
ATOM     22  C   UNL     1       1.395  -0.516   0.168  1.00  0.00     0.009 C 
ENDBRANCH  15  21
ENDBRANCH  12  14
ENDBRANCH   7  12
ENDBRANCH   5   6
ENDBRANCH   3   5
ENDBRANCH   2   3
ENDBRANCH   1   2
BRANCH   1  23
ATOM     23  C   UNL     1       0.114   4.471  -3.139  1.00  0.00     0.275 C 
BRANCH  23  24
ATOM     24  O   UNL     1      -0.356   3.139  -2.629  1.00  0.00    -0.458 OA
BRANCH  24  25
ATOM     25  C   UNL     1      -1.052   2.608  -1.563  1.00  0.00     0.338 C 
ATOM     26  O   UNL     1      -1.226   1.404  -1.427  1.00  0.00    -0.246 OA
BRANCH  25  27
ATOM     27  C   UNL     1      -1.606   3.548  -0.586  1.00  0.00     0.060 A 
ATOM     28  C   UNL     1      -1.929   3.353   0.764  1.00  0.00     0.016 A 
ATOM     29  C   UNL     1      -1.732   4.798  -1.113  1.00  0.00     0.016 A 
ATOM     30  C   UNL     1      -2.545   4.419   1.433  1.00  0.00     0.010 A 
ATOM     31  C   UNL     1      -1.726   5.870  -0.296  1.00  0.00     0.010 A 
ATOM     32  C   UNL     1      -2.533   5.655   0.796  1.00  0.00    -0.014 A 
BRANCH  32  33
ATOM     33  C   UNL     1      -3.643   6.606   0.632  1.00  0.00     0.031 A 
ATOM     34  C   UNL     1      -3.424   7.924   1.223  1.00  0.00     0.074 A 
ATOM     35  C   UNL     1      -4.260   6.394  -0.573  1.00  0.00     0.049 A 
ATOM     36  N   UNL     1      -4.356   8.638   1.746  1.00  0.00    -0.248 NA
ATOM     37  C   UNL     1      -2.081   8.514   1.340  1.00  0.00     0.031 C 
ATOM     38  C   UNL     1      -4.570   7.293  -1.684  1.00  0.00     0.029 A 
ATOM     39  N   UNL     1      -4.459   5.143  -1.153  1.00  0.00    -0.354 N 
ATOM     40  C   UNL     1      -3.800   9.894   1.843  1.00  0.00     0.074 A 
ATOM     41  C   UNL     1      -2.364   9.704   1.868  1.00  0.00     0.031 C 
ATOM     42  C   UNL     1      -5.134   6.581  -2.690  1.00  0.00     0.029 A 
ATOM     43  C   UNL     1      -5.296   5.197  -2.250  1.00  0.00     0.049 A 
ATOM     44  H   UNL     1      -4.049   4.313  -0.818  1.00  0.00     0.167 HD
ATOM     45  C   UNL     1      -4.444  10.957   1.285  1.00  0.00     0.034 A 
ATOM     46  C   UNL     1      -6.425   4.431  -2.237  1.00  0.00     0.034 A 
ATOM     47  C   UNL     1      -5.504  10.498   0.356  1.00  0.00     0.049 A 
ATOM     48  C   UNL     1      -7.540   5.320  -1.696  1.00  0.00     0.074 A 
ATOM     49  C   UNL     1      -5.626  10.526  -1.025  1.00  0.00     0.029 A 
ATOM     50  N   UNL     1      -6.498   9.632   0.798  1.00  0.00    -0.354 N 
ATOM     51  N   UNL     1      -7.440   6.612  -1.522  1.00  0.00    -0.248 NA
ATOM     52  C   UNL     1      -8.832   4.809  -1.255  1.00  0.00     0.031 C 
ATOM     53  C   UNL     1      -6.702   9.667  -1.399  1.00  0.00     0.029 A 
ATOM     54  C   UNL     1      -7.236   9.102  -0.253  1.00  0.00     0.049 A 
ATOM     55  H   UNL     1      -6.660   9.418   1.746  1.00  0.00     0.167 HD
ATOM     56  C   UNL     1      -8.432   7.028  -0.679  1.00  0.00     0.074 A 
ATOM     57  C   UNL     1      -9.358   5.904  -0.681  1.00  0.00     0.031 C 
ATOM     58  C   UNL     1      -8.358   8.200   0.032  1.00  0.00     0.034 A 
BRANCH  45  59
ATOM     59  C   UNL     1      -3.895  12.372   1.298  1.00  0.00     0.023 A 
ATOM     60  C   UNL     1      -4.531  13.314   0.466  1.00  0.00     0.012 A 
ATOM     61  C   UNL     1      -2.865  12.872   2.139  1.00  0.00     0.148 A 
ATOM     62  C   UNL     1      -4.136  14.653   0.409  1.00  0.00     0.002 A 
ATOM     63  C   UNL     1      -2.428  14.197   2.038  1.00  0.00     0.091 A 
ATOM     64  F   UNL     1      -2.348  12.093   3.099  1.00  0.00    -0.205 F 
ATOM     65  C   UNL     1      -3.069  15.090   1.177  1.00  0.00     0.022 A 
BRANCH  63  66
ATOM     66  S   UNL     1      -1.008  14.830   2.951  1.00  0.00     0.127 S 
ATOM     67  O   UNL     1      -0.270  15.554   1.913  1.00  0.00    -0.237 OA
ATOM     68  O   UNL     1      -1.633  15.685   3.957  1.00  0.00    -0.237 OA
ATOM     69  O   UNL     1      -0.305  13.659   3.461  1.00  0.00    -0.744 OA
ENDBRANCH  63  66
ENDBRANCH  45  59
BRANCH  46  70
ATOM     70  C   UNL     1      -6.113   3.031  -1.729  1.00  0.00     0.023 A 
ATOM     71  C   UNL     1      -5.253   2.232  -2.526  1.00  0.00     0.012 A 
ATOM     72  C   UNL     1      -6.215   2.720  -0.358  1.00  0.00     0.148 A 
ATOM     73  C   UNL     1      -4.416   1.270  -1.945  1.00  0.00     0.002 A 
ATOM     74  C   UNL     1      -5.339   1.797   0.219  1.00  0.00     0.091 A 
ATOM     75  F   UNL     1      -7.050   3.431   0.408  1.00  0.00    -0.205 F 
ATOM     76  C   UNL     1      -4.423   1.088  -0.565  1.00  0.00     0.022 A 
BRANCH  74  77
ATOM     77  S   UNL     1      -5.223   1.715   2.014  1.00  0.00     0.127 S 
ATOM     78  O   UNL     1      -3.920   1.092   2.243  1.00  0.00    -0.237 OA
ATOM     79  O   UNL     1      -5.289   3.113   2.420  1.00  0.00    -0.237 OA
ATOM     80  O   UNL     1      -6.372   0.882   2.353  1.00  0.00    -0.744 OA
ENDBRANCH  74  77
ENDBRANCH  46  70
BRANCH  58  81
ATOM     81  C   UNL     1      -9.360   8.609   1.098  1.00  0.00     0.023 A 
ATOM     82  C   UNL     1     -10.167   7.680   1.779  1.00  0.00     0.012 A 
ATOM     83  C   UNL     1      -9.460   9.961   1.520  1.00  0.00     0.148 A 
ATOM     84  C   UNL     1     -11.123   8.080   2.717  1.00  0.00     0.002 A 
ATOM     85  C   UNL     1     -10.298  10.329   2.564  1.00  0.00     0.091 A 
ATOM     86  F   UNL     1      -8.768  10.918   0.885  1.00  0.00    -0.205 F 
ATOM     87  C   UNL     1     -11.178   9.404   3.123  1.00  0.00     0.022 A 
BRANCH  85  88
ATOM     88  S   UNL     1     -10.180  11.954   3.320  1.00  0.00     0.127 S 
ATOM     89  O   UNL     1     -11.247  12.682   2.638  1.00  0.00    -0.237 OA
ATOM     90  O   UNL     1     -10.445  11.662   4.730  1.00  0.00    -0.237 OA
ATOM     91  O   UNL     1      -8.821  12.404   3.051  1.00  0.00    -0.744 OA
ENDBRANCH  85  88
ENDBRANCH  58  81
ENDBRANCH  32  33
ENDBRANCH  25  27
ENDBRANCH  24  25
ENDBRANCH  23  24
ENDBRANCH   1  23
TORSDOF 18
