REMARK SMILES O=C(OCCOC(=O)[C@H]1C[C@H](O)CN1C(=O)c1ccccc1O)c1ccc(-c2c3nc(c(-c4cccc(S(=O)(=O)[O-])c4F)c4ccc([nH]4)c(-c4cccc(S(=O)(=O)[O-])c4F)c4nc(c(-c5cccc(S(=O)(=O)[O-])c5F)c5ccc2[nH]5)C=C4)C=C3)cc1
REMARK SMILES IDX 4 1 3 2 2 3 1 4 24 5 25 6 86 7 26 8 85 9 27 10 28 11 29 12
REMARK SMILES IDX 79 13 30 14 84 15 78 16 80 17 31 18 83 19 77 20 76 21 32 23
REMARK SMILES IDX 64 24 44 25 63 26 45 27 48 28 62 29 81 30 46 31 47 32 61 34
REMARK SMILES IDX 82 35 49 36 33 37 34 38 42 39 35 40 37 41 43 42 36 43 38 44
REMARK SMILES IDX 39 45 40 46 41 47 65 48 66 49 74 50 67 51 69 52 75 53 68 54
REMARK SMILES IDX 70 55 71 56 72 57 73 58 50 59 51 60 59 61 52 62 54 63 60 64
REMARK SMILES IDX 53 65 55 66 56 67 57 68 58 69 5 70 6 71 7 72 8 73 9 74 10 75
REMARK SMILES IDX 14 76 11 77 13 78 15 79 16 80 17 81 18 82 22 83 19 84 21 85
REMARK SMILES IDX 20 86 23 87 12 89
REMARK H PARENT 80 22 48 33 23 88 12 90
REMARK Flexibility Score: inf
ROOT
ATOM      1  C   UNL     1       3.860   2.024  -0.001  1.00  0.00     0.275 C 
ENDROOT
BRANCH   1   2
ATOM      2  O   UNL     1       3.189   1.111  -0.871  1.00  0.00    -0.458 OA
BRANCH   2   3
ATOM      3  C   UNL     1       3.392  -0.218  -0.993  1.00  0.00     0.338 C 
ATOM      4  O   UNL     1       2.579  -0.862  -1.657  1.00  0.00    -0.246 OA
BRANCH   3   5
ATOM      5  C   UNL     1       4.517  -0.961  -0.323  1.00  0.00     0.060 A 
ATOM      6  C   UNL     1       5.610  -0.438   0.386  1.00  0.00     0.016 A 
ATOM      7  C   UNL     1       4.408  -2.348  -0.371  1.00  0.00     0.016 A 
ATOM      8  C   UNL     1       6.464  -1.250   1.149  1.00  0.00     0.010 A 
ATOM      9  C   UNL     1       5.264  -3.149   0.379  1.00  0.00     0.010 A 
ATOM     10  C   UNL     1       6.258  -2.619   1.211  1.00  0.00    -0.014 A 
BRANCH  10  11
ATOM     11  C   UNL     1       7.032  -3.525   2.112  1.00  0.00     0.031 A 
ATOM     12  C   UNL     1       7.604  -4.789   1.523  1.00  0.00     0.074 A 
ATOM     13  C   UNL     1       7.045  -3.335   3.453  1.00  0.00     0.049 A 
ATOM     14  N   UNL     1       8.002  -5.882   2.115  1.00  0.00    -0.248 NA
ATOM     15  C   UNL     1       7.634  -4.865   0.051  1.00  0.00     0.031 C 
ATOM     16  C   UNL     1       6.426  -2.217   4.172  1.00  0.00     0.029 A 
ATOM     17  N   UNL     1       7.522  -4.135   4.467  1.00  0.00    -0.354 N 
ATOM     18  C   UNL     1       8.192  -6.808   1.095  1.00  0.00     0.074 A 
ATOM     19  C   UNL     1       7.813  -6.162  -0.140  1.00  0.00     0.031 C 
ATOM     20  C   UNL     1       6.497  -2.432   5.497  1.00  0.00     0.029 A 
ATOM     21  C   UNL     1       7.179  -3.694   5.731  1.00  0.00     0.049 A 
ATOM     22  H   UNL     1       8.057  -4.945   4.307  1.00  0.00     0.167 HD
ATOM     23  C   UNL     1       8.678  -8.069   1.177  1.00  0.00     0.034 A 
ATOM     24  C   UNL     1       7.384  -4.252   6.940  1.00  0.00     0.034 A 
ATOM     25  C   UNL     1       9.192  -8.620   2.401  1.00  0.00     0.049 A 
ATOM     26  C   UNL     1       8.173  -5.532   6.988  1.00  0.00     0.074 A 
ATOM     27  C   UNL     1       9.876  -9.805   2.602  1.00  0.00     0.029 A 
ATOM     28  N   UNL     1       9.113  -7.987   3.632  1.00  0.00    -0.354 N 
ATOM     29  N   UNL     1       8.500  -6.334   6.004  1.00  0.00    -0.248 NA
ATOM     30  C   UNL     1       8.708  -5.934   8.296  1.00  0.00     0.031 C 
ATOM     31  C   UNL     1      10.221  -9.881   3.957  1.00  0.00     0.029 A 
ATOM     32  C   UNL     1       9.771  -8.733   4.590  1.00  0.00     0.049 A 
ATOM     33  H   UNL     1       8.655  -7.131   3.799  1.00  0.00     0.167 HD
ATOM     34  C   UNL     1       9.344  -7.288   6.559  1.00  0.00     0.074 A 
ATOM     35  C   UNL     1       9.474  -6.963   7.964  1.00  0.00     0.031 C 
ATOM     36  C   UNL     1       9.955  -8.338   5.960  1.00  0.00     0.034 A 
BRANCH  23  37
ATOM     37  C   UNL     1       8.749  -8.889  -0.089  1.00  0.00     0.023 A 
ATOM     38  C   UNL     1       9.544  -8.460  -1.174  1.00  0.00     0.012 A 
ATOM     39  C   UNL     1       8.042 -10.103  -0.203  1.00  0.00     0.148 A 
ATOM     40  C   UNL     1       9.566  -9.168  -2.374  1.00  0.00     0.002 A 
ATOM     41  C   UNL     1       8.137 -10.849  -1.373  1.00  0.00     0.091 A 
ATOM     42  F   UNL     1       7.276 -10.497   0.824  1.00  0.00    -0.205 F 
ATOM     43  C   UNL     1       8.871 -10.369  -2.469  1.00  0.00     0.022 A 
BRANCH  41  44
ATOM     44  S   UNL     1       7.398 -12.476  -1.553  1.00  0.00     0.127 S 
ATOM     45  O   UNL     1       6.406 -12.235  -2.600  1.00  0.00    -0.237 OA
ATOM     46  O   UNL     1       8.544 -13.283  -1.970  1.00  0.00    -0.237 OA
ATOM     47  O   UNL     1       6.851 -12.816  -0.247  1.00  0.00    -0.744 OA
ENDBRANCH  41  44
ENDBRANCH  23  37
BRANCH  24  48
ATOM     48  C   UNL     1       7.012  -3.546   8.202  1.00  0.00     0.023 A 
ATOM     49  C   UNL     1       8.030  -2.884   8.922  1.00  0.00     0.012 A 
ATOM     50  C   UNL     1       5.704  -3.558   8.723  1.00  0.00     0.148 A 
ATOM     51  C   UNL     1       7.772  -2.308  10.165  1.00  0.00     0.002 A 
ATOM     52  C   UNL     1       5.444  -2.946   9.950  1.00  0.00     0.091 A 
ATOM     53  F   UNL     1       4.747  -4.186   8.027  1.00  0.00    -0.205 F 
ATOM     54  C   UNL     1       6.481  -2.339  10.679  1.00  0.00     0.022 A 
BRANCH  52  55
ATOM     55  S   UNL     1       3.803  -2.858  10.680  1.00  0.00     0.127 S 
ATOM     56  O   UNL     1       3.945  -3.736  11.839  1.00  0.00    -0.237 OA
ATOM     57  O   UNL     1       3.691  -1.434  11.000  1.00  0.00    -0.237 OA
ATOM     58  O   UNL     1       2.885  -3.320   9.649  1.00  0.00    -0.744 OA
ENDBRANCH  52  55
ENDBRANCH  24  48
BRANCH  36  59
ATOM     59  C   UNL     1      10.898  -9.159   6.793  1.00  0.00     0.023 A 
ATOM     60  C   UNL     1      10.402 -10.019   7.790  1.00  0.00     0.012 A 
ATOM     61  C   UNL     1      12.282  -9.118   6.531  1.00  0.00     0.148 A 
ATOM     62  C   UNL     1      11.275 -10.800   8.545  1.00  0.00     0.002 A 
ATOM     63  C   UNL     1      13.140  -9.938   7.251  1.00  0.00     0.091 A 
ATOM     64  F   UNL     1      12.732  -8.275   5.591  1.00  0.00    -0.205 F 
ATOM     65  C   UNL     1      12.640 -10.768   8.267  1.00  0.00     0.022 A 
BRANCH  63  66
ATOM     66  S   UNL     1      14.896 -10.033   6.889  1.00  0.00     0.127 S 
ATOM     67  O   UNL     1      15.473  -9.328   8.037  1.00  0.00    -0.237 OA
ATOM     68  O   UNL     1      15.131 -11.480   6.887  1.00  0.00    -0.237 OA
ATOM     69  O   UNL     1      15.080  -9.390   5.603  1.00  0.00    -0.744 OA
ENDBRANCH  63  66
ENDBRANCH  36  59
ENDBRANCH  10  11
ENDBRANCH   3   5
ENDBRANCH   2   3
ENDBRANCH   1   2
BRANCH   1  70
ATOM     70  C   UNL     1       3.576   1.843   1.500  1.00  0.00     0.274 C 
BRANCH  70  71
ATOM     71  O   UNL     1       3.303   0.492   1.951  1.00  0.00    -0.461 OA
BRANCH  71  72
ATOM     72  C   UNL     1       1.990   0.117   1.897  1.00  0.00     0.329 C 
ATOM     73  O   UNL     1       1.134   0.839   1.388  1.00  0.00    -0.250 OA
BRANCH  72  74
ATOM     74  C   UNL     1       1.655  -1.198   2.675  1.00  0.00     0.198 C 
ATOM     75  C   UNL     1       0.124  -1.310   2.754  1.00  0.00     0.071 C 
ATOM     76  N   UNL     1       2.026  -2.564   2.188  1.00  0.00    -0.322 N 
ATOM     77  C   UNL     1      -0.212  -2.152   1.530  1.00  0.00     0.136 C 
ATOM     78  C   UNL     1       0.904  -3.192   1.517  1.00  0.00     0.152 C 
BRANCH  76  79
ATOM     79  C   UNL     1       3.039  -3.282   2.834  1.00  0.00     0.258 C 
ATOM     80  O   UNL     1       3.663  -2.687   3.716  1.00  0.00    -0.269 OA
BRANCH  79  81
ATOM     81  C   UNL     1       3.406  -4.747   2.579  1.00  0.00     0.081 A 
ATOM     82  C   UNL     1       4.166  -5.355   3.607  1.00  0.00     0.018 A 
ATOM     83  C   UNL     1       3.244  -5.513   1.407  1.00  0.00     0.128 A 
ATOM     84  C   UNL     1       4.765  -6.618   3.461  1.00  0.00     0.001 A 
ATOM     85  C   UNL     1       3.833  -6.789   1.266  1.00  0.00     0.047 A 
ATOM     86  C   UNL     1       4.605  -7.332   2.284  1.00  0.00     0.004 A 
BRANCH  83  87
ATOM     87  O   UNL     1       2.620  -5.029   0.290  1.00  0.00    -0.507 OA
ATOM     88  H   UNL     1       2.207  -4.188   0.312  1.00  0.00     0.293 HD
ENDBRANCH  83  87
ENDBRANCH  79  81
ENDBRANCH  76  79
BRANCH  77  89
ATOM     89  O   UNL     1      -1.503  -2.728   1.644  1.00  0.00    -0.391 OA
ATOM     90  H   UNL     1      -1.551  -3.257   2.456  1.00  0.00     0.211 HD
ENDBRANCH  77  89
ENDBRANCH  72  74
ENDBRANCH  71  72
ENDBRANCH  70  71
ENDBRANCH   1  70
TORSDOF 18
