REMARK SMILES [NH3+][C@]1(C(=O)OCCOC(=O)c2ccc(-c3c4nc(c(-c5cccc(S(=O)(=O)[O-])c5F)c5ccc([nH]5)c(-c5cccc(S(=O)(=O)[O-])c5F)c5nc(c(-c6cccc(S(=O)(=O)[O-])c6F)c6ccc3[nH]6)C=C5)C=C4)cc2)CC[C@H](Oc2ccccc2[N+](=O)[O-])C1
REMARK SMILES IDX 6 1 5 2 3 3 4 4 2 5 74 6 87 7 75 8 76 9 1 10 77 14 78 15
REMARK SMILES IDX 79 16 83 17 80 18 82 19 81 20 84 21 85 22 86 23 7 24 8 25
REMARK SMILES IDX 9 26 10 27 11 28 12 29 73 30 13 31 72 32 14 33 15 34 16 35
REMARK SMILES IDX 66 36 17 37 71 38 65 39 67 40 18 41 70 42 64 43 63 44 19 46
REMARK SMILES IDX 51 47 31 48 50 49 32 50 35 51 49 52 68 53 33 54 34 55 48 57
REMARK SMILES IDX 69 58 36 59 20 60 21 61 29 62 22 63 24 64 30 65 23 66 25 67
REMARK SMILES IDX 26 68 27 69 28 70 52 71 53 72 61 73 54 74 56 75 62 76 55 77
REMARK SMILES IDX 57 78 58 79 59 80 60 81 37 82 38 83 46 84 39 85 41 86 47 87
REMARK SMILES IDX 40 88 42 89 43 90 44 91 45 92
REMARK H PARENT 1 11 1 12 1 13 67 45 35 56
REMARK Flexibility Score: inf
ROOT
ATOM      1  C   UNL     1       2.793  -0.924   1.260  1.00  0.00     0.274 C 
ENDROOT
BRANCH   1   2
ATOM      2  O   UNL     1       2.093   0.265   0.836  1.00  0.00    -0.457 OA
BRANCH   2   3
ATOM      3  C   UNL     1       1.505   0.198  -0.388  1.00  0.00     0.368 C 
ATOM      4  O   UNL     1       1.421  -0.830  -1.057  1.00  0.00    -0.245 OA
BRANCH   3   5
ATOM      5  C   UNL     1       0.886   1.540  -0.864  1.00  0.00     0.196 C 
ATOM      6  C   UNL     1      -0.529   1.710  -0.316  1.00  0.00     0.085 C 
ATOM      7  C   UNL     1       1.578   2.816  -0.360  1.00  0.00     0.126 C 
ATOM      8  C   UNL     1      -0.841   3.183  -0.487  1.00  0.00     0.052 C 
ATOM      9  C   UNL     1       0.492   3.917  -0.312  1.00  0.00     0.180 C 
BRANCH   5  10
ATOM     10  N   UNL     1       0.872   1.538  -2.352  1.00  0.00    -0.343 N 
ATOM     11  H   UNL     1       0.469   2.413  -2.689  1.00  0.00     0.345 HD
ATOM     12  H   UNL     1       0.312   0.754  -2.686  1.00  0.00     0.345 HD
ATOM     13  H   UNL     1       1.826   1.448  -2.701  1.00  0.00     0.345 HD
ENDBRANCH   5  10
BRANCH   9  14
ATOM     14  O   UNL     1       0.763   4.847  -1.364  1.00  0.00    -0.483 OA
BRANCH  14  15
ATOM     15  C   UNL     1       0.018   5.979  -1.519  1.00  0.00     0.197 A 
ATOM     16  C   UNL     1      -1.163   6.264  -0.829  1.00  0.00     0.054 A 
ATOM     17  C   UNL     1       0.424   6.890  -2.506  1.00  0.00     0.310 A 
ATOM     18  C   UNL     1      -1.952   7.370  -1.174  1.00  0.00     0.004 A 
ATOM     19  C   UNL     1      -0.355   8.005  -2.857  1.00  0.00     0.090 A 
ATOM     20  C   UNL     1      -1.558   8.230  -2.196  1.00  0.00     0.007 A 
BRANCH  17  21
ATOM     21  N   UNL     1       1.708   6.730  -3.173  1.00  0.00     0.066 N 
ATOM     22  O   UNL     1       1.725   6.874  -4.405  1.00  0.00    -0.258 OA
ATOM     23  O   UNL     1       2.712   6.565  -2.465  1.00  0.00    -0.258 OA
ENDBRANCH  17  21
ENDBRANCH  14  15
ENDBRANCH   9  14
ENDBRANCH   3   5
ENDBRANCH   2   3
ENDBRANCH   1   2
BRANCH   1  24
ATOM     24  C   UNL     1       2.027  -1.712   2.324  1.00  0.00     0.275 C 
BRANCH  24  25
ATOM     25  O   UNL     1       0.839  -2.318   1.785  1.00  0.00    -0.458 OA
BRANCH  25  26
ATOM     26  C   UNL     1      -0.301  -1.632   2.017  1.00  0.00     0.338 C 
ATOM     27  O   UNL     1      -0.422  -0.593   2.644  1.00  0.00    -0.246 OA
BRANCH  26  28
ATOM     28  C   UNL     1      -1.417  -2.232   1.272  1.00  0.00     0.060 A 
ATOM     29  C   UNL     1      -1.809  -1.588   0.103  1.00  0.00     0.016 A 
ATOM     30  C   UNL     1      -2.164  -3.297   1.770  1.00  0.00     0.016 A 
ATOM     31  C   UNL     1      -3.001  -1.923  -0.523  1.00  0.00     0.010 A 
ATOM     32  C   UNL     1      -3.328  -3.691   1.093  1.00  0.00     0.010 A 
ATOM     33  C   UNL     1      -3.779  -2.981  -0.036  1.00  0.00    -0.014 A 
BRANCH  33  34
ATOM     34  C   UNL     1      -5.061  -3.302  -0.720  1.00  0.00     0.031 A 
ATOM     35  C   UNL     1      -6.377  -3.127  -0.011  1.00  0.00     0.074 A 
ATOM     36  C   UNL     1      -5.044  -3.702  -2.007  1.00  0.00     0.049 A 
ATOM     37  N   UNL     1      -7.588  -3.345  -0.457  1.00  0.00    -0.248 NA
ATOM     38  C   UNL     1      -6.331  -2.649   1.381  1.00  0.00     0.031 C 
ATOM     39  C   UNL     1      -3.836  -3.916  -2.807  1.00  0.00     0.029 A 
ATOM     40  N   UNL     1      -6.069  -3.992  -2.873  1.00  0.00    -0.354 N 
ATOM     41  C   UNL     1      -8.442  -3.084   0.608  1.00  0.00     0.074 A 
ATOM     42  C   UNL     1      -7.612  -2.689   1.725  1.00  0.00     0.031 C 
ATOM     43  C   UNL     1      -4.188  -4.277  -4.050  1.00  0.00     0.029 A 
ATOM     44  C   UNL     1      -5.643  -4.364  -4.127  1.00  0.00     0.049 A 
ATOM     45  H   UNL     1      -7.019  -3.939  -2.620  1.00  0.00     0.167 HD
ATOM     46  C   UNL     1      -9.795  -3.147   0.648  1.00  0.00     0.034 A 
ATOM     47  C   UNL     1      -6.341  -4.740  -5.216  1.00  0.00     0.034 A 
ATOM     48  C   UNL     1     -10.628  -3.479  -0.477  1.00  0.00     0.049 A 
ATOM     49  C   UNL     1      -7.842  -4.759  -5.153  1.00  0.00     0.074 A 
ATOM     50  C   UNL     1     -12.010  -3.534  -0.539  1.00  0.00     0.029 A 
ATOM     51  N   UNL     1     -10.160  -3.799  -1.742  1.00  0.00    -0.354 N 
ATOM     52  N   UNL     1      -8.630  -4.424  -4.161  1.00  0.00    -0.248 NA
ATOM     53  C   UNL     1      -8.551  -5.183  -6.369  1.00  0.00     0.031 C 
ATOM     54  C   UNL     1     -12.377  -3.888  -1.843  1.00  0.00     0.029 A 
ATOM     55  C   UNL     1     -11.224  -4.049  -2.593  1.00  0.00     0.049 A 
ATOM     56  H   UNL     1      -9.210  -3.843  -1.998  1.00  0.00     0.167 HD
ATOM     57  C   UNL     1      -9.927  -4.582  -4.635  1.00  0.00     0.074 A 
ATOM     58  C   UNL     1      -9.817  -5.007  -6.016  1.00  0.00     0.031 C 
ATOM     59  C   UNL     1     -11.101  -4.419  -3.979  1.00  0.00     0.034 A 
BRANCH  46  60
ATOM     60  C   UNL     1     -10.469  -2.807   1.951  1.00  0.00     0.023 A 
ATOM     61  C   UNL     1     -10.588  -1.456   2.336  1.00  0.00     0.012 A 
ATOM     62  C   UNL     1     -11.030  -3.810   2.764  1.00  0.00     0.148 A 
ATOM     63  C   UNL     1     -11.236  -1.111   3.522  1.00  0.00     0.002 A 
ATOM     64  C   UNL     1     -11.704  -3.456   3.927  1.00  0.00     0.091 A 
ATOM     65  F   UNL     1     -10.881  -5.091   2.396  1.00  0.00    -0.205 F 
ATOM     66  C   UNL     1     -11.802  -2.109   4.311  1.00  0.00     0.022 A 
BRANCH  64  67
ATOM     67  S   UNL     1     -12.520  -4.671   4.970  1.00  0.00     0.127 S 
ATOM     68  O   UNL     1     -11.562  -4.811   6.066  1.00  0.00    -0.237 OA
ATOM     69  O   UNL     1     -13.764  -3.990   5.332  1.00  0.00    -0.237 OA
ATOM     70  O   UNL     1     -12.702  -5.850   4.135  1.00  0.00    -0.744 OA
ENDBRANCH  64  67
ENDBRANCH  46  60
BRANCH  47  71
ATOM     71  C   UNL     1      -5.619  -5.074  -6.476  1.00  0.00     0.023 A 
ATOM     72  C   UNL     1      -5.710  -4.202  -7.577  1.00  0.00     0.012 A 
ATOM     73  C   UNL     1      -4.806  -6.220  -6.572  1.00  0.00     0.148 A 
ATOM     74  C   UNL     1      -5.019  -4.475  -8.758  1.00  0.00     0.002 A 
ATOM     75  C   UNL     1      -4.075  -6.455  -7.731  1.00  0.00     0.091 A 
ATOM     76  F   UNL     1      -4.751  -7.054  -5.524  1.00  0.00    -0.205 F 
ATOM     77  C   UNL     1      -4.191  -5.592  -8.831  1.00  0.00     0.022 A 
BRANCH  75  78
ATOM     78  S   UNL     1      -2.880  -7.792  -7.836  1.00  0.00     0.127 S 
ATOM     79  O   UNL     1      -3.637  -8.818  -8.546  1.00  0.00    -0.237 OA
ATOM     80  O   UNL     1      -1.796  -7.181  -8.608  1.00  0.00    -0.237 OA
ATOM     81  O   UNL     1      -2.526  -8.094  -6.455  1.00  0.00    -0.744 OA
ENDBRANCH  75  78
ENDBRANCH  47  71
BRANCH  59  82
ATOM     82  C   UNL     1     -12.364  -4.694  -4.750  1.00  0.00     0.023 A 
ATOM     83  C   UNL     1     -12.731  -6.028  -5.020  1.00  0.00     0.012 A 
ATOM     84  C   UNL     1     -13.209  -3.648  -5.165  1.00  0.00     0.148 A 
ATOM     85  C   UNL     1     -13.902  -6.314  -5.721  1.00  0.00     0.002 A 
ATOM     86  C   UNL     1     -14.396  -3.943  -5.829  1.00  0.00     0.091 A 
ATOM     87  F   UNL     1     -12.836  -2.383  -4.923  1.00  0.00    -0.205 F 
ATOM     88  C   UNL     1     -14.739  -5.273  -6.116  1.00  0.00     0.022 A 
BRANCH  86  89
ATOM     89  S   UNL     1     -15.554  -2.650  -6.291  1.00  0.00     0.127 S 
ATOM     90  O   UNL     1     -15.125  -2.330  -7.650  1.00  0.00    -0.237 OA
ATOM     91  O   UNL     1     -16.848  -3.329  -6.205  1.00  0.00    -0.237 OA
ATOM     92  O   UNL     1     -15.368  -1.599  -5.298  1.00  0.00    -0.744 OA
ENDBRANCH  86  89
ENDBRANCH  59  82
ENDBRANCH  33  34
ENDBRANCH  26  28
ENDBRANCH  25  26
ENDBRANCH  24  25
ENDBRANCH   1  24
TORSDOF 18
