REMARK SMILES CCC(C)(C)NC(=O)[C@@H](C)Oc1ccc(C)nc1C(=O)OCCOC(=O)c1ccc(-c2c3nc(c(-c4cccc(S(=O)(=O)[O-])c4F)c4ccc([nH]4)c(-c4cccc(S(=O)(=O)[O-])c4F)c4nc(c(-c5cccc(S(=O)(=O)[O-])c5F)c5ccc2[nH]5)C=C4)C=C3)cc1
REMARK SMILES IDX 22 1 21 2 19 3 20 4 18 5 12 6 13 7 14 8 17 9 15 10 16 11
REMARK SMILES IDX 11 12 9 13 10 14 7 15 6 16 8 18 3 19 4 20 5 21 2 22 1 23
REMARK SMILES IDX 23 24 24 25 25 26 26 27 27 28 28 29 89 30 29 31 88 32 30 33
REMARK SMILES IDX 31 34 32 35 82 36 33 37 87 38 81 39 83 40 34 41 86 42 80 43
REMARK SMILES IDX 79 44 35 46 67 47 47 48 66 49 48 50 51 51 65 52 84 53 49 54
REMARK SMILES IDX 50 55 64 57 85 58 52 59 36 60 37 61 45 62 38 63 40 64 46 65
REMARK SMILES IDX 39 66 41 67 42 68 43 69 44 70 68 71 69 72 77 73 70 74 72 75
REMARK SMILES IDX 78 76 71 77 73 78 74 79 75 80 76 81 53 82 54 83 62 84 55 85
REMARK SMILES IDX 57 86 63 87 56 88 58 89 59 90 60 91 61 92
REMARK H PARENT 6 17 83 45 51 56
REMARK Flexibility Score: inf
ROOT
ATOM      1  C   UNL     1      -0.135   2.776  -2.574  1.00  0.00     0.275 C 
ENDROOT
BRANCH   1   2
ATOM      2  O   UNL     1       0.273   1.950  -1.465  1.00  0.00    -0.457 OA
BRANCH   2   3
ATOM      3  C   UNL     1      -0.274   2.303  -0.270  1.00  0.00     0.360 C 
ATOM      4  O   UNL     1      -0.996   3.268  -0.086  1.00  0.00    -0.244 OA
BRANCH   3   5
ATOM      5  C   UNL     1       0.062   1.340   0.823  1.00  0.00     0.190 A 
ATOM      6  C   UNL     1       1.325   0.781   1.000  1.00  0.00     0.153 A 
ATOM      7  C   UNL     1       1.594   0.243   2.255  1.00  0.00     0.051 A 
ATOM      8  C   UNL     1       0.557   0.032   3.163  1.00  0.00     0.027 A 
ATOM      9  N   UNL     1      -0.969   1.117   1.690  1.00  0.00    -0.243 NA
ATOM     10  C   UNL     1      -0.728   0.395   2.801  1.00  0.00     0.039 A 
ATOM     11  C   UNL     1      -1.922  -0.099   3.558  1.00  0.00     0.067 C 
BRANCH   6  12
ATOM     12  O   UNL     1       2.248   0.818   0.007  1.00  0.00    -0.478 OA
BRANCH  12  13
ATOM     13  C   UNL     1       3.002  -0.359  -0.275  1.00  0.00     0.259 C 
ATOM     14  C   UNL     1       2.907  -0.662  -1.782  1.00  0.00     0.064 C 
BRANCH  13  15
ATOM     15  C   UNL     1       3.084  -1.688   0.559  1.00  0.00     0.261 C 
ATOM     16  N   UNL     1       2.369  -2.806   0.232  1.00  0.00    -0.348 N 
ATOM     17  H   UNL     1       2.807  -3.405  -0.414  1.00  0.00     0.164 HD
ATOM     18  O   UNL     1       3.957  -1.817   1.427  1.00  0.00    -0.271 OA
BRANCH  16  19
ATOM     19  C   UNL     1       1.027  -3.259   0.701  1.00  0.00     0.034 C 
ATOM     20  C   UNL     1       1.020  -3.383   2.244  1.00  0.00     0.034 C 
ATOM     21  C   UNL     1       0.838  -4.693   0.147  1.00  0.00     0.034 C 
BRANCH  19  22
ATOM     22  C   UNL     1      -0.203  -2.418   0.278  1.00  0.00     0.024 C 
ATOM     23  C   UNL     1      -0.237  -1.849  -1.126  1.00  0.00     0.006 C 
ENDBRANCH  19  22
ENDBRANCH  16  19
ENDBRANCH  13  15
ENDBRANCH  12  13
ENDBRANCH   6  12
ENDBRANCH   3   5
ENDBRANCH   2   3
ENDBRANCH   1   2
BRANCH   1  24
ATOM     24  C   UNL     1      -1.270   2.098  -3.336  1.00  0.00     0.275 C 
BRANCH  24  25
ATOM     25  O   UNL     1      -2.391   1.904  -2.458  1.00  0.00    -0.458 OA
BRANCH  25  26
ATOM     26  C   UNL     1      -3.059   0.742  -2.611  1.00  0.00     0.338 C 
ATOM     27  O   UNL     1      -2.849  -0.127  -3.449  1.00  0.00    -0.246 OA
BRANCH  26  28
ATOM     28  C   UNL     1      -4.136   0.655  -1.614  1.00  0.00     0.060 A 
ATOM     29  C   UNL     1      -3.832   0.565  -0.255  1.00  0.00     0.016 A 
ATOM     30  C   UNL     1      -5.459   0.570  -2.046  1.00  0.00     0.016 A 
ATOM     31  C   UNL     1      -4.851   0.348   0.676  1.00  0.00     0.010 A 
ATOM     32  C   UNL     1      -6.482   0.404  -1.107  1.00  0.00     0.010 A 
ATOM     33  C   UNL     1      -6.188   0.259   0.261  1.00  0.00    -0.014 A 
BRANCH  33  34
ATOM     34  C   UNL     1      -7.280  -0.030   1.232  1.00  0.00     0.031 A 
ATOM     35  C   UNL     1      -8.082  -1.302   1.103  1.00  0.00     0.074 A 
ATOM     36  C   UNL     1      -7.592   0.859   2.196  1.00  0.00     0.049 A 
ATOM     37  N   UNL     1      -9.158  -1.672   1.751  1.00  0.00    -0.248 NA
ATOM     38  C   UNL     1      -7.621  -2.282   0.106  1.00  0.00     0.031 C 
ATOM     39  C   UNL     1      -6.902   2.127   2.434  1.00  0.00     0.029 A 
ATOM     40  N   UNL     1      -8.592   0.843   3.139  1.00  0.00    -0.354 N 
ATOM     41  C   UNL     1      -9.542  -2.886   1.193  1.00  0.00     0.074 A 
ATOM     42  C   UNL     1      -8.575  -3.201   0.164  1.00  0.00     0.031 C 
ATOM     43  C   UNL     1      -7.504   2.772   3.446  1.00  0.00     0.029 A 
ATOM     44  C   UNL     1      -8.652   1.991   3.897  1.00  0.00     0.049 A 
ATOM     45  H   UNL     1      -9.207   0.084   3.261  1.00  0.00     0.167 HD
ATOM     46  C   UNL     1     -10.598  -3.671   1.512  1.00  0.00     0.034 A 
ATOM     47  C   UNL     1      -9.546   2.386   4.825  1.00  0.00     0.034 A 
ATOM     48  C   UNL     1     -11.518  -3.397   2.584  1.00  0.00     0.049 A 
ATOM     49  C   UNL     1     -10.699   1.480   5.171  1.00  0.00     0.074 A 
ATOM     50  C   UNL     1     -12.568  -4.179   3.035  1.00  0.00     0.029 A 
ATOM     51  N   UNL     1     -11.501  -2.258   3.372  1.00  0.00    -0.354 N 
ATOM     52  N   UNL     1     -10.978   0.284   4.713  1.00  0.00    -0.248 NA
ATOM     53  C   UNL     1     -11.650   1.971   6.181  1.00  0.00     0.031 C 
ATOM     54  C   UNL     1     -13.198  -3.503   4.084  1.00  0.00     0.029 A 
ATOM     55  C   UNL     1     -12.528  -2.310   4.299  1.00  0.00     0.049 A 
ATOM     56  H   UNL     1     -10.854  -1.521   3.286  1.00  0.00     0.167 HD
ATOM     57  C   UNL     1     -12.113  -0.132   5.399  1.00  0.00     0.074 A 
ATOM     58  C   UNL     1     -12.457   0.928   6.323  1.00  0.00     0.031 C 
ATOM     59  C   UNL     1     -12.821  -1.280   5.261  1.00  0.00     0.034 A 
BRANCH  46  60
ATOM     60  C   UNL     1     -10.816  -4.929   0.714  1.00  0.00     0.023 A 
ATOM     61  C   UNL     1      -9.997  -6.053   0.939  1.00  0.00     0.012 A 
ATOM     62  C   UNL     1     -11.891  -5.026  -0.192  1.00  0.00     0.148 A 
ATOM     63  C   UNL     1     -10.232  -7.248   0.260  1.00  0.00     0.002 A 
ATOM     64  C   UNL     1     -12.143  -6.232  -0.836  1.00  0.00     0.091 A 
ATOM     65  F   UNL     1     -12.646  -3.939  -0.406  1.00  0.00    -0.205 F 
ATOM     66  C   UNL     1     -11.310  -7.341  -0.617  1.00  0.00     0.022 A 
BRANCH  64  67
ATOM     67  S   UNL     1     -13.553  -6.475  -1.923  1.00  0.00     0.127 S 
ATOM     68  O   UNL     1     -12.904  -6.578  -3.229  1.00  0.00    -0.237 OA
ATOM     69  O   UNL     1     -14.116  -7.729  -1.422  1.00  0.00    -0.237 OA
ATOM     70  O   UNL     1     -14.408  -5.310  -1.740  1.00  0.00    -0.744 OA
ENDBRANCH  64  67
ENDBRANCH  46  60
BRANCH  47  71
ATOM     71  C   UNL     1      -9.379   3.695   5.521  1.00  0.00     0.023 A 
ATOM     72  C   UNL     1      -9.065   3.710   6.894  1.00  0.00     0.012 A 
ATOM     73  C   UNL     1      -9.526   4.917   4.838  1.00  0.00     0.148 A 
ATOM     74  C   UNL     1      -8.932   4.918   7.581  1.00  0.00     0.002 A 
ATOM     75  C   UNL     1      -9.335   6.117   5.516  1.00  0.00     0.091 A 
ATOM     76  F   UNL     1      -9.854   4.887   3.539  1.00  0.00    -0.205 F 
ATOM     77  C   UNL     1      -9.055   6.120   6.890  1.00  0.00     0.022 A 
BRANCH  75  78
ATOM     78  S   UNL     1      -9.348   7.699   4.666  1.00  0.00     0.127 S 
ATOM     79  O   UNL     1     -10.680   8.202   4.988  1.00  0.00    -0.237 OA
ATOM     80  O   UNL     1      -8.247   8.410   5.319  1.00  0.00    -0.237 OA
ATOM     81  O   UNL     1      -9.103   7.384   3.264  1.00  0.00    -0.744 OA
ENDBRANCH  75  78
ENDBRANCH  47  71
BRANCH  59  82
ATOM     82  C   UNL     1     -14.016  -1.479   6.156  1.00  0.00     0.023 A 
ATOM     83  C   UNL     1     -15.198  -0.753   5.915  1.00  0.00     0.012 A 
ATOM     84  C   UNL     1     -13.992  -2.440   7.186  1.00  0.00     0.148 A 
ATOM     85  C   UNL     1     -16.329  -0.957   6.705  1.00  0.00     0.002 A 
ATOM     86  C   UNL     1     -15.137  -2.671   7.940  1.00  0.00     0.091 A 
ATOM     87  F   UNL     1     -12.851  -3.107   7.414  1.00  0.00    -0.205 F 
ATOM     88  C   UNL     1     -16.302  -1.923   7.708  1.00  0.00     0.022 A 
BRANCH  86  89
ATOM     89  S   UNL     1     -15.218  -3.962   9.187  1.00  0.00     0.127 S 
ATOM     90  O   UNL     1     -15.124  -3.189  10.424  1.00  0.00    -0.237 OA
ATOM     91  O   UNL     1     -16.531  -4.558   8.938  1.00  0.00    -0.237 OA
ATOM     92  O   UNL     1     -14.095  -4.850   8.914  1.00  0.00    -0.744 OA
ENDBRANCH  86  89
ENDBRANCH  59  82
ENDBRANCH  33  34
ENDBRANCH  26  28
ENDBRANCH  25  26
ENDBRANCH  24  25
ENDBRANCH   1  24
TORSDOF 19
