REMARK SMILES COc1ccc(OCCNc2c(Cl)cccc2C(=O)OCCOC(=O)c2ccc(-c3c4nc(c(-c5cccc(S(=O)(=O)[O-])c5F)c5ccc([nH]5)c(-c5cccc(S(=O)(=O)[O-])c5F)c5nc(c(-c6cccc(S(=O)(=O)[O-])c6F)c6ccc3[nH]6)C=C5)C=C4)cc2)cc1
REMARK SMILES IDX 20 1 18 2 19 3 17 4 11 5 12 6 13 7 14 8 16 9 15 10 10 11
REMARK SMILES IDX 9 13 8 14 7 15 6 16 3 17 4 18 90 19 5 20 89 21 2 22 1 23
REMARK SMILES IDX 21 24 22 25 23 26 24 27 25 28 26 29 27 30 88 31 28 32 87 33
REMARK SMILES IDX 29 34 30 35 31 36 81 37 32 38 86 39 80 40 82 41 33 42 85 43
REMARK SMILES IDX 79 44 78 45 34 47 66 48 46 49 65 50 47 51 50 52 64 53 83 54
REMARK SMILES IDX 48 55 49 56 63 58 84 59 51 60 35 61 36 62 44 63 37 64 39 65
REMARK SMILES IDX 45 66 38 67 40 68 41 69 42 70 43 71 67 72 68 73 76 74 69 75
REMARK SMILES IDX 71 76 77 77 70 78 72 79 73 80 74 81 75 82 52 83 53 84 61 85
REMARK SMILES IDX 54 86 56 87 62 88 55 89 57 90 58 91 59 92 60 93
REMARK H PARENT 10 12 82 46 50 57
REMARK Flexibility Score: inf
ROOT
ATOM      1  O   UNL     1       4.254  -6.617   1.604  1.00  0.00    -0.458 OA
ENDROOT
BRANCH   1   2
ATOM      2  C   UNL     1       5.493  -6.075   1.707  1.00  0.00     0.340 C 
ATOM      3  O   UNL     1       6.489  -6.625   2.135  1.00  0.00    -0.246 OA
BRANCH   2   4
ATOM      4  C   UNL     1       5.545  -4.676   1.234  1.00  0.00     0.084 A 
ATOM      5  C   UNL     1       5.073  -3.618   2.019  1.00  0.00     0.068 A 
ATOM      6  C   UNL     1       5.528  -2.320   1.652  1.00  0.00     0.065 A 
ATOM      7  Cl  UNL     1       5.243  -0.938   2.658  1.00  0.00    -0.082 Cl
ATOM      8  C   UNL     1       6.296  -2.076   0.509  1.00  0.00     0.023 A 
ATOM      9  C   UNL     1       6.307  -4.419   0.077  1.00  0.00     0.018 A 
ATOM     10  C   UNL     1       6.652  -3.129  -0.308  1.00  0.00     0.003 A 
BRANCH   5  11
ATOM     11  N   UNL     1       4.033  -3.720   2.934  1.00  0.00    -0.380 N 
ATOM     12  H   UNL     1       3.359  -3.005   2.886  1.00  0.00     0.160 HD
BRANCH  11  13
ATOM     13  C   UNL     1       3.794  -4.732   3.954  1.00  0.00     0.154 C 
BRANCH  13  14
ATOM     14  C   UNL     1       3.148  -4.091   5.207  1.00  0.00     0.250 C 
BRANCH  14  15
ATOM     15  O   UNL     1       1.732  -3.835   5.096  1.00  0.00    -0.492 OA
BRANCH  15  16
ATOM     16  C   UNL     1       1.304  -2.809   4.300  1.00  0.00     0.119 A 
ATOM     17  C   UNL     1       0.350  -1.045   2.332  1.00  0.00     0.119 A 
ATOM     18  C   UNL     1      -0.510  -1.965   2.927  1.00  0.00     0.050 A 
ATOM     19  C   UNL     1       1.643  -0.916   2.822  1.00  0.00     0.050 A 
ATOM     20  C   UNL     1      -0.029  -2.857   3.895  1.00  0.00     0.050 A 
ATOM     21  C   UNL     1       2.094  -1.762   3.841  1.00  0.00     0.050 A 
BRANCH  17  22
ATOM     22  O   UNL     1      -0.163  -0.256   1.340  1.00  0.00    -0.497 OA
ATOM     23  C   UNL     1       0.682  -0.143   0.192  1.00  0.00     0.278 C 
ENDBRANCH  17  22
ENDBRANCH  15  16
ENDBRANCH  14  15
ENDBRANCH  13  14
ENDBRANCH  11  13
ENDBRANCH   5  11
ENDBRANCH   2   4
ENDBRANCH   1   2
BRANCH   1  24
ATOM     24  C   UNL     1       4.113  -7.948   2.152  1.00  0.00     0.275 C 
BRANCH  24  25
ATOM     25  C   UNL     1       3.679  -8.945   1.081  1.00  0.00     0.275 C 
BRANCH  25  26
ATOM     26  O   UNL     1       4.745  -9.126   0.137  1.00  0.00    -0.458 OA
BRANCH  26  27
ATOM     27  C   UNL     1       4.635  -8.378  -0.978  1.00  0.00     0.338 C 
ATOM     28  O   UNL     1       3.692  -7.673  -1.318  1.00  0.00    -0.246 OA
BRANCH  27  29
ATOM     29  C   UNL     1       5.900  -8.396  -1.712  1.00  0.00     0.060 A 
ATOM     30  C   UNL     1       6.937  -7.614  -1.221  1.00  0.00     0.016 A 
ATOM     31  C   UNL     1       5.991  -8.976  -2.971  1.00  0.00     0.016 A 
ATOM     32  C   UNL     1       7.972  -7.232  -2.063  1.00  0.00     0.010 A 
ATOM     33  C   UNL     1       7.130  -8.736  -3.746  1.00  0.00     0.010 A 
ATOM     34  C   UNL     1       8.104  -7.807  -3.331  1.00  0.00    -0.014 A 
BRANCH  34  35
ATOM     35  C   UNL     1       9.238  -7.430  -4.223  1.00  0.00     0.031 A 
ATOM     36  C   UNL     1       8.973  -7.023  -5.652  1.00  0.00     0.074 A 
ATOM     37  C   UNL     1      10.508  -7.476  -3.767  1.00  0.00     0.049 A 
ATOM     38  N   UNL     1       9.810  -6.918  -6.651  1.00  0.00    -0.248 NA
ATOM     39  C   UNL     1       7.576  -6.718  -6.013  1.00  0.00     0.031 C 
ATOM     40  C   UNL     1      10.913  -7.819  -2.401  1.00  0.00     0.029 A 
ATOM     41  N   UNL     1      11.702  -7.254  -4.411  1.00  0.00    -0.354 N 
ATOM     42  C   UNL     1       9.034  -6.640  -7.772  1.00  0.00     0.074 A 
ATOM     43  C   UNL     1       7.660  -6.571  -7.328  1.00  0.00     0.031 C 
ATOM     44  C   UNL     1      12.246  -7.761  -2.300  1.00  0.00     0.029 A 
ATOM     45  C   UNL     1      12.801  -7.502  -3.619  1.00  0.00     0.049 A 
ATOM     46  H   UNL     1      11.765  -6.948  -5.344  1.00  0.00     0.167 HD
ATOM     47  C   UNL     1       9.436  -6.461  -9.053  1.00  0.00     0.034 A 
ATOM     48  C   UNL     1      14.109  -7.591  -3.925  1.00  0.00     0.034 A 
ATOM     49  C   UNL     1      10.815  -6.454  -9.464  1.00  0.00     0.049 A 
ATOM     50  C   UNL     1      14.527  -7.391  -5.351  1.00  0.00     0.074 A 
ATOM     51  C   UNL     1      11.337  -6.235 -10.726  1.00  0.00     0.029 A 
ATOM     52  N   UNL     1      11.893  -6.665  -8.617  1.00  0.00    -0.354 N 
ATOM     53  N   UNL     1      13.785  -7.113  -6.396  1.00  0.00    -0.248 NA
ATOM     54  C   UNL     1      15.961  -7.507  -5.642  1.00  0.00     0.031 C 
ATOM     55  C   UNL     1      12.730  -6.338 -10.647  1.00  0.00     0.029 A 
ATOM     56  C   UNL     1      13.078  -6.585  -9.328  1.00  0.00     0.049 A 
ATOM     57  H   UNL     1      11.826  -6.844  -7.651  1.00  0.00     0.167 HD
ATOM     58  C   UNL     1      14.664  -6.993  -7.463  1.00  0.00     0.074 A 
ATOM     59  C   UNL     1      15.996  -7.204  -6.932  1.00  0.00     0.031 C 
ATOM     60  C   UNL     1      14.395  -6.747  -8.768  1.00  0.00     0.034 A 
BRANCH  47  61
ATOM     61  C   UNL     1       8.377  -6.255 -10.109  1.00  0.00     0.023 A 
ATOM     62  C   UNL     1       7.658  -5.045 -10.168  1.00  0.00     0.012 A 
ATOM     63  C   UNL     1       8.139  -7.246 -11.084  1.00  0.00     0.148 A 
ATOM     64  C   UNL     1       6.695  -4.838 -11.157  1.00  0.00     0.002 A 
ATOM     65  C   UNL     1       7.212  -7.014 -12.094  1.00  0.00     0.091 A 
ATOM     66  F   UNL     1       8.819  -8.399 -11.003  1.00  0.00    -0.205 F 
ATOM     67  C   UNL     1       6.480  -5.817 -12.124  1.00  0.00     0.022 A 
BRANCH  65  68
ATOM     68  S   UNL     1       6.923  -8.177 -13.434  1.00  0.00     0.127 S 
ATOM     69  O   UNL     1       5.572  -8.646 -13.130  1.00  0.00    -0.237 OA
ATOM     70  O   UNL     1       7.018  -7.316 -14.613  1.00  0.00    -0.237 OA
ATOM     71  O   UNL     1       7.971  -9.182 -13.328  1.00  0.00    -0.744 OA
ENDBRANCH  65  68
ENDBRANCH  47  61
BRANCH  48  72
ATOM     72  C   UNL     1      15.104  -7.905  -2.860  1.00  0.00     0.023 A 
ATOM     73  C   UNL     1      16.033  -6.922  -2.469  1.00  0.00     0.012 A 
ATOM     74  C   UNL     1      15.106  -9.151  -2.201  1.00  0.00     0.148 A 
ATOM     75  C   UNL     1      16.961  -7.183  -1.460  1.00  0.00     0.002 A 
ATOM     76  C   UNL     1      15.988  -9.381  -1.153  1.00  0.00     0.091 A 
ATOM     77  F   UNL     1      14.225 -10.081  -2.597  1.00  0.00    -0.205 F 
ATOM     78  C   UNL     1      16.930  -8.405  -0.793  1.00  0.00     0.022 A 
BRANCH  76  79
ATOM     79  S   UNL     1      15.915 -10.866  -0.143  1.00  0.00     0.127 S 
ATOM     80  O   UNL     1      17.118 -11.576  -0.570  1.00  0.00    -0.237 OA
ATOM     81  O   UNL     1      15.972 -10.314   1.211  1.00  0.00    -0.237 OA
ATOM     82  O   UNL     1      14.649 -11.504  -0.476  1.00  0.00    -0.744 OA
ENDBRANCH  76  79
ENDBRANCH  48  72
BRANCH  60  83
ATOM     83  C   UNL     1      15.568  -6.639  -9.704  1.00  0.00     0.023 A 
ATOM     84  C   UNL     1      16.284  -7.794 -10.074  1.00  0.00     0.012 A 
ATOM     85  C   UNL     1      15.920  -5.395 -10.261  1.00  0.00     0.148 A 
ATOM     86  C   UNL     1      17.358  -7.706 -10.958  1.00  0.00     0.002 A 
ATOM     87  C   UNL     1      16.956  -5.323 -11.182  1.00  0.00     0.091 A 
ATOM     88  F   UNL     1      15.237  -4.306  -9.878  1.00  0.00    -0.205 F 
ATOM     89  C   UNL     1      17.685  -6.475 -11.521  1.00  0.00     0.022 A 
BRANCH  87  90
ATOM     90  S   UNL     1      17.383  -3.800 -12.031  1.00  0.00     0.127 S 
ATOM     91  O   UNL     1      18.664  -3.463 -11.413  1.00  0.00    -0.237 OA
ATOM     92  O   UNL     1      17.473  -4.238 -13.424  1.00  0.00    -0.237 OA
ATOM     93  O   UNL     1      16.295  -2.869 -11.759  1.00  0.00    -0.744 OA
ENDBRANCH  87  90
ENDBRANCH  60  83
ENDBRANCH  34  35
ENDBRANCH  27  29
ENDBRANCH  26  27
ENDBRANCH  25  26
ENDBRANCH  24  25
ENDBRANCH   1  24
TORSDOF 20
