REMARK SMILES Nc1oc2ccc(F)cc2c(=O)c1[C@@H]1[NH2+][C@H](C(=O)OCCOC(=O)c2ccc(-c3c4nc(c(-c5cccc(S(=O)(=O)[O-])c5F)c5ccc([nH]5)c(-c5cccc(S(=O)(=O)[O-])c5F)c5nc(c(-c6cccc(S(=O)(=O)[O-])c6F)c6ccc3[nH]6)C=C5)C=C4)cc2)CS1
REMARK SMILES IDX 21 1 20 2 19 3 17 4 18 5 16 6 14 7 15 8 89 9 88 12 13 13
REMARK SMILES IDX 2 14 3 15 4 16 11 17 5 18 10 19 12 20 6 21 9 22 7 23 8 24
REMARK SMILES IDX 1 25 22 28 23 29 24 30 25 31 26 32 87 33 27 34 86 35 28 36
REMARK SMILES IDX 29 37 30 38 80 39 31 40 85 41 79 42 81 43 32 44 84 45 78 46
REMARK SMILES IDX 77 47 33 49 65 50 45 51 64 52 46 53 49 54 63 55 82 56 47 57
REMARK SMILES IDX 48 58 62 60 83 61 50 62 34 63 35 64 43 65 36 66 38 67 44 68
REMARK SMILES IDX 37 69 39 70 40 71 41 72 42 73 66 74 67 75 75 76 68 77 70 78
REMARK SMILES IDX 76 79 69 80 71 81 72 82 73 83 74 84 51 85 52 86 60 87 53 88
REMARK SMILES IDX 55 89 61 90 54 91 56 92 57 93 58 94 59 95
REMARK H PARENT 15 10 15 11 1 26 1 27 81 48 49 59
REMARK Flexibility Score: inf
ROOT
ATOM      1  C   UNL     1      -2.220  -2.251  -0.417  1.00  0.00     0.275 C 
ENDROOT
BRANCH   1   2
ATOM      2  C   UNL     1      -1.053  -1.522   0.248  1.00  0.00     0.274 C 
BRANCH   2   3
ATOM      3  O   UNL     1      -0.075  -1.169  -0.749  1.00  0.00    -0.458 OA
BRANCH   3   4
ATOM      4  C   UNL     1       1.208  -1.570  -0.551  1.00  0.00     0.365 C 
ATOM      5  O   UNL     1       1.585  -2.224   0.417  1.00  0.00    -0.245 OA
BRANCH   4   6
ATOM      6  C   UNL     1       2.155  -1.189  -1.706  1.00  0.00     0.304 C 
ATOM      7  C   UNL     1       1.925   1.112  -2.384  1.00  0.00     0.283 C 
ATOM      8  N   UNL     1       1.573  -0.270  -2.709  1.00  0.00    -0.319 N 
ATOM      9  S   UNL     1       3.530   1.102  -1.544  1.00  0.00    -0.087 SA
ATOM     10  H   UNL     1       1.938  -0.504  -3.632  1.00  0.00     0.348 HD
ATOM     11  H   UNL     1       0.558  -0.368  -2.703  1.00  0.00     0.348 HD
ATOM     12  C   UNL     1       3.497  -0.673  -1.199  1.00  0.00     0.153 C 
BRANCH   7  13
ATOM     13  C   UNL     1       0.827   1.826  -1.634  1.00  0.00     0.128 A 
ATOM     14  C   UNL     1       0.558   1.817  -0.308  1.00  0.00     0.205 A 
ATOM     15  O   UNL     1      -0.578   2.379   0.249  1.00  0.00    -0.440 OA
ATOM     16  C   UNL     1      -1.337   3.226  -0.500  1.00  0.00     0.140 A 
ATOM     17  C   UNL     1      -0.059   2.651  -2.508  1.00  0.00     0.205 A 
ATOM     18  C   UNL     1      -2.346   3.925   0.162  1.00  0.00     0.051 A 
ATOM     19  C   UNL     1      -1.109   3.434  -1.851  1.00  0.00     0.068 A 
ATOM     20  O   UNL     1       0.096   2.748  -3.721  1.00  0.00    -0.288 OA
ATOM     21  C   UNL     1      -3.086   4.882  -0.529  1.00  0.00     0.043 A 
ATOM     22  C   UNL     1      -1.847   4.391  -2.553  1.00  0.00     0.055 A 
ATOM     23  C   UNL     1      -2.819   5.117  -1.875  1.00  0.00     0.124 A 
ATOM     24  F   UNL     1      -3.504   6.068  -2.522  1.00  0.00    -0.207 F 
BRANCH  14  25
ATOM     25  N   UNL     1       1.334   1.228   0.647  1.00  0.00    -0.369 N 
ATOM     26  H   UNL     1       1.065   1.268   1.593  1.00  0.00     0.159 HD
ATOM     27  H   UNL     1       2.163   0.764   0.390  1.00  0.00     0.159 HD
ENDBRANCH  14  25
ENDBRANCH   7  13
ENDBRANCH   4   6
ENDBRANCH   3   4
ENDBRANCH   2   3
ENDBRANCH   1   2
BRANCH   1  28
ATOM     28  O   UNL     1      -1.792  -3.544  -0.873  1.00  0.00    -0.458 OA
BRANCH  28  29
ATOM     29  C   UNL     1      -1.264  -3.567  -2.120  1.00  0.00     0.338 C 
ATOM     30  O   UNL     1      -1.245  -2.671  -2.945  1.00  0.00    -0.246 OA
BRANCH  29  31
ATOM     31  C   UNL     1      -0.534  -4.830  -2.263  1.00  0.00     0.060 A 
ATOM     32  C   UNL     1      -1.210  -6.045  -2.305  1.00  0.00     0.016 A 
ATOM     33  C   UNL     1       0.858  -4.781  -2.354  1.00  0.00     0.016 A 
ATOM     34  C   UNL     1      -0.471  -7.221  -2.413  1.00  0.00     0.010 A 
ATOM     35  C   UNL     1       1.596  -5.949  -2.479  1.00  0.00     0.010 A 
ATOM     36  C   UNL     1       0.934  -7.179  -2.497  1.00  0.00    -0.014 A 
BRANCH  36  37
ATOM     37  C   UNL     1       1.708  -8.424  -2.676  1.00  0.00     0.031 A 
ATOM     38  C   UNL     1       2.588  -8.950  -1.582  1.00  0.00     0.074 A 
ATOM     39  C   UNL     1       1.625  -9.056  -3.861  1.00  0.00     0.049 A 
ATOM     40  N   UNL     1       3.244 -10.078  -1.538  1.00  0.00    -0.248 NA
ATOM     41  C   UNL     1       2.771  -8.103  -0.391  1.00  0.00     0.031 C 
ATOM     42  C   UNL     1       0.882  -8.563  -5.025  1.00  0.00     0.029 A 
ATOM     43  N   UNL     1       2.162 -10.241  -4.284  1.00  0.00    -0.354 N 
ATOM     44  C   UNL     1       3.922 -10.077  -0.326  1.00  0.00     0.074 A 
ATOM     45  C   UNL     1       3.627  -8.821   0.326  1.00  0.00     0.031 C 
ATOM     46  C   UNL     1       0.976  -9.461  -6.016  1.00  0.00     0.029 A 
ATOM     47  C   UNL     1       1.795 -10.581  -5.564  1.00  0.00     0.049 A 
ATOM     48  H   UNL     1       2.753 -10.797  -3.726  1.00  0.00     0.167 HD
ATOM     49  C   UNL     1       4.690 -11.056   0.204  1.00  0.00     0.034 A 
ATOM     50  C   UNL     1       2.069 -11.684  -6.284  1.00  0.00     0.034 A 
ATOM     51  C   UNL     1       4.941 -12.314  -0.444  1.00  0.00     0.049 A 
ATOM     52  C   UNL     1       2.875 -12.779  -5.650  1.00  0.00     0.074 A 
ATOM     53  C   UNL     1       5.631 -13.408   0.046  1.00  0.00     0.029 A 
ATOM     54  N   UNL     1       4.516 -12.643  -1.721  1.00  0.00    -0.354 N 
ATOM     55  N   UNL     1       3.378 -12.829  -4.440  1.00  0.00    -0.248 NA
ATOM     56  C   UNL     1       3.128 -13.977  -6.460  1.00  0.00     0.031 C 
ATOM     57  C   UNL     1       5.635 -14.396  -0.942  1.00  0.00     0.029 A 
ATOM     58  C   UNL     1       4.934 -13.921  -2.041  1.00  0.00     0.049 A 
ATOM     59  H   UNL     1       3.994 -12.054  -2.312  1.00  0.00     0.167 HD
ATOM     60  C   UNL     1       3.995 -14.067  -4.335  1.00  0.00     0.074 A 
ATOM     61  C   UNL     1       3.787 -14.745  -5.600  1.00  0.00     0.031 C 
ATOM     62  C   UNL     1       4.684 -14.589  -3.292  1.00  0.00     0.034 A 
BRANCH  49  63
ATOM     63  C   UNL     1       5.253 -10.854   1.584  1.00  0.00     0.023 A 
ATOM     64  C   UNL     1       4.403 -11.015   2.697  1.00  0.00     0.012 A 
ATOM     65  C   UNL     1       6.627 -10.627   1.786  1.00  0.00     0.148 A 
ATOM     66  C   UNL     1       4.912 -10.950   3.993  1.00  0.00     0.002 A 
ATOM     67  C   UNL     1       7.133 -10.591   3.081  1.00  0.00     0.091 A 
ATOM     68  F   UNL     1       7.412 -10.466   0.712  1.00  0.00    -0.205 F 
ATOM     69  C   UNL     1       6.276 -10.749   4.184  1.00  0.00     0.022 A 
BRANCH  67  70
ATOM     70  S   UNL     1       8.881 -10.391   3.442  1.00  0.00     0.127 S 
ATOM     71  O   UNL     1       8.888  -9.121   4.168  1.00  0.00    -0.237 OA
ATOM     72  O   UNL     1       9.158 -11.567   4.267  1.00  0.00    -0.237 OA
ATOM     73  O   UNL     1       9.561 -10.368   2.155  1.00  0.00    -0.744 OA
ENDBRANCH  67  70
ENDBRANCH  49  63
BRANCH  50  74
ATOM     74  C   UNL     1       1.485 -11.823  -7.643  1.00  0.00     0.023 A 
ATOM     75  C   UNL     1       0.370 -12.662  -7.830  1.00  0.00     0.012 A 
ATOM     76  C   UNL     1       1.962 -11.053  -8.720  1.00  0.00     0.148 A 
ATOM     77  C   UNL     1      -0.259 -12.736  -9.073  1.00  0.00     0.002 A 
ATOM     78  C   UNL     1       1.308 -11.103  -9.945  1.00  0.00     0.091 A 
ATOM     79  F   UNL     1       3.022 -10.261  -8.511  1.00  0.00    -0.205 F 
ATOM     80  C   UNL     1       0.202 -11.950 -10.126  1.00  0.00     0.022 A 
BRANCH  78  81
ATOM     81  S   UNL     1       1.761 -10.052 -11.329  1.00  0.00     0.127 S 
ATOM     82  O   UNL     1       2.210 -11.033 -12.313  1.00  0.00    -0.237 OA
ATOM     83  O   UNL     1       0.487  -9.403 -11.641  1.00  0.00    -0.237 OA
ATOM     84  O   UNL     1       2.792  -9.154 -10.825  1.00  0.00    -0.744 OA
ENDBRANCH  78  81
ENDBRANCH  50  74
BRANCH  62  85
ATOM     85  C   UNL     1       5.272 -15.960  -3.455  1.00  0.00     0.023 A 
ATOM     86  C   UNL     1       6.472 -16.112  -4.176  1.00  0.00     0.012 A 
ATOM     87  C   UNL     1       4.715 -17.065  -2.783  1.00  0.00     0.148 A 
ATOM     88  C   UNL     1       7.108 -17.350  -4.231  1.00  0.00     0.002 A 
ATOM     89  C   UNL     1       5.373 -18.287  -2.813  1.00  0.00     0.091 A 
ATOM     90  F   UNL     1       3.569 -16.889  -2.108  1.00  0.00    -0.205 F 
ATOM     91  C   UNL     1       6.567 -18.432  -3.540  1.00  0.00     0.022 A 
BRANCH  89  92
ATOM     92  S   UNL     1       4.798 -19.719  -1.894  1.00  0.00     0.127 S 
ATOM     93  O   UNL     1       4.449 -20.643  -2.973  1.00  0.00    -0.237 OA
ATOM     94  O   UNL     1       5.988 -20.093  -1.130  1.00  0.00    -0.237 OA
ATOM     95  O   UNL     1       3.675 -19.260  -1.088  1.00  0.00    -0.744 OA
ENDBRANCH  89  92
ENDBRANCH  62  85
ENDBRANCH  36  37
ENDBRANCH  29  31
ENDBRANCH  28  29
ENDBRANCH   1  28
TORSDOF 16
