REMARK SMILES O=C(OCCOC(=O)[C@H]1CC=CC[C@@H]1C(=O)Nc1ccccc1C(=O)NCc1ccco1)c1ccc(-c2c3nc(c(-c4cccc(S(=O)(=O)[O-])c4F)c4ccc([nH]4)c(-c4cccc(S(=O)(=O)[O-])c4F)c4nc(c(-c5cccc(S(=O)(=O)[O-])c5F)c5ccc2[nH]5)C=C4)C=C3)cc1
REMARK SMILES IDX 5 1 4 2 3 3 2 4 1 5 33 6 34 7 95 8 35 9 94 10 36 11 37 12
REMARK SMILES IDX 38 13 88 14 39 15 93 16 87 17 89 18 40 19 92 20 86 21 85 22
REMARK SMILES IDX 41 24 73 25 53 26 72 27 54 28 57 29 71 30 90 31 55 32 56 33
REMARK SMILES IDX 70 35 91 36 58 37 42 38 43 39 51 40 44 41 46 42 52 43 45 44
REMARK SMILES IDX 47 45 48 46 49 47 50 48 74 49 75 50 83 51 76 52 78 53 84 54
REMARK SMILES IDX 77 55 79 56 80 57 81 58 82 59 59 60 60 61 68 62 61 63 63 64
REMARK SMILES IDX 69 65 62 66 64 67 65 68 66 69 67 70 6 71 7 72 8 73 9 74
REMARK SMILES IDX 10 75 14 76 11 77 13 78 12 79 15 80 16 81 17 82 18 84 19 85
REMARK SMILES IDX 23 86 20 87 22 88 21 89 24 90 25 91 26 92 27 94 28 95 29 96
REMARK SMILES IDX 32 97 30 98 31 99
REMARK H PARENT 89 23 57 34 17 83 26 93
REMARK Flexibility Score: inf
ROOT
ATOM      1  C   UNL     1       4.004  -1.907   1.793  1.00  0.00     0.274 C 
ENDROOT
BRANCH   1   2
ATOM      2  C   UNL     1       5.016  -0.843   2.225  1.00  0.00     0.275 C 
BRANCH   2   3
ATOM      3  O   UNL     1       4.702   0.477   1.777  1.00  0.00    -0.458 OA
BRANCH   3   4
ATOM      4  C   UNL     1       4.847   1.007   0.542  1.00  0.00     0.338 C 
ATOM      5  O   UNL     1       4.378   2.132   0.361  1.00  0.00    -0.246 OA
BRANCH   4   6
ATOM      6  C   UNL     1       5.496   0.316  -0.633  1.00  0.00     0.060 A 
ATOM      7  C   UNL     1       6.292  -0.837  -0.666  1.00  0.00     0.016 A 
ATOM      8  C   UNL     1       5.203   0.894  -1.867  1.00  0.00     0.016 A 
ATOM      9  C   UNL     1       6.736  -1.409  -1.888  1.00  0.00     0.010 A 
ATOM     10  C   UNL     1       5.533   0.252  -3.066  1.00  0.00     0.010 A 
ATOM     11  C   UNL     1       6.338  -0.894  -3.123  1.00  0.00    -0.014 A 
BRANCH  11  12
ATOM     12  C   UNL     1       6.699  -1.475  -4.473  1.00  0.00     0.031 A 
ATOM     13  C   UNL     1       7.050  -0.522  -5.613  1.00  0.00     0.074 A 
ATOM     14  C   UNL     1       6.529  -2.785  -4.787  1.00  0.00     0.049 A 
ATOM     15  N   UNL     1       7.151  -0.756  -6.898  1.00  0.00    -0.248 NA
ATOM     16  C   UNL     1       7.216   0.906  -5.273  1.00  0.00     0.031 C 
ATOM     17  C   UNL     1       6.047  -3.846  -3.895  1.00  0.00     0.029 A 
ATOM     18  N   UNL     1       6.643  -3.435  -6.003  1.00  0.00    -0.354 N 
ATOM     19  C   UNL     1       7.315   0.493  -7.490  1.00  0.00     0.074 A 
ATOM     20  C   UNL     1       7.096   1.477  -6.460  1.00  0.00     0.031 C 
ATOM     21  C   UNL     1       5.796  -4.960  -4.605  1.00  0.00     0.029 A 
ATOM     22  C   UNL     1       6.161  -4.728  -5.996  1.00  0.00     0.049 A 
ATOM     23  H   UNL     1       7.033  -3.012  -6.802  1.00  0.00     0.167 HD
ATOM     24  C   UNL     1       7.770   0.814  -8.725  1.00  0.00     0.034 A 
ATOM     25  C   UNL     1       6.034  -5.635  -6.988  1.00  0.00     0.034 A 
ATOM     26  C   UNL     1       8.185  -0.168  -9.680  1.00  0.00     0.049 A 
ATOM     27  C   UNL     1       6.628  -5.317  -8.335  1.00  0.00     0.074 A 
ATOM     28  C   UNL     1       8.924   0.003 -10.834  1.00  0.00     0.029 A 
ATOM     29  N   UNL     1       7.911  -1.518  -9.566  1.00  0.00    -0.354 N 
ATOM     30  N   UNL     1       7.093  -4.176  -8.779  1.00  0.00    -0.248 NA
ATOM     31  C   UNL     1       6.788  -6.434  -9.280  1.00  0.00     0.031 C 
ATOM     32  C   UNL     1       9.091  -1.253 -11.427  1.00  0.00     0.029 A 
ATOM     33  C   UNL     1       8.463  -2.199 -10.632  1.00  0.00     0.049 A 
ATOM     34  H   UNL     1       7.399  -1.932  -8.834  1.00  0.00     0.167 HD
ATOM     35  C   UNL     1       7.689  -4.458 -10.002  1.00  0.00     0.074 A 
ATOM     36  C   UNL     1       7.499  -5.871 -10.248  1.00  0.00     0.031 C 
ATOM     37  C   UNL     1       8.351  -3.618 -10.833  1.00  0.00     0.034 A 
BRANCH  24  38
ATOM     38  C   UNL     1       8.032   2.272  -9.020  1.00  0.00     0.023 A 
ATOM     39  C   UNL     1       9.012   2.960  -8.267  1.00  0.00     0.012 A 
ATOM     40  C   UNL     1       7.354   2.956 -10.045  1.00  0.00     0.148 A 
ATOM     41  C   UNL     1       9.249   4.317  -8.463  1.00  0.00     0.002 A 
ATOM     42  C   UNL     1       7.645   4.296 -10.281  1.00  0.00     0.091 A 
ATOM     43  F   UNL     1       6.432   2.293 -10.757  1.00  0.00    -0.205 F 
ATOM     44  C   UNL     1       8.570   4.983  -9.476  1.00  0.00     0.022 A 
BRANCH  42  45
ATOM     45  S   UNL     1       6.917   5.230 -11.630  1.00  0.00     0.127 S 
ATOM     46  O   UNL     1       6.113   6.216 -10.908  1.00  0.00    -0.237 OA
ATOM     47  O   UNL     1       8.100   5.777 -12.294  1.00  0.00    -0.237 OA
ATOM     48  O   UNL     1       6.160   4.271 -12.422  1.00  0.00    -0.744 OA
ENDBRANCH  42  45
ENDBRANCH  24  38
BRANCH  25  49
ATOM     49  C   UNL     1       5.484  -6.995  -6.715  1.00  0.00     0.023 A 
ATOM     50  C   UNL     1       6.377  -8.074  -6.560  1.00  0.00     0.012 A 
ATOM     51  C   UNL     1       4.099  -7.234  -6.628  1.00  0.00     0.148 A 
ATOM     52  C   UNL     1       5.904  -9.375  -6.382  1.00  0.00     0.002 A 
ATOM     53  C   UNL     1       3.634  -8.530  -6.412  1.00  0.00     0.091 A 
ATOM     54  F   UNL     1       3.263  -6.195  -6.768  1.00  0.00    -0.205 F 
ATOM     55  C   UNL     1       4.534  -9.603  -6.308  1.00  0.00     0.022 A 
BRANCH  53  56
ATOM     56  S   UNL     1       1.890  -8.909  -6.196  1.00  0.00     0.127 S 
ATOM     57  O   UNL     1       1.577  -9.604  -7.441  1.00  0.00    -0.237 OA
ATOM     58  O   UNL     1       1.910  -9.757  -5.003  1.00  0.00    -0.237 OA
ATOM     59  O   UNL     1       1.236  -7.621  -6.000  1.00  0.00    -0.744 OA
ENDBRANCH  53  56
ENDBRANCH  25  49
BRANCH  37  60
ATOM     60  C   UNL     1       9.013  -4.189 -12.054  1.00  0.00     0.023 A 
ATOM     61  C   UNL     1       8.237  -4.572 -13.162  1.00  0.00     0.012 A 
ATOM     62  C   UNL     1      10.420  -4.216 -12.143  1.00  0.00     0.148 A 
ATOM     63  C   UNL     1       8.853  -4.986 -14.342  1.00  0.00     0.002 A 
ATOM     64  C   UNL     1      11.025  -4.577 -13.339  1.00  0.00     0.091 A 
ATOM     65  F   UNL     1      11.136  -3.866 -11.065  1.00  0.00    -0.205 F 
ATOM     66  C   UNL     1      10.244  -4.972 -14.436  1.00  0.00     0.022 A 
BRANCH  64  67
ATOM     67  S   UNL     1      12.802  -4.473 -13.583  1.00  0.00     0.127 S 
ATOM     68  O   UNL     1      13.173  -5.888 -13.660  1.00  0.00    -0.237 OA
ATOM     69  O   UNL     1      12.895  -3.751 -14.856  1.00  0.00    -0.237 OA
ATOM     70  O   UNL     1      13.328  -3.753 -12.439  1.00  0.00    -0.744 OA
ENDBRANCH  64  67
ENDBRANCH  37  60
ENDBRANCH  11  12
ENDBRANCH   4   6
ENDBRANCH   3   4
ENDBRANCH   2   3
ENDBRANCH   1   2
BRANCH   1  71
ATOM     71  O   UNL     1       3.398  -1.619   0.519  1.00  0.00    -0.462 OA
BRANCH  71  72
ATOM     72  C   UNL     1       2.117  -2.051   0.371  1.00  0.00     0.310 C 
ATOM     73  O   UNL     1       1.524  -2.696   1.234  1.00  0.00    -0.252 OA
BRANCH  72  74
ATOM     74  C   UNL     1       1.406  -1.590  -0.912  1.00  0.00     0.116 C 
ATOM     75  C   UNL     1       0.404  -0.502  -0.468  1.00  0.00     0.043 C 
ATOM     76  C   UNL     1       2.321  -1.227  -2.094  1.00  0.00     0.097 C 
ATOM     77  C   UNL     1       0.474   0.831  -1.133  1.00  0.00    -0.030 C 
ATOM     78  C   UNL     1       2.082   0.081  -2.854  1.00  0.00     0.041 C 
ATOM     79  C   UNL     1       1.225   1.093  -2.200  1.00  0.00    -0.030 C 
BRANCH  76  80
ATOM     80  C   UNL     1       2.624  -2.312  -3.121  1.00  0.00     0.228 C 
ATOM     81  O   UNL     1       3.776  -2.355  -3.556  1.00  0.00    -0.274 OA
ATOM     82  N   UNL     1       1.794  -3.241  -3.641  1.00  0.00    -0.325 N 
ATOM     83  H   UNL     1       2.252  -3.918  -4.190  1.00  0.00     0.169 HD
BRANCH  82  84
ATOM     84  C   UNL     1       0.417  -3.432  -3.554  1.00  0.00     0.054 A 
ATOM     85  C   UNL     1       0.052  -4.758  -3.267  1.00  0.00     0.027 A 
ATOM     86  C   UNL     1      -0.564  -2.440  -3.600  1.00  0.00     0.063 A 
ATOM     87  C   UNL     1      -1.203  -5.044  -2.741  1.00  0.00     0.002 A 
ATOM     88  C   UNL     1      -1.803  -2.729  -2.994  1.00  0.00     0.016 A 
ATOM     89  C   UNL     1      -2.104  -4.011  -2.530  1.00  0.00     0.001 A 
BRANCH  86  90
ATOM     90  C   UNL     1      -0.508  -1.132  -4.324  1.00  0.00     0.253 C 
ATOM     91  O   UNL     1      -1.227  -0.215  -3.914  1.00  0.00    -0.269 OA
ATOM     92  N   UNL     1       0.224  -0.901  -5.466  1.00  0.00    -0.345 N 
ATOM     93  H   UNL     1       0.061  -0.017  -5.869  1.00  0.00     0.164 HD
BRANCH  92  94
ATOM     94  C   UNL     1       1.191  -1.706  -6.193  1.00  0.00     0.191 C 
BRANCH  94  95
ATOM     95  C   UNL     1       1.754  -0.978  -7.365  1.00  0.00     0.122 A 
ATOM     96  C   UNL     1       2.476  -1.419  -8.457  1.00  0.00     0.047 A 
ATOM     97  O   UNL     1       1.706   0.391  -7.365  1.00  0.00    -0.467 OA
ATOM     98  C   UNL     1       2.904  -0.264  -9.153  1.00  0.00     0.042 A 
ATOM     99  C   UNL     1       2.412   0.810  -8.450  1.00  0.00     0.195 A 
ENDBRANCH  94  95
ENDBRANCH  92  94
ENDBRANCH  86  90
ENDBRANCH  82  84
ENDBRANCH  76  80
ENDBRANCH  72  74
ENDBRANCH  71  72
ENDBRANCH   1  71
TORSDOF 19
