REMARK SMILES O=C(OCCOC(=O)c1cc(S(=O)(=O)NNC(=O)[C@H]2C=C(c3ccccc3)N=N2)ccc1F)c1ccc(-c2c3nc(c(-c4cccc(S(=O)(=O)[O-])c4F)c4ccc([nH]4)c(-c4cccc(S(=O)(=O)[O-])c4F)c4nc(c(-c5cccc(S(=O)(=O)[O-])c5F)c5ccc2[nH]5)C=C4)C=C3)cc1
REMARK SMILES IDX 5 1 4 2 3 3 2 4 1 5 34 6 35 7 96 8 36 9 95 10 37 11 38 12
REMARK SMILES IDX 39 13 89 14 40 15 94 16 88 17 90 18 41 19 93 20 87 21 86 22
REMARK SMILES IDX 42 24 74 25 54 26 73 27 55 28 58 29 72 30 91 31 56 32 57 33
REMARK SMILES IDX 71 35 92 36 59 37 43 38 44 39 52 40 45 41 47 42 53 43 46 44
REMARK SMILES IDX 48 45 49 46 50 47 51 48 75 49 76 50 84 51 77 52 79 53 85 54
REMARK SMILES IDX 78 55 80 56 81 57 82 58 83 59 60 60 61 61 69 62 62 63 64 64
REMARK SMILES IDX 70 65 63 66 65 67 66 68 67 69 68 70 6 71 7 72 8 73 9 74
REMARK SMILES IDX 10 75 32 76 11 77 31 78 33 79 30 80 12 81 13 82 14 83 15 84
REMARK SMILES IDX 16 86 17 87 18 89 19 90 20 91 29 92 21 93 28 94 22 95 23 96
REMARK SMILES IDX 27 97 24 98 26 99 25 100
REMARK H PARENT 90 23 58 34 15 85 16 88
REMARK Flexibility Score: inf
ROOT
ATOM      1  C   UNL     1      -7.618 -14.665  -0.141  1.00  0.00     0.275 C 
ENDROOT
BRANCH   1   2
ATOM      2  C   UNL     1      -6.629 -15.788  -0.459  1.00  0.00     0.275 C 
BRANCH   2   3
ATOM      3  O   UNL     1      -5.226 -15.455  -0.468  1.00  0.00    -0.458 OA
BRANCH   3   4
ATOM      4  C   UNL     1      -4.862 -14.182  -0.741  1.00  0.00     0.338 C 
ATOM      5  O   UNL     1      -4.772 -13.295   0.091  1.00  0.00    -0.246 OA
BRANCH   4   6
ATOM      6  C   UNL     1      -4.415 -14.037  -2.144  1.00  0.00     0.060 A 
ATOM      7  C   UNL     1      -5.008 -14.761  -3.185  1.00  0.00     0.016 A 
ATOM      8  C   UNL     1      -3.401 -13.117  -2.420  1.00  0.00     0.016 A 
ATOM      9  C   UNL     1      -4.555 -14.607  -4.487  1.00  0.00     0.010 A 
ATOM     10  C   UNL     1      -2.955 -12.958  -3.727  1.00  0.00     0.010 A 
ATOM     11  C   UNL     1      -3.511 -13.721  -4.757  1.00  0.00    -0.014 A 
BRANCH  11  12
ATOM     12  C   UNL     1      -3.077 -13.586  -6.147  1.00  0.00     0.031 A 
ATOM     13  C   UNL     1      -4.098 -13.114  -7.130  1.00  0.00     0.074 A 
ATOM     14  C   UNL     1      -1.796 -13.734  -6.536  1.00  0.00     0.049 A 
ATOM     15  N   UNL     1      -4.552 -13.722  -8.181  1.00  0.00    -0.248 NA
ATOM     16  C   UNL     1      -4.740 -11.819  -6.870  1.00  0.00     0.031 C 
ATOM     17  C   UNL     1      -0.610 -13.869  -5.686  1.00  0.00     0.029 A 
ATOM     18  N   UNL     1      -1.273 -13.643  -7.792  1.00  0.00    -0.354 N 
ATOM     19  C   UNL     1      -5.393 -12.809  -8.825  1.00  0.00     0.074 A 
ATOM     20  C   UNL     1      -5.576 -11.716  -7.904  1.00  0.00     0.031 C 
ATOM     21  C   UNL     1       0.488 -13.579  -6.417  1.00  0.00     0.029 A 
ATOM     22  C   UNL     1       0.093 -13.402  -7.802  1.00  0.00     0.049 A 
ATOM     23  H   UNL     1      -1.812 -13.738  -8.611  1.00  0.00     0.167 HD
ATOM     24  C   UNL     1      -5.727 -12.928 -10.142  1.00  0.00     0.034 A 
ATOM     25  C   UNL     1       0.832 -13.007  -8.863  1.00  0.00     0.034 A 
ATOM     26  C   UNL     1      -5.434 -14.239 -10.654  1.00  0.00     0.049 A 
ATOM     27  C   UNL     1       0.086 -13.357 -10.091  1.00  0.00     0.074 A 
ATOM     28  C   UNL     1      -5.835 -15.527 -10.368  1.00  0.00     0.029 A 
ATOM     29  N   UNL     1      -4.343 -14.358 -11.477  1.00  0.00    -0.354 N 
ATOM     30  N   UNL     1      -0.142 -14.580 -10.482  1.00  0.00    -0.248 NA
ATOM     31  C   UNL     1      -0.717 -12.333 -10.736  1.00  0.00     0.031 C 
ATOM     32  C   UNL     1      -4.693 -16.334 -10.643  1.00  0.00     0.029 A 
ATOM     33  C   UNL     1      -3.678 -15.489 -11.097  1.00  0.00     0.049 A 
ATOM     34  H   UNL     1      -4.088 -13.745 -12.204  1.00  0.00     0.167 HD
ATOM     35  C   UNL     1      -1.388 -14.525 -11.088  1.00  0.00     0.074 A 
ATOM     36  C   UNL     1      -1.619 -13.107 -11.344  1.00  0.00     0.031 C 
ATOM     37  C   UNL     1      -2.236 -15.597 -11.058  1.00  0.00     0.034 A 
BRANCH  24  38
ATOM     38  C   UNL     1      -6.025 -11.788 -11.098  1.00  0.00     0.023 A 
ATOM     39  C   UNL     1      -6.454 -12.127 -12.407  1.00  0.00     0.012 A 
ATOM     40  C   UNL     1      -5.641 -10.448 -10.891  1.00  0.00     0.148 A 
ATOM     41  C   UNL     1      -6.425 -11.207 -13.462  1.00  0.00     0.002 A 
ATOM     42  C   UNL     1      -5.698  -9.515 -11.923  1.00  0.00     0.091 A 
ATOM     43  F   UNL     1      -5.090 -10.077  -9.731  1.00  0.00    -0.205 F 
ATOM     44  C   UNL     1      -6.051  -9.894 -13.219  1.00  0.00     0.022 A 
BRANCH  42  45
ATOM     45  S   UNL     1      -5.295  -7.795 -11.617  1.00  0.00     0.127 S 
ATOM     46  O   UNL     1      -3.904  -7.736 -12.050  1.00  0.00    -0.237 OA
ATOM     47  O   UNL     1      -6.242  -7.091 -12.482  1.00  0.00    -0.237 OA
ATOM     48  O   UNL     1      -5.546  -7.601 -10.192  1.00  0.00    -0.744 OA
ENDBRANCH  42  45
ENDBRANCH  24  38
BRANCH  25  49
ATOM     49  C   UNL     1       2.028 -12.139  -8.889  1.00  0.00     0.023 A 
ATOM     50  C   UNL     1       2.908 -12.202  -9.986  1.00  0.00     0.012 A 
ATOM     51  C   UNL     1       2.165 -11.066  -7.980  1.00  0.00     0.148 A 
ATOM     52  C   UNL     1       3.874 -11.211 -10.189  1.00  0.00     0.002 A 
ATOM     53  C   UNL     1       3.132 -10.087  -8.182  1.00  0.00     0.091 A 
ATOM     54  F   UNL     1       1.286 -10.953  -6.975  1.00  0.00    -0.205 F 
ATOM     55  C   UNL     1       3.983 -10.151  -9.293  1.00  0.00     0.022 A 
BRANCH  53  56
ATOM     56  S   UNL     1       3.309  -8.677  -7.081  1.00  0.00     0.127 S 
ATOM     57  O   UNL     1       4.759  -8.614  -6.896  1.00  0.00    -0.237 OA
ATOM     58  O   UNL     1       2.745  -7.596  -7.884  1.00  0.00    -0.237 OA
ATOM     59  O   UNL     1       2.567  -9.023  -5.875  1.00  0.00    -0.744 OA
ENDBRANCH  53  56
ENDBRANCH  25  49
BRANCH  37  60
ATOM     60  C   UNL     1      -1.698 -16.934 -10.614  1.00  0.00     0.023 A 
ATOM     61  C   UNL     1      -1.196 -17.132  -9.311  1.00  0.00     0.012 A 
ATOM     62  C   UNL     1      -1.920 -18.055 -11.434  1.00  0.00     0.148 A 
ATOM     63  C   UNL     1      -0.907 -18.415  -8.842  1.00  0.00     0.002 A 
ATOM     64  C   UNL     1      -1.686 -19.334 -10.943  1.00  0.00     0.091 A 
ATOM     65  F   UNL     1      -2.405 -17.852 -12.669  1.00  0.00    -0.205 F 
ATOM     66  C   UNL     1      -1.170 -19.517  -9.651  1.00  0.00     0.022 A 
BRANCH  64  67
ATOM     67  S   UNL     1      -2.159 -20.796 -11.872  1.00  0.00     0.127 S 
ATOM     68  O   UNL     1      -0.873 -21.263 -12.385  1.00  0.00    -0.237 OA
ATOM     69  O   UNL     1      -2.752 -21.648 -10.840  1.00  0.00    -0.237 OA
ATOM     70  O   UNL     1      -3.110 -20.337 -12.877  1.00  0.00    -0.744 OA
ENDBRANCH  64  67
ENDBRANCH  37  60
ENDBRANCH  11  12
ENDBRANCH   4   6
ENDBRANCH   3   4
ENDBRANCH   2   3
ENDBRANCH   1   2
BRANCH   1  71
ATOM     71  O   UNL     1      -7.592 -13.662  -1.171  1.00  0.00    -0.458 OA
BRANCH  71  72
ATOM     72  C   UNL     1      -7.694 -12.382  -0.730  1.00  0.00     0.341 C 
ATOM     73  O   UNL     1      -7.871 -11.993   0.410  1.00  0.00    -0.246 OA
BRANCH  72  74
ATOM     74  C   UNL     1      -7.486 -11.488  -1.870  1.00  0.00     0.097 A 
ATOM     75  C   UNL     1      -6.275 -10.809  -2.011  1.00  0.00     0.040 A 
ATOM     76  C   UNL     1      -8.512 -11.293  -2.786  1.00  0.00     0.137 A 
ATOM     77  C   UNL     1      -6.090  -9.961  -3.113  1.00  0.00     0.085 A 
ATOM     78  C   UNL     1      -8.333 -10.436  -3.872  1.00  0.00     0.041 A 
ATOM     79  F   UNL     1      -9.693 -11.907  -2.628  1.00  0.00    -0.206 F 
ATOM     80  C   UNL     1      -7.113  -9.771  -4.048  1.00  0.00     0.025 A 
BRANCH  77  81
ATOM     81  S   UNL     1      -4.542  -9.102  -3.216  1.00  0.00     0.257 S 
ATOM     82  O   UNL     1      -4.272  -8.566  -1.901  1.00  0.00    -0.205 OA
ATOM     83  O   UNL     1      -3.620  -9.974  -3.904  1.00  0.00    -0.205 OA
BRANCH  81  84
ATOM     84  N   UNL     1      -4.808  -7.786  -4.243  1.00  0.00    -0.123 NA
ATOM     85  H   UNL     1      -5.330  -8.135  -5.047  1.00  0.00     0.167 HD
BRANCH  84  86
ATOM     86  N   UNL     1      -5.521  -6.638  -3.745  1.00  0.00    -0.275 N 
ATOM     87  C   UNL     1      -5.210  -5.324  -4.019  1.00  0.00     0.265 C 
ATOM     88  H   UNL     1      -6.295  -6.807  -3.160  1.00  0.00     0.186 HD
ATOM     89  O   UNL     1      -5.984  -4.450  -3.619  1.00  0.00    -0.271 OA
BRANCH  87  90
ATOM     90  C   UNL     1      -3.865  -5.048  -4.702  1.00  0.00     0.244 C 
ATOM     91  C   UNL     1      -3.871  -5.316  -6.154  1.00  0.00     0.042 C 
ATOM     92  N   UNL     1      -3.580  -3.583  -4.644  1.00  0.00    -0.171 NA
ATOM     93  C   UNL     1      -3.603  -4.143  -6.729  1.00  0.00     0.091 C 
ATOM     94  N   UNL     1      -3.422  -3.134  -5.817  1.00  0.00    -0.155 NA
BRANCH  93  95
ATOM     95  C   UNL     1      -3.453  -3.967  -8.171  1.00  0.00     0.002 A 
ATOM     96  C   UNL     1      -2.327  -3.322  -8.697  1.00  0.00     0.010 A 
ATOM     97  C   UNL     1      -4.410  -4.491  -9.050  1.00  0.00     0.010 A 
ATOM     98  C   UNL     1      -2.151  -3.227 -10.080  1.00  0.00     0.001 A 
ATOM     99  C   UNL     1      -4.239  -4.381 -10.429  1.00  0.00     0.001 A 
ATOM    100  C   UNL     1      -3.107  -3.759 -10.944  1.00  0.00     0.000 A 
ENDBRANCH  93  95
ENDBRANCH  87  90
ENDBRANCH  84  86
ENDBRANCH  81  84
ENDBRANCH  77  81
ENDBRANCH  72  74
ENDBRANCH  71  72
ENDBRANCH   1  71
TORSDOF 19
