REMARK SMILES Cc1cc(C(=O)OCCOC(=O)c2ccc(-c3c4nc(c(-c5cccc(S(=O)(=O)[O-])c5F)c5ccc([nH]5)c(-c5cccc(S(=O)(=O)[O-])c5F)c5nc(c(-c6cccc(S(=O)(=O)[O-])c6F)c6ccc3[nH]6)C=C5)C=C4)cc2)c(NC(=O)c2nc(C(C)(C)C)n[nH]2)s1
REMARK SMILES IDX 8 1 7 2 5 3 6 4 4 5 1 6 2 7 3 8 89 9 76 10 77 11 78 12 79 14
REMARK SMILES IDX 80 15 81 16 88 17 82 18 87 19 83 21 84 22 85 23 86 24 9 25
REMARK SMILES IDX 10 26 11 27 12 28 13 29 14 30 75 31 15 32 74 33 16 34 17 35
REMARK SMILES IDX 18 36 68 37 19 38 73 39 67 40 69 41 20 42 72 43 66 44 65 45
REMARK SMILES IDX 21 47 53 48 33 49 52 50 34 51 37 52 51 53 70 54 35 55 36 56
REMARK SMILES IDX 50 58 71 59 38 60 22 61 23 62 31 63 24 64 26 65 32 66 25 67
REMARK SMILES IDX 27 68 28 69 29 70 30 71 54 72 55 73 63 74 56 75 58 76 64 77
REMARK SMILES IDX 57 78 59 79 60 80 61 81 62 82 39 83 40 84 48 85 41 86 43 87
REMARK SMILES IDX 49 88 42 89 44 90 45 91 46 92 47 93
REMARK H PARENT 77 13 88 20 69 46 37 57
REMARK Flexibility Score: inf
ROOT
ATOM      1  C   UNL     1      -3.164  -4.240  -0.180  1.00  0.00     0.275 C 
ENDROOT
BRANCH   1   2
ATOM      2  O   UNL     1      -2.034  -3.346  -0.161  1.00  0.00    -0.458 OA
BRANCH   2   3
ATOM      3  C   UNL     1      -2.237  -2.089  -0.650  1.00  0.00     0.341 C 
ATOM      4  O   UNL     1      -3.290  -1.698  -1.149  1.00  0.00    -0.246 OA
BRANCH   3   5
ATOM      5  C   UNL     1      -1.072  -1.220  -0.490  1.00  0.00     0.095 A 
ATOM      6  C   UNL     1       2.613  -0.632   0.234  1.00  0.00     0.056 C 
ATOM      7  C   UNL     1       1.153  -0.612  -0.047  1.00  0.00     0.004 A 
ATOM      8  C   UNL     1       0.262  -1.657  -0.158  1.00  0.00     0.033 A 
ATOM      9  S   UNL     1       0.373   0.878  -0.264  1.00  0.00    -0.122 S 
ATOM     10  C   UNL     1      -1.115   0.163  -0.638  1.00  0.00     0.110 A 
BRANCH  10  11
ATOM     11  N   UNL     1      -2.210   0.916  -1.029  1.00  0.00    -0.310 N 
ATOM     12  C   UNL     1      -2.448   2.274  -1.142  1.00  0.00     0.293 C 
ATOM     13  H   UNL     1      -2.986   0.365  -1.282  1.00  0.00     0.171 HD
ATOM     14  O   UNL     1      -3.547   2.592  -1.599  1.00  0.00    -0.265 OA
BRANCH  12  15
ATOM     15  C   UNL     1      -1.464   3.265  -0.791  1.00  0.00     0.214 A 
ATOM     16  N   UNL     1      -1.451   4.019   0.294  1.00  0.00    -0.207 NA
ATOM     17  N   UNL     1      -0.446   3.657  -1.604  1.00  0.00    -0.255 N 
ATOM     18  C   UNL     1      -0.375   4.857   0.093  1.00  0.00     0.156 A 
ATOM     19  N   UNL     1       0.296   4.624  -1.046  1.00  0.00    -0.158 NA
ATOM     20  H   UNL     1      -0.275   3.277  -2.496  1.00  0.00     0.192 HD
BRANCH  18  21
ATOM     21  C   UNL     1      -0.027   5.991   1.034  1.00  0.00     0.024 C 
ATOM     22  C   UNL     1      -1.056   7.126   0.875  1.00  0.00     0.019 C 
ATOM     23  C   UNL     1      -0.035   5.515   2.499  1.00  0.00     0.019 C 
ATOM     24  C   UNL     1       1.376   6.564   0.733  1.00  0.00     0.019 C 
ENDBRANCH  18  21
ENDBRANCH  12  15
ENDBRANCH  10  11
ENDBRANCH   3   5
ENDBRANCH   2   3
ENDBRANCH   1   2
BRANCH   1  25
ATOM     25  C   UNL     1      -3.882  -4.285   1.174  1.00  0.00     0.275 C 
BRANCH  25  26
ATOM     26  O   UNL     1      -4.607  -3.067   1.424  1.00  0.00    -0.458 OA
BRANCH  26  27
ATOM     27  C   UNL     1      -3.946  -2.138   2.158  1.00  0.00     0.338 C 
ATOM     28  O   UNL     1      -2.848  -2.272   2.673  1.00  0.00    -0.246 OA
BRANCH  27  29
ATOM     29  C   UNL     1      -4.652  -0.843   2.073  1.00  0.00     0.060 A 
ATOM     30  C   UNL     1      -3.871   0.288   1.818  1.00  0.00     0.016 A 
ATOM     31  C   UNL     1      -6.037  -0.720   2.223  1.00  0.00     0.016 A 
ATOM     32  C   UNL     1      -4.471   1.533   1.651  1.00  0.00     0.010 A 
ATOM     33  C   UNL     1      -6.636   0.540   2.088  1.00  0.00     0.010 A 
ATOM     34  C   UNL     1      -5.856   1.669   1.784  1.00  0.00    -0.014 A 
BRANCH  34  35
ATOM     35  C   UNL     1      -6.451   3.021   1.684  1.00  0.00     0.031 A 
ATOM     36  C   UNL     1      -6.518   3.884   2.908  1.00  0.00     0.074 A 
ATOM     37  C   UNL     1      -6.874   3.499   0.500  1.00  0.00     0.049 A 
ATOM     38  N   UNL     1      -6.975   5.101   3.038  1.00  0.00    -0.248 NA
ATOM     39  C   UNL     1      -5.987   3.299   4.149  1.00  0.00     0.031 C 
ATOM     40  C   UNL     1      -6.796   2.786  -0.773  1.00  0.00     0.029 A 
ATOM     41  N   UNL     1      -7.452   4.702   0.177  1.00  0.00    -0.354 N 
ATOM     42  C   UNL     1      -6.805   5.426   4.376  1.00  0.00     0.074 A 
ATOM     43  C   UNL     1      -6.199   4.278   5.017  1.00  0.00     0.031 C 
ATOM     44  C   UNL     1      -7.321   3.559  -1.739  1.00  0.00     0.029 A 
ATOM     45  C   UNL     1      -7.799   4.808  -1.149  1.00  0.00     0.049 A 
ATOM     46  H   UNL     1      -7.603   5.421   0.833  1.00  0.00     0.167 HD
ATOM     47  C   UNL     1      -7.124   6.576   5.013  1.00  0.00     0.034 A 
ATOM     48  C   UNL     1      -8.443   5.793  -1.806  1.00  0.00     0.034 A 
ATOM     49  C   UNL     1      -7.735   7.713   4.380  1.00  0.00     0.049 A 
ATOM     50  C   UNL     1      -8.850   7.036  -1.055  1.00  0.00     0.074 A 
ATOM     51  C   UNL     1      -8.104   8.918   4.950  1.00  0.00     0.029 A 
ATOM     52  N   UNL     1      -8.087   7.780   3.041  1.00  0.00    -0.354 N 
ATOM     53  N   UNL     1      -8.616   7.364   0.193  1.00  0.00    -0.248 NA
ATOM     54  C   UNL     1      -9.593   8.058  -1.810  1.00  0.00     0.031 C 
ATOM     55  C   UNL     1      -8.713   9.701   3.964  1.00  0.00     0.029 A 
ATOM     56  C   UNL     1      -8.688   8.999   2.769  1.00  0.00     0.049 A 
ATOM     57  H   UNL     1      -7.933   7.067   2.379  1.00  0.00     0.167 HD
ATOM     58  C   UNL     1      -9.149   8.638   0.363  1.00  0.00     0.074 A 
ATOM     59  C   UNL     1      -9.701   9.032  -0.916  1.00  0.00     0.031 C 
ATOM     60  C   UNL     1      -9.189   9.405   1.480  1.00  0.00     0.034 A 
BRANCH  47  61
ATOM     61  C   UNL     1      -6.835   6.646   6.487  1.00  0.00     0.023 A 
ATOM     62  C   UNL     1      -5.507   6.788   6.937  1.00  0.00     0.012 A 
ATOM     63  C   UNL     1      -7.884   6.595   7.424  1.00  0.00     0.148 A 
ATOM     64  C   UNL     1      -5.225   6.844   8.301  1.00  0.00     0.002 A 
ATOM     65  C   UNL     1      -7.599   6.695   8.780  1.00  0.00     0.091 A 
ATOM     66  F   UNL     1      -9.136   6.433   6.974  1.00  0.00    -0.205 F 
ATOM     67  C   UNL     1      -6.271   6.807   9.221  1.00  0.00     0.022 A 
BRANCH  65  68
ATOM     68  S   UNL     1      -8.883   6.726  10.034  1.00  0.00     0.127 S 
ATOM     69  O   UNL     1      -8.716   5.416  10.661  1.00  0.00    -0.237 OA
ATOM     70  O   UNL     1      -8.473   7.857  10.867  1.00  0.00    -0.237 OA
ATOM     71  O   UNL     1     -10.138   6.922   9.321  1.00  0.00    -0.744 OA
ENDBRANCH  65  68
ENDBRANCH  47  61
BRANCH  48  72
ATOM     72  C   UNL     1      -8.742   5.655  -3.261  1.00  0.00     0.023 A 
ATOM     73  C   UNL     1      -8.120   6.515  -4.188  1.00  0.00     0.012 A 
ATOM     74  C   UNL     1      -9.649   4.684  -3.731  1.00  0.00     0.148 A 
ATOM     75  C   UNL     1      -8.422   6.434  -5.548  1.00  0.00     0.002 A 
ATOM     76  C   UNL     1      -9.902   4.571  -5.092  1.00  0.00     0.091 A 
ATOM     77  F   UNL     1     -10.249   3.889  -2.833  1.00  0.00    -0.205 F 
ATOM     78  C   UNL     1      -9.305   5.458  -6.001  1.00  0.00     0.022 A 
BRANCH  76  79
ATOM     79  S   UNL     1     -10.936   3.272  -5.778  1.00  0.00     0.127 S 
ATOM     80  O   UNL     1     -12.088   4.030  -6.263  1.00  0.00    -0.237 OA
ATOM     81  O   UNL     1     -10.076   2.724  -6.827  1.00  0.00    -0.237 OA
ATOM     82  O   UNL     1     -11.204   2.355  -4.679  1.00  0.00    -0.744 OA
ENDBRANCH  76  79
ENDBRANCH  48  72
BRANCH  60  83
ATOM     83  C   UNL     1      -9.821  10.771   1.379  1.00  0.00     0.023 A 
ATOM     84  C   UNL     1     -11.218  10.891   1.245  1.00  0.00     0.012 A 
ATOM     85  C   UNL     1      -9.038  11.937   1.510  1.00  0.00     0.148 A 
ATOM     86  C   UNL     1     -11.823  12.148   1.211  1.00  0.00     0.002 A 
ATOM     87  C   UNL     1      -9.653  13.184   1.527  1.00  0.00     0.091 A 
ATOM     88  F   UNL     1      -7.708  11.805   1.621  1.00  0.00    -0.205 F 
ATOM     89  C   UNL     1     -11.043  13.291   1.365  1.00  0.00     0.022 A 
BRANCH  87  90
ATOM     90  S   UNL     1      -8.743  14.705   1.821  1.00  0.00     0.127 S 
ATOM     91  O   UNL     1      -8.781  15.335   0.502  1.00  0.00    -0.237 OA
ATOM     92  O   UNL     1      -9.564  15.367   2.835  1.00  0.00    -0.237 OA
ATOM     93  O   UNL     1      -7.421  14.302   2.282  1.00  0.00    -0.744 OA
ENDBRANCH  87  90
ENDBRANCH  60  83
ENDBRANCH  34  35
ENDBRANCH  27  29
ENDBRANCH  26  27
ENDBRANCH  25  26
ENDBRANCH   1  25
TORSDOF 17
