REMARK SMILES CC(C)(C)OC(=O)N[C@H](Cc1ccc(N=[N+]=[N-])cc1)C(=O)OCCOC(=O)c1ccc(-c2c3nc(c(-c4cccc(S(=O)(=O)[O-])c4F)c4ccc([nH]4)c(-c4cccc(S(=O)(=O)[O-])c4F)c4nc(c(-c5cccc(S(=O)(=O)[O-])c5F)c5ccc2[nH]5)C=C4)C=C3)cc1
REMARK SMILES IDX 23 1 22 2 20 3 21 4 9 5 8 6 6 7 7 8 5 10 2 11 1 12 3 13 4 14
REMARK SMILES IDX 10 15 11 16 12 17 19 18 13 19 18 20 14 21 15 22 16 23 17 24
REMARK SMILES IDX 24 25 25 26 26 27 27 28 28 29 29 30 90 31 30 32 89 33 31 34
REMARK SMILES IDX 32 35 33 36 83 37 34 38 88 39 82 40 84 41 35 42 87 43 81 44
REMARK SMILES IDX 80 45 36 47 68 48 48 49 67 50 49 51 52 52 66 53 85 54 50 55
REMARK SMILES IDX 51 56 65 58 86 59 53 60 37 61 38 62 46 63 39 64 41 65 47 66
REMARK SMILES IDX 40 67 42 68 43 69 44 70 45 71 69 72 70 73 78 74 71 75 73 76
REMARK SMILES IDX 79 77 72 78 74 79 75 80 76 81 77 82 54 83 55 84 63 85 56 86
REMARK SMILES IDX 58 87 64 88 57 89 59 90 60 91 61 92 62 93
REMARK H PARENT 8 9 84 46 52 57
REMARK Flexibility Score: inf
ROOT
ATOM      1  C   UNL     1       0.189   7.180   3.799  1.00  0.00     0.274 C 
ENDROOT
BRANCH   1   2
ATOM      2  O   UNL     1       0.702   6.625   2.571  1.00  0.00    -0.461 OA
BRANCH   2   3
ATOM      3  C   UNL     1       1.793   5.829   2.694  1.00  0.00     0.329 C 
ATOM      4  O   UNL     1       2.404   5.659   3.747  1.00  0.00    -0.250 OA
BRANCH   3   5
ATOM      5  C   UNL     1       2.259   5.167   1.384  1.00  0.00     0.199 C 
BRANCH   5   6
ATOM      6  N   UNL     1       3.595   5.658   1.058  1.00  0.00    -0.308 N 
ATOM      7  C   UNL     1       3.903   6.909   0.633  1.00  0.00     0.408 C 
ATOM      8  O   UNL     1       5.064   7.256   0.473  1.00  0.00    -0.225 OA
ATOM      9  H   UNL     1       4.341   5.023   1.157  1.00  0.00     0.168 HD
BRANCH   7  10
ATOM     10  O   UNL     1       2.804   7.670   0.434  1.00  0.00    -0.444 OA
BRANCH  10  11
ATOM     11  C   UNL     1       2.937   9.038  -0.018  1.00  0.00     0.106 C 
ATOM     12  C   UNL     1       1.495   9.538  -0.193  1.00  0.00     0.056 C 
ATOM     13  C   UNL     1       3.643   9.111  -1.376  1.00  0.00     0.056 C 
ATOM     14  C   UNL     1       3.627   9.898   1.046  1.00  0.00     0.056 C 
ENDBRANCH  10  11
ENDBRANCH   7  10
ENDBRANCH   5   6
BRANCH   5  15
ATOM     15  C   UNL     1       1.279   5.097   0.191  1.00  0.00     0.072 C 
BRANCH  15  16
ATOM     16  C   UNL     1       0.821   3.709  -0.260  1.00  0.00    -0.045 A 
ATOM     17  C   UNL     1      -0.379   3.604  -0.980  1.00  0.00     0.004 A 
ATOM     18  C   UNL     1       1.545   2.530  -0.043  1.00  0.00     0.004 A 
ATOM     19  C   UNL     1      -0.860   2.359  -1.410  1.00  0.00     0.010 A 
ATOM     20  C   UNL     1       1.043   1.281  -0.445  1.00  0.00     0.010 A 
ATOM     21  C   UNL     1      -0.170   1.176  -1.135  1.00  0.00     0.038 A 
BRANCH  21  22
ATOM     22  N   UNL     1      -0.760  -0.024  -1.578  1.00  0.00    -0.061 NA
ATOM     23  N   UNL     1      -0.099  -1.067  -1.403  1.00  0.00     0.005 N 
ATOM     24  N   UNL     1       0.500  -2.022  -1.261  1.00  0.00    -0.003 NA
ENDBRANCH  21  22
ENDBRANCH  15  16
ENDBRANCH   5  15
ENDBRANCH   3   5
ENDBRANCH   2   3
ENDBRANCH   1   2
BRANCH   1  25
ATOM     25  C   UNL     1      -1.092   6.465   4.238  1.00  0.00     0.275 C 
BRANCH  25  26
ATOM     26  O   UNL     1      -0.858   5.073   4.526  1.00  0.00    -0.458 OA
BRANCH  26  27
ATOM     27  C   UNL     1      -1.042   4.245   3.473  1.00  0.00     0.338 C 
ATOM     28  O   UNL     1      -1.376   4.559   2.342  1.00  0.00    -0.246 OA
BRANCH  27  29
ATOM     29  C   UNL     1      -0.655   2.873   3.824  1.00  0.00     0.060 A 
ATOM     30  C   UNL     1       0.572   2.405   3.360  1.00  0.00     0.016 A 
ATOM     31  C   UNL     1      -1.540   2.009   4.463  1.00  0.00     0.016 A 
ATOM     32  C   UNL     1       0.897   1.058   3.454  1.00  0.00     0.010 A 
ATOM     33  C   UNL     1      -1.184   0.663   4.619  1.00  0.00     0.010 A 
ATOM     34  C   UNL     1       0.023   0.170   4.088  1.00  0.00    -0.014 A 
BRANCH  34  35
ATOM     35  C   UNL     1       0.384  -1.267   4.181  1.00  0.00     0.031 A 
ATOM     36  C   UNL     1      -0.460  -2.310   3.501  1.00  0.00     0.074 A 
ATOM     37  C   UNL     1       1.477  -1.633   4.880  1.00  0.00     0.049 A 
ATOM     38  N   UNL     1      -0.356  -3.612   3.550  1.00  0.00    -0.248 NA
ATOM     39  C   UNL     1      -1.573  -1.828   2.666  1.00  0.00     0.031 C 
ATOM     40  C   UNL     1       2.381  -0.713   5.575  1.00  0.00     0.029 A 
ATOM     41  N   UNL     1       2.006  -2.873   5.136  1.00  0.00    -0.354 N 
ATOM     42  C   UNL     1      -1.420  -4.108   2.804  1.00  0.00     0.074 A 
ATOM     43  C   UNL     1      -2.157  -2.964   2.311  1.00  0.00     0.031 C 
ATOM     44  C   UNL     1       3.348  -1.419   6.180  1.00  0.00     0.029 A 
ATOM     45  C   UNL     1       3.098  -2.840   5.971  1.00  0.00     0.049 A 
ATOM     46  H   UNL     1       1.639  -3.705   4.759  1.00  0.00     0.167 HD
ATOM     47  C   UNL     1      -1.746  -5.399   2.551  1.00  0.00     0.034 A 
ATOM     48  C   UNL     1       3.797  -3.840   6.542  1.00  0.00     0.034 A 
ATOM     49  C   UNL     1      -0.982  -6.529   3.009  1.00  0.00     0.049 A 
ATOM     50  C   UNL     1       3.408  -5.261   6.246  1.00  0.00     0.074 A 
ATOM     51  C   UNL     1      -1.200  -7.873   2.757  1.00  0.00     0.029 A 
ATOM     52  N   UNL     1       0.144  -6.453   3.815  1.00  0.00    -0.354 N 
ATOM     53  N   UNL     1       2.451  -5.710   5.471  1.00  0.00    -0.248 NA
ATOM     54  C   UNL     1       4.211  -6.315   6.882  1.00  0.00     0.031 C 
ATOM     55  C   UNL     1      -0.227  -8.610   3.439  1.00  0.00     0.029 A 
ATOM     56  C   UNL     1       0.623  -7.725   4.082  1.00  0.00     0.049 A 
ATOM     57  H   UNL     1       0.544  -5.618   4.148  1.00  0.00     0.167 HD
ATOM     58  C   UNL     1       2.555  -7.095   5.500  1.00  0.00     0.074 A 
ATOM     59  C   UNL     1       3.686  -7.410   6.350  1.00  0.00     0.031 C 
ATOM     60  C   UNL     1       1.778  -8.023   4.890  1.00  0.00     0.034 A 
BRANCH  47  61
ATOM     61  C   UNL     1      -2.983  -5.666   1.731  1.00  0.00     0.023 A 
ATOM     62  C   UNL     1      -2.986  -5.390   0.349  1.00  0.00     0.012 A 
ATOM     63  C   UNL     1      -4.120  -6.257   2.319  1.00  0.00     0.148 A 
ATOM     64  C   UNL     1      -4.111  -5.668  -0.428  1.00  0.00     0.002 A 
ATOM     65  C   UNL     1      -5.219  -6.574   1.530  1.00  0.00     0.091 A 
ATOM     66  F   UNL     1      -4.106  -6.495   3.639  1.00  0.00    -0.205 F 
ATOM     67  C   UNL     1      -5.221  -6.270   0.159  1.00  0.00     0.022 A 
BRANCH  65  68
ATOM     68  S   UNL     1      -6.664  -7.425   2.176  1.00  0.00     0.127 S 
ATOM     69  O   UNL     1      -7.679  -6.375   2.107  1.00  0.00    -0.237 OA
ATOM     70  O   UNL     1      -6.841  -8.507   1.207  1.00  0.00    -0.237 OA
ATOM     71  O   UNL     1      -6.309  -7.862   3.518  1.00  0.00    -0.744 OA
ENDBRANCH  65  68
ENDBRANCH  47  61
BRANCH  48  72
ATOM     72  C   UNL     1       4.943  -3.528   7.442  1.00  0.00     0.023 A 
ATOM     73  C   UNL     1       6.254  -3.846   7.038  1.00  0.00     0.012 A 
ATOM     74  C   UNL     1       4.742  -2.896   8.686  1.00  0.00     0.148 A 
ATOM     75  C   UNL     1       7.340  -3.569   7.869  1.00  0.00     0.002 A 
ATOM     76  C   UNL     1       5.832  -2.568   9.481  1.00  0.00     0.091 A 
ATOM     77  F   UNL     1       3.485  -2.615   9.059  1.00  0.00    -0.205 F 
ATOM     78  C   UNL     1       7.131  -2.920   9.084  1.00  0.00     0.022 A 
BRANCH  76  79
ATOM     79  S   UNL     1       5.667  -1.612  10.993  1.00  0.00     0.127 S 
ATOM     80  O   UNL     1       5.969  -2.613  12.013  1.00  0.00    -0.237 OA
ATOM     81  O   UNL     1       6.694  -0.585  10.813  1.00  0.00    -0.237 OA
ATOM     82  O   UNL     1       4.303  -1.103  10.989  1.00  0.00    -0.744 OA
ENDBRANCH  76  79
ENDBRANCH  48  72
BRANCH  60  83
ATOM     83  C   UNL     1       2.147  -9.472   5.079  1.00  0.00     0.023 A 
ATOM     84  C   UNL     1       1.937 -10.096   6.325  1.00  0.00     0.012 A 
ATOM     85  C   UNL     1       2.645 -10.229   4.001  1.00  0.00     0.148 A 
ATOM     86  C   UNL     1       2.253 -11.442   6.504  1.00  0.00     0.002 A 
ATOM     87  C   UNL     1       2.907 -11.582   4.172  1.00  0.00     0.091 A 
ATOM     88  F   UNL     1       2.855  -9.612   2.829  1.00  0.00    -0.205 F 
ATOM     89  C   UNL     1       2.726 -12.187   5.426  1.00  0.00     0.022 A 
BRANCH  87  90
ATOM     90  S   UNL     1       3.425 -12.643   2.818  1.00  0.00     0.127 S 
ATOM     91  O   UNL     1       4.820 -12.911   3.167  1.00  0.00    -0.237 OA
ATOM     92  O   UNL     1       2.529 -13.790   2.963  1.00  0.00    -0.237 OA
ATOM     93  O   UNL     1       3.225 -11.869   1.601  1.00  0.00    -0.744 OA
ENDBRANCH  87  90
ENDBRANCH  60  83
ENDBRANCH  34  35
ENDBRANCH  27  29
ENDBRANCH  26  27
ENDBRANCH  25  26
ENDBRANCH   1  25
TORSDOF 20
