REMARK SMILES O=C(N[C@H]1C=C[C@@H](C(=O)OCCOC(=O)c2ccc(-c3c4nc(c(-c5cccc(S(=O)(=O)[O-])c5F)c5ccc([nH]5)c(-c5cccc(S(=O)(=O)[O-])c5F)c5nc(c(-c6cccc(S(=O)(=O)[O-])c6F)c6ccc3[nH]6)C=C5)C=C4)cc2)C1)c1ccc(Br)cc1
REMARK SMILES IDX 12 1 11 2 10 3 8 4 9 5 7 6 4 7 5 8 79 9 6 10 3 11 1 12 2 13
REMARK SMILES IDX 80 15 81 16 86 17 82 18 85 19 83 20 84 21 13 22 14 23 15 24
REMARK SMILES IDX 16 25 17 26 78 27 18 28 77 29 19 30 20 31 21 32 71 33 22 34
REMARK SMILES IDX 76 35 70 36 72 37 23 38 75 39 69 40 68 41 24 43 56 44 36 45
REMARK SMILES IDX 55 46 37 47 40 48 54 49 73 50 38 51 39 52 53 54 74 55 41 56
REMARK SMILES IDX 25 57 26 58 34 59 27 60 29 61 35 62 28 63 30 64 31 65 32 66
REMARK SMILES IDX 33 67 57 68 58 69 66 70 59 71 61 72 67 73 60 74 62 75 63 76
REMARK SMILES IDX 64 77 65 78 42 79 43 80 51 81 44 82 46 83 52 84 45 85 47 86
REMARK SMILES IDX 48 87 49 88 50 89
REMARK H PARENT 3 14 72 42 40 53
REMARK Flexibility Score: inf
ROOT
ATOM      1  C   UNL     1       5.552  -4.962  -2.951  1.00  0.00     0.275 C 
ENDROOT
BRANCH   1   2
ATOM      2  C   UNL     1       5.366  -5.338  -1.479  1.00  0.00     0.274 C 
BRANCH   2   3
ATOM      3  O   UNL     1       5.219  -4.136  -0.702  1.00  0.00    -0.462 OA
BRANCH   3   4
ATOM      4  C   UNL     1       6.128  -3.896   0.276  1.00  0.00     0.312 C 
ATOM      5  O   UNL     1       6.951  -4.710   0.675  1.00  0.00    -0.252 OA
BRANCH   4   6
ATOM      6  C   UNL     1       6.027  -2.476   0.836  1.00  0.00     0.124 C 
ATOM      7  C   UNL     1       4.348  -0.674   1.054  1.00  0.00     0.106 C 
ATOM      8  C   UNL     1       4.543  -1.438   2.328  1.00  0.00    -0.006 C 
ATOM      9  C   UNL     1       5.143  -1.503   0.045  1.00  0.00     0.048 C 
ATOM     10  C   UNL     1       5.433  -2.430   2.207  1.00  0.00    -0.014 C 
BRANCH   7  11
ATOM     11  N   UNL     1       2.925  -0.629   0.776  1.00  0.00    -0.346 N 
ATOM     12  O   UNL     1       1.008   0.190  -0.078  1.00  0.00    -0.269 OA
ATOM     13  C   UNL     1       2.233   0.122  -0.140  1.00  0.00     0.251 C 
ATOM     14  H   UNL     1       2.372  -1.228   1.328  1.00  0.00     0.164 HD
BRANCH  13  15
ATOM     15  C   UNL     1       2.936   0.871  -1.201  1.00  0.00     0.039 A 
ATOM     16  C   UNL     1       3.621   0.200  -2.217  1.00  0.00     0.015 A 
ATOM     17  C   UNL     1       2.788   2.260  -1.265  1.00  0.00     0.015 A 
ATOM     18  C   UNL     1       4.241   0.916  -3.243  1.00  0.00     0.016 A 
ATOM     19  C   UNL     1       3.384   2.978  -2.307  1.00  0.00     0.016 A 
ATOM     20  C   UNL     1       4.121   2.303  -3.282  1.00  0.00     0.018 A 
ATOM     21  Br  UNL     1       4.934   3.272  -4.686  1.00  0.00    -0.051 Br
ENDBRANCH  13  15
ENDBRANCH   7  11
ENDBRANCH   4   6
ENDBRANCH   3   4
ENDBRANCH   2   3
ENDBRANCH   1   2
BRANCH   1  22
ATOM     22  O   UNL     1       6.809  -4.285  -3.151  1.00  0.00    -0.458 OA
BRANCH  22  23
ATOM     23  C   UNL     1       6.748  -2.933  -3.141  1.00  0.00     0.338 C 
ATOM     24  O   UNL     1       5.753  -2.238  -3.026  1.00  0.00    -0.246 OA
BRANCH  23  25
ATOM     25  C   UNL     1       8.107  -2.372  -3.171  1.00  0.00     0.060 A 
ATOM     26  C   UNL     1       8.552  -1.657  -2.057  1.00  0.00     0.016 A 
ATOM     27  C   UNL     1       8.900  -2.474  -4.314  1.00  0.00     0.016 A 
ATOM     28  C   UNL     1       9.796  -1.032  -2.080  1.00  0.00     0.010 A 
ATOM     29  C   UNL     1      10.152  -1.850  -4.334  1.00  0.00     0.010 A 
ATOM     30  C   UNL     1      10.603  -1.117  -3.222  1.00  0.00    -0.014 A 
BRANCH  30  31
ATOM     31  C   UNL     1      11.911  -0.419  -3.257  1.00  0.00     0.031 A 
ATOM     32  C   UNL     1      12.076   0.832  -4.074  1.00  0.00     0.074 A 
ATOM     33  C   UNL     1      12.947  -0.912  -2.552  1.00  0.00     0.049 A 
ATOM     34  N   UNL     1      13.152   1.545  -4.280  1.00  0.00    -0.248 NA
ATOM     35  C   UNL     1      10.872   1.349  -4.746  1.00  0.00     0.031 C 
ATOM     36  C   UNL     1      12.902  -2.111  -1.714  1.00  0.00     0.029 A 
ATOM     37  N   UNL     1      14.243  -0.476  -2.442  1.00  0.00    -0.354 N 
ATOM     38  C   UNL     1      12.766   2.581  -5.122  1.00  0.00     0.074 A 
ATOM     39  C   UNL     1      11.356   2.399  -5.397  1.00  0.00     0.031 C 
ATOM     40  C   UNL     1      14.120  -2.325  -1.188  1.00  0.00     0.029 A 
ATOM     41  C   UNL     1      15.037  -1.299  -1.677  1.00  0.00     0.049 A 
ATOM     42  H   UNL     1      14.574   0.346  -2.870  1.00  0.00     0.167 HD
ATOM     43  C   UNL     1      13.513   3.602  -5.605  1.00  0.00     0.034 A 
ATOM     44  C   UNL     1      16.358  -1.244  -1.419  1.00  0.00     0.034 A 
ATOM     45  C   UNL     1      14.909   3.794  -5.310  1.00  0.00     0.049 A 
ATOM     46  C   UNL     1      17.168  -0.111  -1.993  1.00  0.00     0.074 A 
ATOM     47  C   UNL     1      15.752   4.798  -5.752  1.00  0.00     0.029 A 
ATOM     48  N   UNL     1      15.665   2.968  -4.493  1.00  0.00    -0.354 N 
ATOM     49  N   UNL     1      16.768   0.903  -2.721  1.00  0.00    -0.248 NA
ATOM     50  C   UNL     1      18.606  -0.101  -1.687  1.00  0.00     0.031 C 
ATOM     51  C   UNL     1      17.020   4.578  -5.204  1.00  0.00     0.029 A 
ATOM     52  C   UNL     1      16.963   3.442  -4.413  1.00  0.00     0.049 A 
ATOM     53  H   UNL     1      15.329   2.163  -4.038  1.00  0.00     0.167 HD
ATOM     54  C   UNL     1      17.896   1.688  -2.931  1.00  0.00     0.074 A 
ATOM     55  C   UNL     1      18.990   1.045  -2.233  1.00  0.00     0.031 C 
ATOM     56  C   UNL     1      18.022   2.827  -3.656  1.00  0.00     0.034 A 
BRANCH  43  57
ATOM     57  C   UNL     1      12.827   4.628  -6.466  1.00  0.00     0.023 A 
ATOM     58  C   UNL     1      12.000   5.593  -5.857  1.00  0.00     0.012 A 
ATOM     59  C   UNL     1      13.055   4.687  -7.855  1.00  0.00     0.148 A 
ATOM     60  C   UNL     1      11.395   6.592  -6.619  1.00  0.00     0.002 A 
ATOM     61  C   UNL     1      12.476   5.707  -8.603  1.00  0.00     0.091 A 
ATOM     62  F   UNL     1      13.829   3.748  -8.416  1.00  0.00    -0.205 F 
ATOM     63  C   UNL     1      11.641   6.655  -7.988  1.00  0.00     0.022 A 
BRANCH  61  64
ATOM     64  S   UNL     1      12.781   5.915 -10.361  1.00  0.00     0.127 S 
ATOM     65  O   UNL     1      11.483   5.556 -10.931  1.00  0.00    -0.237 OA
ATOM     66  O   UNL     1      13.113   7.338 -10.450  1.00  0.00    -0.237 OA
ATOM     67  O   UNL     1      13.877   5.014 -10.689  1.00  0.00    -0.744 OA
ENDBRANCH  61  64
ENDBRANCH  43  57
BRANCH  44  68
ATOM     68  C   UNL     1      16.996  -2.269  -0.545  1.00  0.00     0.023 A 
ATOM     69  C   UNL     1      17.484  -1.892   0.721  1.00  0.00     0.012 A 
ATOM     70  C   UNL     1      17.120  -3.610  -0.955  1.00  0.00     0.148 A 
ATOM     71  C   UNL     1      18.111  -2.824   1.549  1.00  0.00     0.002 A 
ATOM     72  C   UNL     1      17.697  -4.545  -0.103  1.00  0.00     0.091 A 
ATOM     73  F   UNL     1      16.676  -3.950  -2.174  1.00  0.00    -0.205 F 
ATOM     74  C   UNL     1      18.209  -4.152   1.142  1.00  0.00     0.022 A 
BRANCH  72  75
ATOM     75  S   UNL     1      17.731  -6.294  -0.513  1.00  0.00     0.127 S 
ATOM     76  O   UNL     1      19.070  -6.446  -1.074  1.00  0.00    -0.237 OA
ATOM     77  O   UNL     1      17.535  -6.927   0.792  1.00  0.00    -0.237 OA
ATOM     78  O   UNL     1      16.619  -6.485  -1.436  1.00  0.00    -0.744 OA
ENDBRANCH  72  75
ENDBRANCH  44  68
BRANCH  56  79
ATOM     79  C   UNL     1      19.380   3.474  -3.703  1.00  0.00     0.023 A 
ATOM     80  C   UNL     1      20.395   2.903  -4.495  1.00  0.00     0.012 A 
ATOM     81  C   UNL     1      19.629   4.682  -3.022  1.00  0.00     0.148 A 
ATOM     82  C   UNL     1      21.648   3.508  -4.585  1.00  0.00     0.002 A 
ATOM     83  C   UNL     1      20.866   5.302  -3.151  1.00  0.00     0.091 A 
ATOM     84  F   UNL     1      18.656   5.198  -2.257  1.00  0.00    -0.205 F 
ATOM     85  C   UNL     1      21.879   4.712  -3.924  1.00  0.00     0.022 A 
BRANCH  83  86
ATOM     86  S   UNL     1      21.221   6.896  -2.403  1.00  0.00     0.127 S 
ATOM     87  O   UNL     1      22.042   6.512  -1.256  1.00  0.00    -0.237 OA
ATOM     88  O   UNL     1      21.947   7.588  -3.469  1.00  0.00    -0.237 OA
ATOM     89  O   UNL     1      19.925   7.481  -2.082  1.00  0.00    -0.744 OA
ENDBRANCH  83  86
ENDBRANCH  56  79
ENDBRANCH  30  31
ENDBRANCH  23  25
ENDBRANCH  22  23
ENDBRANCH   1  22
TORSDOF 16
