REMARK SMILES O=C(OCCOC(=O)c1ccc(-c2c3nc(c(-c4cccc(S(=O)(=O)[O-])c4F)c4ccc([nH]4)c(-c4cccc(S(=O)(=O)[O-])c4F)c4nc(c(-c5cccc(S(=O)(=O)[O-])c5F)c5ccc2[nH]5)C=C4)C=C3)cc1)C1=CCc2ccccc21
REMARK SMILES IDX 6 1 5 2 4 3 3 4 2 5 1 6 72 7 73 8 80 9 74 10 75 11 79 12
REMARK SMILES IDX 76 13 78 14 77 15 7 16 8 17 9 18 10 19 71 20 11 21 70 22
REMARK SMILES IDX 12 23 13 24 14 25 64 26 15 27 69 28 63 29 65 30 16 31 68 32
REMARK SMILES IDX 62 33 61 34 17 36 49 37 29 38 48 39 30 40 33 41 47 42 66 43
REMARK SMILES IDX 31 44 32 45 46 47 67 48 34 49 18 50 19 51 27 52 20 53 22 54
REMARK SMILES IDX 28 55 21 56 23 57 24 58 25 59 26 60 50 61 51 62 59 63 52 64
REMARK SMILES IDX 54 65 60 66 53 67 55 68 56 69 57 70 58 71 35 72 36 73 44 74
REMARK SMILES IDX 37 75 39 76 45 77 38 78 40 79 41 80 42 81 43 82
REMARK H PARENT 65 35 33 46
REMARK Flexibility Score: inf
ROOT
ATOM      1  O   UNL     1       3.109   1.998  -1.873  1.00  0.00    -0.458 OA
ENDROOT
BRANCH   1   2
ATOM      2  C   UNL     1       3.446   0.735  -2.463  1.00  0.00     0.275 C 
BRANCH   2   3
ATOM      3  C   UNL     1       3.674  -0.341  -1.390  1.00  0.00     0.275 C 
BRANCH   3   4
ATOM      4  O   UNL     1       3.074   0.019  -0.124  1.00  0.00    -0.458 OA
BRANCH   4   5
ATOM      5  C   UNL     1       3.661   0.775   0.848  1.00  0.00     0.338 C 
ATOM      6  O   UNL     1       2.995   1.256   1.757  1.00  0.00    -0.246 OA
BRANCH   5   7
ATOM      7  C   UNL     1       5.127   0.771   0.902  1.00  0.00     0.063 C 
ATOM      8  C   UNL     1       5.677  -0.085   1.785  1.00  0.00    -0.006 C 
ATOM      9  C   UNL     1       6.137   1.111  -0.092  1.00  0.00    -0.008 A 
ATOM     10  C   UNL     1       7.058  -0.506   1.378  1.00  0.00     0.064 C 
ATOM     11  C   UNL     1       7.221   0.242   0.089  1.00  0.00    -0.036 A 
ATOM     12  C   UNL     1       6.151   2.037  -1.122  1.00  0.00     0.009 A 
ATOM     13  C   UNL     1       8.234   0.148  -0.848  1.00  0.00     0.004 A 
ATOM     14  C   UNL     1       7.184   1.974  -2.062  1.00  0.00     0.001 A 
ATOM     15  C   UNL     1       8.195   1.008  -1.947  1.00  0.00     0.000 A 
ENDBRANCH   5   7
ENDBRANCH   4   5
ENDBRANCH   3   4
ENDBRANCH   2   3
ENDBRANCH   1   2
BRANCH   1  16
ATOM     16  C   UNL     1       1.786   2.117  -1.569  1.00  0.00     0.338 C 
ATOM     17  O   UNL     1       0.897   1.418  -2.018  1.00  0.00    -0.246 OA
BRANCH  16  18
ATOM     18  C   UNL     1       1.585   3.122  -0.493  1.00  0.00     0.060 A 
ATOM     19  C   UNL     1       0.414   3.007   0.265  1.00  0.00     0.016 A 
ATOM     20  C   UNL     1       2.511   4.129  -0.188  1.00  0.00     0.016 A 
ATOM     21  C   UNL     1       0.130   3.936   1.264  1.00  0.00     0.010 A 
ATOM     22  C   UNL     1       2.237   5.043   0.840  1.00  0.00     0.010 A 
ATOM     23  C   UNL     1       1.020   4.985   1.536  1.00  0.00    -0.014 A 
BRANCH  23  24
ATOM     24  C   UNL     1       0.576   6.066   2.454  1.00  0.00     0.031 A 
ATOM     25  C   UNL     1       0.151   7.395   1.885  1.00  0.00     0.074 A 
ATOM     26  C   UNL     1       0.448   5.841   3.775  1.00  0.00     0.049 A 
ATOM     27  N   UNL     1      -0.485   8.377   2.470  1.00  0.00    -0.248 NA
ATOM     28  C   UNL     1       0.480   7.654   0.473  1.00  0.00     0.031 C 
ATOM     29  C   UNL     1       0.868   4.627   4.474  1.00  0.00     0.029 A 
ATOM     30  N   UNL     1      -0.087   6.631   4.764  1.00  0.00    -0.354 N 
ATOM     31  C   UNL     1      -0.645   9.359   1.500  1.00  0.00     0.074 A 
ATOM     32  C   UNL     1       0.009   8.880   0.302  1.00  0.00     0.031 C 
ATOM     33  C   UNL     1       0.571   4.751   5.780  1.00  0.00     0.029 A 
ATOM     34  C   UNL     1      -0.072   6.045   6.008  1.00  0.00     0.049 A 
ATOM     35  H   UNL     1      -0.448   7.532   4.598  1.00  0.00     0.167 HD
ATOM     36  C   UNL     1      -1.314  10.533   1.577  1.00  0.00     0.034 A 
ATOM     37  C   UNL     1      -0.543   6.489   7.190  1.00  0.00     0.034 A 
ATOM     38  C   UNL     1      -1.980  11.014   2.757  1.00  0.00     0.049 A 
ATOM     39  C   UNL     1      -1.298   7.794   7.248  1.00  0.00     0.074 A 
ATOM     40  C   UNL     1      -2.722  12.172   2.913  1.00  0.00     0.029 A 
ATOM     41  N   UNL     1      -1.980  10.371   3.983  1.00  0.00    -0.354 N 
ATOM     42  N   UNL     1      -1.601   8.621   6.277  1.00  0.00    -0.248 NA
ATOM     43  C   UNL     1      -1.825   8.199   8.561  1.00  0.00     0.031 C 
ATOM     44  C   UNL     1      -3.158  12.237   4.241  1.00  0.00     0.029 A 
ATOM     45  C   UNL     1      -2.702  11.111   4.906  1.00  0.00     0.049 A 
ATOM     46  H   UNL     1      -1.533   9.515   4.172  1.00  0.00     0.167 HD
ATOM     47  C   UNL     1      -2.374   9.624   6.854  1.00  0.00     0.074 A 
ATOM     48  C   UNL     1      -2.525   9.282   8.252  1.00  0.00     0.031 C 
ATOM     49  C   UNL     1      -2.893  10.741   6.284  1.00  0.00     0.034 A 
BRANCH  36  50
ATOM     50  C   UNL     1      -1.422  11.352   0.320  1.00  0.00     0.023 A 
ATOM     51  C   UNL     1      -2.295  10.924  -0.702  1.00  0.00     0.012 A 
ATOM     52  C   UNL     1      -0.722  12.565   0.171  1.00  0.00     0.148 A 
ATOM     53  C   UNL     1      -2.455  11.678  -1.862  1.00  0.00     0.002 A 
ATOM     54  C   UNL     1      -0.916  13.330  -0.973  1.00  0.00     0.091 A 
ATOM     55  F   UNL     1       0.121  12.941   1.143  1.00  0.00    -0.205 F 
ATOM     56  C   UNL     1      -1.774  12.885  -1.993  1.00  0.00     0.022 A 
BRANCH  54  57
ATOM     57  S   UNL     1      -0.142  14.934  -1.210  1.00  0.00     0.127 S 
ATOM     58  O   UNL     1       0.822  14.642  -2.270  1.00  0.00    -0.237 OA
ATOM     59  O   UNL     1      -1.273  15.764  -1.625  1.00  0.00    -0.237 OA
ATOM     60  O   UNL     1       0.437  15.294   0.077  1.00  0.00    -0.744 OA
ENDBRANCH  54  57
ENDBRANCH  36  50
BRANCH  37  61
ATOM     61  C   UNL     1      -0.380   5.659   8.418  1.00  0.00     0.023 A 
ATOM     62  C   UNL     1      -1.507   5.062   9.014  1.00  0.00     0.012 A 
ATOM     63  C   UNL     1       0.887   5.471   9.001  1.00  0.00     0.148 A 
ATOM     64  C   UNL     1      -1.381   4.325  10.193  1.00  0.00     0.002 A 
ATOM     65  C   UNL     1       1.014   4.691  10.145  1.00  0.00     0.091 A 
ATOM     66  F   UNL     1       1.945   6.067   8.434  1.00  0.00    -0.205 F 
ATOM     67  C   UNL     1      -0.121   4.132  10.753  1.00  0.00     0.022 A 
BRANCH  65  68
ATOM     68  S   UNL     1       2.614   4.298  10.861  1.00  0.00     0.127 S 
ATOM     69  O   UNL     1       2.647   5.182  12.023  1.00  0.00    -0.237 OA
ATOM     70  O   UNL     1       2.469   2.876  11.173  1.00  0.00    -0.237 OA
ATOM     71  O   UNL     1       3.587   4.583   9.815  1.00  0.00    -0.744 OA
ENDBRANCH  65  68
ENDBRANCH  37  61
BRANCH  49  72
ATOM     72  C   UNL     1      -3.682  11.677   7.165  1.00  0.00     0.023 A 
ATOM     73  C   UNL     1      -3.010  12.447   8.137  1.00  0.00     0.012 A 
ATOM     74  C   UNL     1      -5.071  11.839   6.999  1.00  0.00     0.148 A 
ATOM     75  C   UNL     1      -3.713  13.330   8.956  1.00  0.00     0.002 A 
ATOM     76  C   UNL     1      -5.759  12.756   7.789  1.00  0.00     0.091 A 
ATOM     77  F   UNL     1      -5.701  11.089   6.083  1.00  0.00    -0.205 F 
ATOM     78  C   UNL     1      -5.084  13.492   8.776  1.00  0.00     0.022 A 
BRANCH  76  79
ATOM     79  S   UNL     1      -7.509  13.094   7.560  1.00  0.00     0.127 S 
ATOM     80  O   UNL     1      -8.107  12.327   8.651  1.00  0.00    -0.237 OA
ATOM     81  O   UNL     1      -7.575  14.546   7.729  1.00  0.00    -0.237 OA
ATOM     82  O   UNL     1      -7.827  12.633   6.215  1.00  0.00    -0.744 OA
ENDBRANCH  76  79
ENDBRANCH  49  72
ENDBRANCH  23  24
ENDBRANCH  16  18
ENDBRANCH   1  16
TORSDOF 14
