REMARK SMILES CN(CCc1ccccn1)C(=O)NC1(CC(=O)OCCOC(=O)c2ccc(-c3c4nc(c(-c5cccc(S(=O)(=O)[O-])c5F)c5ccc([nH]5)c(-c5cccc(S(=O)(=O)[O-])c5F)c5nc(c(-c6cccc(S(=O)(=O)[O-])c6F)c6ccc3[nH]6)C=C5)C=C4)cc2)CCC1
REMARK SMILES IDX 18 1 16 2 17 3 15 4 14 5 87 6 89 7 88 8 13 9 11 10 12 11
REMARK SMILES IDX 2 13 1 14 3 15 4 16 5 17 6 18 10 19 7 20 9 21 8 22 19 23
REMARK SMILES IDX 20 24 21 25 22 26 23 27 24 28 25 29 86 30 26 31 85 32 27 33
REMARK SMILES IDX 28 34 29 35 79 36 30 37 84 38 78 39 80 40 31 41 83 42 77 43
REMARK SMILES IDX 76 44 32 46 64 47 44 48 63 49 45 50 48 51 62 52 81 53 46 54
REMARK SMILES IDX 47 55 61 57 82 58 49 59 33 60 34 61 42 62 35 63 37 64 43 65
REMARK SMILES IDX 36 66 38 67 39 68 40 69 41 70 65 71 66 72 74 73 67 74 69 75
REMARK SMILES IDX 75 76 68 77 70 78 71 79 72 80 73 81 50 82 51 83 59 84 52 85
REMARK SMILES IDX 54 86 60 87 53 88 55 89 56 90 57 91 58 92
REMARK H PARENT 13 12 80 45 48 56
REMARK Flexibility Score: inf
ROOT
ATOM      1  O   UNL     1      -2.984  -1.164   1.159  1.00  0.00    -0.462 OA
ENDROOT
BRANCH   1   2
ATOM      2  C   UNL     1      -3.239  -2.270   1.900  1.00  0.00     0.308 C 
ATOM      3  O   UNL     1      -4.150  -3.043   1.587  1.00  0.00    -0.252 OA
BRANCH   2   4
ATOM      4  C   UNL     1      -2.423  -2.507   3.386  1.00  0.00     0.151 C 
BRANCH   4   5
ATOM      5  C   UNL     1      -0.461  -1.946   4.169  1.00  0.00     0.052 C 
ATOM      6  C   UNL     1       0.500  -2.511   5.659  1.00  0.00     0.029 C 
ATOM      7  C   UNL     1       0.192  -0.426   5.018  1.00  0.00     0.029 C 
ATOM      8  C   UNL     1       0.340  -1.153   6.340  1.00  0.00     0.005 C 
BRANCH   5   9
ATOM      9  N   UNL     1       1.013  -1.972   3.148  1.00  0.00    -0.332 N 
ATOM     10  C   UNL     1       1.491  -1.300   2.067  1.00  0.00     0.317 C 
ATOM     11  O   UNL     1       2.527  -1.787   1.589  1.00  0.00    -0.249 OA
ATOM     12  H   UNL     1       1.648  -2.661   3.452  1.00  0.00     0.165 HD
BRANCH  10  13
ATOM     13  N   UNL     1       0.912  -0.184   1.502  1.00  0.00    -0.327 N 
ATOM     14  C   UNL     1       1.426   0.137   0.178  1.00  0.00     0.148 C 
BRANCH  13  15
ATOM     15  C   UNL     1       0.148   0.876   2.167  1.00  0.00     0.127 C 
BRANCH  15  16
ATOM     16  C   UNL     1      -1.332   0.654   2.491  1.00  0.00     0.078 C 
BRANCH  16  17
ATOM     17  C   UNL     1      -1.588  -0.688   3.085  1.00  0.00     0.042 A 
ATOM     18  C   UNL     1      -2.220  -0.900   4.735  1.00  0.00     0.024 A 
ATOM     19  N   UNL     1      -0.939  -2.090   2.196  1.00  0.00    -0.261 NA
ATOM     20  C   UNL     1      -2.081  -2.519   5.492  1.00  0.00     0.003 A 
ATOM     21  C   UNL     1      -0.753  -3.648   3.002  1.00  0.00     0.111 A 
ATOM     22  C   UNL     1      -1.322  -3.884   4.638  1.00  0.00     0.020 A 
ENDBRANCH  16  17
ENDBRANCH  15  16
ENDBRANCH  13  15
ENDBRANCH  10  13
ENDBRANCH   5   9
ENDBRANCH   4   5
ENDBRANCH   2   4
ENDBRANCH   1   2
BRANCH   1  23
ATOM     23  C   UNL     1      -3.346  -1.121  -0.238  1.00  0.00     0.274 C 
BRANCH  23  24
ATOM     24  C   UNL     1      -2.161  -1.573  -1.098  1.00  0.00     0.275 C 
BRANCH  24  25
ATOM     25  O   UNL     1      -2.081  -2.996  -0.987  1.00  0.00    -0.458 OA
BRANCH  25  26
ATOM     26  C   UNL     1      -0.855  -3.553  -1.105  1.00  0.00     0.338 C 
ATOM     27  O   UNL     1       0.148  -3.033  -1.560  1.00  0.00    -0.246 OA
BRANCH  26  28
ATOM     28  C   UNL     1      -0.943  -4.934  -0.572  1.00  0.00     0.060 A 
ATOM     29  C   UNL     1      -1.839  -5.226   0.457  1.00  0.00     0.016 A 
ATOM     30  C   UNL     1      -0.104  -5.937  -1.044  1.00  0.00     0.016 A 
ATOM     31  C   UNL     1      -1.844  -6.465   1.080  1.00  0.00     0.010 A 
ATOM     32  C   UNL     1      -0.222  -7.232  -0.521  1.00  0.00     0.010 A 
ATOM     33  C   UNL     1      -1.085  -7.512   0.558  1.00  0.00    -0.014 A 
BRANCH  33  34
ATOM     34  C   UNL     1      -1.219  -8.892   1.108  1.00  0.00     0.031 A 
ATOM     35  C   UNL     1       0.009  -9.685   1.466  1.00  0.00     0.074 A 
ATOM     36  C   UNL     1      -2.440  -9.459   1.229  1.00  0.00     0.049 A 
ATOM     37  N   UNL     1       0.130 -10.969   1.678  1.00  0.00    -0.248 NA
ATOM     38  C   UNL     1       1.276  -8.941   1.569  1.00  0.00     0.031 C 
ATOM     39  C   UNL     1      -3.720  -8.805   0.937  1.00  0.00     0.029 A 
ATOM     40  N   UNL     1      -2.807 -10.730   1.604  1.00  0.00    -0.354 N 
ATOM     41  C   UNL     1       1.492 -11.204   1.832  1.00  0.00     0.074 A 
ATOM     42  C   UNL     1       2.155  -9.923   1.714  1.00  0.00     0.031 C 
ATOM     43  C   UNL     1      -4.724  -9.662   1.164  1.00  0.00     0.029 A 
ATOM     44  C   UNL     1      -4.160 -10.961   1.491  1.00  0.00     0.049 A 
ATOM     45  H   UNL     1      -2.166 -11.407   1.921  1.00  0.00     0.167 HD
ATOM     46  C   UNL     1       2.127 -12.382   2.044  1.00  0.00     0.034 A 
ATOM     47  C   UNL     1      -4.873 -12.102   1.558  1.00  0.00     0.034 A 
ATOM     48  C   UNL     1       1.444 -13.636   2.228  1.00  0.00     0.049 A 
ATOM     49  C   UNL     1      -4.147 -13.391   1.798  1.00  0.00     0.074 A 
ATOM     50  C   UNL     1       1.986 -14.878   2.509  1.00  0.00     0.029 A 
ATOM     51  N   UNL     1       0.069 -13.809   2.154  1.00  0.00    -0.354 N 
ATOM     52  N   UNL     1      -2.864 -13.593   1.968  1.00  0.00    -0.248 NA
ATOM     53  C   UNL     1      -4.966 -14.608   1.863  1.00  0.00     0.031 C 
ATOM     54  C   UNL     1       0.943 -15.806   2.573  1.00  0.00     0.029 A 
ATOM     55  C   UNL     1      -0.254 -15.137   2.377  1.00  0.00     0.049 A 
ATOM     56  H   UNL     1      -0.581 -13.093   1.970  1.00  0.00     0.167 HD
ATOM     57  C   UNL     1      -2.721 -14.957   2.188  1.00  0.00     0.074 A 
ATOM     58  C   UNL     1      -4.054 -15.525   2.155  1.00  0.00     0.031 C 
ATOM     59  C   UNL     1      -1.590 -15.676   2.385  1.00  0.00     0.034 A 
BRANCH  46  60
ATOM     60  C   UNL     1       3.635 -12.378   2.089  1.00  0.00     0.023 A 
ATOM     61  C   UNL     1       4.314 -11.791   3.176  1.00  0.00     0.012 A 
ATOM     62  C   UNL     1       4.381 -13.015   1.075  1.00  0.00     0.148 A 
ATOM     63  C   UNL     1       5.708 -11.802   3.233  1.00  0.00     0.002 A 
ATOM     64  C   UNL     1       5.767 -13.068   1.166  1.00  0.00     0.091 A 
ATOM     65  F   UNL     1       3.722 -13.555   0.040  1.00  0.00    -0.205 F 
ATOM     66  C   UNL     1       6.433 -12.450   2.236  1.00  0.00     0.022 A 
BRANCH  64  67
ATOM     67  S   UNL     1       6.786 -13.956  -0.019  1.00  0.00     0.127 S 
ATOM     68  O   UNL     1       7.489 -12.860  -0.685  1.00  0.00    -0.237 OA
ATOM     69  O   UNL     1       7.626 -14.776   0.855  1.00  0.00    -0.237 OA
ATOM     70  O   UNL     1       5.866 -14.708  -0.859  1.00  0.00    -0.744 OA
ENDBRANCH  64  67
ENDBRANCH  46  60
BRANCH  47  71
ATOM     71  C   UNL     1      -6.353 -12.068   1.373  1.00  0.00     0.023 A 
ATOM     72  C   UNL     1      -7.194 -12.355   2.465  1.00  0.00     0.012 A 
ATOM     73  C   UNL     1      -6.931 -11.707   0.138  1.00  0.00     0.148 A 
ATOM     74  C   UNL     1      -8.582 -12.307   2.325  1.00  0.00     0.002 A 
ATOM     75  C   UNL     1      -8.311 -11.595   0.025  1.00  0.00     0.091 A 
ATOM     76  F   UNL     1      -6.116 -11.453  -0.895  1.00  0.00    -0.205 F 
ATOM     77  C   UNL     1      -9.139 -11.913   1.111  1.00  0.00     0.022 A 
BRANCH  75  78
ATOM     78  S   UNL     1      -9.108 -10.952  -1.452  1.00  0.00     0.127 S 
ATOM     79  O   UNL     1      -9.763 -12.145  -1.981  1.00  0.00    -0.237 OA
ATOM     80  O   UNL     1     -10.014  -9.948  -0.892  1.00  0.00    -0.237 OA
ATOM     81  O   UNL     1      -8.036 -10.402  -2.270  1.00  0.00    -0.744 OA
ENDBRANCH  75  78
ENDBRANCH  47  71
BRANCH  59  82
ATOM     82  C   UNL     1      -1.749 -17.151   2.639  1.00  0.00     0.023 A 
ATOM     83  C   UNL     1      -2.127 -18.013   1.591  1.00  0.00     0.012 A 
ATOM     84  C   UNL     1      -1.474 -17.685   3.913  1.00  0.00     0.148 A 
ATOM     85  C   UNL     1      -2.268 -19.382   1.819  1.00  0.00     0.002 A 
ATOM     86  C   UNL     1      -1.563 -19.055   4.118  1.00  0.00     0.091 A 
ATOM     87  F   UNL     1      -1.136 -16.843   4.900  1.00  0.00    -0.205 F 
ATOM     88  C   UNL     1      -1.975 -19.903   3.077  1.00  0.00     0.022 A 
BRANCH  86  89
ATOM     89  S   UNL     1      -1.111 -19.825   5.675  1.00  0.00     0.127 S 
ATOM     90  O   UNL     1      -2.412 -20.255   6.184  1.00  0.00    -0.237 OA
ATOM     91  O   UNL     1      -0.236 -20.914   5.238  1.00  0.00    -0.237 OA
ATOM     92  O   UNL     1      -0.446 -18.792   6.459  1.00  0.00    -0.744 OA
ENDBRANCH  86  89
ENDBRANCH  59  82
ENDBRANCH  33  34
ENDBRANCH  26  28
ENDBRANCH  25  26
ENDBRANCH  24  25
ENDBRANCH  23  24
ENDBRANCH   1  23
TORSDOF 20
