REMARK SMILES CC(C)CC[C@H](C(=O)OCCOC(=O)c1ccc(-c2c3nc(c(-c4cccc(S(=O)(=O)[O-])c4F)c4ccc([nH]4)c(-c4cccc(S(=O)(=O)[O-])c4F)c4nc(c(-c5cccc(S(=O)(=O)[O-])c5F)c5ccc2[nH]5)C=C4)C=C3)cc1)c1ccc(F)cc1
REMARK SMILES IDX 10 1 9 2 7 3 8 4 6 5 5 6 4 7 2 8 1 9 3 10 78 11 79 12 84 13
REMARK SMILES IDX 80 14 83 15 81 16 82 17 11 18 12 19 13 20 14 21 15 22 16 23
REMARK SMILES IDX 77 24 17 25 76 26 18 27 19 28 20 29 70 30 21 31 75 32 69 33
REMARK SMILES IDX 71 34 22 35 74 36 68 37 67 38 23 40 55 41 35 42 54 43 36 44
REMARK SMILES IDX 39 45 53 46 72 47 37 48 38 49 52 51 73 52 40 53 24 54 25 55
REMARK SMILES IDX 33 56 26 57 28 58 34 59 27 60 29 61 30 62 31 63 32 64 56 65
REMARK SMILES IDX 57 66 65 67 58 68 60 69 66 70 59 71 61 72 62 73 63 74 64 75
REMARK SMILES IDX 41 76 42 77 50 78 43 79 45 80 51 81 44 82 46 83 47 84 48 85
REMARK SMILES IDX 49 86
REMARK H PARENT 71 39 39 50
REMARK Flexibility Score: inf
ROOT
ATOM      1  C   UNL     1      -1.348   0.122   1.117  1.00  0.00     0.274 C 
ENDROOT
BRANCH   1   2
ATOM      2  O   UNL     1      -1.055  -0.971   0.223  1.00  0.00    -0.462 OA
BRANCH   2   3
ATOM      3  C   UNL     1      -1.771  -0.983  -0.946  1.00  0.00     0.313 C 
ATOM      4  O   UNL     1      -2.534  -0.081  -1.260  1.00  0.00    -0.252 OA
BRANCH   3   5
ATOM      5  C   UNL     1      -1.514  -2.279  -1.729  1.00  0.00     0.129 C 
BRANCH   5   6
ATOM      6  C   UNL     1      -1.931  -3.568  -0.950  1.00  0.00     0.020 C 
BRANCH   6   7
ATOM      7  C   UNL     1      -2.571  -3.475   0.444  1.00  0.00     0.004 C 
BRANCH   7   8
ATOM      8  C   UNL     1      -3.885  -2.681   0.546  1.00  0.00    -0.017 C 
ATOM      9  C   UNL     1      -4.976  -3.222  -0.374  1.00  0.00     0.007 C 
ATOM     10  C   UNL     1      -4.360  -2.645   1.999  1.00  0.00     0.007 C 
ENDBRANCH   7   8
ENDBRANCH   6   7
ENDBRANCH   5   6
BRANCH   5  11
ATOM     11  C   UNL     1      -2.004  -2.330  -3.199  1.00  0.00    -0.034 A 
ATOM     12  C   UNL     1      -2.575  -1.240  -3.881  1.00  0.00     0.007 A 
ATOM     13  C   UNL     1      -1.827  -3.520  -3.942  1.00  0.00     0.007 A 
ATOM     14  C   UNL     1      -3.007  -1.348  -5.208  1.00  0.00     0.039 A 
ATOM     15  C   UNL     1      -2.267  -3.632  -5.266  1.00  0.00     0.039 A 
ATOM     16  C   UNL     1      -2.861  -2.545  -5.885  1.00  0.00     0.123 A 
ATOM     17  F   UNL     1      -3.290  -2.654  -7.149  1.00  0.00    -0.207 F 
ENDBRANCH   5  11
ENDBRANCH   3   5
ENDBRANCH   2   3
ENDBRANCH   1   2
BRANCH   1  18
ATOM     18  C   UNL     1      -0.280   1.215   1.070  1.00  0.00     0.275 C 
BRANCH  18  19
ATOM     19  O   UNL     1      -0.091   1.712  -0.262  1.00  0.00    -0.458 OA
BRANCH  19  20
ATOM     20  C   UNL     1       0.800   1.002  -1.003  1.00  0.00     0.338 C 
ATOM     21  O   UNL     1       1.514   0.098  -0.618  1.00  0.00    -0.246 OA
BRANCH  20  22
ATOM     22  C   UNL     1       0.639   1.358  -2.426  1.00  0.00     0.060 A 
ATOM     23  C   UNL     1       0.636   0.312  -3.356  1.00  0.00     0.016 A 
ATOM     24  C   UNL     1       0.505   2.683  -2.846  1.00  0.00     0.016 A 
ATOM     25  C   UNL     1       0.478   0.583  -4.711  1.00  0.00     0.010 A 
ATOM     26  C   UNL     1       0.385   2.958  -4.209  1.00  0.00     0.010 A 
ATOM     27  C   UNL     1       0.381   1.909  -5.144  1.00  0.00    -0.014 A 
BRANCH  27  28
ATOM     28  C   UNL     1       0.429   2.205  -6.590  1.00  0.00     0.031 A 
ATOM     29  C   UNL     1       1.768   2.414  -7.231  1.00  0.00     0.074 A 
ATOM     30  C   UNL     1      -0.702   2.290  -7.311  1.00  0.00     0.049 A 
ATOM     31  N   UNL     1       2.054   2.714  -8.469  1.00  0.00    -0.248 NA
ATOM     32  C   UNL     1       2.943   2.265  -6.356  1.00  0.00     0.031 C 
ATOM     33  C   UNL     1      -2.051   2.087  -6.789  1.00  0.00     0.029 A 
ATOM     34  N   UNL     1      -0.892   2.591  -8.635  1.00  0.00    -0.354 N 
ATOM     35  C   UNL     1       3.438   2.814  -8.520  1.00  0.00     0.074 A 
ATOM     36  C   UNL     1       3.935   2.541  -7.189  1.00  0.00     0.031 C 
ATOM     37  C   UNL     1      -2.936   2.285  -7.781  1.00  0.00     0.029 A 
ATOM     38  C   UNL     1      -2.216   2.665  -8.995  1.00  0.00     0.049 A 
ATOM     39  H   UNL     1      -0.151   2.739  -9.266  1.00  0.00     0.167 HD
ATOM     40  C   UNL     1       4.224   3.107  -9.581  1.00  0.00     0.034 A 
ATOM     41  C   UNL     1      -2.775   3.026 -10.167  1.00  0.00     0.034 A 
ATOM     42  C   UNL     1       3.720   3.400 -10.894  1.00  0.00     0.049 A 
ATOM     43  C   UNL     1      -1.877   3.401 -11.319  1.00  0.00     0.074 A 
ATOM     44  C   UNL     1       4.431   3.706 -12.040  1.00  0.00     0.029 A 
ATOM     45  N   UNL     1       2.376   3.448 -11.231  1.00  0.00    -0.354 N 
ATOM     46  N   UNL     1      -0.566   3.397 -11.384  1.00  0.00    -0.248 NA
ATOM     47  C   UNL     1      -2.535   3.813 -12.568  1.00  0.00     0.031 C 
ATOM     48  C   UNL     1       3.515   3.972 -13.062  1.00  0.00     0.029 A 
ATOM     49  C   UNL     1       2.234   3.793 -12.564  1.00  0.00     0.049 A 
ATOM     50  H   UNL     1       1.632   3.263 -10.614  1.00  0.00     0.167 HD
ATOM     51  C   UNL     1      -0.245   3.768 -12.686  1.00  0.00     0.074 A 
ATOM     52  C   UNL     1      -1.499   3.971 -13.381  1.00  0.00     0.031 C 
ATOM     53  C   UNL     1       0.976   3.939 -13.252  1.00  0.00     0.034 A 
BRANCH  40  54
ATOM     54  C   UNL     1       5.710   3.131  -9.352  1.00  0.00     0.023 A 
ATOM     55  C   UNL     1       6.407   1.922  -9.151  1.00  0.00     0.012 A 
ATOM     56  C   UNL     1       6.420   4.347  -9.353  1.00  0.00     0.148 A 
ATOM     57  C   UNL     1       7.782   1.926  -8.919  1.00  0.00     0.002 A 
ATOM     58  C   UNL     1       7.796   4.339  -9.166  1.00  0.00     0.091 A 
ATOM     59  F   UNL     1       5.734   5.487  -9.518  1.00  0.00    -0.205 F 
ATOM     60  C   UNL     1       8.476   3.132  -8.936  1.00  0.00     0.022 A 
BRANCH  58  61
ATOM     61  S   UNL     1       8.791   5.832  -9.239  1.00  0.00     0.127 S 
ATOM     62  O   UNL     1       9.188   5.991  -7.841  1.00  0.00    -0.237 OA
ATOM     63  O   UNL     1       9.874   5.436 -10.139  1.00  0.00    -0.237 OA
ATOM     64  O   UNL     1       7.917   6.873  -9.761  1.00  0.00    -0.744 OA
ENDBRANCH  58  61
ENDBRANCH  40  54
BRANCH  41  65
ATOM     65  C   UNL     1      -4.258   3.037 -10.324  1.00  0.00     0.023 A 
ATOM     66  C   UNL     1      -4.870   2.116 -11.195  1.00  0.00     0.012 A 
ATOM     67  C   UNL     1      -5.063   3.956  -9.622  1.00  0.00     0.148 A 
ATOM     68  C   UNL     1      -6.252   2.132 -11.393  1.00  0.00     0.002 A 
ATOM     69  C   UNL     1      -6.444   3.930  -9.781  1.00  0.00     0.091 A 
ATOM     70  F   UNL     1      -4.462   4.837  -8.810  1.00  0.00    -0.205 F 
ATOM     71  C   UNL     1      -7.039   3.032 -10.681  1.00  0.00     0.022 A 
BRANCH  69  72
ATOM     72  S   UNL     1      -7.547   4.972  -8.819  1.00  0.00     0.127 S 
ATOM     73  O   UNL     1      -8.066   5.880  -9.839  1.00  0.00    -0.237 OA
ATOM     74  O   UNL     1      -8.514   3.998  -8.311  1.00  0.00    -0.237 OA
ATOM     75  O   UNL     1      -6.715   5.586  -7.793  1.00  0.00    -0.744 OA
ENDBRANCH  69  72
ENDBRANCH  41  65
BRANCH  53  76
ATOM     76  C   UNL     1       1.027   4.325 -14.709  1.00  0.00     0.023 A 
ATOM     77  C   UNL     1       0.664   5.627 -15.106  1.00  0.00     0.012 A 
ATOM     78  C   UNL     1       1.520   3.420 -15.671  1.00  0.00     0.148 A 
ATOM     79  C   UNL     1       0.761   6.012 -16.443  1.00  0.00     0.002 A 
ATOM     80  C   UNL     1       1.664   3.828 -16.991  1.00  0.00     0.091 A 
ATOM     81  F   UNL     1       1.845   2.181 -15.275  1.00  0.00    -0.205 F 
ATOM     82  C   UNL     1       1.273   5.119 -17.382  1.00  0.00     0.022 A 
BRANCH  80  83
ATOM     83  S   UNL     1       2.409   2.782 -18.247  1.00  0.00     0.127 S 
ATOM     84  O   UNL     1       1.254   2.445 -19.078  1.00  0.00    -0.237 OA
ATOM     85  O   UNL     1       3.368   3.690 -18.877  1.00  0.00    -0.237 OA
ATOM     86  O   UNL     1       3.013   1.665 -17.535  1.00  0.00    -0.744 OA
ENDBRANCH  80  83
ENDBRANCH  53  76
ENDBRANCH  27  28
ENDBRANCH  20  22
ENDBRANCH  19  20
ENDBRANCH  18  19
ENDBRANCH   1  18
TORSDOF 18
