REMARK SMILES COc1ccc(C(=O)/C=C(\Nc2cccc(C(F)(F)F)c2)C(=O)OCCOC(=O)c2ccc(-c3c4nc(c(-c5cccc(S(=O)(=O)[O-])c5F)c5ccc([nH]5)c(-c5cccc(S(=O)(=O)[O-])c5F)c5nc(c(-c6cccc(S(=O)(=O)[O-])c6F)c6ccc3[nH]6)C=C5)C=C4)cc2)cc1
REMARK SMILES IDX 25 1 24 2 22 3 23 4 10 5 9 6 7 7 8 8 6 9 3 10 4 11 94 12
REMARK SMILES IDX 5 13 93 14 2 15 1 16 11 17 12 19 13 20 21 21 14 22 16 23
REMARK SMILES IDX 15 24 17 25 18 26 19 27 20 28 26 29 27 30 28 31 29 32 30 33
REMARK SMILES IDX 31 34 92 35 32 36 91 37 33 38 34 39 35 40 85 41 36 42 90 43
REMARK SMILES IDX 84 44 86 45 37 46 89 47 83 48 82 49 38 51 70 52 50 53 69 54
REMARK SMILES IDX 51 55 54 56 68 57 87 58 52 59 53 60 67 62 88 63 55 64 39 65
REMARK SMILES IDX 40 66 48 67 41 68 43 69 49 70 42 71 44 72 45 73 46 74 47 75
REMARK SMILES IDX 71 76 72 77 80 78 73 79 75 80 81 81 74 82 76 83 77 84 78 85
REMARK SMILES IDX 79 86 56 87 57 88 65 89 58 90 60 91 66 92 59 93 61 94 62 95
REMARK SMILES IDX 63 96 64 97
REMARK H PARENT 11 18 86 50 54 61
REMARK Flexibility Score: inf
ROOT
ATOM      1  C   UNL     1       7.790  -2.319   5.574  1.00  0.00     0.275 C 
ENDROOT
BRANCH   1   2
ATOM      2  O   UNL     1       6.539  -1.663   5.281  1.00  0.00    -0.457 OA
BRANCH   2   3
ATOM      3  C   UNL     1       5.408  -2.343   5.608  1.00  0.00     0.355 C 
ATOM      4  O   UNL     1       5.349  -3.376   6.258  1.00  0.00    -0.244 OA
BRANCH   3   5
ATOM      5  C   UNL     1       4.188  -1.668   5.033  1.00  0.00     0.129 C 
ATOM      6  C   UNL     1       3.352  -1.229   5.994  1.00  0.00     0.086 C 
BRANCH   6   7
ATOM      7  C   UNL     1       2.051  -0.504   5.980  1.00  0.00     0.188 C 
ATOM      8  O   UNL     1       1.411  -0.395   7.021  1.00  0.00    -0.289 OA
BRANCH   7   9
ATOM      9  C   UNL     1       1.481   0.036   4.738  1.00  0.00     0.022 A 
ATOM     10  C   UNL     1       0.449   0.693   2.256  1.00  0.00     0.118 A 
ATOM     11  C   UNL     1      -0.360   0.035   3.179  1.00  0.00     0.047 A 
ATOM     12  C   UNL     1       1.720   1.145   2.614  1.00  0.00     0.047 A 
ATOM     13  C   UNL     1       0.160  -0.302   4.426  1.00  0.00     0.016 A 
ATOM     14  C   UNL     1       2.232   0.836   3.873  1.00  0.00     0.016 A 
BRANCH  10  15
ATOM     15  O   UNL     1      -0.043   0.907   0.998  1.00  0.00    -0.497 OA
ATOM     16  C   UNL     1       0.643   0.078   0.055  1.00  0.00     0.278 C 
ENDBRANCH  10  15
ENDBRANCH   7   9
ENDBRANCH   6   7
BRANCH   5  17
ATOM     17  N   UNL     1       4.023  -1.615   3.658  1.00  0.00    -0.349 N 
ATOM     18  H   UNL     1       3.098  -1.542   3.329  1.00  0.00     0.167 HD
BRANCH  17  19
ATOM     19  C   UNL     1       5.032  -1.652   2.686  1.00  0.00     0.039 A 
ATOM     20  C   UNL     1       5.283  -0.500   1.929  1.00  0.00     0.026 A 
ATOM     21  C   UNL     1       5.833  -2.779   2.486  1.00  0.00     0.039 A 
ATOM     22  C   UNL     1       6.320  -0.465   1.000  1.00  0.00     0.003 A 
ATOM     23  C   UNL     1       6.890  -2.756   1.561  1.00  0.00     0.058 A 
ATOM     24  C   UNL     1       7.120  -1.589   0.815  1.00  0.00     0.013 A 
BRANCH  23  25
ATOM     25  C   UNL     1       7.764  -3.965   1.357  1.00  0.00     0.416 C 
ATOM     26  F   UNL     1       7.447  -4.646   0.221  1.00  0.00    -0.166 F 
ATOM     27  F   UNL     1       9.084  -3.642   1.240  1.00  0.00    -0.166 F 
ATOM     28  F   UNL     1       7.694  -4.869   2.372  1.00  0.00    -0.166 F 
ENDBRANCH  23  25
ENDBRANCH  17  19
ENDBRANCH   5  17
ENDBRANCH   3   5
ENDBRANCH   2   3
ENDBRANCH   1   2
BRANCH   1  29
ATOM     29  C   UNL     1       8.657  -1.477   6.506  1.00  0.00     0.275 C 
BRANCH  29  30
ATOM     30  O   UNL     1       8.082  -1.469   7.821  1.00  0.00    -0.458 OA
BRANCH  30  31
ATOM     31  C   UNL     1       7.367  -0.363   8.123  1.00  0.00     0.338 C 
ATOM     32  O   UNL     1       7.246   0.653   7.460  1.00  0.00    -0.246 OA
BRANCH  31  33
ATOM     33  C   UNL     1       6.590  -0.622   9.339  1.00  0.00     0.060 A 
ATOM     34  C   UNL     1       5.372  -1.276   9.186  1.00  0.00     0.016 A 
ATOM     35  C   UNL     1       6.968  -0.110  10.574  1.00  0.00     0.016 A 
ATOM     36  C   UNL     1       4.457  -1.306  10.228  1.00  0.00     0.010 A 
ATOM     37  C   UNL     1       6.093  -0.248  11.657  1.00  0.00     0.010 A 
ATOM     38  C   UNL     1       4.809  -0.803  11.485  1.00  0.00    -0.014 A 
BRANCH  38  39
ATOM     39  C   UNL     1       3.827  -0.824  12.602  1.00  0.00     0.031 A 
ATOM     40  C   UNL     1       3.435   0.463  13.279  1.00  0.00     0.074 A 
ATOM     41  C   UNL     1       3.288  -1.990  13.014  1.00  0.00     0.049 A 
ATOM     42  N   UNL     1       2.760   0.645  14.384  1.00  0.00    -0.248 NA
ATOM     43  C   UNL     1       3.880   1.713  12.638  1.00  0.00     0.031 C 
ATOM     44  C   UNL     1       3.554  -3.304  12.425  1.00  0.00     0.029 A 
ATOM     45  N   UNL     1       2.410  -2.260  14.035  1.00  0.00    -0.354 N 
ATOM     46  C   UNL     1       2.768   2.016  14.614  1.00  0.00     0.074 A 
ATOM     47  C   UNL     1       3.508   2.622  13.528  1.00  0.00     0.031 C 
ATOM     48  C   UNL     1       2.841  -4.234  13.075  1.00  0.00     0.029 A 
ATOM     49  C   UNL     1       2.134  -3.600  14.181  1.00  0.00     0.049 A 
ATOM     50  H   UNL     1       2.016  -1.562  14.607  1.00  0.00     0.167 HD
ATOM     51  C   UNL     1       2.201   2.706  15.631  1.00  0.00     0.034 A 
ATOM     52  C   UNL     1       1.428  -4.254  15.123  1.00  0.00     0.034 A 
ATOM     53  C   UNL     1       1.395   2.103  16.659  1.00  0.00     0.049 A 
ATOM     54  C   UNL     1       0.798  -3.463  16.235  1.00  0.00     0.074 A 
ATOM     55  C   UNL     1       0.752   2.715  17.720  1.00  0.00     0.029 A 
ATOM     56  N   UNL     1       1.104   0.749  16.742  1.00  0.00    -0.354 N 
ATOM     57  N   UNL     1       0.802  -2.166  16.429  1.00  0.00    -0.248 NA
ATOM     58  C   UNL     1       0.059  -4.222  17.253  1.00  0.00     0.031 C 
ATOM     59  C   UNL     1       0.077   1.730  18.449  1.00  0.00     0.029 A 
ATOM     60  C   UNL     1       0.286   0.506  17.832  1.00  0.00     0.049 A 
ATOM     61  H   UNL     1       1.431   0.062  16.117  1.00  0.00     0.167 HD
ATOM     62  C   UNL     1       0.049  -1.951  17.576  1.00  0.00     0.074 A 
ATOM     63  C   UNL     1      -0.418  -3.250  18.018  1.00  0.00     0.031 C 
ATOM     64  C   UNL     1      -0.213  -0.787  18.221  1.00  0.00     0.034 A 
BRANCH  51  65
ATOM     65  C   UNL     1       2.411   4.198  15.672  1.00  0.00     0.023 A 
ATOM     66  C   UNL     1       1.727   5.029  14.762  1.00  0.00     0.012 A 
ATOM     67  C   UNL     1       3.247   4.781  16.645  1.00  0.00     0.148 A 
ATOM     68  C   UNL     1       1.897   6.413  14.799  1.00  0.00     0.002 A 
ATOM     69  C   UNL     1       3.379   6.165  16.703  1.00  0.00     0.091 A 
ATOM     70  F   UNL     1       3.907   3.975  17.489  1.00  0.00    -0.205 F 
ATOM     71  C   UNL     1       2.713   6.981  15.774  1.00  0.00     0.022 A 
BRANCH  69  72
ATOM     72  S   UNL     1       4.348   6.994  17.968  1.00  0.00     0.127 S 
ATOM     73  O   UNL     1       5.504   7.455  17.201  1.00  0.00    -0.237 OA
ATOM     74  O   UNL     1       3.443   8.058  18.404  1.00  0.00    -0.237 OA
ATOM     75  O   UNL     1       4.631   5.987  18.981  1.00  0.00    -0.744 OA
ENDBRANCH  69  72
ENDBRANCH  51  65
BRANCH  52  76
ATOM     76  C   UNL     1       1.269  -5.734  15.040  1.00  0.00     0.023 A 
ATOM     77  C   UNL     1       0.002  -6.277  14.752  1.00  0.00     0.012 A 
ATOM     78  C   UNL     1       2.367  -6.604  15.196  1.00  0.00     0.148 A 
ATOM     79  C   UNL     1      -0.173  -7.657  14.640  1.00  0.00     0.002 A 
ATOM     80  C   UNL     1       2.198  -7.973  15.023  1.00  0.00     0.091 A 
ATOM     81  F   UNL     1       3.562  -6.073  15.494  1.00  0.00    -0.205 F 
ATOM     82  C   UNL     1       0.926  -8.503  14.761  1.00  0.00     0.022 A 
BRANCH  80  83
ATOM     83  S   UNL     1       3.584  -9.116  15.019  1.00  0.00     0.127 S 
ATOM     84  O   UNL     1       3.429  -9.781  16.310  1.00  0.00    -0.237 OA
ATOM     85  O   UNL     1       3.288  -9.953  13.855  1.00  0.00    -0.237 OA
ATOM     86  O   UNL     1       4.773  -8.287  14.870  1.00  0.00    -0.744 OA
ENDBRANCH  80  83
ENDBRANCH  52  76
BRANCH  64  87
ATOM     87  C   UNL     1      -1.069  -0.859  19.456  1.00  0.00     0.023 A 
ATOM     88  C   UNL     1      -0.523  -1.364  20.653  1.00  0.00     0.012 A 
ATOM     89  C   UNL     1      -2.387  -0.364  19.449  1.00  0.00     0.148 A 
ATOM     90  C   UNL     1      -1.287  -1.402  21.818  1.00  0.00     0.002 A 
ATOM     91  C   UNL     1      -3.128  -0.364  20.625  1.00  0.00     0.091 A 
ATOM     92  F   UNL     1      -2.894   0.092  18.294  1.00  0.00    -0.205 F 
ATOM     93  C   UNL     1      -2.583  -0.892  21.807  1.00  0.00     0.022 A 
BRANCH  91  94
ATOM     94  S   UNL     1      -4.771   0.355  20.723  1.00  0.00     0.127 S 
ATOM     95  O   UNL     1      -5.616  -0.837  20.766  1.00  0.00    -0.237 OA
ATOM     96  O   UNL     1      -4.709   1.104  21.979  1.00  0.00    -0.237 OA
ATOM     97  O   UNL     1      -4.915   1.185  19.535  1.00  0.00    -0.744 OA
ENDBRANCH  91  94
ENDBRANCH  64  87
ENDBRANCH  38  39
ENDBRANCH  31  33
ENDBRANCH  30  31
ENDBRANCH  29  30
ENDBRANCH   1  29
TORSDOF 20
