REMARK SMILES CC(C)COc1ccc(CC(=O)OCCOC(=O)c2ccc(-c3c4nc(c(-c5cccc(S(=O)(=O)[O-])c5F)c5ccc([nH]5)c(-c5cccc(S(=O)(=O)[O-])c5F)c5nc(c(-c6cccc(S(=O)(=O)[O-])c6F)c6ccc3[nH]6)C=C5)C=C4)cc2)cc1
REMARK SMILES IDX 14 1 13 2 11 3 12 4 10 5 9 6 6 7 7 8 83 9 8 10 82 11 5 12
REMARK SMILES IDX 4 13 2 14 1 15 3 16 15 17 16 18 17 19 18 20 19 21 20 22
REMARK SMILES IDX 81 23 21 24 80 25 22 26 23 27 24 28 74 29 25 30 79 31 73 32
REMARK SMILES IDX 75 33 26 34 78 35 72 36 71 37 27 39 59 40 39 41 58 42 40 43
REMARK SMILES IDX 43 44 57 45 76 46 41 47 42 48 56 50 77 51 44 52 28 53 29 54
REMARK SMILES IDX 37 55 30 56 32 57 38 58 31 59 33 60 34 61 35 62 36 63 60 64
REMARK SMILES IDX 61 65 69 66 62 67 64 68 70 69 63 70 65 71 66 72 67 73 68 74
REMARK SMILES IDX 45 75 46 76 54 77 47 78 49 79 55 80 48 81 50 82 51 83 52 84
REMARK SMILES IDX 53 85
REMARK H PARENT 75 38 43 49
REMARK Flexibility Score: inf
ROOT
ATOM      1  C   UNL     1       0.327   6.220   4.586  1.00  0.00     0.274 C 
ENDROOT
BRANCH   1   2
ATOM      2  O   UNL     1       0.453   4.897   4.033  1.00  0.00    -0.462 OA
BRANCH   2   3
ATOM      3  C   UNL     1       0.522   3.879   4.928  1.00  0.00     0.310 C 
ATOM      4  O   UNL     1       0.547   4.024   6.146  1.00  0.00    -0.252 OA
BRANCH   3   5
ATOM      5  C   UNL     1       0.660   2.519   4.288  1.00  0.00     0.158 C 
BRANCH   5   6
ATOM      6  C   UNL     1       0.125   2.357   2.887  1.00  0.00    -0.037 A 
ATOM      7  C   UNL     1      -0.738   1.833   0.286  1.00  0.00     0.119 A 
ATOM      8  C   UNL     1      -1.575   1.537   1.356  1.00  0.00     0.047 A 
ATOM      9  C   UNL     1       0.474   2.487   0.491  1.00  0.00     0.047 A 
ATOM     10  C   UNL     1      -1.141   1.797   2.657  1.00  0.00     0.008 A 
ATOM     11  C   UNL     1       0.914   2.731   1.790  1.00  0.00     0.008 A 
BRANCH   7  12
ATOM     12  O   UNL     1      -1.072   1.492  -0.995  1.00  0.00    -0.493 OA
BRANCH  12  13
ATOM     13  C   UNL     1      -0.941   0.074  -1.224  1.00  0.00     0.232 C 
BRANCH  13  14
ATOM     14  C   UNL     1       0.531  -0.332  -1.461  1.00  0.00     0.020 C 
ATOM     15  C   UNL     1       1.162  -0.936  -0.200  1.00  0.00     0.011 C 
ATOM     16  C   UNL     1       0.641  -1.347  -2.599  1.00  0.00     0.011 C 
ENDBRANCH  13  14
ENDBRANCH  12  13
ENDBRANCH   7  12
ENDBRANCH   5   6
ENDBRANCH   3   5
ENDBRANCH   2   3
ENDBRANCH   1   2
BRANCH   1  17
ATOM     17  C   UNL     1      -1.125   6.696   4.567  1.00  0.00     0.275 C 
BRANCH  17  18
ATOM     18  O   UNL     1      -1.946   5.899   5.439  1.00  0.00    -0.458 OA
BRANCH  18  19
ATOM     19  C   UNL     1      -2.712   4.975   4.815  1.00  0.00     0.338 C 
ATOM     20  O   UNL     1      -2.805   4.771   3.618  1.00  0.00    -0.246 OA
BRANCH  19  21
ATOM     21  C   UNL     1      -3.409   4.153   5.812  1.00  0.00     0.060 A 
ATOM     22  C   UNL     1      -2.902   2.885   6.104  1.00  0.00     0.016 A 
ATOM     23  C   UNL     1      -4.628   4.572   6.343  1.00  0.00     0.016 A 
ATOM     24  C   UNL     1      -3.640   2.005   6.891  1.00  0.00     0.010 A 
ATOM     25  C   UNL     1      -5.354   3.698   7.157  1.00  0.00     0.010 A 
ATOM     26  C   UNL     1      -4.883   2.397   7.407  1.00  0.00    -0.014 A 
BRANCH  26  27
ATOM     27  C   UNL     1      -5.721   1.422   8.148  1.00  0.00     0.031 A 
ATOM     28  C   UNL     1      -6.976   0.884   7.517  1.00  0.00     0.074 A 
ATOM     29  C   UNL     1      -5.362   1.025   9.383  1.00  0.00     0.049 A 
ATOM     30  N   UNL     1      -7.877   0.084   8.024  1.00  0.00    -0.248 NA
ATOM     31  C   UNL     1      -7.258   1.308   6.135  1.00  0.00     0.031 C 
ATOM     32  C   UNL     1      -4.169   1.475  10.100  1.00  0.00     0.029 A 
ATOM     33  N   UNL     1      -5.977   0.168  10.260  1.00  0.00    -0.354 N 
ATOM     34  C   UNL     1      -8.855  -0.055   7.046  1.00  0.00     0.074 A 
ATOM     35  C   UNL     1      -8.437   0.742   5.913  1.00  0.00     0.031 C 
ATOM     36  C   UNL     1      -4.144   0.897  11.312  1.00  0.00     0.029 A 
ATOM     37  C   UNL     1      -5.332   0.063  11.469  1.00  0.00     0.049 A 
ATOM     38  H   UNL     1      -6.801  -0.326  10.043  1.00  0.00     0.167 HD
ATOM     39  C   UNL     1      -9.989  -0.794   7.081  1.00  0.00     0.034 A 
ATOM     40  C   UNL     1      -5.669  -0.616  12.583  1.00  0.00     0.034 A 
ATOM     41  C   UNL     1     -10.378  -1.629   8.185  1.00  0.00     0.049 A 
ATOM     42  C   UNL     1      -6.921  -1.452  12.584  1.00  0.00     0.074 A 
ATOM     43  C   UNL     1     -11.493  -2.440   8.300  1.00  0.00     0.029 A 
ATOM     44  N   UNL     1      -9.659  -1.768   9.361  1.00  0.00    -0.354 N 
ATOM     45  N   UNL     1      -7.785  -1.643  11.616  1.00  0.00    -0.248 NA
ATOM     46  C   UNL     1      -7.229  -2.189  13.818  1.00  0.00     0.031 C 
ATOM     47  C   UNL     1     -11.446  -3.074   9.547  1.00  0.00     0.029 A 
ATOM     48  C   UNL     1     -10.300  -2.658  10.206  1.00  0.00     0.049 A 
ATOM     49  H   UNL     1      -8.816  -1.303   9.566  1.00  0.00     0.167 HD
ATOM     50  C   UNL     1      -8.720  -2.543  12.113  1.00  0.00     0.074 A 
ATOM     51  C   UNL     1      -8.305  -2.877  13.460  1.00  0.00     0.031 C 
ATOM     52  C   UNL     1      -9.835  -3.033  11.516  1.00  0.00     0.034 A 
BRANCH  39  53
ATOM     53  C   UNL     1     -10.875  -0.769   5.864  1.00  0.00     0.023 A 
ATOM     54  C   UNL     1     -10.505  -1.512   4.726  1.00  0.00     0.012 A 
ATOM     55  C   UNL     1     -12.091  -0.059   5.863  1.00  0.00     0.148 A 
ATOM     56  C   UNL     1     -11.321  -1.532   3.596  1.00  0.00     0.002 A 
ATOM     57  C   UNL     1     -12.916  -0.111   4.745  1.00  0.00     0.091 A 
ATOM     58  F   UNL     1     -12.412   0.666   6.945  1.00  0.00    -0.205 F 
ATOM     59  C   UNL     1     -12.530  -0.840   3.609  1.00  0.00     0.022 A 
BRANCH  57  60
ATOM     60  S   UNL     1     -14.521   0.695   4.702  1.00  0.00     0.127 S 
ATOM     61  O   UNL     1     -14.228   1.900   3.928  1.00  0.00    -0.237 OA
ATOM     62  O   UNL     1     -15.350  -0.290   4.005  1.00  0.00    -0.237 OA
ATOM     63  O   UNL     1     -14.890   0.912   6.095  1.00  0.00    -0.744 OA
ENDBRANCH  57  60
ENDBRANCH  39  53
BRANCH  40  64
ATOM     64  C   UNL     1      -4.771  -0.578  13.771  1.00  0.00     0.023 A 
ATOM     65  C   UNL     1      -4.032  -1.727  14.113  1.00  0.00     0.012 A 
ATOM     66  C   UNL     1      -4.611   0.594  14.535  1.00  0.00     0.148 A 
ATOM     67  C   UNL     1      -3.166  -1.716  15.206  1.00  0.00     0.002 A 
ATOM     68  C   UNL     1      -3.707   0.614  15.591  1.00  0.00     0.091 A 
ATOM     69  F   UNL     1      -5.341   1.671  14.211  1.00  0.00    -0.205 F 
ATOM     70  C   UNL     1      -2.993  -0.543  15.937  1.00  0.00     0.022 A 
BRANCH  68  71
ATOM     71  S   UNL     1      -3.333   2.124  16.490  1.00  0.00     0.127 S 
ATOM     72  O   UNL     1      -4.135   1.960  17.699  1.00  0.00    -0.237 OA
ATOM     73  O   UNL     1      -1.887   2.016  16.691  1.00  0.00    -0.237 OA
ATOM     74  O   UNL     1      -3.729   3.207  15.599  1.00  0.00    -0.744 OA
ENDBRANCH  68  71
ENDBRANCH  40  64
BRANCH  52  75
ATOM     75  C   UNL     1     -10.674  -4.007  12.298  1.00  0.00     0.023 A 
ATOM     76  C   UNL     1     -11.512  -3.531  13.324  1.00  0.00     0.012 A 
ATOM     77  C   UNL     1     -10.692  -5.375  11.967  1.00  0.00     0.148 A 
ATOM     78  C   UNL     1     -12.339  -4.407  14.026  1.00  0.00     0.002 A 
ATOM     79  C   UNL     1     -11.547  -6.237  12.646  1.00  0.00     0.091 A 
ATOM     80  F   UNL     1      -9.869  -5.816  11.004  1.00  0.00    -0.205 F 
ATOM     81  C   UNL     1     -12.366  -5.756  13.680  1.00  0.00     0.022 A 
BRANCH  79  82
ATOM     82  S   UNL     1     -11.693  -7.970  12.196  1.00  0.00     0.127 S 
ATOM     83  O   UNL     1     -10.789  -8.607  13.150  1.00  0.00    -0.237 OA
ATOM     84  O   UNL     1     -13.113  -8.242  12.427  1.00  0.00    -0.237 OA
ATOM     85  O   UNL     1     -11.293  -8.042  10.796  1.00  0.00    -0.744 OA
ENDBRANCH  79  82
ENDBRANCH  52  75
ENDBRANCH  26  27
ENDBRANCH  19  21
ENDBRANCH  18  19
ENDBRANCH  17  18
ENDBRANCH   1  17
TORSDOF 18
