REMARK SMILES CCOc1ccc(-c2nn(-c3ccccc3)cc2/C=C2/SC(=S)N(CC(=O)OCCOC(=O)c3ccc(-c4c5nc(c(-c6cccc(S(=O)(=O)[O-])c6F)c6ccc([nH]6)c(-c6cccc(S(=O)(=O)[O-])c6F)c6nc(c(-c7cccc(S(=O)(=O)[O-])c7F)c7ccc4[nH]7)C=C6)C=C5)cc3)C2=O)cc1F
REMARK SMILES IDX 29 1 28 2 26 3 27 4 25 5 24 6 19 7 20 8 21 9 97 10 22 11
REMARK SMILES IDX 98 12 23 13 18 14 8 15 9 16 10 17 17 18 7 19 4 20 5 21
REMARK SMILES IDX 100 22 6 23 99 24 101 25 3 26 2 27 1 28 11 29 12 30 16 31
REMARK SMILES IDX 13 32 15 33 14 34 30 35 31 36 32 37 33 38 34 39 35 40 96 41
REMARK SMILES IDX 36 42 95 43 37 44 38 45 39 46 89 47 40 48 94 49 88 50 90 51
REMARK SMILES IDX 41 52 93 53 87 54 86 55 42 57 74 58 54 59 73 60 55 61 58 62
REMARK SMILES IDX 72 63 91 64 56 65 57 66 71 68 92 69 59 70 43 71 44 72 52 73
REMARK SMILES IDX 45 74 47 75 53 76 46 77 48 78 49 79 50 80 51 81 75 82 76 83
REMARK SMILES IDX 84 84 77 85 79 86 85 87 78 88 80 89 81 90 82 91 83 92 60 93
REMARK SMILES IDX 61 94 69 95 62 96 64 97 70 98 63 99 65 100 66 101 67 102
REMARK SMILES IDX 68 103
REMARK H PARENT 90 56 58 67
REMARK Flexibility Score: inf
ROOT
ATOM      1  C   UNL     1      11.869   6.445   5.042  1.00  0.00     0.274 C 
ENDROOT
BRANCH   1   2
ATOM      2  O   UNL     1      10.524   6.237   5.531  1.00  0.00    -0.461 OA
BRANCH   2   3
ATOM      3  C   UNL     1       9.720   7.337   5.528  1.00  0.00     0.326 C 
ATOM      4  O   UNL     1      10.127   8.485   5.367  1.00  0.00    -0.250 OA
BRANCH   3   5
ATOM      5  C   UNL     1       8.235   7.035   5.752  1.00  0.00     0.250 C 
BRANCH   5   6
ATOM      6  N   UNL     1       7.827   5.627   5.811  1.00  0.00    -0.282 N 
ATOM      7  C   UNL     1       7.262   2.618   3.938  1.00  0.00     0.033 C 
ATOM      8  C   UNL     1       7.162   3.580   4.867  1.00  0.00     0.081 C 
ATOM      9  S   UNL     1       7.127   3.255   6.563  1.00  0.00    -0.054 SA
ATOM     10  C   UNL     1       7.244   5.050   4.700  1.00  0.00     0.266 C 
ATOM     11  C   UNL     1       7.795   4.851   6.943  1.00  0.00     0.148 C 
ATOM     12  O   UNL     1       6.638   5.659   3.828  1.00  0.00    -0.268 OA
ATOM     13  S   UNL     1       8.254   5.274   8.489  1.00  0.00    -0.052 S 
BRANCH   7  14
ATOM     14  C   UNL     1       7.729   2.763   2.599  1.00  0.00     0.022 A 
ATOM     15  C   UNL     1       7.043   2.837   1.353  1.00  0.00     0.100 A 
ATOM     16  N   UNL     1       7.942   2.857   0.348  1.00  0.00    -0.167 NA
ATOM     17  N   UNL     1       9.172   2.748   0.928  1.00  0.00    -0.240 N 
ATOM     18  C   UNL     1       9.070   2.662   2.289  1.00  0.00     0.123 A 
BRANCH  15  19
ATOM     19  C   UNL     1       5.586   2.787   1.105  1.00  0.00     0.006 A 
ATOM     20  C   UNL     1       2.788   2.393   0.835  1.00  0.00     0.154 A 
ATOM     21  C   UNL     1       3.280   3.325   1.746  1.00  0.00     0.050 A 
ATOM     22  C   UNL     1       3.688   1.738  -0.003  1.00  0.00     0.165 A 
ATOM     23  C   UNL     1       4.668   3.516   1.882  1.00  0.00     0.014 A 
ATOM     24  C   UNL     1       5.069   1.930   0.124  1.00  0.00     0.053 A 
ATOM     25  F   UNL     1       3.250   0.892  -0.942  1.00  0.00    -0.203 F 
BRANCH  20  26
ATOM     26  O   UNL     1       1.431   2.265   0.707  1.00  0.00    -0.491 OA
BRANCH  26  27
ATOM     27  C   UNL     1       0.899   1.038   1.226  1.00  0.00     0.226 C 
ATOM     28  C   UNL     1       0.849  -0.081   0.199  1.00  0.00     0.049 C 
ENDBRANCH  26  27
ENDBRANCH  20  26
ENDBRANCH  15  19
BRANCH  17  29
ATOM     29  C   UNL     1      10.391   2.918   0.205  1.00  0.00     0.065 A 
ATOM     30  C   UNL     1      10.685   4.186  -0.281  1.00  0.00     0.028 A 
ATOM     31  C   UNL     1      11.209   1.862  -0.180  1.00  0.00     0.028 A 
ATOM     32  C   UNL     1      11.690   4.427  -1.222  1.00  0.00     0.002 A 
ATOM     33  C   UNL     1      12.248   2.099  -1.107  1.00  0.00     0.002 A 
ATOM     34  C   UNL     1      12.467   3.369  -1.652  1.00  0.00     0.000 A 
ENDBRANCH  17  29
ENDBRANCH   7  14
ENDBRANCH   5   6
ENDBRANCH   3   5
ENDBRANCH   2   3
ENDBRANCH   1   2
BRANCH   1  35
ATOM     35  C   UNL     1      12.009   6.064   3.563  1.00  0.00     0.275 C 
BRANCH  35  36
ATOM     36  O   UNL     1      11.225   6.904   2.693  1.00  0.00    -0.458 OA
BRANCH  36  37
ATOM     37  C   UNL     1       9.941   6.483   2.543  1.00  0.00     0.338 C 
ATOM     38  O   UNL     1       9.425   5.617   3.223  1.00  0.00    -0.246 OA
BRANCH  37  39
ATOM     39  C   UNL     1       9.281   7.016   1.327  1.00  0.00     0.060 A 
ATOM     40  C   UNL     1       7.982   6.549   1.060  1.00  0.00     0.016 A 
ATOM     41  C   UNL     1      10.067   7.503   0.293  1.00  0.00     0.016 A 
ATOM     42  C   UNL     1       7.595   6.244  -0.241  1.00  0.00     0.010 A 
ATOM     43  C   UNL     1       9.675   7.198  -1.004  1.00  0.00     0.010 A 
ATOM     44  C   UNL     1       8.513   6.432  -1.264  1.00  0.00    -0.014 A 
BRANCH  44  45
ATOM     45  C   UNL     1       8.243   5.998  -2.645  1.00  0.00     0.031 A 
ATOM     46  C   UNL     1       7.717   7.149  -3.385  1.00  0.00     0.074 A 
ATOM     47  C   UNL     1       8.514   4.829  -3.277  1.00  0.00     0.049 A 
ATOM     48  N   UNL     1       6.460   7.432  -3.503  1.00  0.00    -0.248 NA
ATOM     49  C   UNL     1       8.626   8.255  -3.713  1.00  0.00     0.031 C 
ATOM     50  C   UNL     1       9.046   3.588  -2.749  1.00  0.00     0.029 A 
ATOM     51  N   UNL     1       8.473   4.526  -4.612  1.00  0.00    -0.354 N 
ATOM     52  C   UNL     1       6.480   8.614  -4.215  1.00  0.00     0.074 A 
ATOM     53  C   UNL     1       7.735   9.232  -3.897  1.00  0.00     0.031 C 
ATOM     54  C   UNL     1       9.617   2.834  -3.714  1.00  0.00     0.029 A 
ATOM     55  C   UNL     1       9.272   3.432  -4.979  1.00  0.00     0.049 A 
ATOM     56  H   UNL     1       7.929   5.031  -5.259  1.00  0.00     0.167 HD
ATOM     57  C   UNL     1       5.761   8.722  -5.365  1.00  0.00     0.034 A 
ATOM     58  C   UNL     1       9.552   2.953  -6.218  1.00  0.00     0.034 A 
ATOM     59  C   UNL     1       4.783   7.656  -5.470  1.00  0.00     0.049 A 
ATOM     60  C   UNL     1       8.428   3.386  -7.066  1.00  0.00     0.074 A 
ATOM     61  C   UNL     1       3.772   7.163  -4.668  1.00  0.00     0.029 A 
ATOM     62  N   UNL     1       5.066   6.667  -6.381  1.00  0.00    -0.354 N 
ATOM     63  N   UNL     1       7.216   2.929  -6.928  1.00  0.00    -0.248 NA
ATOM     64  C   UNL     1       8.556   4.655  -7.755  1.00  0.00     0.031 C 
ATOM     65  C   UNL     1       3.750   5.756  -4.897  1.00  0.00     0.029 A 
ATOM     66  C   UNL     1       4.693   5.451  -5.879  1.00  0.00     0.049 A 
ATOM     67  H   UNL     1       5.477   6.812  -7.264  1.00  0.00     0.167 HD
ATOM     68  C   UNL     1       6.431   4.069  -7.023  1.00  0.00     0.074 A 
ATOM     69  C   UNL     1       7.287   5.061  -7.676  1.00  0.00     0.031 C 
ATOM     70  C   UNL     1       5.293   4.192  -6.279  1.00  0.00     0.034 A 
BRANCH  57  71
ATOM     71  C   UNL     1       6.230   9.501  -6.580  1.00  0.00     0.023 A 
ATOM     72  C   UNL     1       5.286   9.679  -7.608  1.00  0.00     0.012 A 
ATOM     73  C   UNL     1       7.566   9.876  -6.880  1.00  0.00     0.148 A 
ATOM     74  C   UNL     1       5.655  10.167  -8.866  1.00  0.00     0.002 A 
ATOM     75  C   UNL     1       7.911  10.451  -8.093  1.00  0.00     0.091 A 
ATOM     76  F   UNL     1       8.572   9.560  -6.067  1.00  0.00    -0.205 F 
ATOM     77  C   UNL     1       6.965  10.569  -9.105  1.00  0.00     0.022 A 
BRANCH  75  78
ATOM     78  S   UNL     1       9.587  11.030  -8.409  1.00  0.00     0.127 S 
ATOM     79  O   UNL     1      10.064  10.036  -9.365  1.00  0.00    -0.237 OA
ATOM     80  O   UNL     1       9.339  12.361  -8.966  1.00  0.00    -0.237 OA
ATOM     81  O   UNL     1      10.257  11.044  -7.114  1.00  0.00    -0.744 OA
ENDBRANCH  75  78
ENDBRANCH  57  71
BRANCH  58  82
ATOM     82  C   UNL     1      10.798   2.382  -6.799  1.00  0.00     0.023 A 
ATOM     83  C   UNL     1      10.747   1.775  -8.074  1.00  0.00     0.012 A 
ATOM     84  C   UNL     1      12.069   2.724  -6.285  1.00  0.00     0.148 A 
ATOM     85  C   UNL     1      11.904   1.588  -8.843  1.00  0.00     0.002 A 
ATOM     86  C   UNL     1      13.218   2.543  -7.058  1.00  0.00     0.091 A 
ATOM     87  F   UNL     1      12.143   3.310  -5.083  1.00  0.00    -0.205 F 
ATOM     88  C   UNL     1      13.137   1.992  -8.344  1.00  0.00     0.022 A 
BRANCH  86  89
ATOM     89  S   UNL     1      14.846   3.081  -6.507  1.00  0.00     0.127 S 
ATOM     90  O   UNL     1      15.669   1.905  -6.790  1.00  0.00    -0.237 OA
ATOM     91  O   UNL     1      15.097   4.226  -7.378  1.00  0.00    -0.237 OA
ATOM     92  O   UNL     1      14.704   3.385  -5.088  1.00  0.00    -0.744 OA
ENDBRANCH  86  89
ENDBRANCH  58  82
BRANCH  70  93
ATOM     93  C   UNL     1       4.721   2.947  -5.635  1.00  0.00     0.023 A 
ATOM     94  C   UNL     1       5.366   2.252  -4.591  1.00  0.00     0.012 A 
ATOM     95  C   UNL     1       3.405   2.586  -5.976  1.00  0.00     0.148 A 
ATOM     96  C   UNL     1       4.710   1.221  -3.907  1.00  0.00     0.002 A 
ATOM     97  C   UNL     1       2.739   1.599  -5.259  1.00  0.00     0.091 A 
ATOM     98  F   UNL     1       2.813   3.248  -6.981  1.00  0.00    -0.205 F 
ATOM     99  C   UNL     1       3.389   0.910  -4.226  1.00  0.00     0.022 A 
BRANCH  97 100
ATOM    100  S   UNL     1       1.004   1.240  -5.549  1.00  0.00     0.127 S 
ATOM    101  O   UNL     1       1.066  -0.068  -6.199  1.00  0.00    -0.237 OA
ATOM    102  O   UNL     1       0.448   1.223  -4.196  1.00  0.00    -0.237 OA
ATOM    103  O   UNL     1       0.502   2.325  -6.384  1.00  0.00    -0.744 OA
ENDBRANCH  97 100
ENDBRANCH  70  93
ENDBRANCH  44  45
ENDBRANCH  37  39
ENDBRANCH  36  37
ENDBRANCH  35  36
ENDBRANCH   1  35
TORSDOF 20
