REMARK SMILES C#CCOc1ccccc1/C=C(\C#N)C(=O)OCCOC(=O)c1ccc(-c2c3nc(c(-c4cccc(S(=O)(=O)[O-])c4F)c4ccc([nH]4)c(-c4cccc(S(=O)(=O)[O-])c4F)c4nc(c(-c5cccc(S(=O)(=O)[O-])c5F)c5ccc2[nH]5)C=C4)C=C3)cc1
REMARK SMILES IDX 18 1 17 2 15 3 16 4 12 5 11 6 10 7 5 8 6 9 7 10 9 11 8 12
REMARK SMILES IDX 4 13 3 14 2 15 1 16 13 17 14 18 19 19 20 20 21 21 22 22
REMARK SMILES IDX 23 23 24 24 85 25 25 26 84 27 26 28 27 29 28 30 78 31 29 32
REMARK SMILES IDX 83 33 77 34 79 35 30 36 82 37 76 38 75 39 31 41 63 42 43 43
REMARK SMILES IDX 62 44 44 45 47 46 61 47 80 48 45 49 46 50 60 52 81 53 48 54
REMARK SMILES IDX 32 55 33 56 41 57 34 58 36 59 42 60 35 61 37 62 38 63 39 64
REMARK SMILES IDX 40 65 64 66 65 67 73 68 66 69 68 70 74 71 67 72 69 73 70 74
REMARK SMILES IDX 71 75 72 76 49 77 50 78 58 79 51 80 53 81 59 82 52 83 54 84
REMARK SMILES IDX 55 85 56 86 57 87
REMARK H PARENT 79 40 47 51
REMARK Flexibility Score: inf
ROOT
ATOM      1  C   UNL     1       4.896   0.283  -0.773  1.00  0.00     0.275 C 
ENDROOT
BRANCH   1   2
ATOM      2  O   UNL     1       3.709  -0.138  -1.476  1.00  0.00    -0.458 OA
BRANCH   2   3
ATOM      3  C   UNL     1       3.093  -1.259  -1.009  1.00  0.00     0.349 C 
ATOM      4  O   UNL     1       3.517  -2.026  -0.161  1.00  0.00    -0.245 OA
BRANCH   3   5
ATOM      5  C   UNL     1       1.729  -1.349  -1.677  1.00  0.00     0.138 C 
ATOM      6  C   UNL     1       0.717  -2.191  -1.169  1.00  0.00     0.039 C 
BRANCH   6   7
ATOM      7  C   UNL     1      -0.648  -2.494  -1.784  1.00  0.00     0.018 A 
ATOM      8  C   UNL     1      -1.898  -2.069  -1.252  1.00  0.00     0.128 A 
ATOM      9  C   UNL     1      -3.112  -2.412  -1.873  1.00  0.00     0.047 A 
ATOM     10  C   UNL     1      -3.129  -3.168  -3.038  1.00  0.00     0.004 A 
ATOM     11  C   UNL     1      -0.720  -3.320  -2.925  1.00  0.00     0.012 A 
ATOM     12  C   UNL     1      -1.931  -3.630  -3.558  1.00  0.00     0.001 A 
BRANCH   8  13
ATOM     13  O   UNL     1      -2.087  -1.446  -0.036  1.00  0.00    -0.480 OA
BRANCH  13  14
ATOM     14  C   UNL     1      -1.743  -0.051  -0.029  1.00  0.00     0.318 C 
BRANCH  14  15
ATOM     15  C   UNL     1      -0.223  -0.051  -0.029  1.00  0.00    -0.065 C 
ATOM     16  C   UNL     1       1.081  -0.051  -0.029  1.00  0.00     0.007 C 
ENDBRANCH  14  15
ENDBRANCH  13  14
ENDBRANCH   8  13
ENDBRANCH   6   7
BRANCH   5  17
ATOM     17  C   UNL     1       2.043  -2.138  -2.938  1.00  0.00     0.107 C 
ATOM     18  N   UNL     1       2.303  -2.793  -3.983  1.00  0.00    -0.192 NA
ENDBRANCH   5  17
ENDBRANCH   3   5
ENDBRANCH   2   3
ENDBRANCH   1   2
BRANCH   1  19
ATOM     19  C   UNL     1       4.808   1.792  -0.515  1.00  0.00     0.275 C 
BRANCH  19  20
ATOM     20  O   UNL     1       3.768   2.055   0.455  1.00  0.00    -0.458 OA
BRANCH  20  21
ATOM     21  C   UNL     1       2.944   3.112   0.217  1.00  0.00     0.338 C 
ATOM     22  O   UNL     1       3.052   3.900  -0.711  1.00  0.00    -0.246 OA
BRANCH  21  23
ATOM     23  C   UNL     1       1.786   3.116   1.166  1.00  0.00     0.060 A 
ATOM     24  C   UNL     1       1.572   2.063   2.040  1.00  0.00     0.016 A 
ATOM     25  C   UNL     1       0.784   4.081   1.059  1.00  0.00     0.016 A 
ATOM     26  C   UNL     1       0.278   1.823   2.528  1.00  0.00     0.010 A 
ATOM     27  C   UNL     1      -0.446   3.922   1.738  1.00  0.00     0.010 A 
ATOM     28  C   UNL     1      -0.788   2.725   2.395  1.00  0.00    -0.014 A 
BRANCH  28  29
ATOM     29  C   UNL     1      -2.220   2.420   2.841  1.00  0.00     0.031 A 
ATOM     30  C   UNL     1      -3.412   3.074   2.134  1.00  0.00     0.074 A 
ATOM     31  C   UNL     1      -2.567   1.525   3.803  1.00  0.00     0.049 A 
ATOM     32  N   UNL     1      -4.617   3.328   2.586  1.00  0.00    -0.248 NA
ATOM     33  C   UNL     1      -3.219   3.499   0.737  1.00  0.00     0.031 C 
ATOM     34  C   UNL     1      -1.680   0.627   4.539  1.00  0.00     0.029 A 
ATOM     35  N   UNL     1      -3.813   1.223   4.335  1.00  0.00    -0.354 N 
ATOM     36  C   UNL     1      -5.252   4.090   1.606  1.00  0.00     0.074 A 
ATOM     37  C   UNL     1      -4.319   4.203   0.505  1.00  0.00     0.031 C 
ATOM     38  C   UNL     1      -2.393  -0.170   5.341  1.00  0.00     0.029 A 
ATOM     39  C   UNL     1      -3.761   0.310   5.368  1.00  0.00     0.049 A 
ATOM     40  H   UNL     1      -4.651   1.621   4.006  1.00  0.00     0.167 HD
ATOM     41  C   UNL     1      -6.489   4.652   1.621  1.00  0.00     0.034 A 
ATOM     42  C   UNL     1      -4.637  -0.032   6.336  1.00  0.00     0.034 A 
ATOM     43  C   UNL     1      -7.495   4.378   2.618  1.00  0.00     0.049 A 
ATOM     44  C   UNL     1      -5.971   0.642   6.407  1.00  0.00     0.074 A 
ATOM     45  C   UNL     1      -8.792   4.863   2.690  1.00  0.00     0.029 A 
ATOM     46  N   UNL     1      -7.340   3.512   3.687  1.00  0.00    -0.354 N 
ATOM     47  N   UNL     1      -6.505   1.496   5.574  1.00  0.00    -0.248 NA
ATOM     48  C   UNL     1      -6.815   0.316   7.565  1.00  0.00     0.031 C 
ATOM     49  C   UNL     1      -9.412   4.307   3.816  1.00  0.00     0.029 A 
ATOM     50  C   UNL     1      -8.511   3.452   4.427  1.00  0.00     0.049 A 
ATOM     51  H   UNL     1      -6.518   3.011   3.892  1.00  0.00     0.167 HD
ATOM     52  C   UNL     1      -7.759   1.794   6.092  1.00  0.00     0.074 A 
ATOM     53  C   UNL     1      -7.911   1.014   7.303  1.00  0.00     0.031 C 
ATOM     54  C   UNL     1      -8.690   2.651   5.608  1.00  0.00     0.034 A 
BRANCH  41  55
ATOM     55  C   UNL     1      -6.838   5.654   0.543  1.00  0.00     0.023 A 
ATOM     56  C   UNL     1      -7.098   5.250  -0.779  1.00  0.00     0.012 A 
ATOM     57  C   UNL     1      -6.981   7.019   0.883  1.00  0.00     0.148 A 
ATOM     58  C   UNL     1      -7.451   6.189  -1.753  1.00  0.00     0.002 A 
ATOM     59  C   UNL     1      -7.384   7.939  -0.079  1.00  0.00     0.091 A 
ATOM     60  F   UNL     1      -6.717   7.396   2.143  1.00  0.00    -0.205 F 
ATOM     61  C   UNL     1      -7.605   7.528  -1.401  1.00  0.00     0.022 A 
BRANCH  59  62
ATOM     62  S   UNL     1      -7.704   9.663   0.318  1.00  0.00     0.127 S 
ATOM     63  O   UNL     1      -6.497  10.312  -0.189  1.00  0.00    -0.237 OA
ATOM     64  O   UNL     1      -8.915   9.943  -0.456  1.00  0.00    -0.237 OA
ATOM     65  O   UNL     1      -7.889   9.710   1.762  1.00  0.00    -0.744 OA
ENDBRANCH  59  62
ENDBRANCH  41  55
BRANCH  42  66
ATOM     66  C   UNL     1      -4.222  -1.014   7.384  1.00  0.00     0.023 A 
ATOM     67  C   UNL     1      -4.825  -2.284   7.428  1.00  0.00     0.012 A 
ATOM     68  C   UNL     1      -3.170  -0.721   8.279  1.00  0.00     0.148 A 
ATOM     69  C   UNL     1      -4.379  -3.247   8.335  1.00  0.00     0.002 A 
ATOM     70  C   UNL     1      -2.677  -1.711   9.119  1.00  0.00     0.091 A 
ATOM     71  F   UNL     1      -2.635   0.508   8.250  1.00  0.00    -0.205 F 
ATOM     72  C   UNL     1      -3.291  -2.970   9.161  1.00  0.00     0.022 A 
BRANCH  70  73
ATOM     73  S   UNL     1      -1.164  -1.497  10.065  1.00  0.00     0.127 S 
ATOM     74  O   UNL     1      -1.669  -1.458  11.434  1.00  0.00    -0.237 OA
ATOM     75  O   UNL     1      -0.418  -2.707   9.715  1.00  0.00    -0.237 OA
ATOM     76  O   UNL     1      -0.564  -0.263   9.575  1.00  0.00    -0.744 OA
ENDBRANCH  70  73
ENDBRANCH  42  66
BRANCH  54  77
ATOM     77  C   UNL     1      -9.991   2.755   6.358  1.00  0.00     0.023 A 
ATOM     78  C   UNL     1     -10.038   3.426   7.596  1.00  0.00     0.012 A 
ATOM     79  C   UNL     1     -11.174   2.211   5.821  1.00  0.00     0.148 A 
ATOM     80  C   UNL     1     -11.235   3.520   8.306  1.00  0.00     0.002 A 
ATOM     81  C   UNL     1     -12.372   2.349   6.511  1.00  0.00     0.091 A 
ATOM     82  F   UNL     1     -11.103   1.557   4.652  1.00  0.00    -0.205 F 
ATOM     83  C   UNL     1     -12.402   2.991   7.760  1.00  0.00     0.022 A 
BRANCH  81  84
ATOM     84  S   UNL     1     -13.938   1.772   5.848  1.00  0.00     0.127 S 
ATOM     85  O   UNL     1     -14.220   0.622   6.705  1.00  0.00    -0.237 OA
ATOM     86  O   UNL     1     -14.811   2.926   6.068  1.00  0.00    -0.237 OA
ATOM     87  O   UNL     1     -13.690   1.461   4.446  1.00  0.00    -0.744 OA
ENDBRANCH  81  84
ENDBRANCH  54  77
ENDBRANCH  28  29
ENDBRANCH  21  23
ENDBRANCH  20  21
ENDBRANCH  19  20
ENDBRANCH   1  19
TORSDOF 19
