REMARK SMILES Cc1ccc(C(=O)OCCOC(=O)c2ccc(-c3c4nc(c(-c5cccc(S(=O)(=O)[O-])c5F)c5ccc([nH]5)c(-c5cccc(S(=O)(=O)[O-])c5F)c5nc(c(-c6cccc(S(=O)(=O)[O-])c6F)c6ccc3[nH]6)C=C5)C=C4)cc2)cc1N[C@@H]1CC(=O)N(c2ccccc2C)C1=O
REMARK SMILES IDX 9 1 8 2 6 3 7 4 5 5 1 6 2 7 3 8 78 9 4 10 77 11 79 12 80 14
REMARK SMILES IDX 81 15 92 16 82 17 84 18 93 19 83 20 85 21 86 22 90 23 87 24
REMARK SMILES IDX 89 25 91 26 88 27 10 28 11 29 12 30 13 31 14 32 15 33 76 34
REMARK SMILES IDX 16 35 75 36 17 37 18 38 19 39 69 40 20 41 74 42 68 43 70 44
REMARK SMILES IDX 21 45 73 46 67 47 66 48 22 50 54 51 34 52 53 53 35 54 38 55
REMARK SMILES IDX 52 56 71 57 36 58 37 59 51 61 72 62 39 63 23 64 24 65 32 66
REMARK SMILES IDX 25 67 27 68 33 69 26 70 28 71 29 72 30 73 31 74 55 75 56 76
REMARK SMILES IDX 64 77 57 78 59 79 65 80 58 81 60 82 61 83 62 84 63 85 40 86
REMARK SMILES IDX 41 87 49 88 42 89 44 90 50 91 43 92 45 93 46 94 47 95 48 96
REMARK H PARENT 79 13 70 49 38 60
REMARK Flexibility Score: inf
ROOT
ATOM      1  C   UNL     1      -4.818   1.932  -2.054  1.00  0.00     0.275 C 
ENDROOT
BRANCH   1   2
ATOM      2  O   UNL     1      -3.497   1.579  -1.641  1.00  0.00    -0.458 OA
BRANCH   2   3
ATOM      3  C   UNL     1      -2.669   0.947  -2.493  1.00  0.00     0.338 C 
ATOM      4  O   UNL     1      -2.927   0.574  -3.626  1.00  0.00    -0.246 OA
BRANCH   3   5
ATOM      5  C   UNL     1      -1.366   0.773  -1.821  1.00  0.00     0.062 A 
ATOM      6  C   UNL     1       2.542   0.310  -0.097  1.00  0.00     0.046 C 
ATOM      7  C   UNL     1       1.175   0.562  -0.685  1.00  0.00    -0.028 A 
ATOM      8  C   UNL     1       0.524  -0.566  -1.234  1.00  0.00     0.006 A 
ATOM      9  C   UNL     1       0.522   1.818  -0.651  1.00  0.00     0.038 A 
ATOM     10  C   UNL     1      -0.724  -0.455  -1.839  1.00  0.00     0.016 A 
ATOM     11  C   UNL     1      -0.764   1.877  -1.202  1.00  0.00     0.041 A 
BRANCH   9  12
ATOM     12  N   UNL     1       1.158   2.942  -0.149  1.00  0.00    -0.373 N 
ATOM     13  H   UNL     1       2.118   2.836   0.039  1.00  0.00     0.161 HD
BRANCH  12  14
ATOM     14  C   UNL     1       0.600   4.269   0.143  1.00  0.00     0.179 C 
ATOM     15  C   UNL     1      -0.332   4.252   1.338  1.00  0.00     0.136 C 
ATOM     16  C   UNL     1      -0.179   4.944  -0.978  1.00  0.00     0.256 C 
ATOM     17  C   UNL     1      -1.581   4.890   0.819  1.00  0.00     0.236 C 
ATOM     18  N   UNL     1      -1.370   5.376  -0.445  1.00  0.00    -0.248 N 
ATOM     19  O   UNL     1       0.217   5.082  -2.130  1.00  0.00    -0.272 OA
ATOM     20  O   UNL     1      -2.648   4.868   1.416  1.00  0.00    -0.274 OA
BRANCH  18  21
ATOM     21  C   UNL     1      -2.388   6.053  -1.154  1.00  0.00     0.055 A 
ATOM     22  C   UNL     1      -2.819   5.555  -2.394  1.00  0.00     0.027 A 
ATOM     23  C   UNL     1      -3.015   7.193  -0.605  1.00  0.00    -0.027 A 
ATOM     24  C   UNL     1      -3.893   6.148  -3.061  1.00  0.00     0.002 A 
ATOM     25  C   UNL     1      -4.089   7.779  -1.294  1.00  0.00     0.005 A 
ATOM     26  C   UNL     1      -2.571   7.825   0.693  1.00  0.00     0.046 C 
ATOM     27  C   UNL     1      -4.527   7.258  -2.511  1.00  0.00     0.000 A 
ENDBRANCH  18  21
ENDBRANCH  12  14
ENDBRANCH   9  12
ENDBRANCH   3   5
ENDBRANCH   2   3
ENDBRANCH   1   2
BRANCH   1  28
ATOM     28  C   UNL     1      -5.697   0.934  -2.844  1.00  0.00     0.275 C 
BRANCH  28  29
ATOM     29  O   UNL     1      -5.477  -0.509  -2.917  1.00  0.00    -0.458 OA
BRANCH  29  30
ATOM     30  C   UNL     1      -4.999  -1.422  -2.042  1.00  0.00     0.338 C 
ATOM     31  O   UNL     1      -4.809  -2.593  -2.340  1.00  0.00    -0.246 OA
BRANCH  30  32
ATOM     32  C   UNL     1      -4.724  -0.947  -0.694  1.00  0.00     0.060 A 
ATOM     33  C   UNL     1      -3.513  -1.270  -0.057  1.00  0.00     0.016 A 
ATOM     34  C   UNL     1      -5.673  -0.121  -0.109  1.00  0.00     0.016 A 
ATOM     35  C   UNL     1      -3.232  -0.726   1.185  1.00  0.00     0.010 A 
ATOM     36  C   UNL     1      -5.322   0.564   1.016  1.00  0.00     0.010 A 
ATOM     37  C   UNL     1      -4.176   0.145   1.717  1.00  0.00    -0.014 A 
BRANCH  37  38
ATOM     38  C   UNL     1      -4.383   0.285   3.147  1.00  0.00     0.031 A 
ATOM     39  C   UNL     1      -3.777   1.392   3.880  1.00  0.00     0.074 A 
ATOM     40  C   UNL     1      -5.464  -0.448   3.502  1.00  0.00     0.049 A 
ATOM     41  N   UNL     1      -3.718   1.490   5.158  1.00  0.00    -0.248 NA
ATOM     42  C   UNL     1      -3.136   2.502   3.191  1.00  0.00     0.031 C 
ATOM     43  C   UNL     1      -6.471  -0.252   4.521  1.00  0.00     0.029 A 
ATOM     44  N   UNL     1      -5.861  -1.651   2.887  1.00  0.00    -0.354 N 
ATOM     45  C   UNL     1      -3.445   2.822   5.422  1.00  0.00     0.074 A 
ATOM     46  C   UNL     1      -2.898   3.346   4.200  1.00  0.00     0.031 C 
ATOM     47  C   UNL     1      -7.144  -1.414   4.672  1.00  0.00     0.029 A 
ATOM     48  C   UNL     1      -6.444  -2.426   3.879  1.00  0.00     0.049 A 
ATOM     49  H   UNL     1      -5.746  -1.894   1.940  1.00  0.00     0.167 HD
ATOM     50  C   UNL     1      -3.987   3.387   6.539  1.00  0.00     0.034 A 
ATOM     51  C   UNL     1      -5.764  -3.517   4.353  1.00  0.00     0.034 A 
ATOM     52  C   UNL     1      -4.780   2.366   7.252  1.00  0.00     0.049 A 
ATOM     53  C   UNL     1      -5.353  -3.276   5.793  1.00  0.00     0.074 A 
ATOM     54  C   UNL     1      -6.137   2.086   7.234  1.00  0.00     0.029 A 
ATOM     55  N   UNL     1      -4.155   1.239   7.776  1.00  0.00    -0.354 N 
ATOM     56  N   UNL     1      -5.263  -2.092   6.334  1.00  0.00    -0.248 NA
ATOM     57  C   UNL     1      -5.037  -4.342   6.734  1.00  0.00     0.031 C 
ATOM     58  C   UNL     1      -6.311   0.737   7.652  1.00  0.00     0.029 A 
ATOM     59  C   UNL     1      -5.065   0.199   7.928  1.00  0.00     0.049 A 
ATOM     60  H   UNL     1      -3.200   1.185   8.008  1.00  0.00     0.167 HD
ATOM     61  C   UNL     1      -4.864  -2.197   7.632  1.00  0.00     0.074 A 
ATOM     62  C   UNL     1      -4.766  -3.634   7.845  1.00  0.00     0.031 C 
ATOM     63  C   UNL     1      -4.614  -1.102   8.412  1.00  0.00     0.034 A 
BRANCH  50  64
ATOM     64  C   UNL     1      -4.166   4.883   6.797  1.00  0.00     0.023 A 
ATOM     65  C   UNL     1      -5.157   5.239   7.744  1.00  0.00     0.012 A 
ATOM     66  C   UNL     1      -3.488   5.968   6.186  1.00  0.00     0.148 A 
ATOM     67  C   UNL     1      -5.528   6.562   8.003  1.00  0.00     0.002 A 
ATOM     68  C   UNL     1      -3.882   7.297   6.417  1.00  0.00     0.091 A 
ATOM     69  F   UNL     1      -2.408   5.741   5.433  1.00  0.00    -0.205 F 
ATOM     70  C   UNL     1      -4.908   7.593   7.319  1.00  0.00     0.022 A 
BRANCH  68  71
ATOM     71  S   UNL     1      -3.142   8.711   5.571  1.00  0.00     0.127 S 
ATOM     72  O   UNL     1      -4.316   9.396   5.024  1.00  0.00    -0.237 OA
ATOM     73  O   UNL     1      -2.486   9.423   6.667  1.00  0.00    -0.237 OA
ATOM     74  O   UNL     1      -2.244   8.167   4.559  1.00  0.00    -0.744 OA
ENDBRANCH  68  71
ENDBRANCH  50  64
BRANCH  51  75
ATOM     75  C   UNL     1      -4.899  -4.208   3.321  1.00  0.00     0.023 A 
ATOM     76  C   UNL     1      -5.522  -4.623   2.112  1.00  0.00     0.012 A 
ATOM     77  C   UNL     1      -3.492  -4.140   3.341  1.00  0.00     0.148 A 
ATOM     78  C   UNL     1      -4.784  -4.828   0.940  1.00  0.00     0.002 A 
ATOM     79  C   UNL     1      -2.761  -4.358   2.166  1.00  0.00     0.091 A 
ATOM     80  F   UNL     1      -2.872  -3.805   4.480  1.00  0.00    -0.205 F 
ATOM     81  C   UNL     1      -3.405  -4.673   0.961  1.00  0.00     0.022 A 
BRANCH  79  82
ATOM     82  S   UNL     1      -0.980  -4.093   2.147  1.00  0.00     0.127 S 
ATOM     83  O   UNL     1      -0.659  -4.054   0.718  1.00  0.00    -0.237 OA
ATOM     84  O   UNL     1      -0.818  -2.811   2.819  1.00  0.00    -0.237 OA
ATOM     85  O   UNL     1      -0.488  -5.273   2.849  1.00  0.00    -0.744 OA
ENDBRANCH  79  82
ENDBRANCH  51  75
BRANCH  63  86
ATOM     86  C   UNL     1      -3.899  -1.162   9.736  1.00  0.00     0.023 A 
ATOM     87  C   UNL     1      -2.974  -2.179  10.031  1.00  0.00     0.012 A 
ATOM     88  C   UNL     1      -3.992  -0.083  10.649  1.00  0.00     0.148 A 
ATOM     89  C   UNL     1      -2.232  -2.171  11.213  1.00  0.00     0.002 A 
ATOM     90  C   UNL     1      -3.151  -0.011  11.750  1.00  0.00     0.091 A 
ATOM     91  F   UNL     1      -4.904   0.882  10.459  1.00  0.00    -0.205 F 
ATOM     92  C   UNL     1      -2.300  -1.073  12.060  1.00  0.00     0.022 A 
BRANCH  90  93
ATOM     93  S   UNL     1      -3.003   1.516  12.685  1.00  0.00     0.127 S 
ATOM     94  O   UNL     1      -3.974   1.311  13.757  1.00  0.00    -0.237 OA
ATOM     95  O   UNL     1      -1.604   1.488  13.115  1.00  0.00    -0.237 OA
ATOM     96  O   UNL     1      -3.309   2.575  11.731  1.00  0.00    -0.744 OA
ENDBRANCH  90  93
ENDBRANCH  63  86
ENDBRANCH  37  38
ENDBRANCH  30  32
ENDBRANCH  29  30
ENDBRANCH  28  29
ENDBRANCH   1  28
TORSDOF 17
