REMARK SMILES O=C(OCCOC(=O)C1CCN(C2=[NH+]C(Cl)=[NH+]C3=[NH+]C=N[C@@H]32)CC1)c1ccc(-c2c3nc(c(-c4cccc(S(=O)(=O)[O-])c4F)c4ccc([nH]4)c(-c4cccc(S(=O)(=O)[O-])c4F)c4nc(c(-c5cccc(S(=O)(=O)[O-])c5F)c5ccc2[nH]5)C=C4)C=C3)cc1
REMARK SMILES IDX 3 1 2 2 1 3 25 4 26 5 87 6 27 7 86 8 28 9 29 10 30 11 80 12
REMARK SMILES IDX 31 13 85 14 79 15 81 16 32 17 84 18 78 19 77 20 33 22 65 23
REMARK SMILES IDX 45 24 64 25 46 26 49 27 63 28 82 29 47 30 48 31 62 33 83 34
REMARK SMILES IDX 50 35 34 36 35 37 43 38 36 39 38 40 44 41 37 42 39 43 40 44
REMARK SMILES IDX 41 45 42 46 66 47 67 48 75 49 68 50 70 51 76 52 69 53 71 54
REMARK SMILES IDX 72 55 73 56 74 57 51 58 52 59 60 60 53 61 55 62 61 63 54 64
REMARK SMILES IDX 56 65 57 66 58 67 59 68 4 69 5 70 6 71 7 72 8 73 9 74 10 75
REMARK SMILES IDX 24 76 11 77 23 78 12 79 13 80 14 81 22 82 15 83 18 85 21 86
REMARK SMILES IDX 16 87 17 88 19 89 20 90
REMARK H PARENT 81 21 49 32 14 84 17 91 19 92
REMARK Flexibility Score: inf
ROOT
ATOM      1  O   UNL     1       4.078  -0.777   1.335  1.00  0.00    -0.458 OA
ENDROOT
BRANCH   1   2
ATOM      2  C   UNL     1       2.897  -0.168   1.109  1.00  0.00     0.338 C 
ATOM      3  O   UNL     1       1.944  -0.682   0.551  1.00  0.00    -0.246 OA
BRANCH   2   4
ATOM      4  C   UNL     1       2.884   1.197   1.689  1.00  0.00     0.060 A 
ATOM      5  C   UNL     1       4.037   1.991   1.770  1.00  0.00     0.016 A 
ATOM      6  C   UNL     1       1.644   1.740   2.017  1.00  0.00     0.016 A 
ATOM      7  C   UNL     1       3.951   3.329   2.164  1.00  0.00     0.010 A 
ATOM      8  C   UNL     1       1.554   3.092   2.326  1.00  0.00     0.010 A 
ATOM      9  C   UNL     1       2.703   3.899   2.422  1.00  0.00    -0.014 A 
BRANCH   9  10
ATOM     10  C   UNL     1       2.562   5.331   2.770  1.00  0.00     0.031 A 
ATOM     11  C   UNL     1       2.962   6.424   1.781  1.00  0.00     0.074 A 
ATOM     12  C   UNL     1       1.847   5.659   3.874  1.00  0.00     0.049 A 
ATOM     13  N   UNL     1       2.834   7.716   1.925  1.00  0.00    -0.248 NA
ATOM     14  C   UNL     1       3.535   6.069   0.470  1.00  0.00     0.031 C 
ATOM     15  C   UNL     1       1.148   4.764   4.811  1.00  0.00     0.029 A 
ATOM     16  N   UNL     1       1.433   6.895   4.275  1.00  0.00    -0.354 N 
ATOM     17  C   UNL     1       3.219   8.331   0.727  1.00  0.00     0.074 A 
ATOM     18  C   UNL     1       3.664   7.254  -0.134  1.00  0.00     0.031 C 
ATOM     19  C   UNL     1       0.181   5.458   5.449  1.00  0.00     0.029 A 
ATOM     20  C   UNL     1       0.324   6.860   5.114  1.00  0.00     0.049 A 
ATOM     21  H   UNL     1       1.876   7.730   3.998  1.00  0.00     0.167 HD
ATOM     22  C   UNL     1       3.835   9.546   0.636  1.00  0.00     0.034 A 
ATOM     23  C   UNL     1      -0.443   7.910   5.479  1.00  0.00     0.034 A 
ATOM     24  C   UNL     1       4.624   9.823   1.797  1.00  0.00     0.049 A 
ATOM     25  C   UNL     1       0.373   9.127   5.288  1.00  0.00     0.074 A 
ATOM     26  C   UNL     1       5.830   9.385   2.292  1.00  0.00     0.029 A 
ATOM     27  N   UNL     1       4.028  10.547   2.796  1.00  0.00    -0.354 N 
ATOM     28  N   UNL     1       1.427   9.416   6.000  1.00  0.00    -0.248 NA
ATOM     29  C   UNL     1       0.172   9.942   4.102  1.00  0.00     0.031 C 
ATOM     30  C   UNL     1       5.724   9.529   3.704  1.00  0.00     0.029 A 
ATOM     31  C   UNL     1       4.455  10.040   3.988  1.00  0.00     0.049 A 
ATOM     32  H   UNL     1       3.403  11.298   2.675  1.00  0.00     0.167 HD
ATOM     33  C   UNL     1       2.247  10.102   5.120  1.00  0.00     0.074 A 
ATOM     34  C   UNL     1       1.348  10.572   4.070  1.00  0.00     0.031 C 
ATOM     35  C   UNL     1       3.605   9.941   5.158  1.00  0.00     0.034 A 
BRANCH  22  36
ATOM     36  C   UNL     1       3.217  10.686  -0.156  1.00  0.00     0.023 A 
ATOM     37  C   UNL     1       3.819  11.965  -0.025  1.00  0.00     0.012 A 
ATOM     38  C   UNL     1       2.000  10.611  -0.862  1.00  0.00     0.148 A 
ATOM     39  C   UNL     1       3.187  13.132  -0.457  1.00  0.00     0.002 A 
ATOM     40  C   UNL     1       1.373  11.784  -1.298  1.00  0.00     0.091 A 
ATOM     41  F   UNL     1       1.453   9.408  -1.075  1.00  0.00    -0.205 F 
ATOM     42  C   UNL     1       1.951  13.042  -1.073  1.00  0.00     0.022 A 
BRANCH  40  43
ATOM     43  S   UNL     1      -0.211  11.793  -2.146  1.00  0.00     0.127 S 
ATOM     44  O   UNL     1      -1.099  12.291  -1.099  1.00  0.00    -0.237 OA
ATOM     45  O   UNL     1       0.036  12.736  -3.239  1.00  0.00    -0.237 OA
ATOM     46  O   UNL     1      -0.414  10.421  -2.580  1.00  0.00    -0.744 OA
ENDBRANCH  40  43
ENDBRANCH  22  36
BRANCH  23  47
ATOM     47  C   UNL     1      -1.844   7.999   5.935  1.00  0.00     0.023 A 
ATOM     48  C   UNL     1      -2.210   9.067   6.778  1.00  0.00     0.012 A 
ATOM     49  C   UNL     1      -2.866   7.226   5.342  1.00  0.00     0.148 A 
ATOM     50  C   UNL     1      -3.550   9.397   6.984  1.00  0.00     0.002 A 
ATOM     51  C   UNL     1      -4.203   7.560   5.552  1.00  0.00     0.091 A 
ATOM     52  F   UNL     1      -2.524   6.226   4.519  1.00  0.00    -0.205 F 
ATOM     53  C   UNL     1      -4.546   8.654   6.360  1.00  0.00     0.022 A 
BRANCH  51  54
ATOM     54  S   UNL     1      -5.564   6.668   4.783  1.00  0.00     0.127 S 
ATOM     55  O   UNL     1      -6.461   6.445   5.918  1.00  0.00    -0.237 OA
ATOM     56  O   UNL     1      -6.051   7.639   3.806  1.00  0.00    -0.237 OA
ATOM     57  O   UNL     1      -4.983   5.451   4.233  1.00  0.00    -0.744 OA
ENDBRANCH  51  54
ENDBRANCH  23  47
BRANCH  35  58
ATOM     58  C   UNL     1       4.229   9.272   6.362  1.00  0.00     0.023 A 
ATOM     59  C   UNL     1       3.874   7.964   6.750  1.00  0.00     0.012 A 
ATOM     60  C   UNL     1       5.345   9.871   6.973  1.00  0.00     0.148 A 
ATOM     61  C   UNL     1       4.589   7.279   7.734  1.00  0.00     0.002 A 
ATOM     62  C   UNL     1       6.094   9.162   7.908  1.00  0.00     0.091 A 
ATOM     63  F   UNL     1       5.691  11.113   6.600  1.00  0.00    -0.205 F 
ATOM     64  C   UNL     1       5.711   7.872   8.302  1.00  0.00     0.022 A 
BRANCH  62  65
ATOM     65  S   UNL     1       7.649   9.816   8.523  1.00  0.00     0.127 S 
ATOM     66  O   UNL     1       7.236  10.509   9.739  1.00  0.00    -0.237 OA
ATOM     67  O   UNL     1       8.444   8.607   8.749  1.00  0.00    -0.237 OA
ATOM     68  O   UNL     1       8.160  10.658   7.447  1.00  0.00    -0.744 OA
ENDBRANCH  62  65
ENDBRANCH  35  58
ENDBRANCH   9  10
ENDBRANCH   2   4
ENDBRANCH   1   2
BRANCH   1  69
ATOM     69  C   UNL     1       5.003  -0.874   0.239  1.00  0.00     0.275 C 
BRANCH  69  70
ATOM     70  C   UNL     1       4.449  -0.941  -1.187  1.00  0.00     0.274 C 
BRANCH  70  71
ATOM     71  O   UNL     1       3.742   0.253  -1.600  1.00  0.00    -0.462 OA
BRANCH  71  72
ATOM     72  C   UNL     1       2.757  -0.004  -2.512  1.00  0.00     0.309 C 
ATOM     73  O   UNL     1       2.459  -1.133  -2.897  1.00  0.00    -0.252 OA
BRANCH  72  74
ATOM     74  C   UNL     1       2.051   1.220  -3.076  1.00  0.00     0.108 C 
ATOM     75  C   UNL     1       2.918   2.459  -3.337  1.00  0.00     0.070 C 
ATOM     76  C   UNL     1       0.737   1.514  -2.354  1.00  0.00     0.070 C 
ATOM     77  C   UNL     1       2.895   3.519  -2.238  1.00  0.00     0.277 C 
ATOM     78  C   UNL     1       0.904   2.514  -1.225  1.00  0.00     0.277 C 
ATOM     79  N   UNL     1       1.549   3.718  -1.727  1.00  0.00    -0.230 N 
ATOM     80  C   UNL     1       1.002   4.968  -1.436  1.00  0.00     0.383 C 
ATOM     81  N   UNL     1       0.349   5.152  -0.319  1.00  0.00    -0.155 N 
ATOM     82  C   UNL     1       1.130   6.131  -2.408  1.00  0.00     0.523 C 
ATOM     83  C   UNL     1      -0.243   6.376  -0.084  1.00  0.00     0.414 C 
ATOM     84  H   UNL     1       0.281   4.428   0.344  1.00  0.00     0.367 HD
ATOM     85  C   UNL     1      -0.111   6.921  -2.215  1.00  0.00     0.389 C 
ATOM     86  N   UNL     1       1.009   5.732  -3.836  1.00  0.00     0.003 NA
ATOM     87  Cl  UNL     1      -0.707   6.685   1.528  1.00  0.00     0.028 Cl
ATOM     88  N   UNL     1      -0.514   7.263  -0.976  1.00  0.00    -0.155 N 
ATOM     89  N   UNL     1      -0.801   7.044  -3.291  1.00  0.00    -0.169 N 
ATOM     90  C   UNL     1      -0.067   6.364  -4.218  1.00  0.00     0.532 C 
ATOM     91  H   UNL     1      -0.972   8.111  -0.773  1.00  0.00     0.367 HD
ATOM     92  H   UNL     1      -1.656   7.516  -3.416  1.00  0.00     0.365 HD
ENDBRANCH  72  74
ENDBRANCH  71  72
ENDBRANCH  70  71
ENDBRANCH  69  70
ENDBRANCH   1  69
TORSDOF 14
