REMARK SMILES CC(C)c1ccc(NC(=O)C[C@H]2SC[C@@H](C(=O)OCCOC(=O)c3ccc(-c4c5nc(c(-c6cccc(S(=O)(=O)[O-])c6F)c6ccc([nH]6)c(-c6cccc(S(=O)(=O)[O-])c6F)c6nc(c(-c7cccc(S(=O)(=O)[O-])c7F)c7ccc4[nH]7)C=C6)C=C5)cc3)NC2=O)cc1
REMARK SMILES IDX 19 1 18 2 16 3 17 4 15 5 12 6 13 7 88 8 14 9 87 10 89 11
REMARK SMILES IDX 11 13 9 14 8 15 10 17 7 18 4 19 5 20 91 21 6 22 90 23 2 24
REMARK SMILES IDX 1 25 3 26 20 27 21 28 22 29 23 30 24 31 25 32 86 33 26 34
REMARK SMILES IDX 85 35 27 36 28 37 29 38 79 39 30 40 84 41 78 42 80 43 31 44
REMARK SMILES IDX 83 45 77 46 76 47 32 49 64 50 44 51 63 52 45 53 48 54 62 55
REMARK SMILES IDX 81 56 46 57 47 58 61 60 82 61 49 62 33 63 34 64 42 65 35 66
REMARK SMILES IDX 37 67 43 68 36 69 38 70 39 71 40 72 41 73 65 74 66 75 74 76
REMARK SMILES IDX 67 77 69 78 75 79 68 80 70 81 71 82 72 83 73 84 50 85 51 86
REMARK SMILES IDX 59 87 52 88 54 89 60 90 53 91 55 92 56 93 57 94 58 95
REMARK H PARENT 87 12 8 16 80 48 48 59
REMARK Flexibility Score: inf
ROOT
ATOM      1  C   UNL     1       1.093   2.090   1.470  1.00  0.00     0.274 C 
ENDROOT
BRANCH   1   2
ATOM      2  O   UNL     1       0.509   2.127   0.152  1.00  0.00    -0.461 OA
BRANCH   2   3
ATOM      3  C   UNL     1      -0.844   1.944   0.129  1.00  0.00     0.329 C 
ATOM      4  O   UNL     1      -1.555   1.938   1.113  1.00  0.00    -0.250 OA
BRANCH   3   5
ATOM      5  C   UNL     1      -1.333   1.602  -1.279  1.00  0.00     0.202 C 
ATOM      6  C   UNL     1      -4.258   1.241  -0.598  1.00  0.00     0.145 C 
ATOM      7  S   UNL     1      -3.972   2.637  -1.774  1.00  0.00    -0.145 SA
ATOM      8  C   UNL     1      -3.243   0.106  -0.699  1.00  0.00     0.234 C 
ATOM      9  C   UNL     1      -2.154   2.708  -1.915  1.00  0.00     0.107 C 
ATOM     10  N   UNL     1      -1.998   0.318  -1.204  1.00  0.00    -0.341 N 
ATOM     11  O   UNL     1      -3.501  -1.054  -0.375  1.00  0.00    -0.274 OA
ATOM     12  H   UNL     1      -1.509  -0.466  -1.547  1.00  0.00     0.164 HD
BRANCH   6  13
ATOM     13  C   UNL     1      -4.639   1.770   0.786  1.00  0.00     0.124 C 
BRANCH  13  14
ATOM     14  C   UNL     1      -4.713   0.820   1.971  1.00  0.00     0.226 C 
ATOM     15  N   UNL     1      -5.588  -0.224   2.041  1.00  0.00    -0.326 N 
ATOM     16  H   UNL     1      -5.697  -0.639   2.927  1.00  0.00     0.169 HD
ATOM     17  O   UNL     1      -3.972   0.999   2.945  1.00  0.00    -0.275 OA
BRANCH  15  18
ATOM     18  C   UNL     1      -6.349  -0.775   1.008  1.00  0.00     0.041 A 
ATOM     19  C   UNL     1      -7.185  -1.846  -1.428  1.00  0.00    -0.045 A 
ATOM     20  C   UNL     1      -7.581  -0.554  -1.047  1.00  0.00     0.006 A 
ATOM     21  C   UNL     1      -6.509  -2.645  -0.496  1.00  0.00     0.006 A 
ATOM     22  C   UNL     1      -7.167  -0.020   0.175  1.00  0.00     0.026 A 
ATOM     23  C   UNL     1      -6.125  -2.123   0.735  1.00  0.00     0.026 A 
BRANCH  19  24
ATOM     24  C   UNL     1      -7.373  -2.299  -2.863  1.00  0.00     0.013 C 
ATOM     25  C   UNL     1      -6.044  -2.177  -3.622  1.00  0.00     0.012 C 
ATOM     26  C   UNL     1      -7.925  -3.721  -2.971  1.00  0.00     0.012 C 
ENDBRANCH  19  24
ENDBRANCH  15  18
ENDBRANCH  13  14
ENDBRANCH   6  13
ENDBRANCH   3   5
ENDBRANCH   2   3
ENDBRANCH   1   2
BRANCH   1  27
ATOM     27  C   UNL     1       1.272   3.476   2.096  1.00  0.00     0.275 C 
BRANCH  27  28
ATOM     28  O   UNL     1       0.027   4.053   2.531  1.00  0.00    -0.458 OA
BRANCH  28  29
ATOM     29  C   UNL     1      -0.601   4.826   1.614  1.00  0.00     0.338 C 
ATOM     30  O   UNL     1      -0.168   5.117   0.507  1.00  0.00    -0.246 OA
BRANCH  29  31
ATOM     31  C   UNL     1      -1.989   5.129   2.034  1.00  0.00     0.060 A 
ATOM     32  C   UNL     1      -2.959   5.094   1.029  1.00  0.00     0.016 A 
ATOM     33  C   UNL     1      -2.367   5.420   3.348  1.00  0.00     0.016 A 
ATOM     34  C   UNL     1      -4.304   5.266   1.332  1.00  0.00     0.010 A 
ATOM     35  C   UNL     1      -3.722   5.649   3.647  1.00  0.00     0.010 A 
ATOM     36  C   UNL     1      -4.699   5.552   2.642  1.00  0.00    -0.014 A 
BRANCH  36  37
ATOM     37  C   UNL     1      -6.140   5.797   2.890  1.00  0.00     0.031 A 
ATOM     38  C   UNL     1      -6.753   7.088   2.431  1.00  0.00     0.074 A 
ATOM     39  C   UNL     1      -6.925   4.825   3.392  1.00  0.00     0.049 A 
ATOM     40  N   UNL     1      -8.002   7.472   2.479  1.00  0.00    -0.248 NA
ATOM     41  C   UNL     1      -5.844   8.064   1.808  1.00  0.00     0.031 C 
ATOM     42  C   UNL     1      -6.472   3.492   3.779  1.00  0.00     0.029 A 
ATOM     43  N   UNL     1      -8.277   4.806   3.638  1.00  0.00    -0.354 N 
ATOM     44  C   UNL     1      -8.028   8.736   1.908  1.00  0.00     0.074 A 
ATOM     45  C   UNL     1      -6.677   9.043   1.489  1.00  0.00     0.031 C 
ATOM     46  C   UNL     1      -7.528   2.777   4.203  1.00  0.00     0.029 A 
ATOM     47  C   UNL     1      -8.725   3.616   4.163  1.00  0.00     0.049 A 
ATOM     48  H   UNL     1      -8.868   5.571   3.455  1.00  0.00     0.167 HD
ATOM     49  C   UNL     1      -9.076   9.579   1.761  1.00  0.00     0.034 A 
ATOM     50  C   UNL     1      -9.955   3.257   4.585  1.00  0.00     0.034 A 
ATOM     51  C   UNL     1     -10.409   9.307   2.220  1.00  0.00     0.049 A 
ATOM     52  C   UNL     1     -11.086   4.253   4.496  1.00  0.00     0.074 A 
ATOM     53  C   UNL     1     -11.510  10.145   2.208  1.00  0.00     0.029 A 
ATOM     54  N   UNL     1     -10.820   8.114   2.791  1.00  0.00    -0.354 N 
ATOM     55  N   UNL     1     -11.103   5.441   3.941  1.00  0.00    -0.248 NA
ATOM     56  C   UNL     1     -12.372   3.856   5.091  1.00  0.00     0.031 C 
ATOM     57  C   UNL     1     -12.583   9.464   2.792  1.00  0.00     0.029 A 
ATOM     58  C   UNL     1     -12.156   8.193   3.143  1.00  0.00     0.049 A 
ATOM     59  H   UNL     1     -10.246   7.326   2.928  1.00  0.00     0.167 HD
ATOM     60  C   UNL     1     -12.396   5.927   4.111  1.00  0.00     0.074 A 
ATOM     61  C   UNL     1     -13.147   4.888   4.785  1.00  0.00     0.031 C 
ATOM     62  C   UNL     1     -12.908   7.135   3.767  1.00  0.00     0.034 A 
BRANCH  49  63
ATOM     63  C   UNL     1      -8.794  10.903   1.111  1.00  0.00     0.023 A 
ATOM     64  C   UNL     1      -8.662  10.981  -0.289  1.00  0.00     0.012 A 
ATOM     65  C   UNL     1      -8.659  12.067   1.891  1.00  0.00     0.148 A 
ATOM     66  C   UNL     1      -8.374  12.199  -0.902  1.00  0.00     0.002 A 
ATOM     67  C   UNL     1      -8.403  13.282   1.270  1.00  0.00     0.091 A 
ATOM     68  F   UNL     1      -8.757  11.957   3.224  1.00  0.00    -0.205 F 
ATOM     69  C   UNL     1      -8.251  13.349  -0.125  1.00  0.00     0.022 A 
BRANCH  67  70
ATOM     70  S   UNL     1      -8.273  14.821   2.184  1.00  0.00     0.127 S 
ATOM     71  O   UNL     1      -6.839  15.094   2.100  1.00  0.00    -0.237 OA
ATOM     72  O   UNL     1      -9.113  15.721   1.393  1.00  0.00    -0.237 OA
ATOM     73  O   UNL     1      -8.779  14.538   3.520  1.00  0.00    -0.744 OA
ENDBRANCH  67  70
ENDBRANCH  49  63
BRANCH  50  74
ATOM     74  C   UNL     1     -10.197   1.893   5.141  1.00  0.00     0.023 A 
ATOM     75  C   UNL     1     -11.058   1.008   4.463  1.00  0.00     0.012 A 
ATOM     76  C   UNL     1      -9.599   1.476   6.346  1.00  0.00     0.148 A 
ATOM     77  C   UNL     1     -11.341  -0.254   4.988  1.00  0.00     0.002 A 
ATOM     78  C   UNL     1      -9.838   0.196   6.834  1.00  0.00     0.091 A 
ATOM     79  F   UNL     1      -8.812   2.342   6.999  1.00  0.00    -0.205 F 
ATOM     80  C   UNL     1     -10.723  -0.664   6.167  1.00  0.00     0.022 A 
BRANCH  78  81
ATOM     81  S   UNL     1      -8.993  -0.456   8.278  1.00  0.00     0.127 S 
ATOM     82  O   UNL     1     -10.070  -0.493   9.264  1.00  0.00    -0.237 OA
ATOM     83  O   UNL     1      -8.549  -1.767   7.803  1.00  0.00    -0.237 OA
ATOM     84  O   UNL     1      -7.912   0.479   8.557  1.00  0.00    -0.744 OA
ENDBRANCH  78  81
ENDBRANCH  50  74
BRANCH  62  85
ATOM     85  C   UNL     1     -14.351   7.414   4.102  1.00  0.00     0.023 A 
ATOM     86  C   UNL     1     -14.719   7.662   5.439  1.00  0.00     0.012 A 
ATOM     87  C   UNL     1     -15.320   7.535   3.085  1.00  0.00     0.148 A 
ATOM     88  C   UNL     1     -16.032   8.002   5.763  1.00  0.00     0.002 A 
ATOM     89  C   UNL     1     -16.616   7.919   3.410  1.00  0.00     0.091 A 
ATOM     90  F   UNL     1     -14.956   7.278   1.821  1.00  0.00    -0.205 F 
ATOM     91  C   UNL     1     -16.976   8.144   4.749  1.00  0.00     0.022 A 
BRANCH  89  92
ATOM     92  S   UNL     1     -17.873   8.219   2.161  1.00  0.00     0.127 S 
ATOM     93  O   UNL     1     -18.732   7.046   2.313  1.00  0.00    -0.237 OA
ATOM     94  O   UNL     1     -18.471   9.476   2.615  1.00  0.00    -0.237 OA
ATOM     95  O   UNL     1     -17.162   8.315   0.893  1.00  0.00    -0.744 OA
ENDBRANCH  89  92
ENDBRANCH  62  85
ENDBRANCH  36  37
ENDBRANCH  29  31
ENDBRANCH  28  29
ENDBRANCH  27  28
ENDBRANCH   1  27
TORSDOF 18
