REMARK SMILES O=C(OCCOC(=O)c1nccnc1C(=O)N1CCC(Cc2ccccc2)CC1)c1ccc(-c2c3nc(c(-c4cccc(S(=O)(=O)[O-])c4F)c4ccc([nH]4)c(-c4cccc(S(=O)(=O)[O-])c4F)c4nc(c(-c5cccc(S(=O)(=O)[O-])c5F)c5ccc2[nH]5)C=C4)C=C3)cc1
REMARK SMILES IDX 4 1 3 2 2 3 1 4 30 5 31 6 92 7 32 8 91 9 33 10 34 11 35 12
REMARK SMILES IDX 85 13 36 14 90 15 84 16 86 17 37 18 89 19 83 20 82 21 38 23
REMARK SMILES IDX 70 24 50 25 69 26 51 27 54 28 68 29 87 30 52 31 53 32 67 34
REMARK SMILES IDX 88 35 55 36 39 37 40 38 48 39 41 40 43 41 49 42 42 43 44 44
REMARK SMILES IDX 45 45 46 46 47 47 71 48 72 49 80 50 73 51 75 52 81 53 74 54
REMARK SMILES IDX 76 55 77 56 78 57 79 58 56 59 57 60 65 61 58 62 60 63 66 64
REMARK SMILES IDX 59 65 61 66 62 67 63 68 64 69 5 70 6 71 7 72 8 73 9 74 10 75
REMARK SMILES IDX 14 76 11 77 13 78 12 79 15 80 16 81 17 82 18 83 29 84 19 85
REMARK SMILES IDX 28 86 20 87 21 88 22 89 23 90 27 91 24 92 26 93 25 94
REMARK H PARENT 86 22 54 33
REMARK Flexibility Score: inf
ROOT
ATOM      1  C   UNL     1       4.774   0.614  -2.428  1.00  0.00     0.275 C 
ENDROOT
BRANCH   1   2
ATOM      2  O   UNL     1       5.336   0.162  -1.199  1.00  0.00    -0.458 OA
BRANCH   2   3
ATOM      3  C   UNL     1       4.412  -0.277  -0.314  1.00  0.00     0.338 C 
ATOM      4  O   UNL     1       3.305  -0.699  -0.594  1.00  0.00    -0.246 OA
BRANCH   3   5
ATOM      5  C   UNL     1       4.835   0.151   1.036  1.00  0.00     0.060 A 
ATOM      6  C   UNL     1       6.128   0.623   1.253  1.00  0.00     0.016 A 
ATOM      7  C   UNL     1       3.868   0.261   2.040  1.00  0.00     0.016 A 
ATOM      8  C   UNL     1       6.438   1.221   2.459  1.00  0.00     0.010 A 
ATOM      9  C   UNL     1       4.159   0.890   3.238  1.00  0.00     0.010 A 
ATOM     10  C   UNL     1       5.452   1.360   3.443  1.00  0.00    -0.014 A 
BRANCH  10  11
ATOM     11  C   UNL     1       5.843   1.972   4.710  1.00  0.00     0.031 A 
ATOM     12  C   UNL     1       6.200   1.069   5.838  1.00  0.00     0.074 A 
ATOM     13  C   UNL     1       5.979   3.307   4.755  1.00  0.00     0.049 A 
ATOM     14  N   UNL     1       6.944   1.322   6.873  1.00  0.00    -0.248 NA
ATOM     15  C   UNL     1       5.681  -0.309   5.779  1.00  0.00     0.031 C 
ATOM     16  C   UNL     1       5.588   4.230   3.686  1.00  0.00     0.029 A 
ATOM     17  N   UNL     1       6.509   4.112   5.720  1.00  0.00    -0.354 N 
ATOM     18  C   UNL     1       7.016   0.127   7.574  1.00  0.00     0.074 A 
ATOM     19  C   UNL     1       6.194  -0.836   6.881  1.00  0.00     0.031 C 
ATOM     20  C   UNL     1       5.898   5.483   4.054  1.00  0.00     0.029 A 
ATOM     21  C   UNL     1       6.549   5.437   5.359  1.00  0.00     0.049 A 
ATOM     22  H   UNL     1       6.830   3.778   6.588  1.00  0.00     0.167 HD
ATOM     23  C   UNL     1       7.746  -0.133   8.680  1.00  0.00     0.034 A 
ATOM     24  C   UNL     1       7.112   6.478   5.998  1.00  0.00     0.034 A 
ATOM     25  C   UNL     1       8.521   0.879   9.339  1.00  0.00     0.049 A 
ATOM     26  C   UNL     1       7.931   6.163   7.221  1.00  0.00     0.074 A 
ATOM     27  C   UNL     1       9.336   0.769  10.446  1.00  0.00     0.029 A 
ATOM     28  N   UNL     1       8.546   2.214   8.946  1.00  0.00    -0.354 N 
ATOM     29  N   UNL     1       8.162   4.995   7.777  1.00  0.00    -0.248 NA
ATOM     30  C   UNL     1       8.624   7.285   7.861  1.00  0.00     0.031 C 
ATOM     31  C   UNL     1       9.830   2.047  10.740  1.00  0.00     0.029 A 
ATOM     32  C   UNL     1       9.345   2.946   9.798  1.00  0.00     0.049 A 
ATOM     33  H   UNL     1       8.062   2.582   8.172  1.00  0.00     0.167 HD
ATOM     34  C   UNL     1       9.060   5.230   8.807  1.00  0.00     0.074 A 
ATOM     35  C   UNL     1       9.340   6.656   8.785  1.00  0.00     0.031 C 
ATOM     36  C   UNL     1       9.606   4.362   9.697  1.00  0.00     0.034 A 
BRANCH  23  37
ATOM     37  C   UNL     1       7.734  -1.546   9.193  1.00  0.00     0.023 A 
ATOM     38  C   UNL     1       8.389  -2.559   8.460  1.00  0.00     0.012 A 
ATOM     39  C   UNL     1       7.052  -1.883  10.376  1.00  0.00     0.148 A 
ATOM     40  C   UNL     1       8.333  -3.890   8.875  1.00  0.00     0.002 A 
ATOM     41  C   UNL     1       7.030  -3.207  10.803  1.00  0.00     0.091 A 
ATOM     42  F   UNL     1       6.407  -0.914  11.040  1.00  0.00    -0.205 F 
ATOM     43  C   UNL     1       7.658  -4.212  10.049  1.00  0.00     0.022 A 
BRANCH  41  44
ATOM     44  S   UNL     1       6.227  -3.720  12.325  1.00  0.00     0.127 S 
ATOM     45  O   UNL     1       5.086  -4.478  11.815  1.00  0.00    -0.237 OA
ATOM     46  O   UNL     1       7.265  -4.534  12.959  1.00  0.00    -0.237 OA
ATOM     47  O   UNL     1       5.896  -2.494  13.037  1.00  0.00    -0.744 OA
ENDBRANCH  41  44
ENDBRANCH  23  37
BRANCH  24  48
ATOM     48  C   UNL     1       7.028   7.843   5.411  1.00  0.00     0.023 A 
ATOM     49  C   UNL     1       8.171   8.443   4.849  1.00  0.00     0.012 A 
ATOM     50  C   UNL     1       5.795   8.522   5.340  1.00  0.00     0.148 A 
ATOM     51  C   UNL     1       8.094   9.703   4.253  1.00  0.00     0.002 A 
ATOM     52  C   UNL     1       5.715   9.756   4.705  1.00  0.00     0.091 A 
ATOM     53  F   UNL     1       4.717   7.937   5.882  1.00  0.00    -0.205 F 
ATOM     54  C   UNL     1       6.866  10.356   4.172  1.00  0.00     0.022 A 
BRANCH  52  55
ATOM     55  S   UNL     1       4.146  10.594   4.447  1.00  0.00     0.127 S 
ATOM     56  O   UNL     1       4.192  11.636   5.469  1.00  0.00    -0.237 OA
ATOM     57  O   UNL     1       4.276  11.073   3.070  1.00  0.00    -0.237 OA
ATOM     58  O   UNL     1       3.128   9.566   4.626  1.00  0.00    -0.744 OA
ENDBRANCH  52  55
ENDBRANCH  24  48
BRANCH  36  59
ATOM     59  C   UNL     1      10.565   4.939  10.698  1.00  0.00     0.023 A 
ATOM     60  C   UNL     1      10.073   5.707  11.770  1.00  0.00     0.012 A 
ATOM     61  C   UNL     1      11.938   4.642  10.620  1.00  0.00     0.148 A 
ATOM     62  C   UNL     1      10.944   6.202  12.737  1.00  0.00     0.002 A 
ATOM     63  C   UNL     1      12.791   5.092  11.617  1.00  0.00     0.091 A 
ATOM     64  F   UNL     1      12.382   3.928   9.575  1.00  0.00    -0.205 F 
ATOM     65  C   UNL     1      12.299   5.882  12.669  1.00  0.00     0.022 A 
BRANCH  63  66
ATOM     66  S   UNL     1      14.524   4.629  11.660  1.00  0.00     0.127 S 
ATOM     67  O   UNL     1      15.169   5.845  11.169  1.00  0.00    -0.237 OA
ATOM     68  O   UNL     1      14.739   4.354  13.081  1.00  0.00    -0.237 OA
ATOM     69  O   UNL     1      14.644   3.460  10.799  1.00  0.00    -0.744 OA
ENDBRANCH  63  66
ENDBRANCH  36  59
ENDBRANCH  10  11
ENDBRANCH   3   5
ENDBRANCH   2   3
ENDBRANCH   1   2
BRANCH   1  70
ATOM     70  C   UNL     1       3.967   1.921  -2.281  1.00  0.00     0.275 C 
BRANCH  70  71
ATOM     71  O   UNL     1       3.384   2.125  -0.977  1.00  0.00    -0.457 OA
BRANCH  71  72
ATOM     72  C   UNL     1       2.039   2.000  -0.792  1.00  0.00     0.359 C 
ATOM     73  O   UNL     1       1.220   1.697  -1.644  1.00  0.00    -0.244 OA
BRANCH  72  74
ATOM     74  C   UNL     1       1.740   2.404   0.611  1.00  0.00     0.179 A 
ATOM     75  N   UNL     1       2.407   3.552   0.993  1.00  0.00    -0.245 NA
ATOM     76  C   UNL     1       0.859   1.756   1.472  1.00  0.00     0.161 A 
ATOM     77  C   UNL     1       2.156   4.027   2.234  1.00  0.00     0.132 A 
ATOM     78  N   UNL     1       0.662   2.238   2.748  1.00  0.00    -0.247 NA
ATOM     79  C   UNL     1       1.309   3.374   3.100  1.00  0.00     0.132 A 
BRANCH  76  80
ATOM     80  C   UNL     1      -0.035   0.584   1.183  1.00  0.00     0.274 C 
ATOM     81  O   UNL     1      -1.192   0.614   1.615  1.00  0.00    -0.267 OA
ATOM     82  N   UNL     1       0.422  -0.555   0.494  1.00  0.00    -0.337 N 
ATOM     83  C   UNL     1      -0.438  -0.921  -0.633  1.00  0.00     0.120 C 
ATOM     84  C   UNL     1       0.835  -1.710   1.300  1.00  0.00     0.120 C 
ATOM     85  C   UNL     1      -0.462  -2.415  -0.957  1.00  0.00     0.025 C 
ATOM     86  C   UNL     1       1.533  -2.820   0.488  1.00  0.00     0.025 C 
ATOM     87  C   UNL     1       0.963  -2.976  -0.942  1.00  0.00    -0.003 C 
BRANCH  87  88
ATOM     88  C   UNL     1       1.092  -4.432  -1.440  1.00  0.00     0.039 C 
BRANCH  88  89
ATOM     89  C   UNL     1       0.211  -4.764  -2.623  1.00  0.00    -0.048 A 
ATOM     90  C   UNL     1      -0.949  -5.530  -2.430  1.00  0.00     0.004 A 
ATOM     91  C   UNL     1       0.479  -4.247  -3.897  1.00  0.00     0.004 A 
ATOM     92  C   UNL     1      -1.835  -5.755  -3.482  1.00  0.00     0.000 A 
ATOM     93  C   UNL     1      -0.410  -4.474  -4.950  1.00  0.00     0.000 A 
ATOM     94  C   UNL     1      -1.569  -5.222  -4.741  1.00  0.00     0.000 A 
ENDBRANCH  88  89
ENDBRANCH  87  88
ENDBRANCH  76  80
ENDBRANCH  72  74
ENDBRANCH  71  72
ENDBRANCH  70  71
ENDBRANCH   1  70
TORSDOF 17
