REMARK SMILES CCCCCCNC(=O)Oc1cccc(-c2ccc([C@@H](C)C(=O)OCCOC(=O)c3ccc(-c4c5nc(c(-c6cccc(S(=O)(=O)[O-])c6F)c6ccc([nH]6)c(-c6cccc(S(=O)(=O)[O-])c6F)c6nc(c(-c7cccc(S(=O)(=O)[O-])c7F)c7ccc4[nH]7)C=C6)C=C5)cc3)cc2Cl)c1
REMARK SMILES IDX 20 1 21 2 19 3 16 4 17 5 94 6 18 7 93 8 95 9 15 10 11 11
REMARK SMILES IDX 12 12 96 13 13 14 14 15 10 16 8 17 7 18 9 20 6 21 5 22 4 23
REMARK SMILES IDX 3 24 2 25 1 26 22 27 23 28 24 29 25 30 26 31 27 32 28 33
REMARK SMILES IDX 29 34 30 35 31 36 92 37 32 38 91 39 33 40 34 41 35 42 85 43
REMARK SMILES IDX 36 44 90 45 84 46 86 47 37 48 89 49 83 50 82 51 38 53 70 54
REMARK SMILES IDX 50 55 69 56 51 57 54 58 68 59 87 60 52 61 53 62 67 64 88 65
REMARK SMILES IDX 55 66 39 67 40 68 48 69 41 70 43 71 49 72 42 73 44 74 45 75
REMARK SMILES IDX 46 76 47 77 71 78 72 79 80 80 73 81 75 82 81 83 74 84 76 85
REMARK SMILES IDX 77 86 78 87 79 88 56 89 57 90 65 91 58 92 60 93 66 94 59 95
REMARK SMILES IDX 61 96 62 97 63 98 64 99
REMARK H PARENT 7 19 86 52 54 63
REMARK Flexibility Score: inf
ROOT
ATOM      1  C   UNL     1      -4.773  -0.077 -13.959  1.00  0.00     0.126 C 
ATOM      2  C   UNL     1      -5.979   0.259 -14.833  1.00  0.00     0.025 C 
ENDROOT
BRANCH   1   3
ATOM      3  C   UNL     1      -4.883   0.524 -12.565  1.00  0.00    -0.033 A 
ATOM      4  C   UNL     1      -5.064   1.598  -9.926  1.00  0.00     0.000 A 
ATOM      5  C   UNL     1      -5.074   2.428 -11.063  1.00  0.00     0.010 A 
ATOM      6  C   UNL     1      -4.970   0.211 -10.139  1.00  0.00     0.049 A 
ATOM      7  C   UNL     1      -4.995   1.903 -12.358  1.00  0.00     0.005 A 
ATOM      8  C   UNL     1      -4.880  -0.313 -11.438  1.00  0.00     0.025 A 
ATOM      9  Cl  UNL     1      -5.016  -0.930  -8.836  1.00  0.00    -0.084 Cl
BRANCH   4  10
ATOM     10  C   UNL     1      -5.178   2.218  -8.592  1.00  0.00    -0.013 A 
ATOM     11  C   UNL     1      -4.313   2.676  -6.372  1.00  0.00     0.133 A 
ATOM     12  C   UNL     1      -5.444   3.427  -6.056  1.00  0.00     0.047 A 
ATOM     13  C   UNL     1      -4.173   2.070  -7.622  1.00  0.00     0.056 A 
ATOM     14  C   UNL     1      -6.441   3.592  -7.012  1.00  0.00     0.004 A 
ATOM     15  C   UNL     1      -6.309   2.991  -8.266  1.00  0.00     0.009 A 
BRANCH  11  16
ATOM     16  O   UNL     1      -3.393   2.456  -5.334  1.00  0.00    -0.410 OA
BRANCH  16  17
ATOM     17  C   UNL     1      -2.056   2.740  -5.567  1.00  0.00     0.412 C 
ATOM     18  N   UNL     1      -1.251   2.441  -4.501  1.00  0.00    -0.321 N 
ATOM     19  H   UNL     1      -0.286   2.595  -4.622  1.00  0.00     0.167 HD
ATOM     20  O   UNL     1      -1.591   3.234  -6.587  1.00  0.00    -0.224 OA
BRANCH  18  21
ATOM     21  C   UNL     1      -1.666   1.923  -3.213  1.00  0.00     0.119 C 
BRANCH  21  22
ATOM     22  C   UNL     1      -1.038   0.566  -2.898  1.00  0.00     0.021 C 
BRANCH  22  23
ATOM     23  C   UNL     1       0.491   0.570  -2.777  1.00  0.00     0.002 C 
BRANCH  23  24
ATOM     24  C   UNL     1       1.073   1.518  -1.723  1.00  0.00    -0.000 C 
BRANCH  24  25
ATOM     25  C   UNL     1       0.589   1.291  -0.289  1.00  0.00    -0.003 C 
ATOM     26  C   UNL     1       0.966  -0.074   0.267  1.00  0.00     0.004 C 
ENDBRANCH  24  25
ENDBRANCH  23  24
ENDBRANCH  22  23
ENDBRANCH  21  22
ENDBRANCH  18  21
ENDBRANCH  16  17
ENDBRANCH  11  16
ENDBRANCH   4  10
ENDBRANCH   1   3
BRANCH   1  27
ATOM     27  C   UNL     1      -3.484   0.219 -14.720  1.00  0.00     0.313 C 
ATOM     28  O   UNL     1      -3.057  -0.530 -15.592  1.00  0.00    -0.252 OA
BRANCH  27  29
ATOM     29  O   UNL     1      -2.903   1.399 -14.378  1.00  0.00    -0.462 OA
BRANCH  29  30
ATOM     30  C   UNL     1      -1.644   1.712 -15.004  1.00  0.00     0.274 C 
BRANCH  30  31
ATOM     31  C   UNL     1      -0.476   1.486 -14.040  1.00  0.00     0.275 C 
BRANCH  31  32
ATOM     32  O   UNL     1      -0.282   0.086 -13.775  1.00  0.00    -0.458 OA
BRANCH  32  33
ATOM     33  C   UNL     1      -0.894  -0.375 -12.659  1.00  0.00     0.338 C 
ATOM     34  O   UNL     1      -1.540   0.269 -11.851  1.00  0.00    -0.246 OA
BRANCH  33  35
ATOM     35  C   UNL     1      -0.791  -1.840 -12.612  1.00  0.00     0.060 A 
ATOM     36  C   UNL     1      -1.968  -2.582 -12.730  1.00  0.00     0.016 A 
ATOM     37  C   UNL     1       0.428  -2.475 -12.377  1.00  0.00     0.016 A 
ATOM     38  C   UNL     1      -1.940  -3.965 -12.593  1.00  0.00     0.010 A 
ATOM     39  C   UNL     1       0.459  -3.868 -12.252  1.00  0.00     0.010 A 
ATOM     40  C   UNL     1      -0.727  -4.619 -12.343  1.00  0.00    -0.014 A 
BRANCH  40  41
ATOM     41  C   UNL     1      -0.717  -6.088 -12.150  1.00  0.00     0.031 A 
ATOM     42  C   UNL     1      -0.506  -6.667 -10.781  1.00  0.00     0.074 A 
ATOM     43  C   UNL     1      -0.902  -6.898 -13.209  1.00  0.00     0.049 A 
ATOM     44  N   UNL     1      -0.440  -7.921 -10.418  1.00  0.00    -0.248 NA
ATOM     45  C   UNL     1      -0.345  -5.710  -9.674  1.00  0.00     0.031 C 
ATOM     46  C   UNL     1      -1.111  -6.448 -14.586  1.00  0.00     0.029 A 
ATOM     47  N   UNL     1      -0.928  -8.267 -13.295  1.00  0.00    -0.354 N 
ATOM     48  C   UNL     1      -0.193  -7.909  -9.051  1.00  0.00     0.074 A 
ATOM     49  C   UNL     1      -0.115  -6.520  -8.649  1.00  0.00     0.031 C 
ATOM     50  C   UNL     1      -1.234  -7.522 -15.382  1.00  0.00     0.029 A 
ATOM     51  C   UNL     1      -1.082  -8.732 -14.579  1.00  0.00     0.049 A 
ATOM     52  H   UNL     1      -0.845  -8.858 -12.513  1.00  0.00     0.167 HD
ATOM     53  C   UNL     1      -0.060  -8.958  -8.205  1.00  0.00     0.034 A 
ATOM     54  C   UNL     1      -1.085  -9.992 -15.057  1.00  0.00     0.034 A 
ATOM     55  C   UNL     1      -0.179 -10.336  -8.603  1.00  0.00     0.049 A 
ATOM     56  C   UNL     1      -0.945 -11.140 -14.095  1.00  0.00     0.074 A 
ATOM     57  C   UNL     1      -0.111 -11.469  -7.811  1.00  0.00     0.029 A 
ATOM     58  N   UNL     1      -0.388 -10.770  -9.903  1.00  0.00    -0.354 N 
ATOM     59  N   UNL     1      -0.824 -11.111 -12.789  1.00  0.00    -0.248 NA
ATOM     60  C   UNL     1      -0.972 -12.494 -14.665  1.00  0.00     0.031 C 
ATOM     61  C   UNL     1      -0.267 -12.589  -8.636  1.00  0.00     0.029 A 
ATOM     62  C   UNL     1      -0.445 -12.153  -9.939  1.00  0.00     0.049 A 
ATOM     63  H   UNL     1      -0.481 -10.180 -10.686  1.00  0.00     0.167 HD
ATOM     64  C   UNL     1      -0.786 -12.438 -12.379  1.00  0.00     0.074 A 
ATOM     65  C   UNL     1      -0.921 -13.247 -13.574  1.00  0.00     0.031 C 
ATOM     66  C   UNL     1      -0.633 -12.942 -11.130  1.00  0.00     0.034 A 
BRANCH  53  67
ATOM     67  C   UNL     1       0.193  -8.653  -6.753  1.00  0.00     0.023 A 
ATOM     68  C   UNL     1      -0.863  -8.177  -5.950  1.00  0.00     0.012 A 
ATOM     69  C   UNL     1       1.455  -8.880  -6.172  1.00  0.00     0.148 A 
ATOM     70  C   UNL     1      -0.660  -7.904  -4.598  1.00  0.00     0.002 A 
ATOM     71  C   UNL     1       1.641  -8.640  -4.815  1.00  0.00     0.091 A 
ATOM     72  F   UNL     1       2.455  -9.308  -6.956  1.00  0.00    -0.205 F 
ATOM     73  C   UNL     1       0.588  -8.144  -4.029  1.00  0.00     0.022 A 
BRANCH  71  74
ATOM     74  S   UNL     1       3.195  -8.986  -3.982  1.00  0.00     0.127 S 
ATOM     75  O   UNL     1       3.762  -7.645  -3.845  1.00  0.00    -0.237 OA
ATOM     76  O   UNL     1       2.750  -9.589  -2.725  1.00  0.00    -0.237 OA
ATOM     77  O   UNL     1       3.922  -9.893  -4.860  1.00  0.00    -0.744 OA
ENDBRANCH  71  74
ENDBRANCH  53  67
BRANCH  54  78
ATOM     78  C   UNL     1      -1.279 -10.226 -16.515  1.00  0.00     0.023 A 
ATOM     79  C   UNL     1      -2.489 -10.781 -16.973  1.00  0.00     0.012 A 
ATOM     80  C   UNL     1      -0.295  -9.853 -17.453  1.00  0.00     0.148 A 
ATOM     81  C   UNL     1      -2.709 -10.978 -18.336  1.00  0.00     0.002 A 
ATOM     82  C   UNL     1      -0.543 -10.002 -18.813  1.00  0.00     0.091 A 
ATOM     83  F   UNL     1       0.859  -9.345 -16.997  1.00  0.00    -0.205 F 
ATOM     84  C   UNL     1      -1.744 -10.577 -19.256  1.00  0.00     0.022 A 
BRANCH  82  85
ATOM     85  S   UNL     1       0.588  -9.388 -20.066  1.00  0.00     0.127 S 
ATOM     86  O   UNL     1       1.177 -10.626 -20.569  1.00  0.00    -0.237 OA
ATOM     87  O   UNL     1      -0.321  -8.717 -20.996  1.00  0.00    -0.237 OA
ATOM     88  O   UNL     1       1.496  -8.490 -19.366  1.00  0.00    -0.744 OA
ENDBRANCH  82  85
ENDBRANCH  54  78
BRANCH  66  89
ATOM     89  C   UNL     1      -0.621 -14.441 -10.980  1.00  0.00     0.023 A 
ATOM     90  C   UNL     1       0.519 -15.168 -11.376  1.00  0.00     0.012 A 
ATOM     91  C   UNL     1      -1.700 -15.118 -10.380  1.00  0.00     0.148 A 
ATOM     92  C   UNL     1       0.573 -16.550 -11.202  1.00  0.00     0.002 A 
ATOM     93  C   UNL     1      -1.622 -16.490 -10.171  1.00  0.00     0.091 A 
ATOM     94  F   UNL     1      -2.785 -14.412 -10.030  1.00  0.00    -0.205 F 
ATOM     95  C   UNL     1      -0.491 -17.209 -10.590  1.00  0.00     0.022 A 
BRANCH  93  96
ATOM     96  S   UNL     1      -2.909 -17.402  -9.310  1.00  0.00     0.127 S 
ATOM     97  O   UNL     1      -3.605 -18.055 -10.417  1.00  0.00    -0.237 OA
ATOM     98  O   UNL     1      -2.137 -18.306  -8.457  1.00  0.00    -0.237 OA
ATOM     99  O   UNL     1      -3.681 -16.404  -8.581  1.00  0.00    -0.744 OA
ENDBRANCH  93  96
ENDBRANCH  66  89
ENDBRANCH  40  41
ENDBRANCH  33  35
ENDBRANCH  32  33
ENDBRANCH  31  32
ENDBRANCH  30  31
ENDBRANCH  29  30
ENDBRANCH  27  29
ENDBRANCH   1  27
TORSDOF 23
