REMARK SMILES CC(C)(C)OC(=O)N1C[C@H](Oc2ccncc2)C[C@H]1C(=O)OCCOC(=O)c1ccc(-c2c3nc(c(-c4cccc(S(=O)(=O)[O-])c4F)c4ccc([nH]4)c(-c4cccc(S(=O)(=O)[O-])c4F)c4nc(c(-c5cccc(S(=O)(=O)[O-])c5F)c5ccc2[nH]5)C=C4)C=C3)cc1
REMARK SMILES IDX 23 1 22 2 20 3 21 4 19 5 8 6 9 7 10 8 18 9 6 10 7 11 5 12
REMARK SMILES IDX 2 13 1 14 3 15 4 16 11 17 12 18 13 19 17 20 14 21 16 22
REMARK SMILES IDX 15 23 24 24 25 25 26 26 27 27 28 28 29 29 90 30 30 31 89 32
REMARK SMILES IDX 31 33 32 34 33 35 83 36 34 37 88 38 82 39 84 40 35 41 87 42
REMARK SMILES IDX 81 43 80 44 36 46 68 47 48 48 67 49 49 50 52 51 66 52 85 53
REMARK SMILES IDX 50 54 51 55 65 57 86 58 53 59 37 60 38 61 46 62 39 63 41 64
REMARK SMILES IDX 47 65 40 66 42 67 43 68 44 69 45 70 69 71 70 72 78 73 71 74
REMARK SMILES IDX 73 75 79 76 72 77 74 78 75 79 76 80 77 81 54 82 55 83 63 84
REMARK SMILES IDX 56 85 58 86 64 87 57 88 59 89 60 90 61 91 62 92
REMARK H PARENT 84 45 52 56
REMARK Flexibility Score: inf
ROOT
ATOM      1  C   UNL     1      -0.329   7.592  -2.742  1.00  0.00     0.274 C 
ENDROOT
BRANCH   1   2
ATOM      2  O   UNL     1      -0.277   6.771  -1.563  1.00  0.00    -0.461 OA
BRANCH   2   3
ATOM      3  C   UNL     1       0.945   6.519  -1.025  1.00  0.00     0.329 C 
ATOM      4  O   UNL     1       2.014   6.916  -1.473  1.00  0.00    -0.250 OA
BRANCH   3   5
ATOM      5  C   UNL     1       0.803   5.609   0.203  1.00  0.00     0.202 C 
ATOM      6  N   UNL     1       1.423   4.325  -0.072  1.00  0.00    -0.291 N 
ATOM      7  C   UNL     1       2.676   4.167   0.639  1.00  0.00     0.169 C 
ATOM      8  C   UNL     1       2.515   5.051   1.870  1.00  0.00     0.195 C 
ATOM      9  C   UNL     1       1.559   6.164   1.424  1.00  0.00     0.084 C 
BRANCH   6  10
ATOM     10  C   UNL     1       0.778   3.398  -0.844  1.00  0.00     0.411 C 
ATOM     11  O   UNL     1      -0.166   3.666  -1.564  1.00  0.00    -0.224 OA
BRANCH  10  12
ATOM     12  O   UNL     1       1.288   2.157  -0.654  1.00  0.00    -0.444 OA
BRANCH  12  13
ATOM     13  C   UNL     1       0.689   1.005  -1.296  1.00  0.00     0.106 C 
ATOM     14  C   UNL     1       1.277  -0.194  -0.539  1.00  0.00     0.056 C 
ATOM     15  C   UNL     1       1.135   0.962  -2.757  1.00  0.00     0.056 C 
ATOM     16  C   UNL     1      -0.841   0.945  -1.168  1.00  0.00     0.056 C 
ENDBRANCH  12  13
ENDBRANCH  10  12
ENDBRANCH   6  10
BRANCH   8  17
ATOM     17  O   UNL     1       2.132   4.367   3.080  1.00  0.00    -0.488 OA
BRANCH  17  18
ATOM     18  C   UNL     1       0.913   3.756   3.113  1.00  0.00     0.122 A 
ATOM     19  C   UNL     1       0.748   2.471   2.618  1.00  0.00     0.066 A 
ATOM     20  C   UNL     1      -0.130   4.364   3.800  1.00  0.00     0.066 A 
ATOM     21  C   UNL     1      -0.495   1.877   2.749  1.00  0.00     0.115 A 
ATOM     22  C   UNL     1      -1.334   3.686   3.889  1.00  0.00     0.115 A 
ATOM     23  N   UNL     1      -1.545   2.458   3.365  1.00  0.00    -0.264 NA
ENDBRANCH  17  18
ENDBRANCH   8  17
ENDBRANCH   3   5
ENDBRANCH   2   3
ENDBRANCH   1   2
BRANCH   1  24
ATOM     24  C   UNL     1      -1.576   8.476  -2.673  1.00  0.00     0.275 C 
BRANCH  24  25
ATOM     25  O   UNL     1      -1.472   9.378  -1.554  1.00  0.00    -0.458 OA
BRANCH  25  26
ATOM     26  C   UNL     1      -2.014   8.919  -0.401  1.00  0.00     0.338 C 
ATOM     27  O   UNL     1      -2.691   7.918  -0.237  1.00  0.00    -0.246 OA
BRANCH  26  28
ATOM     28  C   UNL     1      -1.464   9.696   0.717  1.00  0.00     0.060 A 
ATOM     29  C   UNL     1      -0.538   9.052   1.538  1.00  0.00     0.016 A 
ATOM     30  C   UNL     1      -1.874  10.996   0.995  1.00  0.00     0.016 A 
ATOM     31  C   UNL     1      -0.006   9.697   2.650  1.00  0.00     0.010 A 
ATOM     32  C   UNL     1      -1.338  11.649   2.110  1.00  0.00     0.010 A 
ATOM     33  C   UNL     1      -0.408  11.002   2.948  1.00  0.00    -0.014 A 
BRANCH  33  34
ATOM     34  C   UNL     1       0.117  11.687   4.154  1.00  0.00     0.031 A 
ATOM     35  C   UNL     1      -0.793  11.953   5.316  1.00  0.00     0.074 A 
ATOM     36  C   UNL     1       1.397  12.101   4.190  1.00  0.00     0.049 A 
ATOM     37  N   UNL     1      -0.578  12.671   6.386  1.00  0.00    -0.248 NA
ATOM     38  C   UNL     1      -2.125  11.329   5.263  1.00  0.00     0.031 C 
ATOM     39  C   UNL     1       2.385  11.879   3.135  1.00  0.00     0.029 A 
ATOM     40  N   UNL     1       2.073  12.833   5.136  1.00  0.00    -0.354 N 
ATOM     41  C   UNL     1      -1.764  12.638   7.108  1.00  0.00     0.074 A 
ATOM     42  C   UNL     1      -2.690  11.813   6.361  1.00  0.00     0.031 C 
ATOM     43  C   UNL     1       3.528  12.496   3.470  1.00  0.00     0.029 A 
ATOM     44  C   UNL     1       3.335  13.204   4.733  1.00  0.00     0.049 A 
ATOM     45  H   UNL     1       1.693  13.068   6.013  1.00  0.00     0.167 HD
ATOM     46  C   UNL     1      -2.052  13.239   8.286  1.00  0.00     0.034 A 
ATOM     47  C   UNL     1       4.213  14.064   5.285  1.00  0.00     0.034 A 
ATOM     48  C   UNL     1      -1.115  14.028   9.040  1.00  0.00     0.049 A 
ATOM     49  C   UNL     1       3.859  14.753   6.574  1.00  0.00     0.074 A 
ATOM     50  C   UNL     1      -1.290  14.619  10.279  1.00  0.00     0.029 A 
ATOM     51  N   UNL     1       0.165  14.353   8.619  1.00  0.00    -0.354 N 
ATOM     52  N   UNL     1       2.775  14.630   7.301  1.00  0.00    -0.248 NA
ATOM     53  C   UNL     1       4.851  15.687   7.126  1.00  0.00     0.031 C 
ATOM     54  C   UNL     1      -0.124  15.327  10.592  1.00  0.00     0.029 A 
ATOM     55  C   UNL     1       0.783  15.161   9.558  1.00  0.00     0.049 A 
ATOM     56  H   UNL     1       0.574  14.054   7.775  1.00  0.00     0.167 HD
ATOM     57  C   UNL     1       2.955  15.463   8.400  1.00  0.00     0.074 A 
ATOM     58  C   UNL     1       4.268  16.061   8.258  1.00  0.00     0.031 C 
ATOM     59  C   UNL     1       2.103  15.724   9.422  1.00  0.00     0.034 A 
BRANCH  46  60
ATOM     60  C   UNL     1      -3.443  13.063   8.832  1.00  0.00     0.023 A 
ATOM     61  C   UNL     1      -3.828  11.830   9.394  1.00  0.00     0.012 A 
ATOM     62  C   UNL     1      -4.361  14.131   8.811  1.00  0.00     0.148 A 
ATOM     63  C   UNL     1      -5.118  11.651   9.894  1.00  0.00     0.002 A 
ATOM     64  C   UNL     1      -5.632  13.957   9.347  1.00  0.00     0.091 A 
ATOM     65  F   UNL     1      -3.986  15.288   8.246  1.00  0.00    -0.205 F 
ATOM     66  C   UNL     1      -6.016  12.716   9.878  1.00  0.00     0.022 A 
BRANCH  64  67
ATOM     67  S   UNL     1      -6.828  15.295   9.429  1.00  0.00     0.127 S 
ATOM     68  O   UNL     1      -7.721  14.961   8.321  1.00  0.00    -0.237 OA
ATOM     69  O   UNL     1      -7.411  15.110  10.759  1.00  0.00    -0.237 OA
ATOM     70  O   UNL     1      -6.060  16.522   9.275  1.00  0.00    -0.744 OA
ENDBRANCH  64  67
ENDBRANCH  46  60
BRANCH  47  71
ATOM     71  C   UNL     1       5.505  14.332   4.592  1.00  0.00     0.023 A 
ATOM     72  C   UNL     1       6.706  13.851   5.144  1.00  0.00     0.012 A 
ATOM     73  C   UNL     1       5.536  15.003   3.352  1.00  0.00     0.148 A 
ATOM     74  C   UNL     1       7.918  14.042   4.477  1.00  0.00     0.002 A 
ATOM     75  C   UNL     1       6.736  15.137   2.667  1.00  0.00     0.091 A 
ATOM     76  F   UNL     1       4.382  15.471   2.856  1.00  0.00    -0.205 F 
ATOM     77  C   UNL     1       7.931  14.671   3.234  1.00  0.00     0.022 A 
BRANCH  75  78
ATOM     78  S   UNL     1       6.824  15.801   0.999  1.00  0.00     0.127 S 
ATOM     79  O   UNL     1       7.524  17.064   1.216  1.00  0.00    -0.237 OA
ATOM     80  O   UNL     1       7.605  14.773   0.309  1.00  0.00    -0.237 OA
ATOM     81  O   UNL     1       5.445  15.912   0.545  1.00  0.00    -0.744 OA
ENDBRANCH  75  78
ENDBRANCH  47  71
BRANCH  59  82
ATOM     82  C   UNL     1       2.552  16.702  10.476  1.00  0.00     0.023 A 
ATOM     83  C   UNL     1       2.561  18.080  10.183  1.00  0.00     0.012 A 
ATOM     84  C   UNL     1       2.872  16.269  11.779  1.00  0.00     0.148 A 
ATOM     85  C   UNL     1       2.900  19.011  11.163  1.00  0.00     0.002 A 
ATOM     86  C   UNL     1       3.165  17.206  12.763  1.00  0.00     0.091 A 
ATOM     87  F   UNL     1       2.872  14.953  12.032  1.00  0.00    -0.205 F 
ATOM     88  C   UNL     1       3.188  18.576  12.455  1.00  0.00     0.022 A 
BRANCH  86  89
ATOM     89  S   UNL     1       3.461  16.750  14.475  1.00  0.00     0.127 S 
ATOM     90  O   UNL     1       4.885  17.049  14.621  1.00  0.00    -0.237 OA
ATOM     91  O   UNL     1       2.570  17.660  15.196  1.00  0.00    -0.237 OA
ATOM     92  O   UNL     1       3.106  15.342  14.585  1.00  0.00    -0.744 OA
ENDBRANCH  86  89
ENDBRANCH  59  82
ENDBRANCH  33  34
ENDBRANCH  26  28
ENDBRANCH  25  26
ENDBRANCH  24  25
ENDBRANCH   1  24
TORSDOF 19
