REMARK SMILES C[C@]([NH2+]C[C@H]1Cc2ccccc2O1)(C(=O)OCCOC(=O)c1ccc(-c2c3nc(c(-c4cccc(S(=O)(=O)[O-])c4F)c4ccc([nH]4)c(-c4cccc(S(=O)(=O)[O-])c4F)c4nc(c(-c5cccc(S(=O)(=O)[O-])c5F)c5ccc2[nH]5)C=C4)C=C3)cc1)C(F)(F)F
REMARK SMILES IDX 17 1 16 2 14 3 15 4 2 5 1 6 85 7 86 8 87 9 88 10 3 11 4 14
REMARK SMILES IDX 5 15 6 16 13 17 7 18 12 19 8 20 11 21 9 22 10 23 18 24 19 25
REMARK SMILES IDX 20 26 21 27 22 28 23 29 84 30 24 31 83 32 25 33 26 34 27 35
REMARK SMILES IDX 77 36 28 37 82 38 76 39 78 40 29 41 81 42 75 43 74 44 30 46
REMARK SMILES IDX 62 47 42 48 61 49 43 50 46 51 60 52 79 53 44 54 45 55 59 57
REMARK SMILES IDX 80 58 47 59 31 60 32 61 40 62 33 63 35 64 41 65 34 66 36 67
REMARK SMILES IDX 37 68 38 69 39 70 63 71 64 72 72 73 65 74 67 75 73 76 66 77
REMARK SMILES IDX 68 78 69 79 70 80 71 81 48 82 49 83 57 84 50 85 52 86 58 87
REMARK SMILES IDX 51 88 53 89 54 90 55 91 56 92
REMARK H PARENT 3 12 3 13 78 45 46 56
REMARK Flexibility Score: inf
ROOT
ATOM      1  C   UNL     1      -2.904   1.097  -0.672  1.00  0.00     0.274 C 
ENDROOT
BRANCH   1   2
ATOM      2  O   UNL     1      -1.476   0.881  -0.737  1.00  0.00    -0.457 OA
BRANCH   2   3
ATOM      3  C   UNL     1      -0.668   1.834  -0.184  1.00  0.00     0.377 C 
ATOM      4  O   UNL     1      -1.109   2.831   0.372  1.00  0.00    -0.244 OA
BRANCH   3   5
ATOM      5  C   UNL     1       0.826   1.571  -0.448  1.00  0.00     0.287 C 
ATOM      6  C   UNL     1       1.173   2.159  -1.823  1.00  0.00     0.103 C 
BRANCH   5   7
ATOM      7  C   UNL     1       1.628   2.385   0.608  1.00  0.00     0.455 C 
ATOM      8  F   UNL     1       1.488   1.869   1.851  1.00  0.00    -0.164 F 
ATOM      9  F   UNL     1       2.960   2.335   0.331  1.00  0.00    -0.164 F 
ATOM     10  F   UNL     1       1.304   3.693   0.655  1.00  0.00    -0.164 F 
ENDBRANCH   5   7
BRANCH   5  11
ATOM     11  N   UNL     1       1.204   0.121  -0.324  1.00  0.00    -0.322 N 
ATOM     12  H   UNL     1       0.842  -0.203   0.573  1.00  0.00     0.347 HD
ATOM     13  H   UNL     1       2.217   0.131  -0.443  1.00  0.00     0.347 HD
BRANCH  11  14
ATOM     14  C   UNL     1       0.757  -0.837  -1.329  1.00  0.00     0.307 C 
BRANCH  14  15
ATOM     15  C   UNL     1       1.796  -1.972  -1.531  1.00  0.00     0.232 C 
ATOM     16  C   UNL     1       2.308  -2.630  -0.236  1.00  0.00     0.090 C 
ATOM     17  O   UNL     1       1.190  -3.010  -2.360  1.00  0.00    -0.484 OA
ATOM     18  C   UNL     1       1.444  -3.827  -0.215  1.00  0.00    -0.002 A 
ATOM     19  C   UNL     1       0.874  -4.002  -1.465  1.00  0.00     0.123 A 
ATOM     20  C   UNL     1       1.222  -4.731   0.808  1.00  0.00     0.007 A 
ATOM     21  C   UNL     1       0.071  -5.086  -1.750  1.00  0.00     0.047 A 
ATOM     22  C   UNL     1       0.397  -5.826   0.547  1.00  0.00     0.001 A 
ATOM     23  C   UNL     1      -0.171  -6.005  -0.726  1.00  0.00     0.004 A 
ENDBRANCH  14  15
ENDBRANCH  11  14
ENDBRANCH   5  11
ENDBRANCH   3   5
ENDBRANCH   2   3
ENDBRANCH   1   2
BRANCH   1  24
ATOM     24  C   UNL     1      -3.590   0.126   0.292  1.00  0.00     0.275 C 
BRANCH  24  25
ATOM     25  O   UNL     1      -3.309   0.459   1.662  1.00  0.00    -0.458 OA
BRANCH  25  26
ATOM     26  C   UNL     1      -2.243  -0.178   2.191  1.00  0.00     0.338 C 
ATOM     27  O   UNL     1      -1.526  -1.003   1.641  1.00  0.00    -0.246 OA
BRANCH  26  28
ATOM     28  C   UNL     1      -1.909   0.397   3.497  1.00  0.00     0.060 A 
ATOM     29  C   UNL     1      -0.882   1.333   3.513  1.00  0.00     0.016 A 
ATOM     30  C   UNL     1      -2.443  -0.085   4.689  1.00  0.00     0.016 A 
ATOM     31  C   UNL     1      -0.291   1.709   4.710  1.00  0.00     0.010 A 
ATOM     32  C   UNL     1      -1.902   0.361   5.904  1.00  0.00     0.010 A 
ATOM     33  C   UNL     1      -0.788   1.223   5.925  1.00  0.00    -0.014 A 
BRANCH  33  34
ATOM     34  C   UNL     1      -0.082   1.569   7.190  1.00  0.00     0.031 A 
ATOM     35  C   UNL     1       0.538   0.485   8.033  1.00  0.00     0.074 A 
ATOM     36  C   UNL     1       0.056   2.859   7.560  1.00  0.00     0.049 A 
ATOM     37  N   UNL     1       1.109   0.576   9.206  1.00  0.00    -0.248 NA
ATOM     38  C   UNL     1       0.502  -0.885   7.492  1.00  0.00     0.031 C 
ATOM     39  C   UNL     1      -0.466   4.010   6.821  1.00  0.00     0.029 A 
ATOM     40  N   UNL     1       0.687   3.420   8.643  1.00  0.00    -0.354 N 
ATOM     41  C   UNL     1       1.427  -0.724   9.578  1.00  0.00     0.074 A 
ATOM     42  C   UNL     1       1.001  -1.589   8.499  1.00  0.00     0.031 C 
ATOM     43  C   UNL     1      -0.100   5.138   7.447  1.00  0.00     0.029 A 
ATOM     44  C   UNL     1       0.622   4.794   8.667  1.00  0.00     0.049 A 
ATOM     45  H   UNL     1       1.143   2.889   9.335  1.00  0.00     0.167 HD
ATOM     46  C   UNL     1       2.032  -1.160  10.709  1.00  0.00     0.034 A 
ATOM     47  C   UNL     1       1.075   5.679   9.577  1.00  0.00     0.034 A 
ATOM     48  C   UNL     1       2.545  -0.295  11.737  1.00  0.00     0.049 A 
ATOM     49  C   UNL     1       1.780   5.170  10.803  1.00  0.00     0.074 A 
ATOM     50  C   UNL     1       3.196  -0.643  12.908  1.00  0.00     0.029 A 
ATOM     51  N   UNL     1       2.492   1.089  11.705  1.00  0.00    -0.354 N 
ATOM     52  N   UNL     1       2.091   3.938  11.125  1.00  0.00    -0.248 NA
ATOM     53  C   UNL     1       2.204   6.175  11.790  1.00  0.00     0.031 C 
ATOM     54  C   UNL     1       3.544   0.534  13.581  1.00  0.00     0.029 A 
ATOM     55  C   UNL     1       3.107   1.613  12.829  1.00  0.00     0.049 A 
ATOM     56  H   UNL     1       2.078   1.622  10.988  1.00  0.00     0.167 HD
ATOM     57  C   UNL     1       2.753   4.018  12.344  1.00  0.00     0.074 A 
ATOM     58  C   UNL     1       2.831   5.424  12.686  1.00  0.00     0.031 C 
ATOM     59  C   UNL     1       3.226   3.017  13.125  1.00  0.00     0.034 A 
BRANCH  46  60
ATOM     60  C   UNL     1       2.202  -2.645  10.880  1.00  0.00     0.023 A 
ATOM     61  C   UNL     1       3.228  -3.315  10.186  1.00  0.00     0.012 A 
ATOM     62  C   UNL     1       1.377  -3.368  11.765  1.00  0.00     0.148 A 
ATOM     63  C   UNL     1       3.416  -4.687  10.351  1.00  0.00     0.002 A 
ATOM     64  C   UNL     1       1.593  -4.729  11.950  1.00  0.00     0.091 A 
ATOM     65  F   UNL     1       0.386  -2.720  12.394  1.00  0.00    -0.205 F 
ATOM     66  C   UNL     1       2.606  -5.391  11.240  1.00  0.00     0.022 A 
BRANCH  64  67
ATOM     67  S   UNL     1       0.635  -5.692  13.127  1.00  0.00     0.127 S 
ATOM     68  O   UNL     1      -0.361  -6.316  12.258  1.00  0.00    -0.237 OA
ATOM     69  O   UNL     1       1.633  -6.615  13.669  1.00  0.00    -0.237 OA
ATOM     70  O   UNL     1       0.122  -4.729  14.093  1.00  0.00    -0.744 OA
ENDBRANCH  64  67
ENDBRANCH  46  60
BRANCH  47  71
ATOM     71  C   UNL     1       0.905   7.140   9.337  1.00  0.00     0.023 A 
ATOM     72  C   UNL     1       2.037   7.929   9.057  1.00  0.00     0.012 A 
ATOM     73  C   UNL     1      -0.368   7.742   9.327  1.00  0.00     0.148 A 
ATOM     74  C   UNL     1       1.905   9.291   8.784  1.00  0.00     0.002 A 
ATOM     75  C   UNL     1      -0.498   9.086   8.995  1.00  0.00     0.091 A 
ATOM     76  F   UNL     1      -1.435   6.987   9.628  1.00  0.00    -0.205 F 
ATOM     77  C   UNL     1       0.638   9.866   8.737  1.00  0.00     0.022 A 
BRANCH  75  78
ATOM     78  S   UNL     1      -2.111   9.843   8.766  1.00  0.00     0.127 S 
ATOM     79  O   UNL     1      -2.332  10.482  10.060  1.00  0.00    -0.237 OA
ATOM     80  O   UNL     1      -1.870  10.768   7.656  1.00  0.00    -0.237 OA
ATOM     81  O   UNL     1      -3.002   8.739   8.432  1.00  0.00    -0.744 OA
ENDBRANCH  75  78
ENDBRANCH  47  71
BRANCH  59  82
ATOM     82  C   UNL     1       3.873   3.402  14.427  1.00  0.00     0.023 A 
ATOM     83  C   UNL     1       3.059   3.776  15.514  1.00  0.00     0.012 A 
ATOM     84  C   UNL     1       5.268   3.331  14.597  1.00  0.00     0.148 A 
ATOM     85  C   UNL     1       3.627   4.096  16.746  1.00  0.00     0.002 A 
ATOM     86  C   UNL     1       5.825   3.618  15.839  1.00  0.00     0.091 A 
ATOM     87  F   UNL     1       6.029   2.998  13.544  1.00  0.00    -0.205 F 
ATOM     88  C   UNL     1       5.007   4.006  16.912  1.00  0.00     0.022 A 
BRANCH  86  89
ATOM     89  S   UNL     1       7.587   3.446  16.146  1.00  0.00     0.127 S 
ATOM     90  O   UNL     1       8.058   4.817  15.962  1.00  0.00    -0.237 OA
ATOM     91  O   UNL     1       7.626   2.969  17.529  1.00  0.00    -0.237 OA
ATOM     92  O   UNL     1       8.058   2.475  15.167  1.00  0.00    -0.744 OA
ENDBRANCH  86  89
ENDBRANCH  59  82
ENDBRANCH  33  34
ENDBRANCH  26  28
ENDBRANCH  25  26
ENDBRANCH  24  25
ENDBRANCH   1  24
TORSDOF 18
