REMARK SMILES Cc1cc(C)c2c(c1)C=C(C(=O)OCCOC(=O)c1ccc(-c3c4nc(c(-c5cccc(S(=O)(=O)[O-])c5F)c5ccc([nH]5)c(-c5cccc(S(=O)(=O)[O-])c5F)c5nc(c(-c6cccc(S(=O)(=O)[O-])c6F)c6ccc3[nH]6)C=C5)C=C4)cc1)[C@@H](C(F)(F)F)O2
REMARK SMILES IDX 15 1 14 2 13 3 11 4 12 5 10 6 1 7 2 8 3 9 8 10 4 11 7 12
REMARK SMILES IDX 5 13 6 14 9 15 87 16 82 17 83 18 84 19 85 20 86 21 16 22
REMARK SMILES IDX 17 23 18 24 19 25 20 26 81 27 21 28 80 29 22 30 23 31 24 32
REMARK SMILES IDX 74 33 25 34 79 35 73 36 75 37 26 38 78 39 72 40 71 41 27 43
REMARK SMILES IDX 59 44 39 45 58 46 40 47 43 48 57 49 76 50 41 51 42 52 56 54
REMARK SMILES IDX 77 55 44 56 28 57 29 58 37 59 30 60 32 61 38 62 31 63 33 64
REMARK SMILES IDX 34 65 35 66 36 67 60 68 61 69 69 70 62 71 64 72 70 73 63 74
REMARK SMILES IDX 65 75 66 76 67 77 68 78 45 79 46 80 54 81 47 82 49 83 55 84
REMARK SMILES IDX 48 85 50 86 51 87 52 88 53 89
REMARK H PARENT 75 42 43 53
REMARK Flexibility Score: inf
ROOT
ATOM      1  C   UNL     1      -3.687   2.294  -8.440  1.00  0.00     0.275 C 
ENDROOT
BRANCH   1   2
ATOM      2  C   UNL     1      -2.500   1.406  -8.814  1.00  0.00     0.275 C 
BRANCH   2   3
ATOM      3  O   UNL     1      -2.151   0.516  -7.731  1.00  0.00    -0.459 OA
BRANCH   3   4
ATOM      4  C   UNL     1      -1.041   0.857  -7.037  1.00  0.00     0.338 C 
ATOM      5  O   UNL     1      -0.298   1.799  -7.269  1.00  0.00    -0.246 OA
BRANCH   4   6
ATOM      6  C   UNL     1      -0.811  -0.080  -5.924  1.00  0.00     0.087 C 
ATOM      7  C   UNL     1       1.025  -0.166  -0.049  1.00  0.00     0.044 C 
ATOM      8  C   UNL     1       0.604  -0.749  -1.368  1.00  0.00    -0.050 A 
ATOM      9  C   UNL     1       0.751  -2.118  -1.623  1.00  0.00     0.010 A 
ATOM     10  C   UNL     1       0.124   0.078  -2.385  1.00  0.00     0.015 A 
ATOM     11  C   UNL     1       0.407  -2.665  -2.872  1.00  0.00    -0.008 A 
ATOM     12  C   UNL     1      -0.204  -0.455  -3.638  1.00  0.00     0.018 A 
ATOM     13  C   UNL     1       0.581  -4.135  -3.120  1.00  0.00     0.048 C 
ATOM     14  C   UNL     1      -0.069  -1.821  -3.885  1.00  0.00     0.130 A 
ATOM     15  C   UNL     1      -0.632   0.429  -4.702  1.00  0.00     0.027 C 
ATOM     16  O   UNL     1      -0.394  -2.393  -5.087  1.00  0.00    -0.475 OA
ATOM     17  C   UNL     1      -0.622  -1.532  -6.238  1.00  0.00     0.316 C 
BRANCH  17  18
ATOM     18  C   UNL     1       0.509  -1.745  -7.257  1.00  0.00     0.430 C 
ATOM     19  F   UNL     1       0.686  -3.062  -7.526  1.00  0.00    -0.167 F 
ATOM     20  F   UNL     1       0.227  -1.152  -8.443  1.00  0.00    -0.167 F 
ATOM     21  F   UNL     1       1.693  -1.256  -6.829  1.00  0.00    -0.167 F 
ENDBRANCH  17  18
ENDBRANCH   4   6
ENDBRANCH   3   4
ENDBRANCH   2   3
ENDBRANCH   1   2
BRANCH   1  22
ATOM     22  O   UNL     1      -3.308   3.233  -7.419  1.00  0.00    -0.458 OA
BRANCH  22  23
ATOM     23  C   UNL     1      -3.722   2.922  -6.171  1.00  0.00     0.338 C 
ATOM     24  O   UNL     1      -4.411   1.974  -5.835  1.00  0.00    -0.246 OA
BRANCH  23  25
ATOM     25  C   UNL     1      -3.137   3.857  -5.199  1.00  0.00     0.060 A 
ATOM     26  C   UNL     1      -1.779   3.758  -4.929  1.00  0.00     0.016 A 
ATOM     27  C   UNL     1      -3.946   4.675  -4.416  1.00  0.00     0.016 A 
ATOM     28  C   UNL     1      -1.260   4.317  -3.767  1.00  0.00     0.010 A 
ATOM     29  C   UNL     1      -3.378   5.378  -3.345  1.00  0.00     0.010 A 
ATOM     30  C   UNL     1      -2.042   5.157  -2.964  1.00  0.00    -0.014 A 
BRANCH  30  31
ATOM     31  C   UNL     1      -1.456   5.763  -1.729  1.00  0.00     0.031 A 
ATOM     32  C   UNL     1      -2.137   5.595  -0.390  1.00  0.00     0.074 A 
ATOM     33  C   UNL     1      -0.288   6.439  -1.799  1.00  0.00     0.049 A 
ATOM     34  N   UNL     1      -1.826   6.128   0.764  1.00  0.00    -0.248 NA
ATOM     35  C   UNL     1      -3.330   4.731  -0.338  1.00  0.00     0.031 C 
ATOM     36  C   UNL     1       0.485   6.668  -3.023  1.00  0.00     0.029 A 
ATOM     37  N   UNL     1       0.467   7.045  -0.824  1.00  0.00    -0.354 N 
ATOM     38  C   UNL     1      -2.816   5.723   1.655  1.00  0.00     0.074 A 
ATOM     39  C   UNL     1      -3.747   4.910   0.907  1.00  0.00     0.031 C 
ATOM     40  C   UNL     1       1.627   7.299  -2.719  1.00  0.00     0.029 A 
ATOM     41  C   UNL     1       1.626   7.620  -1.299  1.00  0.00     0.049 A 
ATOM     42  H   UNL     1       0.205   7.067   0.125  1.00  0.00     0.167 HD
ATOM     43  C   UNL     1      -2.927   5.985   2.979  1.00  0.00     0.034 A 
ATOM     44  C   UNL     1       2.570   8.355  -0.677  1.00  0.00     0.034 A 
ATOM     45  C   UNL     1      -1.953   6.725   3.736  1.00  0.00     0.049 A 
ATOM     46  C   UNL     1       2.410   8.646   0.788  1.00  0.00     0.074 A 
ATOM     47  C   UNL     1      -1.956   7.004   5.091  1.00  0.00     0.029 A 
ATOM     48  N   UNL     1      -0.801   7.289   3.212  1.00  0.00    -0.354 N 
ATOM     49  N   UNL     1       1.494   8.210   1.618  1.00  0.00    -0.248 NA
ATOM     50  C   UNL     1       3.411   9.528   1.406  1.00  0.00     0.031 C 
ATOM     51  C   UNL     1      -0.817   7.760   5.381  1.00  0.00     0.029 A 
ATOM     52  C   UNL     1      -0.091   7.928   4.213  1.00  0.00     0.049 A 
ATOM     53  H   UNL     1      -0.528   7.242   2.267  1.00  0.00     0.167 HD
ATOM     54  C   UNL     1       1.813   8.752   2.856  1.00  0.00     0.074 A 
ATOM     55  C   UNL     1       3.027   9.522   2.676  1.00  0.00     0.031 C 
ATOM     56  C   UNL     1       1.144   8.645   4.029  1.00  0.00     0.034 A 
BRANCH  43  57
ATOM     57  C   UNL     1      -4.119   5.432   3.722  1.00  0.00     0.023 A 
ATOM     58  C   UNL     1      -4.194   4.051   3.993  1.00  0.00     0.012 A 
ATOM     59  C   UNL     1      -5.112   6.291   4.237  1.00  0.00     0.148 A 
ATOM     60  C   UNL     1      -5.250   3.530   4.740  1.00  0.00     0.002 A 
ATOM     61  C   UNL     1      -6.135   5.771   5.022  1.00  0.00     0.091 A 
ATOM     62  F   UNL     1      -5.030   7.600   3.959  1.00  0.00    -0.205 F 
ATOM     63  C   UNL     1      -6.212   4.390   5.264  1.00  0.00     0.022 A 
BRANCH  61  64
ATOM     64  S   UNL     1      -7.374   6.800   5.818  1.00  0.00     0.127 S 
ATOM     65  O   UNL     1      -8.594   6.382   5.127  1.00  0.00    -0.237 OA
ATOM     66  O   UNL     1      -7.284   6.364   7.211  1.00  0.00    -0.237 OA
ATOM     67  O   UNL     1      -6.970   8.178   5.580  1.00  0.00    -0.744 OA
ENDBRANCH  61  64
ENDBRANCH  43  57
BRANCH  44  68
ATOM     68  C   UNL     1       3.756   8.847  -1.440  1.00  0.00     0.023 A 
ATOM     69  C   UNL     1       5.034   8.343  -1.128  1.00  0.00     0.012 A 
ATOM     70  C   UNL     1       3.625   9.764  -2.502  1.00  0.00     0.148 A 
ATOM     71  C   UNL     1       6.157   8.754  -1.847  1.00  0.00     0.002 A 
ATOM     72  C   UNL     1       4.737  10.119  -3.257  1.00  0.00     0.091 A 
ATOM     73  F   UNL     1       2.406  10.252  -2.773  1.00  0.00    -0.205 F 
ATOM     74  C   UNL     1       6.008   9.629  -2.920  1.00  0.00     0.022 A 
BRANCH  72  75
ATOM     75  S   UNL     1       4.615  11.119  -4.745  1.00  0.00     0.127 S 
ATOM     76  O   UNL     1       5.276  12.354  -4.330  1.00  0.00    -0.237 OA
ATOM     77  O   UNL     1       5.363  10.314  -5.712  1.00  0.00    -0.237 OA
ATOM     78  O   UNL     1       3.191  11.230  -5.030  1.00  0.00    -0.744 OA
ENDBRANCH  72  75
ENDBRANCH  44  68
BRANCH  56  79
ATOM     79  C   UNL     1       1.696   9.368   5.229  1.00  0.00     0.023 A 
ATOM     80  C   UNL     1       1.553  10.766   5.317  1.00  0.00     0.012 A 
ATOM     81  C   UNL     1       2.216   8.651   6.325  1.00  0.00     0.148 A 
ATOM     82  C   UNL     1       1.927  11.443   6.477  1.00  0.00     0.002 A 
ATOM     83  C   UNL     1       2.537   9.326   7.496  1.00  0.00     0.091 A 
ATOM     84  F   UNL     1       2.352   7.322   6.211  1.00  0.00    -0.205 F 
ATOM     85  C   UNL     1       2.401  10.722   7.571  1.00  0.00     0.022 A 
BRANCH  83  86
ATOM     86  S   UNL     1       3.049   8.478   8.995  1.00  0.00     0.127 S 
ATOM     87  O   UNL     1       4.413   8.976   9.167  1.00  0.00    -0.237 OA
ATOM     88  O   UNL     1       2.087   8.979   9.975  1.00  0.00    -0.237 OA
ATOM     89  O   UNL     1       2.945   7.053   8.710  1.00  0.00    -0.744 OA
ENDBRANCH  83  86
ENDBRANCH  56  79
ENDBRANCH  30  31
ENDBRANCH  23  25
ENDBRANCH  22  23
ENDBRANCH   1  22
TORSDOF 15
