REMARK SMILES O=C(OCCOC(=O)c1cc2c(cc1NS(=O)(=O)c1cc(Cl)ccc1Cl)OCCCO2)c1ccc(-c2c3nc(c(-c4cccc(S(=O)(=O)[O-])c4F)c4ccc([nH]4)c(-c4cccc(S(=O)(=O)[O-])c4F)c4nc(c(-c5cccc(S(=O)(=O)[O-])c5F)c5ccc2[nH]5)C=C4)C=C3)cc1
REMARK SMILES IDX 4 1 3 2 2 3 1 4 32 5 33 6 94 7 34 8 93 9 35 10 36 11 37 12
REMARK SMILES IDX 87 13 38 14 92 15 86 16 88 17 39 18 91 19 85 20 84 21 40 23
REMARK SMILES IDX 72 24 52 25 71 26 53 27 56 28 70 29 89 30 54 31 55 32 69 34
REMARK SMILES IDX 90 35 57 36 41 37 42 38 50 39 43 40 45 41 51 42 44 43 46 44
REMARK SMILES IDX 47 45 48 46 49 47 73 48 74 49 82 50 75 51 77 52 83 53 76 54
REMARK SMILES IDX 78 55 79 56 80 57 81 58 58 59 59 60 67 61 60 62 62 63 68 64
REMARK SMILES IDX 61 65 63 66 64 67 65 68 66 69 5 70 6 71 7 72 8 73 9 74 10 75
REMARK SMILES IDX 14 76 11 77 13 78 12 79 15 80 16 82 17 83 18 84 19 85 20 86
REMARK SMILES IDX 25 87 21 88 24 89 26 90 22 91 23 92 31 93 30 94 27 96 28 97
REMARK SMILES IDX 29 98
REMARK H PARENT 88 22 56 33 15 81
REMARK Flexibility Score: 100.00
ROOT
ATOM      1  C   UNL     1       5.050  -2.198   0.465  1.00  0.00     0.275 C 
ENDROOT
BRANCH   1   2
ATOM      2  O   UNL     1       3.565  -1.256   1.089  1.00  0.00    -0.458 OA
BRANCH   2   3
ATOM      3  C   UNL     1       2.533   0.231   0.487  1.00  0.00     0.338 C 
ATOM      4  O   UNL     1       1.290   0.285   0.709  1.00  0.00    -0.246 OA
BRANCH   3   5
ATOM      5  C   UNL     1       3.012   1.830  -0.362  1.00  0.00     0.060 A 
ATOM      6  C   UNL     1       2.031   2.689  -0.916  1.00  0.00     0.016 A 
ATOM      7  C   UNL     1       4.245   2.168  -1.006  1.00  0.00     0.016 A 
ATOM      8  C   UNL     1       2.256   3.506  -2.162  1.00  0.00     0.010 A 
ATOM      9  C   UNL     1       4.463   2.854  -2.236  1.00  0.00     0.010 A 
ATOM     10  C   UNL     1       3.444   3.446  -2.933  1.00  0.00    -0.014 A 
BRANCH  10  11
ATOM     11  C   UNL     1       3.846   4.027  -4.287  1.00  0.00     0.031 A 
ATOM     12  C   UNL     1       4.126   3.238  -5.590  1.00  0.00     0.074 A 
ATOM     13  C   UNL     1       4.538   5.184  -4.260  1.00  0.00     0.049 A 
ATOM     14  N   UNL     1       4.183   3.653  -6.841  1.00  0.00    -0.248 NA
ATOM     15  C   UNL     1       4.464   1.818  -5.483  1.00  0.00     0.031 C 
ATOM     16  C   UNL     1       4.780   5.963  -3.050  1.00  0.00     0.029 A 
ATOM     17  N   UNL     1       5.291   5.806  -5.227  1.00  0.00    -0.354 N 
ATOM     18  C   UNL     1       4.314   2.508  -7.641  1.00  0.00     0.074 A 
ATOM     19  C   UNL     1       4.441   1.389  -6.743  1.00  0.00     0.031 C 
ATOM     20  C   UNL     1       5.691   6.906  -3.322  1.00  0.00     0.029 A 
ATOM     21  C   UNL     1       6.036   6.849  -4.742  1.00  0.00     0.049 A 
ATOM     22  H   UNL     1       5.295   5.529  -6.172  1.00  0.00     0.167 HD
ATOM     23  C   UNL     1       4.421   2.381  -8.992  1.00  0.00     0.034 A 
ATOM     24  C   UNL     1       6.875   7.699  -5.365  1.00  0.00     0.034 A 
ATOM     25  C   UNL     1       4.890   3.448  -9.835  1.00  0.00     0.049 A 
ATOM     26  C   UNL     1       7.053   7.622  -6.851  1.00  0.00     0.074 A 
ATOM     27  C   UNL     1       5.035   3.493 -11.211  1.00  0.00     0.029 A 
ATOM     28  N   UNL     1       5.463   4.606  -9.335  1.00  0.00    -0.354 N 
ATOM     29  N   UNL     1       6.604   6.718  -7.689  1.00  0.00    -0.248 NA
ATOM     30  C   UNL     1       7.791   8.721  -7.486  1.00  0.00     0.031 C 
ATOM     31  C   UNL     1       5.764   4.651 -11.530  1.00  0.00     0.029 A 
ATOM     32  C   UNL     1       6.031   5.339 -10.357  1.00  0.00     0.049 A 
ATOM     33  H   UNL     1       5.464   4.868  -8.386  1.00  0.00     0.167 HD
ATOM     34  C   UNL     1       6.980   7.152  -8.956  1.00  0.00     0.074 A 
ATOM     35  C   UNL     1       7.690   8.403  -8.772  1.00  0.00     0.031 C 
ATOM     36  C   UNL     1       6.752   6.571 -10.162  1.00  0.00     0.034 A 
BRANCH  23  37
ATOM     37  C   UNL     1       3.956   1.093  -9.650  1.00  0.00     0.023 A 
ATOM     38  C   UNL     1       2.557   0.911  -9.742  1.00  0.00     0.012 A 
ATOM     39  C   UNL     1       4.795   0.173 -10.315  1.00  0.00     0.148 A 
ATOM     40  C   UNL     1       2.002  -0.146 -10.467  1.00  0.00     0.002 A 
ATOM     41  C   UNL     1       4.234  -0.885 -11.041  1.00  0.00     0.091 A 
ATOM     42  F   UNL     1       6.122   0.350 -10.243  1.00  0.00    -0.205 F 
ATOM     43  C   UNL     1       2.839  -1.041 -11.120  1.00  0.00     0.022 A 
BRANCH  41  44
ATOM     44  S   UNL     1       5.204  -2.115 -11.932  1.00  0.00     0.127 S 
ATOM     45  O   UNL     1       4.817  -3.348 -11.247  1.00  0.00    -0.237 OA
ATOM     46  O   UNL     1       4.687  -1.990 -13.295  1.00  0.00    -0.237 OA
ATOM     47  O   UNL     1       6.597  -1.730 -11.759  1.00  0.00    -0.744 OA
ENDBRANCH  41  44
ENDBRANCH  23  37
BRANCH  24  48
ATOM     48  C   UNL     1       7.402   8.821  -4.545  1.00  0.00     0.023 A 
ATOM     49  C   UNL     1       6.627   9.996  -4.479  1.00  0.00     0.012 A 
ATOM     50  C   UNL     1       8.474   8.639  -3.651  1.00  0.00     0.148 A 
ATOM     51  C   UNL     1       6.889  10.961  -3.511  1.00  0.00     0.002 A 
ATOM     52  C   UNL     1       8.712   9.595  -2.670  1.00  0.00     0.091 A 
ATOM     53  F   UNL     1       9.177   7.500  -3.727  1.00  0.00    -0.205 F 
ATOM     54  C   UNL     1       7.919  10.754  -2.598  1.00  0.00     0.022 A 
BRANCH  52  55
ATOM     55  S   UNL     1       9.926   9.370  -1.364  1.00  0.00     0.127 S 
ATOM     56  O   UNL     1      10.843  10.479  -1.616  1.00  0.00    -0.237 OA
ATOM     57  O   UNL     1       9.102   9.512  -0.163  1.00  0.00    -0.237 OA
ATOM     58  O   UNL     1      10.484   8.040  -1.565  1.00  0.00    -0.744 OA
ENDBRANCH  52  55
ENDBRANCH  24  48
BRANCH  36  59
ATOM     59  C   UNL     1       7.301   7.252 -11.383  1.00  0.00     0.023 A 
ATOM     60  C   UNL     1       8.682   7.190 -11.654  1.00  0.00     0.012 A 
ATOM     61  C   UNL     1       6.439   7.879 -12.302  1.00  0.00     0.148 A 
ATOM     62  C   UNL     1       9.200   7.764 -12.814  1.00  0.00     0.002 A 
ATOM     63  C   UNL     1       6.957   8.417 -13.473  1.00  0.00     0.091 A 
ATOM     64  F   UNL     1       5.131   7.938 -12.013  1.00  0.00    -0.205 F 
ATOM     65  C   UNL     1       8.338   8.367 -13.727  1.00  0.00     0.022 A 
BRANCH  63  66
ATOM     66  S   UNL     1       5.915   9.148 -14.739  1.00  0.00     0.127 S 
ATOM     67  O   UNL     1       6.236  10.568 -14.604  1.00  0.00    -0.237 OA
ATOM     68  O   UNL     1       6.421   8.520 -15.959  1.00  0.00    -0.237 OA
ATOM     69  O   UNL     1       4.547   8.783 -14.394  1.00  0.00    -0.744 OA
ENDBRANCH  63  66
ENDBRANCH  36  59
ENDBRANCH  10  11
ENDBRANCH   3   5
ENDBRANCH   2   3
ENDBRANCH   1   2
BRANCH   1  70
ATOM     70  C   UNL     1       5.678  -1.772  -1.270  1.00  0.00     0.275 C 
BRANCH  70  71
ATOM     71  O   UNL     1       4.886  -0.777  -2.474  1.00  0.00    -0.458 OA
BRANCH  71  72
ATOM     72  C   UNL     1       3.662  -0.064  -2.651  1.00  0.00     0.340 C 
ATOM     73  O   UNL     1       2.791   0.109  -1.811  1.00  0.00    -0.246 OA
BRANCH  72  74
ATOM     74  C   UNL     1       2.755   0.113  -3.752  1.00  0.00     0.088 A 
ATOM     75  C   UNL     1       1.620   0.947  -3.609  1.00  0.00     0.068 A 
ATOM     76  C   UNL     1       2.596  -0.907  -4.593  1.00  0.00     0.067 A 
ATOM     77  C   UNL     1       0.703   1.228  -4.569  1.00  0.00     0.162 A 
ATOM     78  C   UNL     1       1.844  -0.551  -5.750  1.00  0.00     0.078 A 
ATOM     79  C   UNL     1       0.918   0.587  -5.751  1.00  0.00     0.163 A 
BRANCH  76  80
ATOM     80  N   UNL     1       3.360  -2.086  -4.214  1.00  0.00    -0.279 N 
ATOM     81  H   UNL     1       3.955  -2.526  -4.863  1.00  0.00     0.180 HD
BRANCH  80  82
ATOM     82  S   UNL     1       3.188  -2.765  -2.446  1.00  0.00     0.263 S 
ATOM     83  O   UNL     1       1.815  -3.226  -2.390  1.00  0.00    -0.201 OA
ATOM     84  O   UNL     1       4.242  -3.754  -2.306  1.00  0.00    -0.201 OA
BRANCH  82  85
ATOM     85  C   UNL     1       3.349  -1.489  -0.699  1.00  0.00     0.107 A 
ATOM     86  C   UNL     1       2.032  -2.160   0.300  1.00  0.00     0.044 A 
ATOM     87  C   UNL     1       4.509  -0.154   0.079  1.00  0.00     0.061 A 
ATOM     88  C   UNL     1       1.831  -1.636   1.956  1.00  0.00     0.042 A 
ATOM     89  C   UNL     1       4.179   0.369   1.828  1.00  0.00     0.023 A 
ATOM     90  Cl  UNL     1       6.404   0.295   0.202  1.00  0.00    -0.083 Cl
ATOM     91  Cl  UNL     1       0.564  -2.370   2.872  1.00  0.00    -0.084 Cl
ATOM     92  C   UNL     1       2.834  -0.392   2.706  1.00  0.00     0.022 A 
ENDBRANCH  82  85
ENDBRANCH  80  82
ENDBRANCH  76  80
BRANCH  77  93
ATOM     93  O   UNL     1      -0.149   2.194  -4.157  1.00  0.00    -0.490 OA
BRANCH  93  94
ATOM     94  C   UNL     1      -1.468   2.078  -4.633  1.00  0.00     0.233 CG0
ATOM     95  G   UNL     1      -1.465   2.642  -6.023  1.00  0.00     0.000 G0
ENDBRANCH  93  94
ENDBRANCH  77  93
BRANCH  79  96
ATOM     96  O   UNL     1       0.428   1.075  -6.926  1.00  0.00    -0.489 OA
BRANCH  96  97
ATOM     97  C   UNL     1      -0.898   1.626  -7.021  1.00  0.00     0.233 C 
BRANCH  97  98
ATOM     98  C   UNL     1      -1.465   2.642  -6.023  1.00  0.00     0.083 CG0
ATOM     99  G   UNL     1      -1.468   2.078  -4.633  1.00  0.00     0.000 G0
ENDBRANCH  97  98
ENDBRANCH  96  97
ENDBRANCH  79  96
ENDBRANCH  72  74
ENDBRANCH  71  72
ENDBRANCH  70  71
ENDBRANCH   1  70
TORSDOF 17
