REMARK SMILES CC[C@](C)(Nc1cccc(Br)c1)C(=O)OCCOC(=O)c1ccc(-c2c3nc(c(-c4cccc(S(=O)(=O)[O-])c4F)c4ccc([nH]4)c(-c4cccc(S(=O)(=O)[O-])c4F)c4nc(c(-c5cccc(S(=O)(=O)[O-])c5F)c5ccc2[nH]5)C=C4)C=C3)cc1
REMARK SMILES IDX 17 1 16 2 15 3 13 4 14 5 3 6 4 7 2 8 1 9 5 10 6 12 7 13
REMARK SMILES IDX 12 14 8 15 10 16 9 17 11 18 18 19 19 20 20 21 21 22 22 23
REMARK SMILES IDX 83 24 23 25 82 26 24 27 25 28 26 29 76 30 27 31 81 32 75 33
REMARK SMILES IDX 77 34 28 35 80 36 74 37 73 38 29 40 61 41 41 42 60 43 42 44
REMARK SMILES IDX 45 45 59 46 78 47 43 48 44 49 58 51 79 52 46 53 30 54 31 55
REMARK SMILES IDX 39 56 32 57 34 58 40 59 33 60 35 61 36 62 37 63 38 64 62 65
REMARK SMILES IDX 63 66 71 67 64 68 66 69 72 70 65 71 67 72 68 73 69 74 70 75
REMARK SMILES IDX 47 76 48 77 56 78 49 79 51 80 57 81 50 82 52 83 53 84 54 85
REMARK SMILES IDX 55 86
REMARK H PARENT 5 11 77 39 45 50
REMARK Flexibility Score: inf
ROOT
ATOM      1  C   UNL     1       5.169   2.767  -1.124  1.00  0.00     0.275 C 
ENDROOT
BRANCH   1   2
ATOM      2  C   UNL     1       4.605   2.105  -2.380  1.00  0.00     0.274 C 
BRANCH   2   3
ATOM      3  O   UNL     1       3.231   2.488  -2.585  1.00  0.00    -0.460 OA
BRANCH   3   4
ATOM      4  C   UNL     1       2.284   1.726  -1.978  1.00  0.00     0.331 C 
ATOM      5  O   UNL     1       2.542   0.666  -1.413  1.00  0.00    -0.249 OA
BRANCH   4   6
ATOM      6  C   UNL     1       0.831   2.266  -2.122  1.00  0.00     0.132 C 
ATOM      7  C   UNL     1       0.106   2.151  -0.770  1.00  0.00     0.047 C 
BRANCH   6   8
ATOM      8  C   UNL     1       0.135   1.387  -3.204  1.00  0.00     0.037 C 
ATOM      9  C   UNL     1      -0.164  -0.059  -2.819  1.00  0.00     0.007 C 
ENDBRANCH   6   8
BRANCH   6  10
ATOM     10  N   UNL     1       0.686   3.672  -2.605  1.00  0.00    -0.370 N 
ATOM     11  H   UNL     1      -0.033   3.861  -3.252  1.00  0.00     0.161 HD
BRANCH  10  12
ATOM     12  C   UNL     1       1.489   4.730  -2.211  1.00  0.00     0.036 A 
ATOM     13  C   UNL     1       2.435   5.234  -3.112  1.00  0.00     0.026 A 
ATOM     14  C   UNL     1       1.304   5.401  -1.000  1.00  0.00     0.041 A 
ATOM     15  C   UNL     1       3.238   6.329  -2.789  1.00  0.00     0.003 A 
ATOM     16  C   UNL     1       2.097   6.507  -0.681  1.00  0.00     0.020 A 
ATOM     17  C   UNL     1       3.071   6.967  -1.565  1.00  0.00     0.016 A 
ATOM     18  Br  UNL     1       1.825   7.414   0.957  1.00  0.00    -0.051 Br
ENDBRANCH  10  12
ENDBRANCH   6  10
ENDBRANCH   4   6
ENDBRANCH   3   4
ENDBRANCH   2   3
ENDBRANCH   1   2
BRANCH   1  19
ATOM     19  O   UNL     1       4.558   2.174   0.033  1.00  0.00    -0.458 OA
BRANCH  19  20
ATOM     20  C   UNL     1       4.336   3.006   1.075  1.00  0.00     0.338 C 
ATOM     21  O   UNL     1       4.656   4.178   1.160  1.00  0.00    -0.246 OA
BRANCH  20  22
ATOM     22  C   UNL     1       3.651   2.263   2.153  1.00  0.00     0.060 A 
ATOM     23  C   UNL     1       2.528   1.481   1.879  1.00  0.00     0.016 A 
ATOM     24  C   UNL     1       4.088   2.416   3.468  1.00  0.00     0.016 A 
ATOM     25  C   UNL     1       1.788   0.922   2.919  1.00  0.00     0.010 A 
ATOM     26  C   UNL     1       3.393   1.785   4.505  1.00  0.00     0.010 A 
ATOM     27  C   UNL     1       2.209   1.071   4.247  1.00  0.00    -0.014 A 
BRANCH  27  28
ATOM     28  C   UNL     1       1.382   0.548   5.368  1.00  0.00     0.031 A 
ATOM     29  C   UNL     1       0.821   1.504   6.389  1.00  0.00     0.074 A 
ATOM     30  C   UNL     1       1.132  -0.771   5.481  1.00  0.00     0.049 A 
ATOM     31  N   UNL     1       0.198   1.245   7.510  1.00  0.00    -0.248 NA
ATOM     32  C   UNL     1       1.002   2.942   6.125  1.00  0.00     0.031 C 
ATOM     33  C   UNL     1       1.603  -1.804   4.557  1.00  0.00     0.029 A 
ATOM     34  N   UNL     1       0.421  -1.471   6.425  1.00  0.00    -0.354 N 
ATOM     35  C   UNL     1      -0.009   2.476   8.122  1.00  0.00     0.074 A 
ATOM     36  C   UNL     1       0.538   3.485   7.242  1.00  0.00     0.031 C 
ATOM     37  C   UNL     1       1.147  -2.999   4.963  1.00  0.00     0.029 A 
ATOM     38  C   UNL     1       0.401  -2.829   6.206  1.00  0.00     0.049 A 
ATOM     39  H   UNL     1      -0.031  -1.041   7.186  1.00  0.00     0.167 HD
ATOM     40  C   UNL     1      -0.611   2.745   9.305  1.00  0.00     0.034 A 
ATOM     41  C   UNL     1      -0.142  -3.827   6.933  1.00  0.00     0.034 A 
ATOM     42  C   UNL     1      -1.244   1.754  10.132  1.00  0.00     0.049 A 
ATOM     43  C   UNL     1      -0.861  -3.494   8.211  1.00  0.00     0.074 A 
ATOM     44  C   UNL     1      -1.922   1.933  11.325  1.00  0.00     0.029 A 
ATOM     45  N   UNL     1      -1.299   0.400   9.839  1.00  0.00    -0.354 N 
ATOM     46  N   UNL     1      -1.089  -2.319   8.748  1.00  0.00    -0.248 NA
ATOM     47  C   UNL     1      -1.407  -4.622   8.980  1.00  0.00     0.031 C 
ATOM     48  C   UNL     1      -2.395   0.686  11.749  1.00  0.00     0.029 A 
ATOM     49  C   UNL     1      -2.008  -0.268  10.822  1.00  0.00     0.049 A 
ATOM     50  H   UNL     1      -0.893  -0.024   9.049  1.00  0.00     0.167 HD
ATOM     51  C   UNL     1      -1.817  -2.564   9.906  1.00  0.00     0.074 A 
ATOM     52  C   UNL     1      -2.019  -3.997   9.977  1.00  0.00     0.031 C 
ATOM     53  C   UNL     1      -2.253  -1.686  10.842  1.00  0.00     0.034 A 
BRANCH  40  54
ATOM     54  C   UNL     1      -0.645   4.178   9.760  1.00  0.00     0.023 A 
ATOM     55  C   UNL     1      -1.567   5.072   9.181  1.00  0.00     0.012 A 
ATOM     56  C   UNL     1       0.203   4.628  10.791  1.00  0.00     0.148 A 
ATOM     57  C   UNL     1      -1.627   6.400   9.605  1.00  0.00     0.002 A 
ATOM     58  C   UNL     1       0.113   5.944  11.232  1.00  0.00     0.091 A 
ATOM     59  F   UNL     1       1.096   3.772  11.308  1.00  0.00    -0.205 F 
ATOM     60  C   UNL     1      -0.796   6.833  10.636  1.00  0.00     0.022 A 
BRANCH  58  61
ATOM     61  S   UNL     1       1.100   6.557  12.602  1.00  0.00     0.127 S 
ATOM     62  O   UNL     1       2.199   7.222  11.905  1.00  0.00    -0.237 OA
ATOM     63  O   UNL     1       0.173   7.463  13.281  1.00  0.00    -0.237 OA
ATOM     64  O   UNL     1       1.461   5.379  13.380  1.00  0.00    -0.744 OA
ENDBRANCH  58  61
ENDBRANCH  40  54
BRANCH  41  65
ATOM     65  C   UNL     1      -0.074  -5.229   6.431  1.00  0.00     0.023 A 
ATOM     66  C   UNL     1      -1.252  -5.851   5.976  1.00  0.00     0.012 A 
ATOM     67  C   UNL     1       1.145  -5.928   6.348  1.00  0.00     0.148 A 
ATOM     68  C   UNL     1      -1.220  -7.147   5.459  1.00  0.00     0.002 A 
ATOM     69  C   UNL     1       1.180  -7.197   5.778  1.00  0.00     0.091 A 
ATOM     70  F   UNL     1       2.255  -5.337   6.815  1.00  0.00    -0.205 F 
ATOM     71  C   UNL     1      -0.003  -7.813   5.345  1.00  0.00     0.022 A 
BRANCH  69  72
ATOM     72  S   UNL     1       2.733  -8.044   5.462  1.00  0.00     0.127 S 
ATOM     73  O   UNL     1       2.830  -8.935   6.614  1.00  0.00    -0.237 OA
ATOM     74  O   UNL     1       2.471  -8.713   4.187  1.00  0.00    -0.237 OA
ATOM     75  O   UNL     1       3.731  -6.985   5.380  1.00  0.00    -0.744 OA
ENDBRANCH  69  72
ENDBRANCH  41  65
BRANCH  53  76
ATOM     76  C   UNL     1      -3.004  -2.245  12.019  1.00  0.00     0.023 A 
ATOM     77  C   UNL     1      -2.289  -2.878  13.055  1.00  0.00     0.012 A 
ATOM     78  C   UNL     1      -4.397  -2.086  12.135  1.00  0.00     0.148 A 
ATOM     79  C   UNL     1      -2.953  -3.364  14.179  1.00  0.00     0.002 A 
ATOM     80  C   UNL     1      -5.049  -2.542  13.276  1.00  0.00     0.091 A 
ATOM     81  F   UNL     1      -5.066  -1.504  11.128  1.00  0.00    -0.205 F 
ATOM     82  C   UNL     1      -4.330  -3.187  14.296  1.00  0.00     0.022 A 
BRANCH  80  83
ATOM     83  S   UNL     1      -6.808  -2.275  13.521  1.00  0.00     0.127 S 
ATOM     84  O   UNL     1      -7.378  -3.516  13.003  1.00  0.00    -0.237 OA
ATOM     85  O   UNL     1      -6.912  -2.117  14.973  1.00  0.00    -0.237 OA
ATOM     86  O   UNL     1      -7.122  -1.067  12.768  1.00  0.00    -0.744 OA
ENDBRANCH  80  83
ENDBRANCH  53  76
ENDBRANCH  27  28
ENDBRANCH  20  22
ENDBRANCH  19  20
ENDBRANCH   1  19
TORSDOF 17
