REMARK SMILES CCc1ccc(C(=O)N2Cc3nc[nH]c3C[C@@H]2C(=O)OCCOC(=O)c2ccc(-c3c4nc(c(-c5cccc(S(=O)(=O)[O-])c5F)c5ccc([nH]5)c(-c5cccc(S(=O)(=O)[O-])c5F)c5nc(c(-c6cccc(S(=O)(=O)[O-])c6F)c6ccc3[nH]6)C=C5)C=C4)cc2)o1
REMARK SMILES IDX 21 1 20 2 18 3 19 4 17 5 9 6 10 7 11 8 16 9 12 10 15 11
REMARK SMILES IDX 13 12 14 13 7 15 8 16 6 17 3 18 4 19 89 20 5 21 2 22 1 23
REMARK SMILES IDX 22 24 23 25 24 26 25 27 26 28 27 29 88 30 28 31 87 32 29 33
REMARK SMILES IDX 30 34 31 35 81 36 32 37 86 38 80 39 82 40 33 41 85 42 79 43
REMARK SMILES IDX 78 44 34 46 66 47 46 48 65 49 47 50 50 51 64 52 83 53 48 54
REMARK SMILES IDX 49 55 63 57 84 58 51 59 35 60 36 61 44 62 37 63 39 64 45 65
REMARK SMILES IDX 38 66 40 67 41 68 42 69 43 70 67 71 68 72 76 73 69 74 71 75
REMARK SMILES IDX 77 76 70 77 72 78 73 79 74 80 75 81 52 82 53 83 61 84 54 85
REMARK SMILES IDX 56 86 62 87 55 88 57 89 58 90 59 91 60 92
REMARK H PARENT 14 14 82 45 50 56
REMARK Flexibility Score: inf
ROOT
ATOM      1  C   UNL     1       5.258  -4.608  -0.618  1.00  0.00     0.274 C 
ENDROOT
BRANCH   1   2
ATOM      2  O   UNL     1       4.275  -5.482  -1.211  1.00  0.00    -0.461 OA
BRANCH   2   3
ATOM      3  C   UNL     1       3.540  -4.934  -2.224  1.00  0.00     0.329 C 
ATOM      4  O   UNL     1       3.568  -3.739  -2.492  1.00  0.00    -0.250 OA
BRANCH   3   5
ATOM      5  C   UNL     1       2.779  -5.988  -3.065  1.00  0.00     0.201 C 
ATOM      6  N   UNL     1       1.314  -5.759  -3.316  1.00  0.00    -0.316 N 
ATOM      7  C   UNL     1       0.569  -6.725  -4.148  1.00  0.00     0.179 C 
ATOM      8  C   UNL     1       1.165  -8.087  -4.069  1.00  0.00     0.081 A 
ATOM      9  C   UNL     1       3.101  -7.434  -2.583  1.00  0.00     0.093 C 
ATOM     10  N   UNL     1       0.690  -9.200  -4.715  1.00  0.00    -0.240 NA
ATOM     11  C   UNL     1       2.316  -8.391  -3.389  1.00  0.00     0.042 A 
ATOM     12  C   UNL     1       1.561 -10.151  -4.447  1.00  0.00     0.197 A 
ATOM     13  N   UNL     1       2.586  -9.698  -3.656  1.00  0.00    -0.348 N 
ATOM     14  H   UNL     1       3.362 -10.216  -3.344  1.00  0.00     0.167 HD
BRANCH   6  15
ATOM     15  C   UNL     1       0.559  -4.915  -2.508  1.00  0.00     0.290 C 
ATOM     16  O   UNL     1      -0.265  -5.372  -1.718  1.00  0.00    -0.265 OA
BRANCH  15  17
ATOM     17  C   UNL     1       0.738  -3.494  -2.765  1.00  0.00     0.191 A 
ATOM     18  C   UNL     1       0.681  -1.348  -2.257  1.00  0.00     0.104 A 
ATOM     19  C   UNL     1       1.285  -1.433  -3.492  1.00  0.00     0.046 A 
ATOM     20  O   UNL     1       0.321  -2.590  -1.821  1.00  0.00    -0.456 OA
ATOM     21  C   UNL     1       1.286  -2.805  -3.836  1.00  0.00     0.056 A 
BRANCH  18  22
ATOM     22  C   UNL     1       0.359  -0.201  -1.373  1.00  0.00     0.072 C 
ATOM     23  C   UNL     1       1.110  -0.250  -0.052  1.00  0.00     0.012 C 
ENDBRANCH  18  22
ENDBRANCH  15  17
ENDBRANCH   6  15
ENDBRANCH   3   5
ENDBRANCH   2   3
ENDBRANCH   1   2
BRANCH   1  24
ATOM     24  C   UNL     1       6.573  -4.632  -1.391  1.00  0.00     0.275 C 
BRANCH  24  25
ATOM     25  O   UNL     1       6.433  -4.030  -2.676  1.00  0.00    -0.458 OA
BRANCH  25  26
ATOM     26  C   UNL     1       6.087  -4.880  -3.670  1.00  0.00     0.338 C 
ATOM     27  O   UNL     1       5.725  -6.037  -3.548  1.00  0.00    -0.246 OA
BRANCH  26  28
ATOM     28  C   UNL     1       6.378  -4.281  -4.971  1.00  0.00     0.060 A 
ATOM     29  C   UNL     1       6.136  -5.094  -6.086  1.00  0.00     0.016 A 
ATOM     30  C   UNL     1       7.221  -3.167  -5.018  1.00  0.00     0.016 A 
ATOM     31  C   UNL     1       6.950  -4.944  -7.182  1.00  0.00     0.010 A 
ATOM     32  C   UNL     1       8.054  -3.041  -6.098  1.00  0.00     0.010 A 
ATOM     33  C   UNL     1       7.963  -3.987  -7.119  1.00  0.00    -0.014 A 
BRANCH  33  34
ATOM     34  C   UNL     1       8.936  -3.961  -8.184  1.00  0.00     0.031 A 
ATOM     35  C   UNL     1       8.459  -3.264  -9.393  1.00  0.00     0.074 A 
ATOM     36  C   UNL     1      10.193  -4.400  -7.989  1.00  0.00     0.049 A 
ATOM     37  N   UNL     1       8.298  -3.749 -10.578  1.00  0.00    -0.248 NA
ATOM     38  C   UNL     1       7.948  -1.893  -9.220  1.00  0.00     0.031 C 
ATOM     39  C   UNL     1      10.809  -4.802  -6.720  1.00  0.00     0.029 A 
ATOM     40  N   UNL     1      11.237  -4.406  -8.860  1.00  0.00    -0.354 N 
ATOM     41  C   UNL     1       7.898  -2.664 -11.350  1.00  0.00     0.074 A 
ATOM     42  C   UNL     1       7.488  -1.629 -10.440  1.00  0.00     0.031 C 
ATOM     43  C   UNL     1      12.153  -4.751  -6.852  1.00  0.00     0.029 A 
ATOM     44  C   UNL     1      12.476  -4.424  -8.231  1.00  0.00     0.049 A 
ATOM     45  H   UNL     1      11.126  -4.399  -9.839  1.00  0.00     0.167 HD
ATOM     46  C   UNL     1       8.217  -2.575 -12.666  1.00  0.00     0.034 A 
ATOM     47  C   UNL     1      13.661  -4.072  -8.787  1.00  0.00     0.034 A 
ATOM     48  C   UNL     1       8.578  -3.849 -13.226  1.00  0.00     0.049 A 
ATOM     49  C   UNL     1      13.488  -4.093 -10.259  1.00  0.00     0.074 A 
ATOM     50  C   UNL     1       7.960  -5.080 -13.315  1.00  0.00     0.029 A 
ATOM     51  N   UNL     1       9.909  -4.072 -13.477  1.00  0.00    -0.354 N 
ATOM     52  N   UNL     1      13.294  -5.179 -10.954  1.00  0.00    -0.248 NA
ATOM     53  C   UNL     1      13.123  -2.853 -10.925  1.00  0.00     0.031 C 
ATOM     54  C   UNL     1       9.008  -6.032 -13.157  1.00  0.00     0.029 A 
ATOM     55  C   UNL     1      10.208  -5.329 -13.022  1.00  0.00     0.049 A 
ATOM     56  H   UNL     1      10.534  -3.444 -13.906  1.00  0.00     0.167 HD
ATOM     57  C   UNL     1      12.386  -4.806 -11.938  1.00  0.00     0.074 A 
ATOM     58  C   UNL     1      12.419  -3.345 -11.947  1.00  0.00     0.031 C 
ATOM     59  C   UNL     1      11.481  -5.698 -12.439  1.00  0.00     0.034 A 
BRANCH  46  60
ATOM     60  C   UNL     1       8.553  -1.272 -13.339  1.00  0.00     0.023 A 
ATOM     61  C   UNL     1       8.605  -1.254 -14.746  1.00  0.00     0.012 A 
ATOM     62  C   UNL     1       9.057  -0.136 -12.661  1.00  0.00     0.148 A 
ATOM     63  C   UNL     1       9.144  -0.166 -15.441  1.00  0.00     0.002 A 
ATOM     64  C   UNL     1       9.491   0.983 -13.356  1.00  0.00     0.091 A 
ATOM     65  F   UNL     1       9.261  -0.174 -11.340  1.00  0.00    -0.205 F 
ATOM     66  C   UNL     1       9.567   0.963 -14.748  1.00  0.00     0.022 A 
BRANCH  64  67
ATOM     67  S   UNL     1       9.954   2.484 -12.486  1.00  0.00     0.127 S 
ATOM     68  O   UNL     1      11.408   2.374 -12.459  1.00  0.00    -0.237 OA
ATOM     69  O   UNL     1       9.425   3.524 -13.369  1.00  0.00    -0.237 OA
ATOM     70  O   UNL     1       9.271   2.398 -11.199  1.00  0.00    -0.744 OA
ENDBRANCH  64  67
ENDBRANCH  46  60
BRANCH  47  71
ATOM     71  C   UNL     1      14.850  -3.464  -8.146  1.00  0.00     0.023 A 
ATOM     72  C   UNL     1      16.100  -3.546  -8.789  1.00  0.00     0.012 A 
ATOM     73  C   UNL     1      14.726  -2.592  -7.040  1.00  0.00     0.148 A 
ATOM     74  C   UNL     1      17.183  -2.768  -8.361  1.00  0.00     0.002 A 
ATOM     75  C   UNL     1      15.810  -1.836  -6.607  1.00  0.00     0.091 A 
ATOM     76  F   UNL     1      13.524  -2.431  -6.472  1.00  0.00    -0.205 F 
ATOM     77  C   UNL     1      17.038  -1.911  -7.274  1.00  0.00     0.022 A 
BRANCH  75  78
ATOM     78  S   UNL     1      15.689  -0.711  -5.209  1.00  0.00     0.127 S 
ATOM     79  O   UNL     1      16.913  -1.013  -4.466  1.00  0.00    -0.237 OA
ATOM     80  O   UNL     1      15.678   0.592  -5.868  1.00  0.00    -0.237 OA
ATOM     81  O   UNL     1      14.464  -1.080  -4.510  1.00  0.00    -0.744 OA
ENDBRANCH  75  78
ENDBRANCH  47  71
BRANCH  59  82
ATOM     82  C   UNL     1      11.658  -7.160 -12.104  1.00  0.00     0.023 A 
ATOM     83  C   UNL     1      11.615  -7.632 -10.775  1.00  0.00     0.012 A 
ATOM     84  C   UNL     1      11.680  -8.095 -13.153  1.00  0.00     0.148 A 
ATOM     85  C   UNL     1      11.624  -9.001 -10.498  1.00  0.00     0.002 A 
ATOM     86  C   UNL     1      11.637  -9.457 -12.875  1.00  0.00     0.091 A 
ATOM     87  F   UNL     1      11.713  -7.636 -14.414  1.00  0.00    -0.205 F 
ATOM     88  C   UNL     1      11.620  -9.914 -11.548  1.00  0.00     0.022 A 
BRANCH  86  89
ATOM     89  S   UNL     1      11.489 -10.676 -14.184  1.00  0.00     0.127 S 
ATOM     90  O   UNL     1      12.854 -11.186 -14.283  1.00  0.00    -0.237 OA
ATOM     91  O   UNL     1      10.521 -11.623 -13.627  1.00  0.00    -0.237 OA
ATOM     92  O   UNL     1      11.001  -9.949 -15.350  1.00  0.00    -0.744 OA
ENDBRANCH  86  89
ENDBRANCH  59  82
ENDBRANCH  33  34
ENDBRANCH  26  28
ENDBRANCH  25  26
ENDBRANCH  24  25
ENDBRANCH   1  24
TORSDOF 17
