REMARK SMILES Cc1noc(C)c1CNc1cnc(C(=O)OCCOC(=O)c2ccc(-c3c4nc(c(-c5cccc(S(=O)(=O)[O-])c5F)c5ccc([nH]5)c(-c5cccc(S(=O)(=O)[O-])c5F)c5nc(c(-c6cccc(S(=O)(=O)[O-])c6F)c6ccc3[nH]6)C=C5)C=C4)cc2)cn1
REMARK SMILES IDX 17 1 16 2 14 3 15 4 13 5 10 6 11 7 86 8 12 9 85 10 9 11 8 13
REMARK SMILES IDX 7 14 1 15 2 16 3 17 4 18 5 19 6 20 18 21 19 22 20 23 21 24
REMARK SMILES IDX 22 25 23 26 84 27 24 28 83 29 25 30 26 31 27 32 77 33 28 34
REMARK SMILES IDX 82 35 76 36 78 37 29 38 81 39 75 40 74 41 30 43 62 44 42 45
REMARK SMILES IDX 61 46 43 47 46 48 60 49 79 50 44 51 45 52 59 54 80 55 47 56
REMARK SMILES IDX 31 57 32 58 40 59 33 60 35 61 41 62 34 63 36 64 37 65 38 66
REMARK SMILES IDX 39 67 63 68 64 69 72 70 65 71 67 72 73 73 66 74 68 75 69 76
REMARK SMILES IDX 70 77 71 78 48 79 49 80 57 81 50 82 52 83 58 84 51 85 53 86
REMARK SMILES IDX 54 87 55 88 56 89
REMARK H PARENT 9 12 78 42 46 53
REMARK Flexibility Score: inf
ROOT
ATOM      1  C   UNL     1      -6.180   8.078   0.551  1.00  0.00     0.275 C 
ENDROOT
BRANCH   1   2
ATOM      2  O   UNL     1      -4.913   7.408   0.392  1.00  0.00    -0.457 OA
BRANCH   2   3
ATOM      3  C   UNL     1      -4.982   6.073   0.174  1.00  0.00     0.358 C 
ATOM      4  O   UNL     1      -6.003   5.399   0.147  1.00  0.00    -0.244 OA
BRANCH   3   5
ATOM      5  C   UNL     1      -3.654   5.492  -0.119  1.00  0.00     0.166 A 
ATOM      6  C   UNL     1      -1.367   4.132  -0.610  1.00  0.00     0.144 A 
ATOM      7  C   UNL     1      -1.448   5.144   0.353  1.00  0.00     0.158 A 
ATOM      8  N   UNL     1      -2.434   3.821  -1.360  1.00  0.00    -0.235 NA
ATOM      9  N   UNL     1      -2.578   5.852   0.627  1.00  0.00    -0.244 NA
ATOM     10  C   UNL     1      -3.574   4.497  -1.082  1.00  0.00     0.149 A 
BRANCH   6  11
ATOM     11  N   UNL     1      -0.263   3.337  -0.828  1.00  0.00    -0.365 N 
ATOM     12  H   UNL     1       0.170   3.297  -1.712  1.00  0.00     0.162 HD
BRANCH  11  13
ATOM     13  C   UNL     1       0.241   2.561   0.290  1.00  0.00     0.156 C 
BRANCH  13  14
ATOM     14  C   UNL     1       0.190   1.081   0.118  1.00  0.00     0.037 A 
ATOM     15  C   UNL     1      -2.390   0.602   0.025  1.00  0.00     0.071 C 
ATOM     16  C   UNL     1      -0.953   0.235   0.023  1.00  0.00     0.086 A 
ATOM     17  N   UNL     1      -0.598  -1.051  -0.094  1.00  0.00    -0.085 NA
ATOM     18  O   UNL     1       0.780  -1.064  -0.110  1.00  0.00    -0.361 OA
ATOM     19  C   UNL     1       1.248   0.204   0.009  1.00  0.00     0.138 A 
ATOM     20  C   UNL     1       2.713   0.364  -0.010  1.00  0.00     0.091 C 
ENDBRANCH  13  14
ENDBRANCH  11  13
ENDBRANCH   6  11
ENDBRANCH   3   5
ENDBRANCH   2   3
ENDBRANCH   1   2
BRANCH   1  21
ATOM     21  C   UNL     1      -6.635   8.751  -0.748  1.00  0.00     0.275 C 
BRANCH  21  22
ATOM     22  O   UNL     1      -7.084   7.789  -1.721  1.00  0.00    -0.458 OA
BRANCH  22  23
ATOM     23  C   UNL     1      -6.160   7.433  -2.640  1.00  0.00     0.338 C 
ATOM     24  O   UNL     1      -5.004   7.814  -2.712  1.00  0.00    -0.246 OA
BRANCH  23  25
ATOM     25  C   UNL     1      -6.701   6.405  -3.539  1.00  0.00     0.060 A 
ATOM     26  C   UNL     1      -6.576   5.071  -3.162  1.00  0.00     0.016 A 
ATOM     27  C   UNL     1      -7.152   6.735  -4.814  1.00  0.00     0.016 A 
ATOM     28  C   UNL     1      -6.775   4.057  -4.092  1.00  0.00     0.010 A 
ATOM     29  C   UNL     1      -7.468   5.709  -5.711  1.00  0.00     0.010 A 
ATOM     30  C   UNL     1      -7.245   4.359  -5.375  1.00  0.00    -0.014 A 
BRANCH  30  31
ATOM     31  C   UNL     1      -7.505   3.280  -6.369  1.00  0.00     0.031 A 
ATOM     32  C   UNL     1      -6.840   3.325  -7.720  1.00  0.00     0.074 A 
ATOM     33  C   UNL     1      -8.376   2.289  -6.085  1.00  0.00     0.049 A 
ATOM     34  N   UNL     1      -7.130   2.657  -8.805  1.00  0.00    -0.248 NA
ATOM     35  C   UNL     1      -5.713   4.261  -7.876  1.00  0.00     0.031 C 
ATOM     36  C   UNL     1      -9.070   2.108  -4.808  1.00  0.00     0.029 A 
ATOM     37  N   UNL     1      -8.854   1.264  -6.866  1.00  0.00    -0.354 N 
ATOM     38  C   UNL     1      -6.290   3.156  -9.794  1.00  0.00     0.074 A 
ATOM     39  C   UNL     1      -5.456   4.162  -9.174  1.00  0.00     0.031 C 
ATOM     40  C   UNL     1      -9.885   1.047  -4.892  1.00  0.00     0.029 A 
ATOM     41  C   UNL     1      -9.845   0.529  -6.253  1.00  0.00     0.049 A 
ATOM     42  H   UNL     1      -8.522   1.075  -7.773  1.00  0.00     0.167 HD
ATOM     43  C   UNL     1      -6.224   2.805 -11.101  1.00  0.00     0.034 A 
ATOM     44  C   UNL     1     -10.677  -0.411  -6.742  1.00  0.00     0.034 A 
ATOM     45  C   UNL     1      -6.994   1.740 -11.685  1.00  0.00     0.049 A 
ATOM     46  C   UNL     1     -10.566  -0.800  -8.189  1.00  0.00     0.074 A 
ATOM     47  C   UNL     1      -6.961   1.270 -12.986  1.00  0.00     0.029 A 
ATOM     48  N   UNL     1      -7.922   0.969 -11.003  1.00  0.00    -0.354 N 
ATOM     49  N   UNL     1      -9.741  -0.346  -9.101  1.00  0.00    -0.248 NA
ATOM     50  C   UNL     1     -11.489  -1.835  -8.675  1.00  0.00     0.031 C 
ATOM     51  C   UNL     1      -7.876   0.219 -13.093  1.00  0.00     0.029 A 
ATOM     52  C   UNL     1      -8.467   0.025 -11.855  1.00  0.00     0.049 A 
ATOM     53  H   UNL     1      -8.159   1.077 -10.054  1.00  0.00     0.167 HD
ATOM     54  C   UNL     1     -10.024  -1.059 -10.259  1.00  0.00     0.074 A 
ATOM     55  C   UNL     1     -11.086  -1.987  -9.930  1.00  0.00     0.031 C 
ATOM     56  C   UNL     1      -9.469  -0.941 -11.489  1.00  0.00     0.034 A 
BRANCH  43  57
ATOM     57  C   UNL     1      -5.278   3.559 -11.996  1.00  0.00     0.023 A 
ATOM     58  C   UNL     1      -3.896   3.297 -11.938  1.00  0.00     0.012 A 
ATOM     59  C   UNL     1      -5.772   4.460 -12.962  1.00  0.00     0.148 A 
ATOM     60  C   UNL     1      -3.017   3.936 -12.814  1.00  0.00     0.002 A 
ATOM     61  C   UNL     1      -4.895   5.062 -13.856  1.00  0.00     0.091 A 
ATOM     62  F   UNL     1      -7.089   4.710 -12.987  1.00  0.00    -0.205 F 
ATOM     63  C   UNL     1      -3.517   4.807 -13.779  1.00  0.00     0.022 A 
BRANCH  61  64
ATOM     64  S   UNL     1      -5.453   6.139 -15.183  1.00  0.00     0.127 S 
ATOM     65  O   UNL     1      -5.004   7.448 -14.709  1.00  0.00    -0.237 OA
ATOM     66  O   UNL     1      -4.713   5.621 -16.334  1.00  0.00    -0.237 OA
ATOM     67  O   UNL     1      -6.897   5.964 -15.262  1.00  0.00    -0.744 OA
ENDBRANCH  61  64
ENDBRANCH  43  57
BRANCH  44  68
ATOM     68  C   UNL     1     -11.690  -1.040  -5.847  1.00  0.00     0.023 A 
ATOM     69  C   UNL     1     -11.546  -2.390  -5.478  1.00  0.00     0.012 A 
ATOM     70  C   UNL     1     -12.762  -0.294  -5.316  1.00  0.00     0.148 A 
ATOM     71  C   UNL     1     -12.461  -2.991  -4.612  1.00  0.00     0.002 A 
ATOM     72  C   UNL     1     -13.632  -0.882  -4.405  1.00  0.00     0.091 A 
ATOM     73  F   UNL     1     -12.900   0.984  -5.696  1.00  0.00    -0.205 F 
ATOM     74  C   UNL     1     -13.494  -2.235  -4.064  1.00  0.00     0.022 A 
BRANCH  72  75
ATOM     75  S   UNL     1     -14.886   0.075  -3.543  1.00  0.00     0.127 S 
ATOM     76  O   UNL     1     -16.089  -0.252  -4.302  1.00  0.00    -0.237 OA
ATOM     77  O   UNL     1     -14.835  -0.492  -2.194  1.00  0.00    -0.237 OA
ATOM     78  O   UNL     1     -14.432   1.458  -3.621  1.00  0.00    -0.744 OA
ENDBRANCH  72  75
ENDBRANCH  44  68
BRANCH  56  79
ATOM     79  C   UNL     1      -9.954  -1.867 -12.569  1.00  0.00     0.023 A 
ATOM     80  C   UNL     1     -11.186  -1.617 -13.201  1.00  0.00     0.012 A 
ATOM     81  C   UNL     1      -9.134  -2.916 -13.029  1.00  0.00     0.148 A 
ATOM     82  C   UNL     1     -11.603  -2.408 -14.270  1.00  0.00     0.002 A 
ATOM     83  C   UNL     1      -9.537  -3.673 -14.121  1.00  0.00     0.091 A 
ATOM     84  F   UNL     1      -7.973  -3.144 -12.397  1.00  0.00    -0.205 F 
ATOM     85  C   UNL     1     -10.774  -3.425 -14.738  1.00  0.00     0.022 A 
BRANCH  83  86
ATOM     86  S   UNL     1      -8.496  -4.942 -14.851  1.00  0.00     0.127 S 
ATOM     87  O   UNL     1      -9.208  -6.163 -14.477  1.00  0.00    -0.237 OA
ATOM     88  O   UNL     1      -8.557  -4.612 -16.275  1.00  0.00    -0.237 OA
ATOM     89  O   UNL     1      -7.180  -4.779 -14.249  1.00  0.00    -0.744 OA
ENDBRANCH  83  86
ENDBRANCH  56  79
ENDBRANCH  30  31
ENDBRANCH  23  25
ENDBRANCH  22  23
ENDBRANCH  21  22
ENDBRANCH   1  21
TORSDOF 17
