REMARK SMILES O=C(OCCOC(=O)[C@@H](c1ccc(NC(=O)N2CCCC2)cc1)[NH+]1CCCCCCC1)c1ccc(-c2c3nc(c(-c4cccc(S(=O)(=O)[O-])c4F)c4ccc([nH]4)c(-c4cccc(S(=O)(=O)[O-])c4F)c4nc(c(-c5cccc(S(=O)(=O)[O-])c5F)c5ccc2[nH]5)C=C4)C=C3)cc1
REMARK SMILES IDX 5 1 4 2 3 3 2 4 1 5 32 6 33 7 94 8 34 9 93 10 35 11 36 12
REMARK SMILES IDX 37 13 87 14 38 15 92 16 86 17 88 18 39 19 91 20 85 21 84 22
REMARK SMILES IDX 40 24 72 25 52 26 71 27 53 28 56 29 70 30 89 31 54 32 55 33
REMARK SMILES IDX 69 35 90 36 57 37 41 38 42 39 50 40 43 41 45 42 51 43 44 44
REMARK SMILES IDX 46 45 47 46 48 47 49 48 73 49 74 50 82 51 75 52 77 53 83 54
REMARK SMILES IDX 76 55 78 56 79 57 80 58 81 59 58 60 59 61 67 62 60 63 62 64
REMARK SMILES IDX 68 65 61 66 63 67 64 68 65 69 66 70 6 71 7 72 8 73 9 74
REMARK SMILES IDX 10 75 11 76 23 77 12 78 22 79 13 80 14 81 15 82 16 84 17 85
REMARK SMILES IDX 18 86 21 87 19 88 20 89 24 90 25 92 26 93 27 94 31 96 30 97
REMARK SMILES IDX 29 98 28 99
REMARK H PARENT 88 23 56 34 14 83 24 91
REMARK Flexibility Score: 80.00
ROOT
ATOM      1  C   UNL     1       3.997   2.177   1.413  1.00  0.00     0.274 C 
ENDROOT
BRANCH   1   2
ATOM      2  C   UNL     1       4.037   2.237  -0.125  1.00  0.00     0.275 C 
BRANCH   2   3
ATOM      3  O   UNL     1       2.804   1.857  -0.746  1.00  0.00    -0.458 OA
BRANCH   3   4
ATOM      4  C   UNL     1       2.367   0.612  -1.027  1.00  0.00     0.338 C 
ATOM      5  O   UNL     1       1.325   0.480  -1.665  1.00  0.00    -0.246 OA
BRANCH   4   6
ATOM      6  C   UNL     1       3.045  -0.635  -0.546  1.00  0.00     0.060 A 
ATOM      7  C   UNL     1       4.675  -0.738   0.186  1.00  0.00     0.016 A 
ATOM      8  C   UNL     1       2.061  -2.058  -0.828  1.00  0.00     0.016 A 
ATOM      9  C   UNL     1       5.449  -2.215   0.702  1.00  0.00     0.010 A 
ATOM     10  C   UNL     1       2.742  -3.655  -0.388  1.00  0.00     0.010 A 
ATOM     11  C   UNL     1       4.583  -3.769   0.463  1.00  0.00    -0.014 A 
BRANCH  11  12
ATOM     12  C   UNL     1       5.610  -4.822   1.192  1.00  0.00     0.031 A 
ATOM     13  C   UNL     1       6.421  -5.755   0.347  1.00  0.00     0.074 A 
ATOM     14  C   UNL     1       6.114  -4.803   2.461  1.00  0.00     0.049 A 
ATOM     15  N   UNL     1       6.816  -6.977   0.567  1.00  0.00    -0.248 NA
ATOM     16  C   UNL     1       6.846  -5.205  -0.942  1.00  0.00     0.031 C 
ATOM     17  C   UNL     1       6.127  -3.717   3.438  1.00  0.00     0.029 A 
ATOM     18  N   UNL     1       6.680  -5.847   3.190  1.00  0.00    -0.354 N 
ATOM     19  C   UNL     1       7.353  -7.397  -0.640  1.00  0.00     0.074 A 
ATOM     20  C   UNL     1       7.167  -6.315  -1.585  1.00  0.00     0.031 C 
ATOM     21  C   UNL     1       6.428  -4.197   4.659  1.00  0.00     0.029 A 
ATOM     22  C   UNL     1       6.655  -5.623   4.558  1.00  0.00     0.049 A 
ATOM     23  H   UNL     1       7.057  -6.657   2.777  1.00  0.00     0.167 HD
ATOM     24  C   UNL     1       8.028  -8.535  -0.916  1.00  0.00     0.034 A 
ATOM     25  C   UNL     1       6.760  -6.471   5.604  1.00  0.00     0.034 A 
ATOM     26  C   UNL     1       8.539  -9.408   0.105  1.00  0.00     0.049 A 
ATOM     27  C   UNL     1       7.383  -7.808   5.327  1.00  0.00     0.074 A 
ATOM     28  C   UNL     1       9.351 -10.517  -0.041  1.00  0.00     0.029 A 
ATOM     29  N   UNL     1       8.375  -9.209   1.468  1.00  0.00    -0.354 N 
ATOM     30  N   UNL     1       7.721  -8.321   4.172  1.00  0.00    -0.248 NA
ATOM     31  C   UNL     1       7.806  -8.602   6.490  1.00  0.00     0.031 C 
ATOM     32  C   UNL     1       9.677 -10.990   1.233  1.00  0.00     0.029 A 
ATOM     33  C   UNL     1       9.085 -10.164   2.174  1.00  0.00     0.049 A 
ATOM     34  H   UNL     1       7.833  -8.493   1.873  1.00  0.00     0.167 HD
ATOM     35  C   UNL     1       8.509  -9.423   4.466  1.00  0.00     0.074 A 
ATOM     36  C   UNL     1       8.558  -9.528   5.911  1.00  0.00     0.031 C 
ATOM     37  C   UNL     1       9.168 -10.239   3.610  1.00  0.00     0.034 A 
BRANCH  24  38
ATOM     38  C   UNL     1       8.298  -8.858  -2.361  1.00  0.00     0.023 A 
ATOM     39  C   UNL     1       9.134  -8.045  -3.152  1.00  0.00     0.012 A 
ATOM     40  C   UNL     1       7.704  -9.999  -2.938  1.00  0.00     0.148 A 
ATOM     41  C   UNL     1       9.292  -8.297  -4.513  1.00  0.00     0.002 A 
ATOM     42  C   UNL     1       7.937 -10.295  -4.273  1.00  0.00     0.091 A 
ATOM     43  F   UNL     1       6.925 -10.774  -2.170  1.00  0.00    -0.205 F 
ATOM     44  C   UNL     1       8.700  -9.426  -5.071  1.00  0.00     0.022 A 
BRANCH  42  45
ATOM     45  S   UNL     1       7.358 -11.805  -5.052  1.00  0.00     0.127 S 
ATOM     46  O   UNL     1       6.468 -11.285  -6.089  1.00  0.00    -0.237 OA
ATOM     47  O   UNL     1       8.608 -12.375  -5.557  1.00  0.00    -0.237 OA
ATOM     48  O   UNL     1       6.712 -12.585  -4.007  1.00  0.00    -0.744 OA
ENDBRANCH  42  45
ENDBRANCH  24  38
BRANCH  25  49
ATOM     49  C   UNL     1       6.404  -6.085   7.009  1.00  0.00     0.023 A 
ATOM     50  C   UNL     1       7.418  -5.748   7.927  1.00  0.00     0.012 A 
ATOM     51  C   UNL     1       5.069  -6.165   7.474  1.00  0.00     0.148 A 
ATOM     52  C   UNL     1       7.120  -5.528   9.275  1.00  0.00     0.002 A 
ATOM     53  C   UNL     1       4.775  -5.912   8.815  1.00  0.00     0.091 A 
ATOM     54  F   UNL     1       4.117  -6.528   6.604  1.00  0.00    -0.205 F 
ATOM     55  C   UNL     1       5.803  -5.604   9.717  1.00  0.00     0.022 A 
BRANCH  53  56
ATOM     56  S   UNL     1       3.113  -5.975   9.511  1.00  0.00     0.127 S 
ATOM     57  O   UNL     1       3.255  -6.998  10.544  1.00  0.00    -0.237 OA
ATOM     58  O   UNL     1       2.952  -4.612  10.017  1.00  0.00    -0.237 OA
ATOM     59  O   UNL     1       2.230  -6.336   8.412  1.00  0.00    -0.744 OA
ENDBRANCH  53  56
ENDBRANCH  25  49
BRANCH  37  60
ATOM     60  C   UNL     1      10.063 -11.289   4.205  1.00  0.00     0.023 A 
ATOM     61  C   UNL     1       9.507 -12.387   4.887  1.00  0.00     0.012 A 
ATOM     62  C   UNL     1      11.460 -11.212   4.031  1.00  0.00     0.148 A 
ATOM     63  C   UNL     1      10.329 -13.374   5.423  1.00  0.00     0.002 A 
ATOM     64  C   UNL     1      12.268 -12.232   4.513  1.00  0.00     0.091 A 
ATOM     65  F   UNL     1      11.971 -10.145   3.399  1.00  0.00    -0.205 F 
ATOM     66  C   UNL     1      11.706 -13.305   5.225  1.00  0.00     0.022 A 
BRANCH  64  67
ATOM     67  S   UNL     1      14.037 -12.288   4.210  1.00  0.00     0.127 S 
ATOM     68  O   UNL     1      14.577 -12.075   5.552  1.00  0.00    -0.237 OA
ATOM     69  O   UNL     1      14.216 -13.643   3.688  1.00  0.00    -0.237 OA
ATOM     70  O   UNL     1      14.318 -11.226   3.252  1.00  0.00    -0.744 OA
ENDBRANCH  64  67
ENDBRANCH  37  60
ENDBRANCH  11  12
ENDBRANCH   4   6
ENDBRANCH   3   4
ENDBRANCH   2   3
ENDBRANCH   1   2
BRANCH   1  71
ATOM     71  O   UNL     1       3.881   0.843   1.955  1.00  0.00    -0.457 OA
BRANCH  71  72
ATOM     72  C   UNL     1       2.647   0.249   1.948  1.00  0.00     0.370 C 
ATOM     73  O   UNL     1       1.610   0.888   1.799  1.00  0.00    -0.245 OA
BRANCH  72  74
ATOM     74  C   UNL     1       2.707  -1.301   2.156  1.00  0.00     0.326 C 
BRANCH  74  75
ATOM     75  C   UNL     1       3.283  -2.433   0.955  1.00  0.00     0.021 A 
ATOM     76  C   UNL     1       2.777  -4.071   1.610  1.00  0.00     0.012 A 
ATOM     77  C   UNL     1       4.120  -2.521  -0.891  1.00  0.00     0.012 A 
ATOM     78  C   UNL     1       3.120  -5.531   0.721  1.00  0.00     0.027 A 
ATOM     79  C   UNL     1       4.302  -4.107  -1.719  1.00  0.00     0.027 A 
ATOM     80  C   UNL     1       3.774  -5.551  -0.893  1.00  0.00     0.042 A 
BRANCH  80  81
ATOM     81  N   UNL     1       3.682  -6.720  -1.669  1.00  0.00    -0.308 N 
ATOM     82  C   UNL     1       3.102  -7.930  -1.417  1.00  0.00     0.321 C 
ATOM     83  H   UNL     1       4.113  -6.654  -2.552  1.00  0.00     0.171 HD
ATOM     84  O   UNL     1       3.315  -8.856  -2.199  1.00  0.00    -0.248 OA
ATOM     85  N   UNL     1       2.315  -8.091  -0.316  1.00  0.00    -0.325 N 
ATOM     86  C   UNL     1       0.988  -7.528  -0.137  1.00  0.00     0.121 C 
ATOM     87  C   UNL     1       2.457  -9.268   0.512  1.00  0.00     0.121 C 
ATOM     88  C   UNL     1       0.692  -7.788   1.336  1.00  0.00     0.023 C 
ATOM     89  C   UNL     1       1.445  -9.086   1.644  1.00  0.00     0.023 C 
ENDBRANCH  80  81
ENDBRANCH  74  75
BRANCH  74  90
ATOM     90  N   UNL     1       2.888  -1.588   3.675  1.00  0.00    -0.319 N 
ATOM     91  H   UNL     1       1.934  -1.403   3.984  1.00  0.00     0.349 HD
BRANCH  90  92
ATOM     92  C   UNL     1       3.097  -2.967   4.019  1.00  0.00     0.263 C 
BRANCH  92  93
ATOM     93  C   UNL     1       3.338  -3.711   5.316  1.00  0.00     0.061 C 
BRANCH  93  94
ATOM     94  C   UNL     1       2.086  -3.772   6.157  1.00  0.00     0.006 CG0
ATOM     95  G   UNL     1       2.080  -2.689   7.211  1.00  0.00     0.000 G0
ENDBRANCH  93  94
ENDBRANCH  92  93
ENDBRANCH  90  92
BRANCH  90  96
ATOM     96  C   UNL     1       3.498  -0.590   4.530  1.00  0.00     0.263 C 
BRANCH  96  97
ATOM     97  C   UNL     1       3.441  -0.803   6.061  1.00  0.00     0.061 C 
BRANCH  97  98
ATOM     98  C   UNL     1       2.090  -1.265   6.641  1.00  0.00     0.006 C 
BRANCH  98  99
ATOM     99  C   UNL     1       2.080  -2.689   7.211  1.00  0.00     0.000 CG0
ATOM    100  G   UNL     1       2.086  -3.772   6.157  1.00  0.00     0.000 G0
ENDBRANCH  98  99
ENDBRANCH  97  98
ENDBRANCH  96  97
ENDBRANCH  90  96
ENDBRANCH  74  90
ENDBRANCH  72  74
ENDBRANCH  71  72
ENDBRANCH   1  71
TORSDOF 17
