REMARK SMILES CC1=C(C)C[C@@H](C(=O)NNC(=O)c2sccc2C)[C@@H](C(=O)OCCOC(=O)c2ccc(-c3c4nc(c(-c5cccc(S(=O)(=O)[O-])c5F)c5ccc([nH]5)c(-c5cccc(S(=O)(=O)[O-])c5F)c5nc(c(-c6cccc(S(=O)(=O)[O-])c6F)c6ccc3[nH]6)C=C5)C=C4)cc2)C1
REMARK SMILES IDX 23 1 22 2 20 3 21 4 19 5 1 6 2 7 3 8 91 9 4 10 5 11 6 12
REMARK SMILES IDX 7 13 8 14 9 15 10 17 11 18 12 20 13 21 14 22 17 23 15 24
REMARK SMILES IDX 16 25 18 26 24 27 25 28 26 29 27 30 28 31 29 32 90 33 30 34
REMARK SMILES IDX 89 35 31 36 32 37 33 38 83 39 34 40 88 41 82 42 84 43 35 44
REMARK SMILES IDX 87 45 81 46 80 47 36 49 68 50 48 51 67 52 49 53 52 54 66 55
REMARK SMILES IDX 85 56 50 57 51 58 65 60 86 61 53 62 37 63 38 64 46 65 39 66
REMARK SMILES IDX 41 67 47 68 40 69 42 70 43 71 44 72 45 73 69 74 70 75 78 76
REMARK SMILES IDX 71 77 73 78 79 79 72 80 74 81 75 82 76 83 77 84 54 85 55 86
REMARK SMILES IDX 63 87 56 88 58 89 64 90 57 91 59 92 60 93 61 94 62 95
REMARK H PARENT 9 16 10 19 84 48 52 59
REMARK Flexibility Score: inf
ROOT
ATOM      1  C   UNL     1      -4.435  -4.222  -0.671  1.00  0.00     0.274 C 
ENDROOT
BRANCH   1   2
ATOM      2  O   UNL     1      -3.006  -4.076  -0.515  1.00  0.00    -0.462 OA
BRANCH   2   3
ATOM      3  C   UNL     1      -2.288  -3.694  -1.595  1.00  0.00     0.310 C 
ATOM      4  O   UNL     1      -2.776  -3.422  -2.687  1.00  0.00    -0.252 OA
BRANCH   3   5
ATOM      5  C   UNL     1      -0.798  -3.525  -1.317  1.00  0.00     0.116 C 
ATOM      6  C   UNL     1       1.123  -0.266  -0.398  1.00  0.00     0.039 C 
ATOM      7  C   UNL     1       0.858  -1.753  -0.449  1.00  0.00    -0.073 C 
ATOM      8  C   UNL     1       1.722  -2.720  -0.071  1.00  0.00    -0.074 C 
ATOM      9  C   UNL     1      -0.536  -2.077  -0.925  1.00  0.00     0.046 C 
ATOM     10  C   UNL     1       3.095  -2.464   0.498  1.00  0.00     0.039 C 
ATOM     11  C   UNL     1       1.359  -4.193  -0.119  1.00  0.00     0.045 C 
ATOM     12  C   UNL     1      -0.109  -4.545  -0.407  1.00  0.00     0.099 C 
BRANCH  12  13
ATOM     13  C   UNL     1      -0.891  -5.045   0.808  1.00  0.00     0.242 C 
ATOM     14  O   UNL     1      -1.412  -6.169   0.759  1.00  0.00    -0.273 OA
ATOM     15  N   UNL     1      -1.081  -4.326   1.947  1.00  0.00    -0.267 N 
ATOM     16  H   UNL     1      -1.733  -4.696   2.585  1.00  0.00     0.191 HD
BRANCH  15  17
ATOM     17  N   UNL     1      -0.474  -3.137   2.324  1.00  0.00    -0.263 N 
ATOM     18  C   UNL     1      -0.859  -2.356   3.410  1.00  0.00     0.280 C 
ATOM     19  H   UNL     1       0.286  -2.822   1.783  1.00  0.00     0.191 HD
ATOM     20  O   UNL     1      -0.320  -1.254   3.538  1.00  0.00    -0.266 OA
BRANCH  18  21
ATOM     21  C   UNL     1      -1.854  -2.876   4.343  1.00  0.00     0.096 A 
ATOM     22  S   UNL     1      -3.176  -1.856   4.753  1.00  0.00    -0.138 S 
ATOM     23  C   UNL     1      -1.905  -4.079   5.039  1.00  0.00    -0.027 A 
ATOM     24  C   UNL     1      -3.935  -3.086   5.655  1.00  0.00     0.066 A 
ATOM     25  C   UNL     1      -3.144  -4.206   5.755  1.00  0.00     0.016 A 
ATOM     26  C   UNL     1      -0.840  -5.127   5.065  1.00  0.00     0.046 C 
ENDBRANCH  18  21
ENDBRANCH  15  17
ENDBRANCH  12  13
ENDBRANCH   3   5
ENDBRANCH   2   3
ENDBRANCH   1   2
BRANCH   1  27
ATOM     27  C   UNL     1      -5.172  -3.438   0.416  1.00  0.00     0.275 C 
BRANCH  27  28
ATOM     28  O   UNL     1      -5.012  -2.023   0.204  1.00  0.00    -0.458 OA
BRANCH  28  29
ATOM     29  C   UNL     1      -3.957  -1.494   0.861  1.00  0.00     0.338 C 
ATOM     30  O   UNL     1      -3.199  -2.080   1.611  1.00  0.00    -0.246 OA
BRANCH  29  31
ATOM     31  C   UNL     1      -3.727  -0.104   0.467  1.00  0.00     0.060 A 
ATOM     32  C   UNL     1      -3.083   0.135  -0.745  1.00  0.00     0.016 A 
ATOM     33  C   UNL     1      -3.959   0.930   1.373  1.00  0.00     0.016 A 
ATOM     34  C   UNL     1      -2.595   1.407  -1.020  1.00  0.00     0.010 A 
ATOM     35  C   UNL     1      -3.566   2.229   1.041  1.00  0.00     0.010 A 
ATOM     36  C   UNL     1      -2.863   2.478  -0.150  1.00  0.00    -0.014 A 
BRANCH  36  37
ATOM     37  C   UNL     1      -2.478   3.861  -0.537  1.00  0.00     0.031 A 
ATOM     38  C   UNL     1      -1.542   4.684   0.305  1.00  0.00     0.074 A 
ATOM     39  C   UNL     1      -3.008   4.383  -1.662  1.00  0.00     0.049 A 
ATOM     40  N   UNL     1      -1.191   5.936   0.155  1.00  0.00    -0.248 NA
ATOM     41  C   UNL     1      -0.928   4.027   1.471  1.00  0.00     0.031 C 
ATOM     42  C   UNL     1      -3.943   3.688  -2.550  1.00  0.00     0.029 A 
ATOM     43  N   UNL     1      -2.841   5.609  -2.255  1.00  0.00    -0.354 N 
ATOM     44  C   UNL     1      -0.371   6.237   1.235  1.00  0.00     0.074 A 
ATOM     45  C   UNL     1      -0.260   5.030   2.027  1.00  0.00     0.031 C 
ATOM     46  C   UNL     1      -4.227   4.473  -3.596  1.00  0.00     0.029 A 
ATOM     47  C   UNL     1      -3.561   5.757  -3.418  1.00  0.00     0.049 A 
ATOM     48  H   UNL     1      -2.262   6.314  -1.885  1.00  0.00     0.167 HD
ATOM     49  C   UNL     1       0.239   7.410   1.532  1.00  0.00     0.034 A 
ATOM     50  C   UNL     1      -3.696   6.813  -4.241  1.00  0.00     0.034 A 
ATOM     51  C   UNL     1       0.178   8.588   0.704  1.00  0.00     0.049 A 
ATOM     52  C   UNL     1      -2.981   8.087  -3.905  1.00  0.00     0.074 A 
ATOM     53  C   UNL     1       0.797   9.811   0.899  1.00  0.00     0.029 A 
ATOM     54  N   UNL     1      -0.533   8.686  -0.483  1.00  0.00    -0.354 N 
ATOM     55  N   UNL     1      -2.165   8.332  -2.909  1.00  0.00    -0.248 NA
ATOM     56  C   UNL     1      -3.202   9.228  -4.803  1.00  0.00     0.031 C 
ATOM     57  C   UNL     1       0.462  10.648  -0.173  1.00  0.00     0.029 A 
ATOM     58  C   UNL     1      -0.368   9.947  -1.032  1.00  0.00     0.049 A 
ATOM     59  H   UNL     1      -1.076   7.966  -0.877  1.00  0.00     0.167 HD
ATOM     60  C   UNL     1      -1.773   9.655  -3.058  1.00  0.00     0.074 A 
ATOM     61  C   UNL     1      -2.413  10.148  -4.262  1.00  0.00     0.031 C 
ATOM     62  C   UNL     1      -0.981  10.404  -2.253  1.00  0.00     0.034 A 
BRANCH  49  63
ATOM     63  C   UNL     1       1.068   7.474   2.788  1.00  0.00     0.023 A 
ATOM     64  C   UNL     1       2.363   6.920   2.792  1.00  0.00     0.012 A 
ATOM     65  C   UNL     1       0.599   8.140   3.937  1.00  0.00     0.148 A 
ATOM     66  C   UNL     1       3.171   7.013   3.925  1.00  0.00     0.002 A 
ATOM     67  C   UNL     1       1.422   8.255   5.054  1.00  0.00     0.091 A 
ATOM     68  F   UNL     1      -0.647   8.638   3.930  1.00  0.00    -0.205 F 
ATOM     69  C   UNL     1       2.706   7.688   5.051  1.00  0.00     0.022 A 
BRANCH  67  70
ATOM     70  S   UNL     1       0.912   9.171   6.514  1.00  0.00     0.127 S 
ATOM     71  O   UNL     1       0.355   8.112   7.353  1.00  0.00    -0.237 OA
ATOM     72  O   UNL     1       2.175   9.730   7.000  1.00  0.00    -0.237 OA
ATOM     73  O   UNL     1      -0.034  10.168   6.030  1.00  0.00    -0.744 OA
ENDBRANCH  67  70
ENDBRANCH  49  63
BRANCH  50  74
ATOM     74  C   UNL     1      -4.505   6.670  -5.483  1.00  0.00     0.023 A 
ATOM     75  C   UNL     1      -3.848   6.626  -6.726  1.00  0.00     0.012 A 
ATOM     76  C   UNL     1      -5.898   6.466  -5.436  1.00  0.00     0.148 A 
ATOM     77  C   UNL     1      -4.563   6.379  -7.899  1.00  0.00     0.002 A 
ATOM     78  C   UNL     1      -6.593   6.155  -6.599  1.00  0.00     0.091 A 
ATOM     79  F   UNL     1      -6.516   6.539  -4.247  1.00  0.00    -0.205 F 
ATOM     80  C   UNL     1      -5.931   6.123  -7.834  1.00  0.00     0.022 A 
BRANCH  78  81
ATOM     81  S   UNL     1      -8.315   5.641  -6.542  1.00  0.00     0.127 S 
ATOM     82  O   UNL     1      -9.016   6.899  -6.776  1.00  0.00    -0.237 OA
ATOM     83  O   UNL     1      -8.395   4.678  -7.642  1.00  0.00    -0.237 OA
ATOM     84  O   UNL     1      -8.480   5.043  -5.223  1.00  0.00    -0.744 OA
ENDBRANCH  78  81
ENDBRANCH  50  74
BRANCH  62  85
ATOM     85  C   UNL     1      -0.774  11.839  -2.647  1.00  0.00     0.023 A 
ATOM     86  C   UNL     1      -1.790  12.776  -2.371  1.00  0.00     0.012 A 
ATOM     87  C   UNL     1       0.426  12.270  -3.240  1.00  0.00     0.148 A 
ATOM     88  C   UNL     1      -1.622  14.119  -2.702  1.00  0.00     0.002 A 
ATOM     89  C   UNL     1       0.599  13.617  -3.539  1.00  0.00     0.091 A 
ATOM     90  F   UNL     1       1.369  11.359  -3.522  1.00  0.00    -0.205 F 
ATOM     91  C   UNL     1      -0.425  14.542  -3.277  1.00  0.00     0.022 A 
BRANCH  89  92
ATOM     92  S   UNL     1       2.140  14.239  -4.220  1.00  0.00     0.127 S 
ATOM     93  O   UNL     1       1.858  14.241  -5.653  1.00  0.00    -0.237 OA
ATOM     94  O   UNL     1       2.244  15.569  -3.618  1.00  0.00    -0.237 OA
ATOM     95  O   UNL     1       3.164  13.303  -3.774  1.00  0.00    -0.744 OA
ENDBRANCH  89  92
ENDBRANCH  62  85
ENDBRANCH  36  37
ENDBRANCH  29  31
ENDBRANCH  28  29
ENDBRANCH  27  28
ENDBRANCH   1  27
TORSDOF 17
