REMARK SMILES O=C(OCCOC(=O)c1nc(NC[C@H]2c3ccccc3CSc3ccccc32)c2ccccc2n1)c1ccc(-c2c3nc(c(-c4cccc(S(=O)(=O)[O-])c4F)c4ccc([nH]4)c(-c4cccc(S(=O)(=O)[O-])c4F)c4nc(c(-c5cccc(S(=O)(=O)[O-])c5F)c5ccc2[nH]5)C=C4)C=C3)cc1
REMARK SMILES IDX 4 1 3 2 2 3 1 4 36 5 37 6 98 7 38 8 97 9 39 10 40 11 41 12
REMARK SMILES IDX 91 13 42 14 96 15 90 16 92 17 43 18 95 19 89 20 88 21 44 23
REMARK SMILES IDX 76 24 56 25 75 26 57 27 60 28 74 29 93 30 58 31 59 32 73 34
REMARK SMILES IDX 94 35 61 36 45 37 46 38 54 39 47 40 49 41 55 42 48 43 50 44
REMARK SMILES IDX 51 45 52 46 53 47 77 48 78 49 86 50 79 51 81 52 87 53 80 54
REMARK SMILES IDX 82 55 83 56 84 57 85 58 62 59 63 60 71 61 64 62 66 63 72 64
REMARK SMILES IDX 65 65 67 66 68 67 69 68 70 69 5 70 6 71 7 72 8 73 9 74 10 75
REMARK SMILES IDX 35 76 11 77 34 78 29 79 33 80 30 81 32 82 31 83 12 84 13 86
REMARK SMILES IDX 14 87 15 88 28 89 16 90 20 91 23 92 27 93 17 94 19 95 21 96
REMARK SMILES IDX 22 97 24 98 26 99 18 100 25 101
REMARK H PARENT 92 22 60 33 12 85
REMARK Flexibility Score: inf
ROOT
ATOM      1  C   UNL     1       4.320  -1.644   0.516  1.00  0.00     0.275 C 
ENDROOT
BRANCH   1   2
ATOM      2  O   UNL     1       3.574  -0.533   1.032  1.00  0.00    -0.458 OA
BRANCH   2   3
ATOM      3  C   UNL     1       3.527   0.707   0.490  1.00  0.00     0.338 C 
ATOM      4  O   UNL     1       2.931   1.615   1.060  1.00  0.00    -0.246 OA
BRANCH   3   5
ATOM      5  C   UNL     1       4.049   0.944  -0.879  1.00  0.00     0.060 A 
ATOM      6  C   UNL     1       3.133   1.473  -1.781  1.00  0.00     0.016 A 
ATOM      7  C   UNL     1       5.368   0.761  -1.294  1.00  0.00     0.016 A 
ATOM      8  C   UNL     1       3.495   1.772  -3.093  1.00  0.00     0.010 A 
ATOM      9  C   UNL     1       5.732   1.028  -2.626  1.00  0.00     0.010 A 
ATOM     10  C   UNL     1       4.793   1.528  -3.538  1.00  0.00    -0.014 A 
BRANCH  10  11
ATOM     11  C   UNL     1       5.167   1.977  -4.899  1.00  0.00     0.031 A 
ATOM     12  C   UNL     1       5.191   1.035  -6.069  1.00  0.00     0.074 A 
ATOM     13  C   UNL     1       5.415   3.288  -5.073  1.00  0.00     0.049 A 
ATOM     14  N   UNL     1       5.297   1.319  -7.343  1.00  0.00    -0.248 NA
ATOM     15  C   UNL     1       5.035  -0.400  -5.790  1.00  0.00     0.031 C 
ATOM     16  C   UNL     1       5.385   4.300  -4.012  1.00  0.00     0.029 A 
ATOM     17  N   UNL     1       5.771   3.990  -6.193  1.00  0.00    -0.354 N 
ATOM     18  C   UNL     1       5.099   0.120  -8.021  1.00  0.00     0.074 A 
ATOM     19  C   UNL     1       4.977  -0.912  -7.017  1.00  0.00     0.031 C 
ATOM     20  C   UNL     1       5.781   5.477  -4.519  1.00  0.00     0.029 A 
ATOM     21  C   UNL     1       6.101   5.297  -5.930  1.00  0.00     0.049 A 
ATOM     22  H   UNL     1       5.789   3.597  -7.096  1.00  0.00     0.167 HD
ATOM     23  C   UNL     1       4.955  -0.060  -9.358  1.00  0.00     0.034 A 
ATOM     24  C   UNL     1       6.646   6.231  -6.731  1.00  0.00     0.034 A 
ATOM     25  C   UNL     1       5.225   0.971 -10.325  1.00  0.00     0.049 A 
ATOM     26  C   UNL     1       6.858   5.897  -8.176  1.00  0.00     0.074 A 
ATOM     27  C   UNL     1       5.151   0.901 -11.704  1.00  0.00     0.029 A 
ATOM     28  N   UNL     1       5.708   2.232 -10.011  1.00  0.00    -0.354 N 
ATOM     29  N   UNL     1       6.471   4.827  -8.827  1.00  0.00    -0.248 NA
ATOM     30  C   UNL     1       7.558   6.889  -9.001  1.00  0.00     0.031 C 
ATOM     31  C   UNL     1       5.651   2.100 -12.224  1.00  0.00     0.029 A 
ATOM     32  C   UNL     1       6.020   2.920 -11.168  1.00  0.00     0.049 A 
ATOM     33  H   UNL     1       5.813   2.586  -9.098  1.00  0.00     0.167 HD
ATOM     34  C   UNL     1       6.852   5.025 -10.146  1.00  0.00     0.074 A 
ATOM     35  C   UNL     1       7.508   6.318 -10.199  1.00  0.00     0.031 C 
ATOM     36  C   UNL     1       6.666   4.208 -11.211  1.00  0.00     0.034 A 
BRANCH  23  37
ATOM     37  C   UNL     1       4.406  -1.368  -9.868  1.00  0.00     0.023 A 
ATOM     38  C   UNL     1       3.035  -1.423 -10.202  1.00  0.00     0.012 A 
ATOM     39  C   UNL     1       5.209  -2.489 -10.127  1.00  0.00     0.148 A 
ATOM     40  C   UNL     1       2.450  -2.586 -10.698  1.00  0.00     0.002 A 
ATOM     41  C   UNL     1       4.632  -3.633 -10.677  1.00  0.00     0.091 A 
ATOM     42  F   UNL     1       6.515  -2.419  -9.836  1.00  0.00    -0.205 F 
ATOM     43  C   UNL     1       3.251  -3.692 -10.939  1.00  0.00     0.022 A 
BRANCH  41  44
ATOM     44  S   UNL     1       5.592  -5.074 -11.154  1.00  0.00     0.127 S 
ATOM     45  O   UNL     1       5.155  -6.058 -10.166  1.00  0.00    -0.237 OA
ATOM     46  O   UNL     1       5.118  -5.323 -12.516  1.00  0.00    -0.237 OA
ATOM     47  O   UNL     1       6.987  -4.670 -11.059  1.00  0.00    -0.744 OA
ENDBRANCH  41  44
ENDBRANCH  23  37
BRANCH  24  48
ATOM     48  C   UNL     1       7.037   7.539  -6.145  1.00  0.00     0.023 A 
ATOM     49  C   UNL     1       6.250   8.678  -6.379  1.00  0.00     0.012 A 
ATOM     50  C   UNL     1       8.131   7.620  -5.257  1.00  0.00     0.148 A 
ATOM     51  C   UNL     1       6.539   9.879  -5.728  1.00  0.00     0.002 A 
ATOM     52  C   UNL     1       8.391   8.808  -4.587  1.00  0.00     0.091 A 
ATOM     53  F   UNL     1       8.867   6.517  -5.059  1.00  0.00    -0.205 F 
ATOM     54  C   UNL     1       7.599   9.941  -4.825  1.00  0.00     0.022 A 
BRANCH  52  55
ATOM     55  S   UNL     1       9.673   8.955  -3.336  1.00  0.00     0.127 S 
ATOM     56  O   UNL     1      10.544   9.973  -3.920  1.00  0.00    -0.237 OA
ATOM     57  O   UNL     1       8.904   9.396  -2.172  1.00  0.00    -0.237 OA
ATOM     58  O   UNL     1      10.263   7.630  -3.211  1.00  0.00    -0.744 OA
ENDBRANCH  52  55
ENDBRANCH  24  48
BRANCH  36  59
ATOM     59  C   UNL     1       7.189   4.666 -12.541  1.00  0.00     0.023 A 
ATOM     60  C   UNL     1       8.565   4.555 -12.816  1.00  0.00     0.012 A 
ATOM     61  C   UNL     1       6.307   5.089 -13.553  1.00  0.00     0.148 A 
ATOM     62  C   UNL     1       9.057   4.865 -14.082  1.00  0.00     0.002 A 
ATOM     63  C   UNL     1       6.798   5.354 -14.824  1.00  0.00     0.091 A 
ATOM     64  F   UNL     1       5.004   5.200 -13.258  1.00  0.00    -0.205 F 
ATOM     65  C   UNL     1       8.174   5.249 -15.089  1.00  0.00     0.022 A 
BRANCH  63  66
ATOM     66  S   UNL     1       5.722   5.756 -16.204  1.00  0.00     0.127 S 
ATOM     67  O   UNL     1       6.026   7.170 -16.416  1.00  0.00    -0.237 OA
ATOM     68  O   UNL     1       6.212   4.859 -17.251  1.00  0.00    -0.237 OA
ATOM     69  O   UNL     1       4.367   5.470 -15.752  1.00  0.00    -0.744 OA
ENDBRANCH  63  66
ENDBRANCH  36  59
ENDBRANCH  10  11
ENDBRANCH   3   5
ENDBRANCH   2   3
ENDBRANCH   1   2
BRANCH   1  70
ATOM     70  C   UNL     1       3.565  -2.514  -0.492  1.00  0.00     0.275 C 
BRANCH  70  71
ATOM     71  O   UNL     1       2.914  -1.781  -1.542  1.00  0.00    -0.456 OA
BRANCH  71  72
ATOM     72  C   UNL     1       1.554  -1.642  -1.443  1.00  0.00     0.376 C 
ATOM     73  O   UNL     1       0.868  -2.040  -0.512  1.00  0.00    -0.242 OA
BRANCH  72  74
ATOM     74  C   UNL     1       1.031  -0.870  -2.627  1.00  0.00     0.241 A 
ATOM     75  N   UNL     1       0.291   0.231  -2.358  1.00  0.00    -0.204 NA
ATOM     76  N   UNL     1       1.477  -1.248  -3.837  1.00  0.00    -0.222 NA
ATOM     77  C   UNL     1       0.079   1.081  -3.380  1.00  0.00     0.138 A 
ATOM     78  C   UNL     1       1.217  -0.415  -4.846  1.00  0.00     0.077 A 
ATOM     79  C   UNL     1       0.557   0.812  -4.677  1.00  0.00     0.043 A 
ATOM     80  C   UNL     1       1.676  -0.745  -6.108  1.00  0.00     0.029 A 
ATOM     81  C   UNL     1       0.463   1.713  -5.771  1.00  0.00     0.014 A 
ATOM     82  C   UNL     1       1.568   0.145  -7.178  1.00  0.00     0.002 A 
ATOM     83  C   UNL     1       0.980   1.385  -7.013  1.00  0.00     0.001 A 
BRANCH  77  84
ATOM     84  N   UNL     1      -0.476   2.339  -3.123  1.00  0.00    -0.368 N 
ATOM     85  H   UNL     1      -0.525   2.999  -3.852  1.00  0.00     0.162 HD
BRANCH  84  86
ATOM     86  C   UNL     1      -0.985   2.701  -1.800  1.00  0.00     0.127 C 
BRANCH  86  87
ATOM     87  C   UNL     1      -1.141   4.284  -1.642  1.00  0.00     0.070 C 
ATOM     88  C   UNL     1      -2.499   4.641  -0.997  1.00  0.00    -0.035 A 
ATOM     89  C   UNL     1       0.110   4.988  -1.043  1.00  0.00    -0.025 A 
ATOM     90  C   UNL     1      -3.279   3.710  -0.284  1.00  0.00     0.005 A 
ATOM     91  C   UNL     1      -3.023   5.944  -1.141  1.00  0.00    -0.034 A 
ATOM     92  C   UNL     1       0.170   6.216  -0.348  1.00  0.00     0.011 A 
ATOM     93  C   UNL     1       1.358   4.380  -1.284  1.00  0.00     0.005 A 
ATOM     94  C   UNL     1      -4.553   4.032   0.193  1.00  0.00     0.000 A 
ATOM     95  C   UNL     1      -4.297   6.266  -0.634  1.00  0.00     0.005 A 
ATOM     96  C   UNL     1      -2.151   7.062  -1.639  1.00  0.00     0.110 C 
ATOM     97  S   UNL     1      -1.060   7.522  -0.269  1.00  0.00    -0.121 SA
ATOM     98  C   UNL     1       1.371   6.609   0.293  1.00  0.00     0.015 A 
ATOM     99  C   UNL     1       2.550   4.790  -0.680  1.00  0.00     0.000 A 
ATOM    100  C   UNL     1      -5.066   5.308   0.013  1.00  0.00     0.000 A 
ATOM    101  C   UNL     1       2.546   5.882   0.159  1.00  0.00     0.001 A 
ENDBRANCH  86  87
ENDBRANCH  84  86
ENDBRANCH  77  84
ENDBRANCH  72  74
ENDBRANCH  71  72
ENDBRANCH  70  71
ENDBRANCH   1  70
TORSDOF 17
