REMARK SMILES CC[C@]1(C(=O)OCCOC(=O)c2ccc(-c3c4nc(c(-c5cccc(S(=O)(=O)[O-])c5F)c5ccc([nH]5)c(-c5cccc(S(=O)(=O)[O-])c5F)c5nc(c(-c6cccc(S(=O)(=O)[O-])c6F)c6ccc3[nH]6)C=C5)C=C4)cc2)CCCN(S(=O)(=O)CCOC(C)C)C1
REMARK SMILES IDX 7 1 6 2 4 3 5 4 3 5 75 6 88 7 76 8 78 9 77 10 2 11 1 12
REMARK SMILES IDX 79 13 80 14 81 15 82 16 83 17 84 18 85 19 86 20 87 21 8 22
REMARK SMILES IDX 9 23 10 24 11 25 12 26 13 27 74 28 14 29 73 30 15 31 16 32
REMARK SMILES IDX 17 33 67 34 18 35 72 36 66 37 68 38 19 39 71 40 65 41 64 42
REMARK SMILES IDX 20 44 52 45 32 46 51 47 33 48 36 49 50 50 69 51 34 52 35 53
REMARK SMILES IDX 49 55 70 56 37 57 21 58 22 59 30 60 23 61 25 62 31 63 24 64
REMARK SMILES IDX 26 65 27 66 28 67 29 68 53 69 54 70 62 71 55 72 57 73 63 74
REMARK SMILES IDX 56 75 58 76 59 77 60 78 61 79 38 80 39 81 47 82 40 83 42 84
REMARK SMILES IDX 48 85 41 86 43 87 44 88 45 89 46 90
REMARK H PARENT 68 43 36 54
REMARK Flexibility Score: inf
ROOT
ATOM      1  C   UNL     1       4.461  -1.895   2.357  1.00  0.00     0.274 C 
ENDROOT
BRANCH   1   2
ATOM      2  O   UNL     1       3.324  -2.459   1.686  1.00  0.00    -0.462 OA
BRANCH   2   3
ATOM      3  C   UNL     1       2.127  -1.861   1.911  1.00  0.00     0.313 C 
ATOM      4  O   UNL     1       1.960  -0.968   2.731  1.00  0.00    -0.252 OA
BRANCH   3   5
ATOM      5  C   UNL     1       0.986  -2.496   1.104  1.00  0.00     0.082 C 
ATOM      6  C   UNL     1       1.519  -3.527   0.058  1.00  0.00     0.021 C 
ATOM      7  C   UNL     1       0.149  -3.248   2.180  1.00  0.00     0.121 C 
ATOM      8  C   UNL     1       0.476  -4.519  -0.448  1.00  0.00     0.018 C 
ATOM      9  N   UNL     1      -0.858  -4.186   1.573  1.00  0.00    -0.201 NA
ATOM     10  C   UNL     1      -0.218  -5.213   0.715  1.00  0.00     0.102 C 
BRANCH   5  11
ATOM     11  C   UNL     1       0.122  -1.400   0.389  1.00  0.00     0.017 C 
ATOM     12  C   UNL     1       0.289   0.074   0.745  1.00  0.00     0.005 C 
ENDBRANCH   5  11
BRANCH   9  13
ATOM     13  S   UNL     1      -2.069  -4.750   2.635  1.00  0.00     0.216 S 
ATOM     14  O   UNL     1      -1.587  -6.016   3.162  1.00  0.00    -0.212 OA
ATOM     15  O   UNL     1      -2.417  -3.679   3.537  1.00  0.00    -0.212 OA
BRANCH  13  16
ATOM     16  C   UNL     1      -3.491  -5.096   1.571  1.00  0.00     0.182 C 
BRANCH  16  17
ATOM     17  C   UNL     1      -4.521  -3.968   1.505  1.00  0.00     0.178 C 
BRANCH  17  18
ATOM     18  O   UNL     1      -4.876  -3.541   0.180  1.00  0.00    -0.378 OA
BRANCH  18  19
ATOM     19  C   UNL     1      -4.112  -2.491  -0.428  1.00  0.00     0.112 C 
ATOM     20  C   UNL     1      -4.147  -1.157   0.328  1.00  0.00     0.038 C 
ATOM     21  C   UNL     1      -2.703  -2.961  -0.674  1.00  0.00     0.038 C 
ENDBRANCH  18  19
ENDBRANCH  17  18
ENDBRANCH  16  17
ENDBRANCH  13  16
ENDBRANCH   9  13
ENDBRANCH   3   5
ENDBRANCH   2   3
ENDBRANCH   1   2
BRANCH   1  22
ATOM     22  C   UNL     1       5.463  -1.373   1.328  1.00  0.00     0.275 C 
BRANCH  22  23
ATOM     23  O   UNL     1       4.871  -0.389   0.457  1.00  0.00    -0.458 OA
BRANCH  23  24
ATOM     24  C   UNL     1       4.424  -0.854  -0.738  1.00  0.00     0.338 C 
ATOM     25  O   UNL     1       4.487  -2.004  -1.143  1.00  0.00    -0.246 OA
BRANCH  24  26
ATOM     26  C   UNL     1       3.683   0.213  -1.447  1.00  0.00     0.060 A 
ATOM     27  C   UNL     1       2.430  -0.107  -1.982  1.00  0.00     0.016 A 
ATOM     28  C   UNL     1       4.182   1.509  -1.581  1.00  0.00     0.016 A 
ATOM     29  C   UNL     1       1.625   0.881  -2.548  1.00  0.00     0.010 A 
ATOM     30  C   UNL     1       3.398   2.490  -2.206  1.00  0.00     0.010 A 
ATOM     31  C   UNL     1       2.103   2.190  -2.663  1.00  0.00    -0.014 A 
BRANCH  31  32
ATOM     32  C   UNL     1       1.262   3.240  -3.289  1.00  0.00     0.031 A 
ATOM     33  C   UNL     1       1.252   3.397  -4.781  1.00  0.00     0.074 A 
ATOM     34  C   UNL     1       0.517   4.059  -2.524  1.00  0.00     0.049 A 
ATOM     35  N   UNL     1       0.687   4.324  -5.508  1.00  0.00    -0.248 NA
ATOM     36  C   UNL     1       1.960   2.367  -5.558  1.00  0.00     0.031 C 
ATOM     37  C   UNL     1       0.378   3.965  -1.071  1.00  0.00     0.029 A 
ATOM     38  N   UNL     1      -0.239   5.156  -2.863  1.00  0.00    -0.354 N 
ATOM     39  C   UNL     1       0.988   4.009  -6.826  1.00  0.00     0.074 A 
ATOM     40  C   UNL     1       1.772   2.792  -6.800  1.00  0.00     0.031 C 
ATOM     41  C   UNL     1      -0.370   4.996  -0.637  1.00  0.00     0.029 A 
ATOM     42  C   UNL     1      -0.725   5.843  -1.774  1.00  0.00     0.049 A 
ATOM     43  H   UNL     1      -0.416   5.424  -3.794  1.00  0.00     0.167 HD
ATOM     44  C   UNL     1       0.648   4.675  -7.954  1.00  0.00     0.034 A 
ATOM     45  C   UNL     1      -1.336   7.044  -1.700  1.00  0.00     0.034 A 
ATOM     46  C   UNL     1      -0.112   5.895  -7.983  1.00  0.00     0.049 A 
ATOM     47  C   UNL     1      -1.599   7.821  -2.968  1.00  0.00     0.074 A 
ATOM     48  C   UNL     1      -0.496   6.640  -9.084  1.00  0.00     0.029 A 
ATOM     49  N   UNL     1      -0.582   6.564  -6.865  1.00  0.00    -0.354 N 
ATOM     50  N   UNL     1      -1.383   7.473  -4.214  1.00  0.00    -0.248 NA
ATOM     51  C   UNL     1      -2.206   9.154  -2.820  1.00  0.00     0.031 C 
ATOM     52  C   UNL     1      -1.166   7.780  -8.630  1.00  0.00     0.029 A 
ATOM     53  C   UNL     1      -1.232   7.726  -7.248  1.00  0.00     0.049 A 
ATOM     54  H   UNL     1      -0.470   6.259  -5.936  1.00  0.00     0.167 HD
ATOM     55  C   UNL     1      -1.854   8.527  -4.993  1.00  0.00     0.074 A 
ATOM     56  C   UNL     1      -2.396   9.512  -4.082  1.00  0.00     0.031 C 
ATOM     57  C   UNL     1      -1.820   8.676  -6.340  1.00  0.00     0.034 A 
BRANCH  44  58
ATOM     58  C   UNL     1       1.106   4.101  -9.267  1.00  0.00     0.023 A 
ATOM     59  C   UNL     1       0.463   2.965  -9.796  1.00  0.00     0.012 A 
ATOM     60  C   UNL     1       2.123   4.734 -10.009  1.00  0.00     0.148 A 
ATOM     61  C   UNL     1       0.839   2.454 -11.037  1.00  0.00     0.002 A 
ATOM     62  C   UNL     1       2.464   4.243 -11.262  1.00  0.00     0.091 A 
ATOM     63  F   UNL     1       2.732   5.802  -9.475  1.00  0.00    -0.205 F 
ATOM     64  C   UNL     1       1.830   3.098 -11.773  1.00  0.00     0.022 A 
BRANCH  62  65
ATOM     65  S   UNL     1       3.675   5.041 -12.321  1.00  0.00     0.127 S 
ATOM     66  O   UNL     1       4.727   4.027 -12.380  1.00  0.00    -0.237 OA
ATOM     67  O   UNL     1       2.925   5.214 -13.565  1.00  0.00    -0.237 OA
ATOM     68  O   UNL     1       4.045   6.279 -11.651  1.00  0.00    -0.744 OA
ENDBRANCH  62  65
ENDBRANCH  44  58
BRANCH  45  69
ATOM     69  C   UNL     1      -1.716   7.628  -0.379  1.00  0.00     0.023 A 
ATOM     70  C   UNL     1      -3.074   7.859  -0.082  1.00  0.00     0.012 A 
ATOM     71  C   UNL     1      -0.736   8.014   0.557  1.00  0.00     0.148 A 
ATOM     72  C   UNL     1      -3.445   8.508   1.097  1.00  0.00     0.002 A 
ATOM     73  C   UNL     1      -1.117   8.606   1.756  1.00  0.00     0.091 A 
ATOM     74  F   UNL     1       0.552   7.811   0.250  1.00  0.00    -0.205 F 
ATOM     75  C   UNL     1      -2.468   8.875   2.018  1.00  0.00     0.022 A 
BRANCH  73  76
ATOM     76  S   UNL     1       0.064   9.011   3.048  1.00  0.00     0.127 S 
ATOM     77  O   UNL     1       0.067  10.471   3.003  1.00  0.00    -0.237 OA
ATOM     78  O   UNL     1      -0.574   8.431   4.231  1.00  0.00    -0.237 OA
ATOM     79  O   UNL     1       1.310   8.363   2.659  1.00  0.00    -0.744 OA
ENDBRANCH  73  76
ENDBRANCH  45  69
BRANCH  57  80
ATOM     80  C   UNL     1      -2.414   9.932  -6.929  1.00  0.00     0.023 A 
ATOM     81  C   UNL     1      -1.750  11.165  -6.767  1.00  0.00     0.012 A 
ATOM     82  C   UNL     1      -3.583   9.877  -7.715  1.00  0.00     0.148 A 
ATOM     83  C   UNL     1      -2.256  12.326  -7.351  1.00  0.00     0.002 A 
ATOM     84  C   UNL     1      -4.053  11.029  -8.336  1.00  0.00     0.091 A 
ATOM     85  F   UNL     1      -4.208   8.698  -7.849  1.00  0.00    -0.205 F 
ATOM     86  C   UNL     1      -3.398  12.257  -8.145  1.00  0.00     0.022 A 
BRANCH  84  87
ATOM     87  S   UNL     1      -5.460  11.024  -9.454  1.00  0.00     0.127 S 
ATOM     88  O   UNL     1      -6.441  11.806  -8.702  1.00  0.00    -0.237 OA
ATOM     89  O   UNL     1      -4.918  11.699 -10.634  1.00  0.00    -0.237 OA
ATOM     90  O   UNL     1      -5.809   9.625  -9.660  1.00  0.00    -0.744 OA
ENDBRANCH  84  87
ENDBRANCH  57  80
ENDBRANCH  31  32
ENDBRANCH  24  26
ENDBRANCH  23  24
ENDBRANCH  22  23
ENDBRANCH   1  22
TORSDOF 20
