REMARK SMILES C[C@@H](C(=O)OCCOC(=O)c1ccc(-c2c3nc(c(-c4cccc(S(=O)(=O)[O-])c4F)c4ccc([nH]4)c(-c4cccc(S(=O)(=O)[O-])c4F)c4nc(c(-c5cccc(S(=O)(=O)[O-])c5F)c5ccc2[nH]5)C=C4)C=C3)cc1)[C@@H](C)C(=O)c1cccc(Cl)c1
REMARK SMILES IDX 6 1 5 2 3 3 4 4 2 5 1 6 74 7 75 8 76 9 77 10 78 11 79 12
REMARK SMILES IDX 84 13 80 14 82 15 81 16 83 17 7 18 8 19 9 20 10 21 11 22
REMARK SMILES IDX 12 23 73 24 13 25 72 26 14 27 15 28 16 29 66 30 17 31 71 32
REMARK SMILES IDX 65 33 67 34 18 35 70 36 64 37 63 38 19 40 51 41 31 42 50 43
REMARK SMILES IDX 32 44 35 45 49 46 68 47 33 48 34 49 48 51 69 52 36 53 20 54
REMARK SMILES IDX 21 55 29 56 22 57 24 58 30 59 23 60 25 61 26 62 27 63 28 64
REMARK SMILES IDX 52 65 53 66 61 67 54 68 56 69 62 70 55 71 57 72 58 73 59 74
REMARK SMILES IDX 60 75 37 76 38 77 46 78 39 79 41 80 47 81 40 82 42 83 43 84
REMARK SMILES IDX 44 85 45 86
REMARK H PARENT 67 39 35 50
REMARK Flexibility Score: inf
ROOT
ATOM      1  C   UNL     1       2.579   0.663   3.703  1.00  0.00     0.274 C 
ENDROOT
BRANCH   1   2
ATOM      2  O   UNL     1       2.122   0.248   2.398  1.00  0.00    -0.462 OA
BRANCH   2   3
ATOM      3  C   UNL     1       1.173  -0.727   2.363  1.00  0.00     0.309 C 
ATOM      4  O   UNL     1       0.768  -1.319   3.352  1.00  0.00    -0.252 OA
BRANCH   3   5
ATOM      5  C   UNL     1       0.765  -1.091   0.930  1.00  0.00     0.106 C 
ATOM      6  C   UNL     1       1.065   0.058  -0.050  1.00  0.00     0.021 C 
BRANCH   5   7
ATOM      7  C   UNL     1      -0.717  -1.533   0.801  1.00  0.00     0.072 C 
ATOM      8  C   UNL     1      -1.034  -2.246  -0.516  1.00  0.00     0.017 C 
BRANCH   7   9
ATOM      9  C   UNL     1      -1.381  -2.309   1.949  1.00  0.00     0.166 C 
ATOM     10  O   UNL     1      -2.356  -1.818   2.521  1.00  0.00    -0.294 OA
BRANCH   9  11
ATOM     11  C   UNL     1      -0.998  -3.703   2.325  1.00  0.00     0.019 A 
ATOM     12  C   UNL     1      -2.002  -4.519   2.874  1.00  0.00     0.012 A 
ATOM     13  C   UNL     1       0.299  -4.205   2.221  1.00  0.00     0.032 A 
ATOM     14  C   UNL     1      -1.714  -5.814   3.311  1.00  0.00     0.002 A 
ATOM     15  C   UNL     1       0.584  -5.494   2.675  1.00  0.00     0.041 A 
ATOM     16  C   UNL     1      -0.414  -6.301   3.215  1.00  0.00     0.020 A 
ATOM     17  Cl  UNL     1       2.201  -6.083   2.586  1.00  0.00    -0.084 Cl
ENDBRANCH   9  11
ENDBRANCH   7   9
ENDBRANCH   5   7
ENDBRANCH   3   5
ENDBRANCH   2   3
ENDBRANCH   1   2
BRANCH   1  18
ATOM     18  C   UNL     1       2.080   2.074   3.994  1.00  0.00     0.275 C 
BRANCH  18  19
ATOM     19  O   UNL     1       0.645   2.049   4.050  1.00  0.00    -0.458 OA
BRANCH  19  20
ATOM     20  C   UNL     1      -0.000   2.964   3.296  1.00  0.00     0.338 C 
ATOM     21  O   UNL     1       0.497   3.868   2.637  1.00  0.00    -0.246 OA
BRANCH  20  22
ATOM     22  C   UNL     1      -1.444   2.693   3.349  1.00  0.00     0.060 A 
ATOM     23  C   UNL     1      -1.920   1.460   2.908  1.00  0.00     0.016 A 
ATOM     24  C   UNL     1      -2.334   3.686   3.752  1.00  0.00     0.016 A 
ATOM     25  C   UNL     1      -3.291   1.234   2.809  1.00  0.00     0.010 A 
ATOM     26  C   UNL     1      -3.710   3.427   3.726  1.00  0.00     0.010 A 
ATOM     27  C   UNL     1      -4.204   2.208   3.226  1.00  0.00    -0.014 A 
BRANCH  27  28
ATOM     28  C   UNL     1      -5.667   1.976   3.084  1.00  0.00     0.031 A 
ATOM     29  C   UNL     1      -6.477   2.866   2.181  1.00  0.00     0.074 A 
ATOM     30  C   UNL     1      -6.276   0.973   3.749  1.00  0.00     0.049 A 
ATOM     31  N   UNL     1      -7.775   2.944   2.042  1.00  0.00    -0.248 NA
ATOM     32  C   UNL     1      -5.725   3.796   1.322  1.00  0.00     0.031 C 
ATOM     33  C   UNL     1      -5.609  -0.001   4.614  1.00  0.00     0.029 A 
ATOM     34  N   UNL     1      -7.603   0.616   3.809  1.00  0.00    -0.354 N 
ATOM     35  C   UNL     1      -7.998   3.970   1.132  1.00  0.00     0.074 A 
ATOM     36  C   UNL     1      -6.701   4.480   0.743  1.00  0.00     0.031 C 
ATOM     37  C   UNL     1      -6.526  -0.841   5.120  1.00  0.00     0.029 A 
ATOM     38  C   UNL     1      -7.851  -0.430   4.667  1.00  0.00     0.049 A 
ATOM     39  H   UNL     1      -8.306   1.066   3.288  1.00  0.00     0.167 HD
ATOM     40  C   UNL     1      -9.174   4.439   0.653  1.00  0.00     0.034 A 
ATOM     41  C   UNL     1      -9.015  -0.976   5.073  1.00  0.00     0.034 A 
ATOM     42  C   UNL     1     -10.461   3.891   0.987  1.00  0.00     0.049 A 
ATOM     43  C   UNL     1     -10.311  -0.426   4.539  1.00  0.00     0.074 A 
ATOM     44  C   UNL     1     -11.708   4.296   0.546  1.00  0.00     0.029 A 
ATOM     45  N   UNL     1     -10.665   2.811   1.831  1.00  0.00    -0.354 N 
ATOM     46  N   UNL     1     -10.503   0.524   3.656  1.00  0.00    -0.248 NA
ATOM     47  C   UNL     1     -11.551  -1.030   5.049  1.00  0.00     0.031 C 
ATOM     48  C   UNL     1     -12.669   3.460   1.125  1.00  0.00     0.029 A 
ATOM     49  C   UNL     1     -12.018   2.532   1.923  1.00  0.00     0.049 A 
ATOM     50  H   UNL     1      -9.954   2.316   2.297  1.00  0.00     0.167 HD
ATOM     51  C   UNL     1     -11.880   0.619   3.492  1.00  0.00     0.074 A 
ATOM     52  C   UNL     1     -12.474  -0.391   4.343  1.00  0.00     0.031 C 
ATOM     53  C   UNL     1     -12.591   1.483   2.726  1.00  0.00     0.034 A 
BRANCH  40  54
ATOM     54  C   UNL     1      -9.120   5.594  -0.308  1.00  0.00     0.023 A 
ATOM     55  C   UNL     1      -8.756   5.366  -1.650  1.00  0.00     0.012 A 
ATOM     56  C   UNL     1      -9.468   6.894   0.105  1.00  0.00     0.148 A 
ATOM     57  C   UNL     1      -8.715   6.420  -2.561  1.00  0.00     0.002 A 
ATOM     58  C   UNL     1      -9.458   7.934  -0.817  1.00  0.00     0.091 A 
ATOM     59  F   UNL     1      -9.783   7.094   1.393  1.00  0.00    -0.205 F 
ATOM     60  C   UNL     1      -9.074   7.701  -2.147  1.00  0.00     0.022 A 
BRANCH  58  61
ATOM     61  S   UNL     1      -9.967   9.603  -0.387  1.00  0.00     0.127 S 
ATOM     62  O   UNL     1      -8.679  10.284  -0.269  1.00  0.00    -0.237 OA
ATOM     63  O   UNL     1     -10.761   9.997  -1.551  1.00  0.00    -0.237 OA
ATOM     64  O   UNL     1     -10.730   9.478   0.848  1.00  0.00    -0.744 OA
ENDBRANCH  58  61
ENDBRANCH  40  54
BRANCH  41  65
ATOM     65  C   UNL     1      -9.008  -2.120   6.030  1.00  0.00     0.023 A 
ATOM     66  C   UNL     1      -9.410  -3.394   5.587  1.00  0.00     0.012 A 
ATOM     67  C   UNL     1      -8.581  -1.960   7.363  1.00  0.00     0.148 A 
ATOM     68  C   UNL     1      -9.407  -4.484   6.459  1.00  0.00     0.002 A 
ATOM     69  C   UNL     1      -8.526  -3.062   8.210  1.00  0.00     0.091 A 
ATOM     70  F   UNL     1      -8.231  -0.735   7.779  1.00  0.00    -0.205 F 
ATOM     71  C   UNL     1      -8.952  -4.321   7.765  1.00  0.00     0.022 A 
BRANCH  69  72
ATOM     72  S   UNL     1      -7.827  -2.958   9.862  1.00  0.00     0.127 S 
ATOM     73  O   UNL     1      -9.027  -2.930  10.694  1.00  0.00    -0.237 OA
ATOM     74  O   UNL     1      -7.049  -4.195   9.946  1.00  0.00    -0.237 OA
ATOM     75  O   UNL     1      -7.019  -1.746   9.865  1.00  0.00    -0.744 OA
ENDBRANCH  69  72
ENDBRANCH  41  65
BRANCH  53  76
ATOM     76  C   UNL     1     -14.091   1.370   2.755  1.00  0.00     0.023 A 
ATOM     77  C   UNL     1     -14.799   1.860   3.870  1.00  0.00     0.012 A 
ATOM     78  C   UNL     1     -14.803   0.860   1.652  1.00  0.00     0.148 A 
ATOM     79  C   UNL     1     -16.193   1.823   3.897  1.00  0.00     0.002 A 
ATOM     80  C   UNL     1     -16.193   0.862   1.669  1.00  0.00     0.091 A 
ATOM     81  F   UNL     1     -14.111   0.377   0.610  1.00  0.00    -0.205 F 
ATOM     82  C   UNL     1     -16.889   1.335   2.793  1.00  0.00     0.022 A 
BRANCH  80  83
ATOM     83  S   UNL     1     -17.167   0.332   0.255  1.00  0.00     0.127 S 
ATOM     84  O   UNL     1     -17.587  -1.007   0.665  1.00  0.00    -0.237 OA
ATOM     85  O   UNL     1     -18.242   1.325   0.222  1.00  0.00    -0.237 OA
ATOM     86  O   UNL     1     -16.265   0.387  -0.888  1.00  0.00    -0.744 OA
ENDBRANCH  80  83
ENDBRANCH  53  76
ENDBRANCH  27  28
ENDBRANCH  20  22
ENDBRANCH  19  20
ENDBRANCH  18  19
ENDBRANCH   1  18
TORSDOF 17
