REMARK SMILES Cc1ccc(N2C(=O)/C(=C\c3ccccc3O[C@H](C)C(=O)OCCOC(=O)c3ccc(-c4c5nc(c(-c6cccc(S(=O)(=O)[O-])c6F)c6ccc([nH]6)c(-c6cccc(S(=O)(=O)[O-])c6F)c6nc(c(-c7cccc(S(=O)(=O)[O-])c7F)c7ccc4[nH]7)C=C6)C=C5)cc3)SC2=S)c(C)c1
REMARK SMILES IDX 23 1 22 2 20 3 21 4 18 5 19 6 17 7 16 8 11 9 12 10 13 11
REMARK SMILES IDX 15 12 14 13 10 14 6 15 7 16 92 17 8 18 9 19 91 20 93 21 5 22
REMARK SMILES IDX 1 23 2 24 3 25 96 26 4 27 94 28 95 29 24 30 25 31 26 32
REMARK SMILES IDX 27 33 28 34 29 35 90 36 30 37 89 38 31 39 32 40 33 41 83 42
REMARK SMILES IDX 34 43 88 44 82 45 84 46 35 47 87 48 81 49 80 50 36 52 68 53
REMARK SMILES IDX 48 54 67 55 49 56 52 57 66 58 85 59 50 60 51 61 65 63 86 64
REMARK SMILES IDX 53 65 37 66 38 67 46 68 39 69 41 70 47 71 40 72 42 73 43 74
REMARK SMILES IDX 44 75 45 76 69 77 70 78 78 79 71 80 73 81 79 82 72 83 74 84
REMARK SMILES IDX 75 85 76 86 77 87 54 88 55 89 63 90 56 91 58 92 64 93 57 94
REMARK SMILES IDX 59 95 60 96 61 97 62 98
REMARK H PARENT 84 51 52 62
REMARK Flexibility Score: inf
ROOT
ATOM      1  C   UNL     1      -6.914  -4.588  -1.851  1.00  0.00     0.274 C 
ENDROOT
BRANCH   1   2
ATOM      2  O   UNL     1      -5.994  -3.624  -2.395  1.00  0.00    -0.459 OA
BRANCH   2   3
ATOM      3  C   UNL     1      -4.775  -3.510  -1.792  1.00  0.00     0.347 C 
ATOM      4  O   UNL     1      -4.454  -4.102  -0.766  1.00  0.00    -0.248 OA
BRANCH   3   5
ATOM      5  C   UNL     1      -3.867  -2.508  -2.518  1.00  0.00     0.279 C 
ATOM      6  C   UNL     1      -4.218  -2.405  -4.000  1.00  0.00     0.066 C 
BRANCH   5   7
ATOM      7  O   UNL     1      -4.092  -1.254  -1.868  1.00  0.00    -0.478 OA
BRANCH   7   8
ATOM      8  C   UNL     1      -2.990  -0.474  -1.633  1.00  0.00     0.127 A 
ATOM      9  C   UNL     1      -2.880   0.110  -0.359  1.00  0.00     0.018 A 
ATOM     10  C   UNL     1      -1.892   1.072  -0.114  1.00  0.00     0.012 A 
ATOM     11  C   UNL     1      -0.990   1.419  -1.119  1.00  0.00     0.001 A 
ATOM     12  C   UNL     1      -2.059  -0.148  -2.620  1.00  0.00     0.047 A 
ATOM     13  C   UNL     1      -1.058   0.791  -2.360  1.00  0.00     0.004 A 
BRANCH   9  14
ATOM     14  C   UNL     1      -3.730  -0.339   0.748  1.00  0.00     0.033 C 
ATOM     15  N   UNL     1      -2.525  -3.481   2.196  1.00  0.00    -0.261 N 
ATOM     16  C   UNL     1      -2.451  -2.497   1.214  1.00  0.00     0.270 C 
ATOM     17  C   UNL     1      -3.595  -3.402   3.075  1.00  0.00     0.152 C 
ATOM     18  O   UNL     1      -1.636  -2.433   0.302  1.00  0.00    -0.268 OA
ATOM     19  C   UNL     1      -3.542  -1.490   1.413  1.00  0.00     0.081 C 
ATOM     20  S   UNL     1      -4.584  -1.992   2.687  1.00  0.00    -0.054 SA
ATOM     21  S   UNL     1      -3.961  -4.327   4.422  1.00  0.00    -0.051 S 
BRANCH  15  22
ATOM     22  C   UNL     1      -1.527  -4.500   2.257  1.00  0.00     0.054 A 
ATOM     23  C   UNL     1       1.381  -7.668   2.628  1.00  0.00     0.044 C 
ATOM     24  C   UNL     1       0.362  -6.581   2.476  1.00  0.00    -0.051 A 
ATOM     25  C   UNL     1      -0.988  -6.878   2.301  1.00  0.00     0.005 A 
ATOM     26  C   UNL     1       0.772  -5.245   2.487  1.00  0.00     0.009 A 
ATOM     27  C   UNL     1      -1.923  -5.847   2.190  1.00  0.00     0.027 A 
ATOM     28  C   UNL     1      -0.156  -4.193   2.401  1.00  0.00    -0.027 A 
ATOM     29  C   UNL     1       0.390  -2.795   2.489  1.00  0.00     0.046 C 
ENDBRANCH  15  22
ENDBRANCH   9  14
ENDBRANCH   7   8
ENDBRANCH   5   7
ENDBRANCH   3   5
ENDBRANCH   2   3
ENDBRANCH   1   2
BRANCH   1  30
ATOM     30  C   UNL     1      -6.989  -5.813  -2.759  1.00  0.00     0.275 C 
BRANCH  30  31
ATOM     31  O   UNL     1      -5.743  -6.531  -2.730  1.00  0.00    -0.458 OA
BRANCH  31  32
ATOM     32  C   UNL     1      -4.960  -6.384  -3.821  1.00  0.00     0.338 C 
ATOM     33  O   UNL     1      -5.202  -5.741  -4.832  1.00  0.00    -0.246 OA
BRANCH  32  34
ATOM     34  C   UNL     1      -3.699  -7.101  -3.614  1.00  0.00     0.060 A 
ATOM     35  C   UNL     1      -2.611  -6.428  -3.052  1.00  0.00     0.016 A 
ATOM     36  C   UNL     1      -3.569  -8.411  -4.079  1.00  0.00     0.016 A 
ATOM     37  C   UNL     1      -1.369  -7.060  -2.990  1.00  0.00     0.010 A 
ATOM     38  C   UNL     1      -2.331  -9.050  -3.989  1.00  0.00     0.010 A 
ATOM     39  C   UNL     1      -1.214  -8.369  -3.475  1.00  0.00    -0.014 A 
BRANCH  39  40
ATOM     40  C   UNL     1       0.124  -9.012  -3.476  1.00  0.00     0.031 A 
ATOM     41  C   UNL     1       0.862  -9.225  -4.768  1.00  0.00     0.074 A 
ATOM     42  C   UNL     1       0.662  -9.437  -2.318  1.00  0.00     0.049 A 
ATOM     43  N   UNL     1       2.037  -9.766  -4.965  1.00  0.00    -0.248 NA
ATOM     44  C   UNL     1       0.182  -8.799  -6.001  1.00  0.00     0.031 C 
ATOM     45  C   UNL     1       0.008  -9.355  -1.014  1.00  0.00     0.029 A 
ATOM     46  N   UNL     1       1.872 -10.027  -2.053  1.00  0.00    -0.354 N 
ATOM     47  C   UNL     1       2.206  -9.814  -6.342  1.00  0.00     0.074 A 
ATOM     48  C   UNL     1       1.023  -9.226  -6.934  1.00  0.00     0.031 C 
ATOM     49  C   UNL     1       0.837  -9.852  -0.083  1.00  0.00     0.029 A 
ATOM     50  C   UNL     1       2.084 -10.271  -0.716  1.00  0.00     0.049 A 
ATOM     51  H   UNL     1       2.527 -10.254  -2.752  1.00  0.00     0.167 HD
ATOM     52  C   UNL     1       3.252 -10.304  -7.051  1.00  0.00     0.034 A 
ATOM     53  C   UNL     1       3.171 -10.747  -0.075  1.00  0.00     0.034 A 
ATOM     54  C   UNL     1       4.453 -10.834  -6.463  1.00  0.00     0.049 A 
ATOM     55  C   UNL     1       4.382 -11.134  -0.881  1.00  0.00     0.074 A 
ATOM     56  C   UNL     1       5.584 -11.316  -7.098  1.00  0.00     0.029 A 
ATOM     57  N   UNL     1       4.685 -10.942  -5.101  1.00  0.00    -0.354 N 
ATOM     58  N   UNL     1       4.576 -11.051  -2.175  1.00  0.00    -0.248 NA
ATOM     59  C   UNL     1       5.532 -11.668  -0.136  1.00  0.00     0.031 C 
ATOM     60  C   UNL     1       6.502 -11.715  -6.119  1.00  0.00     0.029 A 
ATOM     61  C   UNL     1       5.942 -11.478  -4.874  1.00  0.00     0.049 A 
ATOM     62  H   UNL     1       4.050 -10.678  -4.397  1.00  0.00     0.167 HD
ATOM     63  C   UNL     1       5.863 -11.524  -2.399  1.00  0.00     0.074 A 
ATOM     64  C   UNL     1       6.427 -11.833  -1.101  1.00  0.00     0.031 C 
ATOM     65  C   UNL     1       6.506 -11.733  -3.575  1.00  0.00     0.034 A 
BRANCH  52  66
ATOM     66  C   UNL     1       3.152 -10.265  -8.551  1.00  0.00     0.023 A 
ATOM     67  C   UNL     1       3.349  -9.048  -9.231  1.00  0.00     0.012 A 
ATOM     68  C   UNL     1       2.909 -11.440  -9.289  1.00  0.00     0.148 A 
ATOM     69  C   UNL     1       3.279  -8.994 -10.623  1.00  0.00     0.002 A 
ATOM     70  C   UNL     1       2.876 -11.386 -10.678  1.00  0.00     0.091 A 
ATOM     71  F   UNL     1       2.695 -12.584  -8.622  1.00  0.00    -0.205 F 
ATOM     72  C   UNL     1       3.053 -10.163 -11.345  1.00  0.00     0.022 A 
BRANCH  70  73
ATOM     73  S   UNL     1       2.655 -12.854 -11.690  1.00  0.00     0.127 S 
ATOM     74  O   UNL     1       1.250 -12.737 -12.078  1.00  0.00    -0.237 OA
ATOM     75  O   UNL     1       3.608 -12.630 -12.778  1.00  0.00    -0.237 OA
ATOM     76  O   UNL     1       2.981 -13.981 -10.828  1.00  0.00    -0.744 OA
ENDBRANCH  70  73
ENDBRANCH  52  66
BRANCH  53  77
ATOM     77  C   UNL     1       3.217 -10.761   1.416  1.00  0.00     0.023 A 
ATOM     78  C   UNL     1       4.096  -9.875   2.074  1.00  0.00     0.012 A 
ATOM     79  C   UNL     1       2.380 -11.585   2.188  1.00  0.00     0.148 A 
ATOM     80  C   UNL     1       4.150  -9.821   3.467  1.00  0.00     0.002 A 
ATOM     81  C   UNL     1       2.392 -11.479   3.576  1.00  0.00     0.091 A 
ATOM     82  F   UNL     1       1.570 -12.448   1.558  1.00  0.00    -0.205 F 
ATOM     83  C   UNL     1       3.285 -10.610   4.219  1.00  0.00     0.022 A 
BRANCH  81  84
ATOM     84  S   UNL     1       1.176 -12.341   4.579  1.00  0.00     0.127 S 
ATOM     85  O   UNL     1       1.872 -13.583   4.899  1.00  0.00    -0.237 OA
ATOM     86  O   UNL     1       0.991 -11.429   5.708  1.00  0.00    -0.237 OA
ATOM     87  O   UNL     1       0.006 -12.456   3.715  1.00  0.00    -0.744 OA
ENDBRANCH  81  84
ENDBRANCH  53  77
BRANCH  65  88
ATOM     88  C   UNL     1       7.877 -12.350  -3.510  1.00  0.00     0.023 A 
ATOM     89  C   UNL     1       7.995 -13.722  -3.205  1.00  0.00     0.012 A 
ATOM     90  C   UNL     1       9.035 -11.605  -3.800  1.00  0.00     0.148 A 
ATOM     91  C   UNL     1       9.246 -14.334  -3.157  1.00  0.00     0.002 A 
ATOM     92  C   UNL     1      10.277 -12.232  -3.787  1.00  0.00     0.091 A 
ATOM     93  F   UNL     1       8.909 -10.296  -4.064  1.00  0.00    -0.205 F 
ATOM     94  C   UNL     1      10.386 -13.592  -3.458  1.00  0.00     0.022 A 
BRANCH  92  95
ATOM     95  S   UNL     1      11.781 -11.360  -4.242  1.00  0.00     0.127 S 
ATOM     96  O   UNL     1      12.310 -10.972  -2.937  1.00  0.00    -0.237 OA
ATOM     97  O   UNL     1      12.555 -12.395  -4.930  1.00  0.00    -0.237 OA
ATOM     98  O   UNL     1      11.350 -10.267  -5.104  1.00  0.00    -0.744 OA
ENDBRANCH  92  95
ENDBRANCH  65  88
ENDBRANCH  39  40
ENDBRANCH  32  34
ENDBRANCH  31  32
ENDBRANCH  30  31
ENDBRANCH   1  30
TORSDOF 18
