REMARK SMILES O=C(OCCOC(=O)c1cc(S(=O)(=O)NCc2ccncc2)c(Cl)cc1Cl)c1ccc(-c2c3nc(c(-c4cccc(S(=O)(=O)[O-])c4F)c4ccc([nH]4)c(-c4cccc(S(=O)(=O)[O-])c4F)c4nc(c(-c5cccc(S(=O)(=O)[O-])c5F)c5ccc2[nH]5)C=C4)C=C3)cc1
REMARK SMILES IDX 5 1 4 2 3 3 2 4 1 5 28 6 29 7 90 8 30 9 89 10 31 11 32 12
REMARK SMILES IDX 33 13 83 14 34 15 88 16 82 17 84 18 35 19 87 20 81 21 80 22
REMARK SMILES IDX 36 24 68 25 48 26 67 27 49 28 52 29 66 30 85 31 50 32 51 33
REMARK SMILES IDX 65 35 86 36 53 37 37 38 38 39 46 40 39 41 41 42 47 43 40 44
REMARK SMILES IDX 42 45 43 46 44 47 45 48 69 49 70 50 78 51 71 52 73 53 79 54
REMARK SMILES IDX 72 55 74 56 75 57 76 58 77 59 54 60 55 61 63 62 56 63 58 64
REMARK SMILES IDX 64 65 57 66 59 67 60 68 61 69 62 70 6 71 7 72 8 73 9 74
REMARK SMILES IDX 10 75 26 76 11 77 25 78 27 79 23 80 24 81 12 82 13 83 14 84
REMARK SMILES IDX 15 85 16 87 17 88 18 89 22 90 19 91 21 92 20 93
REMARK H PARENT 84 23 52 34 15 86
REMARK Flexibility Score: inf
ROOT
ATOM      1  C   UNL     1       3.897   2.046  -0.900  1.00  0.00     0.275 C 
ENDROOT
BRANCH   1   2
ATOM      2  C   UNL     1       4.030   0.623  -1.447  1.00  0.00     0.275 C 
BRANCH   2   3
ATOM      3  O   UNL     1       3.061  -0.321  -0.962  1.00  0.00    -0.458 OA
BRANCH   3   4
ATOM      4  C   UNL     1       3.206  -1.109   0.133  1.00  0.00     0.338 C 
ATOM      5  O   UNL     1       2.540  -2.130   0.269  1.00  0.00    -0.246 OA
BRANCH   4   6
ATOM      6  C   UNL     1       4.030  -0.639   1.273  1.00  0.00     0.060 A 
ATOM      7  C   UNL     1       5.403  -0.387   1.184  1.00  0.00     0.016 A 
ATOM      8  C   UNL     1       3.385  -0.526   2.511  1.00  0.00     0.016 A 
ATOM      9  C   UNL     1       6.111   0.061   2.303  1.00  0.00     0.010 A 
ATOM     10  C   UNL     1       4.099  -0.107   3.633  1.00  0.00     0.010 A 
ATOM     11  C   UNL     1       5.466   0.195   3.536  1.00  0.00    -0.014 A 
BRANCH  11  12
ATOM     12  C   UNL     1       6.255   0.471   4.760  1.00  0.00     0.031 A 
ATOM     13  C   UNL     1       6.608  -0.689   5.647  1.00  0.00     0.074 A 
ATOM     14  C   UNL     1       6.602   1.728   5.099  1.00  0.00     0.049 A 
ATOM     15  N   UNL     1       7.251  -0.697   6.782  1.00  0.00    -0.248 NA
ATOM     16  C   UNL     1       6.186  -2.025   5.188  1.00  0.00     0.031 C 
ATOM     17  C   UNL     1       6.244   2.931   4.348  1.00  0.00     0.029 A 
ATOM     18  N   UNL     1       7.238   2.209   6.221  1.00  0.00    -0.354 N 
ATOM     19  C   UNL     1       7.343  -2.029   7.156  1.00  0.00     0.074 A 
ATOM     20  C   UNL     1       6.637  -2.803   6.161  1.00  0.00     0.031 C 
ATOM     21  C   UNL     1       6.516   4.011   5.101  1.00  0.00     0.029 A 
ATOM     22  C   UNL     1       7.099   3.572   6.366  1.00  0.00     0.049 A 
ATOM     23  H   UNL     1       7.737   1.641   6.852  1.00  0.00     0.167 HD
ATOM     24  C   UNL     1       8.008  -2.562   8.206  1.00  0.00     0.034 A 
ATOM     25  C   UNL     1       7.340   4.359   7.434  1.00  0.00     0.034 A 
ATOM     26  C   UNL     1       8.689  -1.777   9.195  1.00  0.00     0.049 A 
ATOM     27  C   UNL     1       8.001   3.760   8.647  1.00  0.00     0.074 A 
ATOM     28  C   UNL     1       9.517  -2.201  10.217  1.00  0.00     0.029 A 
ATOM     29  N   UNL     1       8.578  -0.398   9.309  1.00  0.00    -0.354 N 
ATOM     30  N   UNL     1       8.334   2.512   8.864  1.00  0.00    -0.248 NA
ATOM     31  C   UNL     1       8.358   4.671   9.745  1.00  0.00     0.031 C 
ATOM     32  C   UNL     1       9.923  -1.074  10.941  1.00  0.00     0.029 A 
ATOM     33  C   UNL     1       9.347   0.050  10.367  1.00  0.00     0.049 A 
ATOM     34  H   UNL     1       8.032   0.175   8.724  1.00  0.00     0.167 HD
ATOM     35  C   UNL     1       8.947   2.485  10.109  1.00  0.00     0.074 A 
ATOM     36  C   UNL     1       8.970   3.850  10.591  1.00  0.00     0.031 C 
ATOM     37  C   UNL     1       9.432   1.422  10.795  1.00  0.00     0.034 A 
BRANCH  24  38
ATOM     38  C   UNL     1       8.122  -4.061   8.249  1.00  0.00     0.023 A 
ATOM     39  C   UNL     1       8.989  -4.692   7.329  1.00  0.00     0.012 A 
ATOM     40  C   UNL     1       7.409  -4.841   9.175  1.00  0.00     0.148 A 
ATOM     41  C   UNL     1       9.118  -6.078   7.307  1.00  0.00     0.002 A 
ATOM     42  C   UNL     1       7.565  -6.223   9.166  1.00  0.00     0.091 A 
ATOM     43  F   UNL     1       6.572  -4.225  10.022  1.00  0.00    -0.205 F 
ATOM     44  C   UNL     1       8.411  -6.843   8.229  1.00  0.00     0.022 A 
BRANCH  42  45
ATOM     45  S   UNL     1       6.732  -7.307  10.332  1.00  0.00     0.127 S 
ATOM     46  O   UNL     1       5.791  -8.009   9.461  1.00  0.00    -0.237 OA
ATOM     47  O   UNL     1       7.835  -8.132  10.826  1.00  0.00    -0.237 OA
ATOM     48  O   UNL     1       6.127  -6.437  11.330  1.00  0.00    -0.744 OA
ENDBRANCH  42  45
ENDBRANCH  24  38
BRANCH  25  49
ATOM     49  C   UNL     1       6.829   5.758   7.462  1.00  0.00     0.023 A 
ATOM     50  C   UNL     1       7.688   6.868   7.436  1.00  0.00     0.012 A 
ATOM     51  C   UNL     1       5.442   5.972   7.575  1.00  0.00     0.148 A 
ATOM     52  C   UNL     1       7.171   8.162   7.570  1.00  0.00     0.002 A 
ATOM     53  C   UNL     1       4.929   7.253   7.696  1.00  0.00     0.091 A 
ATOM     54  F   UNL     1       4.638   4.904   7.569  1.00  0.00    -0.205 F 
ATOM     55  C   UNL     1       5.794   8.356   7.705  1.00  0.00     0.022 A 
BRANCH  53  56
ATOM     56  S   UNL     1       3.167   7.547   7.883  1.00  0.00     0.127 S 
ATOM     57  O   UNL     1       3.115   8.226   9.176  1.00  0.00    -0.237 OA
ATOM     58  O   UNL     1       2.873   8.394   6.730  1.00  0.00    -0.237 OA
ATOM     59  O   UNL     1       2.533   6.228   7.861  1.00  0.00    -0.744 OA
ENDBRANCH  53  56
ENDBRANCH  25  49
BRANCH  37  60
ATOM     60  C   UNL     1      10.108   1.689  12.108  1.00  0.00     0.023 A 
ATOM     61  C   UNL     1       9.331   1.882  13.264  1.00  0.00     0.012 A 
ATOM     62  C   UNL     1      11.511   1.642  12.210  1.00  0.00     0.148 A 
ATOM     63  C   UNL     1       9.944   2.031  14.508  1.00  0.00     0.002 A 
ATOM     64  C   UNL     1      12.114   1.750  13.457  1.00  0.00     0.091 A 
ATOM     65  F   UNL     1      12.233   1.489  11.090  1.00  0.00    -0.205 F 
ATOM     66  C   UNL     1      11.333   1.949  14.607  1.00  0.00     0.022 A 
BRANCH  64  67
ATOM     67  S   UNL     1      13.888   1.553  13.658  1.00  0.00     0.127 S 
ATOM     68  O   UNL     1      14.350   2.939  13.634  1.00  0.00    -0.237 OA
ATOM     69  O   UNL     1      13.993   0.900  14.964  1.00  0.00    -0.237 OA
ATOM     70  O   UNL     1      14.315   0.721  12.541  1.00  0.00    -0.744 OA
ENDBRANCH  64  67
ENDBRANCH  37  60
ENDBRANCH  11  12
ENDBRANCH   4   6
ENDBRANCH   3   4
ENDBRANCH   2   3
ENDBRANCH   1   2
BRANCH   1  71
ATOM     71  O   UNL     1       3.286   2.097   0.394  1.00  0.00    -0.458 OA
BRANCH  71  72
ATOM     72  C   UNL     1       1.988   2.489   0.397  1.00  0.00     0.339 C 
ATOM     73  O   UNL     1       1.341   2.862  -0.566  1.00  0.00    -0.246 OA
BRANCH  72  74
ATOM     74  C   UNL     1       1.427   2.368   1.758  1.00  0.00     0.080 A 
ATOM     75  C   UNL     1       2.087   2.944   2.851  1.00  0.00     0.040 A 
ATOM     76  C   UNL     1       0.222   1.704   1.968  1.00  0.00     0.057 A 
ATOM     77  C   UNL     1       1.527   2.902   4.155  1.00  0.00     0.102 A 
ATOM     78  C   UNL     1      -0.355   1.708   3.241  1.00  0.00     0.043 A 
ATOM     79  Cl  UNL     1      -0.586   0.807   0.732  1.00  0.00    -0.083 Cl
ATOM     80  C   UNL     1       0.270   2.337   4.332  1.00  0.00     0.062 A 
ATOM     81  Cl  UNL     1      -0.671   2.363   5.768  1.00  0.00    -0.083 Cl
BRANCH  77  82
ATOM     82  S   UNL     1       2.668   3.395   5.438  1.00  0.00     0.242 S 
ATOM     83  O   UNL     1       3.493   2.216   5.575  1.00  0.00    -0.207 OA
ATOM     84  O   UNL     1       3.202   4.646   4.951  1.00  0.00    -0.207 OA
BRANCH  82  85
ATOM     85  N   UNL     1       1.895   3.689   6.877  1.00  0.00    -0.207 NA
ATOM     86  H   UNL     1       0.943   3.971   6.644  1.00  0.00     0.141 HD
BRANCH  85  87
ATOM     87  C   UNL     1       1.784   2.635   7.897  1.00  0.00     0.134 C 
BRANCH  87  88
ATOM     88  C   UNL     1       3.044   2.053   8.488  1.00  0.00    -0.030 A 
ATOM     89  C   UNL     1       3.375   0.705   8.275  1.00  0.00     0.025 A 
ATOM     90  C   UNL     1       3.888   2.813   9.294  1.00  0.00     0.025 A 
ATOM     91  C   UNL     1       4.515   0.188   8.870  1.00  0.00     0.111 A 
ATOM     92  C   UNL     1       5.008   2.206   9.841  1.00  0.00     0.111 A 
ATOM     93  N   UNL     1       5.329   0.908   9.663  1.00  0.00    -0.265 NA
ENDBRANCH  87  88
ENDBRANCH  85  87
ENDBRANCH  82  85
ENDBRANCH  77  82
ENDBRANCH  72  74
ENDBRANCH  71  72
ENDBRANCH   1  71
TORSDOF 18
