REMARK SMILES COc1cc(OC)c([C@H]2CC[NH2+][C@H]2C(=O)OCCOC(=O)c2ccc(-c3c4nc(c(-c5cccc(S(=O)(=O)[O-])c5F)c5ccc([nH]5)c(-c5cccc(S(=O)(=O)[O-])c5F)c5nc(c(-c6cccc(S(=O)(=O)[O-])c6F)c6ccc3[nH]6)C=C5)C=C4)cc2)cc1OC
REMARK SMILES IDX 18 1 17 2 16 3 14 4 15 5 13 6 9 7 10 8 11 9 12 10 8 13 3 14
REMARK SMILES IDX 4 15 86 16 5 17 85 18 2 19 1 20 87 21 88 22 6 23 7 24 19 25
REMARK SMILES IDX 20 26 21 27 22 28 23 29 84 30 24 31 83 32 25 33 26 34 27 35
REMARK SMILES IDX 77 36 28 37 82 38 76 39 78 40 29 41 81 42 75 43 74 44 30 46
REMARK SMILES IDX 62 47 42 48 61 49 43 50 46 51 60 52 79 53 44 54 45 55 59 57
REMARK SMILES IDX 80 58 47 59 31 60 32 61 40 62 33 63 35 64 41 65 34 66 36 67
REMARK SMILES IDX 37 68 38 69 39 70 63 71 64 72 72 73 65 74 67 75 73 76 66 77
REMARK SMILES IDX 68 78 69 79 70 80 71 81 48 82 49 83 57 84 50 85 52 86 58 87
REMARK SMILES IDX 51 88 53 89 54 90 55 91 56 92
REMARK H PARENT 12 11 12 12 78 45 46 56
REMARK Flexibility Score: inf
ROOT
ATOM      1  C   UNL     1       0.329  -1.214 -10.335  1.00  0.00     0.275 C 
ENDROOT
BRANCH   1   2
ATOM      2  C   UNL     1       1.546  -2.135 -10.252  1.00  0.00     0.274 C 
BRANCH   2   3
ATOM      3  O   UNL     1       1.600  -2.806  -8.974  1.00  0.00    -0.458 OA
BRANCH   3   4
ATOM      4  C   UNL     1       2.411  -2.227  -8.065  1.00  0.00     0.365 C 
ATOM      5  O   UNL     1       3.179  -1.301  -8.332  1.00  0.00    -0.245 OA
BRANCH   4   6
ATOM      6  C   UNL     1       2.302  -2.760  -6.624  1.00  0.00     0.301 C 
ATOM      7  C   UNL     1       1.701  -4.106  -6.200  1.00  0.00     0.099 C 
ATOM      8  C   UNL     1       2.841  -5.072  -6.501  1.00  0.00     0.076 C 
ATOM      9  C   UNL     1       4.048  -4.299  -5.991  1.00  0.00     0.262 C 
ATOM     10  N   UNL     1       3.721  -2.875  -6.111  1.00  0.00    -0.334 N 
ATOM     11  H   UNL     1       4.362  -2.427  -6.765  1.00  0.00     0.347 HD
ATOM     12  H   UNL     1       3.807  -2.415  -5.205  1.00  0.00     0.347 HD
BRANCH   7  13
ATOM     13  C   UNL     1       0.300  -4.647  -6.415  1.00  0.00     0.008 A 
ATOM     14  C   UNL     1      -2.348  -5.689  -6.558  1.00  0.00     0.164 A 
ATOM     15  C   UNL     1      -1.452  -6.196  -5.628  1.00  0.00     0.097 A 
ATOM     16  C   UNL     1      -1.962  -4.618  -7.369  1.00  0.00     0.161 A 
ATOM     17  C   UNL     1      -0.170  -5.653  -5.537  1.00  0.00     0.126 A 
ATOM     18  C   UNL     1      -0.636  -4.143  -7.329  1.00  0.00     0.058 A 
BRANCH  14  19
ATOM     19  O   UNL     1      -3.589  -6.272  -6.561  1.00  0.00    -0.493 OA
ATOM     20  C   UNL     1      -4.101  -6.513  -7.870  1.00  0.00     0.278 C 
ENDBRANCH  14  19
BRANCH  16  21
ATOM     21  O   UNL     1      -2.968  -3.961  -8.030  1.00  0.00    -0.493 OA
ATOM     22  C   UNL     1      -2.747  -3.674  -9.399  1.00  0.00     0.278 C 
ENDBRANCH  16  21
BRANCH  17  23
ATOM     23  O   UNL     1       0.633  -6.121  -4.524  1.00  0.00    -0.496 OA
ATOM     24  C   UNL     1       0.386  -5.381  -3.320  1.00  0.00     0.278 C 
ENDBRANCH  17  23
ENDBRANCH   7  13
ENDBRANCH   4   6
ENDBRANCH   3   4
ENDBRANCH   2   3
ENDBRANCH   1   2
BRANCH   1  25
ATOM     25  O   UNL     1       0.402  -0.137  -9.379  1.00  0.00    -0.458 OA
BRANCH  25  26
ATOM     26  C   UNL     1      -0.386  -0.291  -8.293  1.00  0.00     0.338 C 
ATOM     27  O   UNL     1      -1.107  -1.235  -8.034  1.00  0.00    -0.246 OA
BRANCH  26  28
ATOM     28  C   UNL     1      -0.348   0.856  -7.394  1.00  0.00     0.060 A 
ATOM     29  C   UNL     1       0.600   0.906  -6.371  1.00  0.00     0.016 A 
ATOM     30  C   UNL     1      -1.419   1.750  -7.442  1.00  0.00     0.016 A 
ATOM     31  C   UNL     1       0.464   1.865  -5.372  1.00  0.00     0.010 A 
ATOM     32  C   UNL     1      -1.528   2.733  -6.466  1.00  0.00     0.010 A 
ATOM     33  C   UNL     1      -0.592   2.792  -5.424  1.00  0.00    -0.014 A 
BRANCH  33  34
ATOM     34  C   UNL     1      -0.631   3.922  -4.475  1.00  0.00     0.031 A 
ATOM     35  C   UNL     1      -1.656   4.001  -3.388  1.00  0.00     0.074 A 
ATOM     36  C   UNL     1       0.249   4.919  -4.681  1.00  0.00     0.049 A 
ATOM     37  N   UNL     1      -1.841   4.949  -2.508  1.00  0.00    -0.248 NA
ATOM     38  C   UNL     1      -2.604   2.881  -3.276  1.00  0.00     0.031 C 
ATOM     39  C   UNL     1       1.240   4.944  -5.761  1.00  0.00     0.029 A 
ATOM     40  N   UNL     1       0.441   6.101  -4.022  1.00  0.00    -0.354 N 
ATOM     41  C   UNL     1      -2.942   4.562  -1.755  1.00  0.00     0.074 A 
ATOM     42  C   UNL     1      -3.385   3.288  -2.281  1.00  0.00     0.031 C 
ATOM     43  C   UNL     1       1.936   6.086  -5.689  1.00  0.00     0.029 A 
ATOM     44  C   UNL     1       1.423   6.882  -4.582  1.00  0.00     0.049 A 
ATOM     45  H   UNL     1      -0.074   6.367  -3.225  1.00  0.00     0.167 HD
ATOM     46  C   UNL     1      -3.515   5.213  -0.715  1.00  0.00     0.034 A 
ATOM     47  C   UNL     1       1.858   8.109  -4.243  1.00  0.00     0.034 A 
ATOM     48  C   UNL     1      -3.036   6.467  -0.194  1.00  0.00     0.049 A 
ATOM     49  C   UNL     1       1.250   8.773  -3.045  1.00  0.00     0.074 A 
ATOM     50  C   UNL     1      -3.505   7.188   0.890  1.00  0.00     0.029 A 
ATOM     51  N   UNL     1      -1.974   7.189  -0.723  1.00  0.00    -0.354 N 
ATOM     52  N   UNL     1       0.294   8.332  -2.261  1.00  0.00    -0.248 NA
ATOM     53  C   UNL     1       1.794  10.080  -2.660  1.00  0.00     0.031 C 
ATOM     54  C   UNL     1      -2.727   8.346   1.015  1.00  0.00     0.029 A 
ATOM     55  C   UNL     1      -1.773   8.347   0.009  1.00  0.00     0.049 A 
ATOM     56  H   UNL     1      -1.442   6.917  -1.505  1.00  0.00     0.167 HD
ATOM     57  C   UNL     1       0.128   9.300  -1.282  1.00  0.00     0.074 A 
ATOM     58  C   UNL     1       1.105  10.338  -1.556  1.00  0.00     0.031 C 
ATOM     59  C   UNL     1      -0.766   9.341  -0.264  1.00  0.00     0.034 A 
BRANCH  46  60
ATOM     60  C   UNL     1      -4.690   4.560  -0.038  1.00  0.00     0.023 A 
ATOM     61  C   UNL     1      -4.464   3.495   0.857  1.00  0.00     0.012 A 
ATOM     62  C   UNL     1      -6.003   5.032  -0.229  1.00  0.00     0.148 A 
ATOM     63  C   UNL     1      -5.526   2.898   1.537  1.00  0.00     0.002 A 
ATOM     64  C   UNL     1      -7.055   4.450   0.473  1.00  0.00     0.091 A 
ATOM     65  F   UNL     1      -6.207   6.026  -1.105  1.00  0.00    -0.205 F 
ATOM     66  C   UNL     1      -6.819   3.381   1.353  1.00  0.00     0.022 A 
BRANCH  64  67
ATOM     67  S   UNL     1      -8.743   5.054   0.338  1.00  0.00     0.127 S 
ATOM     68  O   UNL     1      -9.319   4.114  -0.621  1.00  0.00    -0.237 OA
ATOM     69  O   UNL     1      -9.243   4.910   1.706  1.00  0.00    -0.237 OA
ATOM     70  O   UNL     1      -8.629   6.434  -0.115  1.00  0.00    -0.744 OA
ENDBRANCH  64  67
ENDBRANCH  46  60
BRANCH  47  71
ATOM     71  C   UNL     1       2.983   8.709  -5.009  1.00  0.00     0.023 A 
ATOM     72  C   UNL     1       4.263   8.752  -4.428  1.00  0.00     0.012 A 
ATOM     73  C   UNL     1       2.823   9.107  -6.351  1.00  0.00     0.148 A 
ATOM     74  C   UNL     1       5.364   9.183  -5.168  1.00  0.00     0.002 A 
ATOM     75  C   UNL     1       3.934   9.481  -7.100  1.00  0.00     0.091 A 
ATOM     76  F   UNL     1       1.594   9.074  -6.887  1.00  0.00    -0.205 F 
ATOM     77  C   UNL     1       5.204   9.530  -6.507  1.00  0.00     0.022 A 
BRANCH  75  78
ATOM     78  S   UNL     1       3.812   9.773  -8.870  1.00  0.00     0.127 S 
ATOM     79  O   UNL     1       3.641  11.222  -8.926  1.00  0.00    -0.237 OA
ATOM     80  O   UNL     1       5.103   9.287  -9.361  1.00  0.00    -0.237 OA
ATOM     81  O   UNL     1       2.676   8.971  -9.304  1.00  0.00    -0.744 OA
ENDBRANCH  75  78
ENDBRANCH  47  71
BRANCH  59  82
ATOM     82  C   UNL     1      -0.734  10.556   0.619  1.00  0.00     0.023 A 
ATOM     83  C   UNL     1      -1.316  11.752   0.157  1.00  0.00     0.012 A 
ATOM     84  C   UNL     1      -0.186  10.502   1.913  1.00  0.00     0.148 A 
ATOM     85  C   UNL     1      -1.335  12.887   0.966  1.00  0.00     0.002 A 
ATOM     86  C   UNL     1      -0.239  11.628   2.727  1.00  0.00     0.091 A 
ATOM     87  F   UNL     1       0.389   9.362   2.322  1.00  0.00    -0.205 F 
ATOM     88  C   UNL     1      -0.807  12.822   2.253  1.00  0.00     0.022 A 
BRANCH  86  89
ATOM     89  S   UNL     1       0.356  11.592   4.421  1.00  0.00     0.127 S 
ATOM     90  O   UNL     1       1.713  12.112   4.274  1.00  0.00    -0.237 OA
ATOM     91  O   UNL     1      -0.571  12.495   5.106  1.00  0.00    -0.237 OA
ATOM     92  O   UNL     1       0.249  10.200   4.839  1.00  0.00    -0.744 OA
ENDBRANCH  86  89
ENDBRANCH  59  82
ENDBRANCH  33  34
ENDBRANCH  26  28
ENDBRANCH  25  26
ENDBRANCH   1  25
TORSDOF 18
