REMARK SMILES C[C@@H]([C@H](C)O)[C@@H](Cc1ccccc1)C(=O)OCCOC(=O)c1ccc(-c2c3nc(c(-c4cccc(S(=O)(=O)[O-])c4F)c4ccc([nH]4)c(-c4cccc(S(=O)(=O)[O-])c4F)c4nc(c(-c5cccc(S(=O)(=O)[O-])c5F)c5ccc2[nH]5)C=C4)C=C3)cc1
REMARK SMILES IDX 17 1 16 2 14 3 15 4 6 5 2 6 1 7 3 8 4 9 5 10 7 12 8 13 9 14
REMARK SMILES IDX 13 15 10 16 12 17 11 18 18 19 19 20 20 21 21 22 22 23 23 24
REMARK SMILES IDX 84 25 24 26 83 27 25 28 26 29 27 30 77 31 28 32 82 33 76 34
REMARK SMILES IDX 78 35 29 36 81 37 75 38 74 39 30 41 62 42 42 43 61 44 43 45
REMARK SMILES IDX 46 46 60 47 79 48 44 49 45 50 59 52 80 53 47 54 31 55 32 56
REMARK SMILES IDX 40 57 33 58 35 59 41 60 34 61 36 62 37 63 38 64 39 65 63 66
REMARK SMILES IDX 64 67 72 68 65 69 67 70 73 71 66 72 68 73 69 74 70 75 71 76
REMARK SMILES IDX 48 77 49 78 57 79 50 80 52 81 58 82 51 83 53 84 54 85 55 86
REMARK SMILES IDX 56 87
REMARK H PARENT 5 11 78 40 46 51
REMARK Flexibility Score: inf
ROOT
ATOM      1  C   UNL     1       2.370  -3.851  -4.972  1.00  0.00     0.274 C 
ENDROOT
BRANCH   1   2
ATOM      2  O   UNL     1       1.504  -3.189  -4.031  1.00  0.00    -0.462 OA
BRANCH   2   3
ATOM      3  C   UNL     1       1.521  -3.703  -2.776  1.00  0.00     0.309 C 
ATOM      4  O   UNL     1       2.243  -4.625  -2.407  1.00  0.00    -0.252 OA
BRANCH   3   5
ATOM      5  C   UNL     1       0.465  -3.110  -1.851  1.00  0.00     0.109 C 
BRANCH   5   6
ATOM      6  C   UNL     1      -0.059  -1.682  -2.196  1.00  0.00     0.029 C 
ATOM      7  C   UNL     1      -1.140  -1.245  -1.190  1.00  0.00     0.011 C 
BRANCH   6   8
ATOM      8  C   UNL     1       1.083  -0.625  -2.308  1.00  0.00     0.115 C 
ATOM      9  C   UNL     1       1.168   0.434  -1.209  1.00  0.00     0.038 C 
BRANCH   8  10
ATOM     10  O   UNL     1       0.917   0.066  -3.552  1.00  0.00    -0.393 OA
ATOM     11  H   UNL     1       0.077   0.550  -3.543  1.00  0.00     0.210 HD
ENDBRANCH   8  10
ENDBRANCH   6   8
ENDBRANCH   5   6
BRANCH   5  12
ATOM     12  C   UNL     1      -0.622  -4.210  -1.716  1.00  0.00     0.051 C 
BRANCH  12  13
ATOM     13  C   UNL     1      -1.294  -4.619  -3.012  1.00  0.00    -0.047 A 
ATOM     14  C   UNL     1      -2.242  -3.799  -3.635  1.00  0.00     0.004 A 
ATOM     15  C   UNL     1      -0.942  -5.827  -3.634  1.00  0.00     0.004 A 
ATOM     16  C   UNL     1      -2.793  -4.151  -4.868  1.00  0.00     0.000 A 
ATOM     17  C   UNL     1      -1.509  -6.189  -4.857  1.00  0.00     0.000 A 
ATOM     18  C   UNL     1      -2.426  -5.346  -5.479  1.00  0.00     0.000 A 
ENDBRANCH  12  13
ENDBRANCH   5  12
ENDBRANCH   3   5
ENDBRANCH   2   3
ENDBRANCH   1   2
BRANCH   1  19
ATOM     19  C   UNL     1       3.732  -3.168  -5.066  1.00  0.00     0.275 C 
BRANCH  19  20
ATOM     20  O   UNL     1       4.349  -3.123  -3.770  1.00  0.00    -0.458 OA
BRANCH  20  21
ATOM     21  C   UNL     1       4.721  -1.895  -3.345  1.00  0.00     0.338 C 
ATOM     22  O   UNL     1       4.676  -0.848  -3.965  1.00  0.00    -0.246 OA
BRANCH  21  23
ATOM     23  C   UNL     1       5.245  -1.986  -1.974  1.00  0.00     0.060 A 
ATOM     24  C   UNL     1       4.423  -2.385  -0.916  1.00  0.00     0.016 A 
ATOM     25  C   UNL     1       6.548  -1.552  -1.735  1.00  0.00     0.016 A 
ATOM     26  C   UNL     1       4.888  -2.302   0.396  1.00  0.00     0.010 A 
ATOM     27  C   UNL     1       7.029  -1.520  -0.427  1.00  0.00     0.010 A 
ATOM     28  C   UNL     1       6.193  -1.861   0.649  1.00  0.00    -0.014 A 
BRANCH  28  29
ATOM     29  C   UNL     1       6.690  -1.703   2.036  1.00  0.00     0.031 A 
ATOM     30  C   UNL     1       6.993  -0.327   2.561  1.00  0.00     0.074 A 
ATOM     31  C   UNL     1       6.923  -2.790   2.795  1.00  0.00     0.049 A 
ATOM     32  N   UNL     1       7.583   0.021   3.674  1.00  0.00    -0.248 NA
ATOM     33  C   UNL     1       6.586   0.808   1.715  1.00  0.00     0.031 C 
ATOM     34  C   UNL     1       6.664  -4.172   2.392  1.00  0.00     0.029 A 
ATOM     35  N   UNL     1       7.464  -2.902   4.050  1.00  0.00    -0.354 N 
ATOM     36  C   UNL     1       7.671   1.407   3.639  1.00  0.00     0.074 A 
ATOM     37  C   UNL     1       7.067   1.839   2.397  1.00  0.00     0.031 C 
ATOM     38  C   UNL     1       7.065  -4.996   3.373  1.00  0.00     0.029 A 
ATOM     39  C   UNL     1       7.651  -4.204   4.450  1.00  0.00     0.049 A 
ATOM     40  H   UNL     1       7.696  -2.126   4.611  1.00  0.00     0.167 HD
ATOM     41  C   UNL     1       8.197   2.244   4.563  1.00  0.00     0.034 A 
ATOM     42  C   UNL     1       8.258  -4.703   5.544  1.00  0.00     0.034 A 
ATOM     43  C   UNL     1       8.753   1.810   5.816  1.00  0.00     0.049 A 
ATOM     44  C   UNL     1       8.831  -3.750   6.558  1.00  0.00     0.074 A 
ATOM     45  C   UNL     1       9.272   2.581   6.841  1.00  0.00     0.029 A 
ATOM     46  N   UNL     1       8.860   0.487   6.216  1.00  0.00    -0.354 N 
ATOM     47  N   UNL     1       8.828  -2.438   6.551  1.00  0.00    -0.248 NA
ATOM     48  C   UNL     1       9.472  -4.343   7.740  1.00  0.00     0.031 C 
ATOM     49  C   UNL     1       9.699   1.722   7.860  1.00  0.00     0.029 A 
ATOM     50  C   UNL     1       9.437   0.418   7.473  1.00  0.00     0.049 A 
ATOM     51  H   UNL     1       8.569  -0.289   5.685  1.00  0.00     0.167 HD
ATOM     52  C   UNL     1       9.438  -2.050   7.738  1.00  0.00     0.074 A 
ATOM     53  C   UNL     1       9.779  -3.265   8.449  1.00  0.00     0.031 C 
ATOM     54  C   UNL     1       9.711  -0.801   8.190  1.00  0.00     0.034 A 
BRANCH  41  55
ATOM     55  C   UNL     1       8.162   3.720   4.271  1.00  0.00     0.023 A 
ATOM     56  C   UNL     1       6.946   4.423   4.388  1.00  0.00     0.012 A 
ATOM     57  C   UNL     1       9.337   4.422   3.934  1.00  0.00     0.148 A 
ATOM     58  C   UNL     1       6.894   5.795   4.149  1.00  0.00     0.002 A 
ATOM     59  C   UNL     1       9.283   5.797   3.733  1.00  0.00     0.091 A 
ATOM     60  F   UNL     1      10.479   3.732   3.801  1.00  0.00    -0.205 F 
ATOM     61  C   UNL     1       8.062   6.483   3.833  1.00  0.00     0.022 A 
BRANCH  59  62
ATOM     62  S   UNL     1      10.748   6.779   3.390  1.00  0.00     0.127 S 
ATOM     63  O   UNL     1      10.594   7.051   1.962  1.00  0.00    -0.237 OA
ATOM     64  O   UNL     1      10.553   7.942   4.256  1.00  0.00    -0.237 OA
ATOM     65  O   UNL     1      11.883   5.941   3.752  1.00  0.00    -0.744 OA
ENDBRANCH  59  62
ENDBRANCH  41  55
BRANCH  42  66
ATOM     66  C   UNL     1       8.318  -6.177   5.752  1.00  0.00     0.023 A 
ATOM     67  C   UNL     1       7.539  -6.759   6.769  1.00  0.00     0.012 A 
ATOM     68  C   UNL     1       9.102  -7.006   4.926  1.00  0.00     0.148 A 
ATOM     69  C   UNL     1       7.555  -8.139   6.976  1.00  0.00     0.002 A 
ATOM     70  C   UNL     1       9.071  -8.385   5.102  1.00  0.00     0.091 A 
ATOM     71  F   UNL     1       9.855  -6.432   3.977  1.00  0.00    -0.205 F 
ATOM     72  C   UNL     1       8.310  -8.953   6.135  1.00  0.00     0.022 A 
BRANCH  70  73
ATOM     73  S   UNL     1       9.908  -9.509   3.978  1.00  0.00     0.127 S 
ATOM     74  O   UNL     1      11.079  -9.898   4.758  1.00  0.00    -0.237 OA
ATOM     75  O   UNL     1       8.910 -10.565   3.798  1.00  0.00    -0.237 OA
ATOM     76  O   UNL     1      10.172  -8.729   2.776  1.00  0.00    -0.744 OA
ENDBRANCH  70  73
ENDBRANCH  42  66
BRANCH  54  77
ATOM     77  C   UNL     1      10.387  -0.679   9.529  1.00  0.00     0.023 A 
ATOM     78  C   UNL     1      11.760  -0.968   9.643  1.00  0.00     0.012 A 
ATOM     79  C   UNL     1       9.681  -0.207  10.653  1.00  0.00     0.148 A 
ATOM     80  C   UNL     1      12.417  -0.813  10.863  1.00  0.00     0.002 A 
ATOM     81  C   UNL     1      10.352  -0.014  11.855  1.00  0.00     0.091 A 
ATOM     82  F   UNL     1       8.369   0.041  10.529  1.00  0.00    -0.205 F 
ATOM     83  C   UNL     1      11.717  -0.325  11.964  1.00  0.00     0.022 A 
BRANCH  81  84
ATOM     84  S   UNL     1       9.545   0.694  13.295  1.00  0.00     0.127 S 
ATOM     85  O   UNL     1       9.300  -0.492  14.114  1.00  0.00    -0.237 OA
ATOM     86  O   UNL     1      10.571   1.596  13.820  1.00  0.00    -0.237 OA
ATOM     87  O   UNL     1       8.356   1.368  12.790  1.00  0.00    -0.744 OA
ENDBRANCH  81  84
ENDBRANCH  54  77
ENDBRANCH  28  29
ENDBRANCH  21  23
ENDBRANCH  20  21
ENDBRANCH  19  20
ENDBRANCH   1  19
TORSDOF 19
