REMARK SMILES Cc1ccc(C(=O)CC(C)(C)C(=O)OCCOC(=O)c2ccc(-c3c4nc(c(-c5cccc(S(=O)(=O)[O-])c5F)c5ccc([nH]5)c(-c5cccc(S(=O)(=O)[O-])c5F)c5nc(c(-c6cccc(S(=O)(=O)[O-])c6F)c6ccc3[nH]6)C=C5)C=C4)cc2)cc1
REMARK SMILES IDX 15 1 14 2 12 3 13 4 9 5 10 6 11 7 8 8 6 9 7 10 5 11 1 12
REMARK SMILES IDX 2 13 3 14 84 15 4 16 83 17 16 18 17 19 18 20 19 21 20 22
REMARK SMILES IDX 21 23 82 24 22 25 81 26 23 27 24 28 25 29 75 30 26 31 80 32
REMARK SMILES IDX 74 33 76 34 27 35 79 36 73 37 72 38 28 40 60 41 40 42 59 43
REMARK SMILES IDX 41 44 44 45 58 46 77 47 42 48 43 49 57 51 78 52 45 53 29 54
REMARK SMILES IDX 30 55 38 56 31 57 33 58 39 59 32 60 34 61 35 62 36 63 37 64
REMARK SMILES IDX 61 65 62 66 70 67 63 68 65 69 71 70 64 71 66 72 67 73 68 74
REMARK SMILES IDX 69 75 46 76 47 77 55 78 48 79 50 80 56 81 49 82 51 83 52 84
REMARK SMILES IDX 53 85 54 86
REMARK H PARENT 76 39 44 50
REMARK Flexibility Score: inf
ROOT
ATOM      1  C   UNL     1      -5.210   0.669   5.360  1.00  0.00     0.274 C 
ENDROOT
BRANCH   1   2
ATOM      2  O   UNL     1      -4.287   1.422   4.579  1.00  0.00    -0.462 OA
BRANCH   2   3
ATOM      3  C   UNL     1      -4.333   1.159   3.140  1.00  0.00     0.312 C 
ATOM      4  O   UNL     1      -4.949   0.064   3.083  1.00  0.00    -0.252 OA
BRANCH   3   5
ATOM      5  C   UNL     1      -3.628   2.540   1.554  1.00  0.00     0.070 C 
ATOM      6  C   UNL     1      -2.075   3.356   1.448  1.00  0.00     0.024 C 
ATOM      7  C   UNL     1      -4.414   4.065   1.068  1.00  0.00     0.024 C 
BRANCH   5   8
ATOM      8  C   UNL     1      -3.488   2.139  -0.283  1.00  0.00     0.099 C 
BRANCH   8   9
ATOM      9  C   UNL     1      -2.763   1.004  -1.099  1.00  0.00     0.163 C 
ATOM     10  O   UNL     1      -3.368   0.431  -2.011  1.00  0.00    -0.294 OA
BRANCH   9  11
ATOM     11  C   UNL     1      -1.295   0.737  -0.992  1.00  0.00     0.018 A 
ATOM     12  C   UNL     1       2.793  -0.131   0.059  1.00  0.00     0.044 C 
ATOM     13  C   UNL     1       1.405   0.170  -0.424  1.00  0.00    -0.051 A 
ATOM     14  C   UNL     1       0.529  -0.860  -0.773  1.00  0.00     0.004 A 
ATOM     15  C   UNL     1       0.950   1.489  -0.504  1.00  0.00     0.004 A 
ATOM     16  C   UNL     1      -0.802  -0.567  -1.098  1.00  0.00     0.012 A 
ATOM     17  C   UNL     1      -0.385   1.769  -0.812  1.00  0.00     0.012 A 
ENDBRANCH   9  11
ENDBRANCH   8   9
ENDBRANCH   5   8
ENDBRANCH   3   5
ENDBRANCH   2   3
ENDBRANCH   1   2
BRANCH   1  18
ATOM     18  C   UNL     1      -6.618   1.251   5.176  1.00  0.00     0.275 C 
BRANCH  18  19
ATOM     19  O   UNL     1      -7.301   1.314   3.863  1.00  0.00    -0.458 OA
BRANCH  19  20
ATOM     20  C   UNL     1      -7.117   2.011   2.700  1.00  0.00     0.338 C 
ATOM     21  O   UNL     1      -8.059   2.365   2.001  1.00  0.00    -0.246 OA
BRANCH  20  22
ATOM     22  C   UNL     1      -5.743   2.265   2.199  1.00  0.00     0.060 A 
ATOM     23  C   UNL     1      -4.983   0.971   1.199  1.00  0.00     0.016 A 
ATOM     24  C   UNL     1      -4.743   3.218   3.325  1.00  0.00     0.016 A 
ATOM     25  C   UNL     1      -3.246   0.493   1.555  1.00  0.00     0.010 A 
ATOM     26  C   UNL     1      -3.041   2.772   3.617  1.00  0.00     0.010 A 
ATOM     27  C   UNL     1      -2.336   1.309   2.833  1.00  0.00    -0.014 A 
BRANCH  27  28
ATOM     28  C   UNL     1      -1.377   0.572   3.678  1.00  0.00     0.031 A 
ATOM     29  C   UNL     1      -0.107   1.309   3.880  1.00  0.00     0.074 A 
ATOM     30  C   UNL     1      -1.624  -0.630   4.291  1.00  0.00     0.049 A 
ATOM     31  N   UNL     1       1.053   0.749   3.931  1.00  0.00    -0.248 NA
ATOM     32  C   UNL     1       0.008   2.777   3.805  1.00  0.00     0.031 C 
ATOM     33  C   UNL     1      -0.873  -1.144   5.445  1.00  0.00     0.029 A 
ATOM     34  N   UNL     1      -2.529  -1.687   4.036  1.00  0.00    -0.354 N 
ATOM     35  C   UNL     1       1.920   1.771   4.260  1.00  0.00     0.074 A 
ATOM     36  C   UNL     1       1.323   2.954   3.756  1.00  0.00     0.031 C 
ATOM     37  C   UNL     1      -1.162  -2.441   5.643  1.00  0.00     0.029 A 
ATOM     38  C   UNL     1      -2.024  -2.896   4.564  1.00  0.00     0.049 A 
ATOM     39  H   UNL     1      -3.385  -1.593   3.559  1.00  0.00     0.167 HD
ATOM     40  C   UNL     1       2.844   1.586   5.236  1.00  0.00     0.034 A 
ATOM     41  C   UNL     1      -1.837  -4.094   3.915  1.00  0.00     0.034 A 
ATOM     42  C   UNL     1       2.883   0.163   5.595  1.00  0.00     0.049 A 
ATOM     43  C   UNL     1      -0.337  -4.261   3.590  1.00  0.00     0.074 A 
ATOM     44  C   UNL     1       2.472  -0.597   6.673  1.00  0.00     0.029 A 
ATOM     45  N   UNL     1       3.060  -0.737   4.561  1.00  0.00    -0.354 N 
ATOM     46  N   UNL     1       0.614  -3.567   4.169  1.00  0.00    -0.248 NA
ATOM     47  C   UNL     1       0.228  -5.156   2.577  1.00  0.00     0.031 C 
ATOM     48  C   UNL     1       2.389  -1.964   6.239  1.00  0.00     0.029 A 
ATOM     49  C   UNL     1       2.800  -2.038   4.918  1.00  0.00     0.049 A 
ATOM     50  H   UNL     1       3.344  -0.471   3.656  1.00  0.00     0.167 HD
ATOM     51  C   UNL     1       1.818  -3.761   3.541  1.00  0.00     0.074 A 
ATOM     52  C   UNL     1       1.515  -4.768   2.537  1.00  0.00     0.031 C 
ATOM     53  C   UNL     1       2.952  -3.062   3.884  1.00  0.00     0.034 A 
BRANCH  40  54
ATOM     54  C   UNL     1       3.571   2.696   5.989  1.00  0.00     0.023 A 
ATOM     55  C   UNL     1       4.581   2.268   6.872  1.00  0.00     0.012 A 
ATOM     56  C   UNL     1       3.339   4.105   5.959  1.00  0.00     0.148 A 
ATOM     57  C   UNL     1       5.306   3.158   7.675  1.00  0.00     0.002 A 
ATOM     58  C   UNL     1       4.109   5.000   6.712  1.00  0.00     0.091 A 
ATOM     59  F   UNL     1       2.315   4.620   5.277  1.00  0.00    -0.205 F 
ATOM     60  C   UNL     1       5.084   4.524   7.585  1.00  0.00     0.022 A 
BRANCH  58  61
ATOM     61  S   UNL     1       3.913   6.796   6.612  1.00  0.00     0.127 S 
ATOM     62  O   UNL     1       3.418   7.126   7.949  1.00  0.00    -0.237 OA
ATOM     63  O   UNL     1       5.279   7.246   6.343  1.00  0.00    -0.237 OA
ATOM     64  O   UNL     1       2.972   7.053   5.528  1.00  0.00    -0.744 OA
ENDBRANCH  58  61
ENDBRANCH  40  54
BRANCH  41  65
ATOM     65  C   UNL     1      -3.019  -4.649   3.170  1.00  0.00     0.023 A 
ATOM     66  C   UNL     1      -4.258  -4.701   3.862  1.00  0.00     0.012 A 
ATOM     67  C   UNL     1      -3.081  -4.758   1.790  1.00  0.00     0.148 A 
ATOM     68  C   UNL     1      -5.483  -4.514   3.203  1.00  0.00     0.002 A 
ATOM     69  C   UNL     1      -4.238  -4.293   1.164  1.00  0.00     0.091 A 
ATOM     70  F   UNL     1      -1.984  -4.971   1.055  1.00  0.00    -0.205 F 
ATOM     71  C   UNL     1      -5.471  -4.235   1.845  1.00  0.00     0.022 A 
BRANCH  69  72
ATOM     72  S   UNL     1      -3.850  -2.660   0.478  1.00  0.00     0.127 S 
ATOM     73  O   UNL     1      -4.907  -2.396  -0.485  1.00  0.00    -0.237 OA
ATOM     74  O   UNL     1      -3.945  -1.959   1.749  1.00  0.00    -0.237 OA
ATOM     75  O   UNL     1      -2.504  -2.791  -0.053  1.00  0.00    -0.744 OA
ENDBRANCH  69  72
ENDBRANCH  41  65
BRANCH  53  76
ATOM     76  C   UNL     1       4.334  -3.267   3.253  1.00  0.00     0.023 A 
ATOM     77  C   UNL     1       4.707  -4.512   2.720  1.00  0.00     0.012 A 
ATOM     78  C   UNL     1       5.364  -2.278   3.278  1.00  0.00     0.148 A 
ATOM     79  C   UNL     1       5.967  -4.730   2.147  1.00  0.00     0.002 A 
ATOM     80  C   UNL     1       6.636  -2.516   2.776  1.00  0.00     0.091 A 
ATOM     81  F   UNL     1       5.143  -1.069   3.790  1.00  0.00    -0.205 F 
ATOM     82  C   UNL     1       6.932  -3.732   2.172  1.00  0.00     0.022 A 
BRANCH  80  83
ATOM     83  S   UNL     1       7.972  -1.316   2.942  1.00  0.00     0.127 S 
ATOM     84  O   UNL     1       8.941  -2.069   3.739  1.00  0.00    -0.237 OA
ATOM     85  O   UNL     1       8.357  -1.106   1.547  1.00  0.00    -0.237 OA
ATOM     86  O   UNL     1       7.411  -0.150   3.607  1.00  0.00    -0.744 OA
ENDBRANCH  80  83
ENDBRANCH  53  76
ENDBRANCH  27  28
ENDBRANCH  20  22
ENDBRANCH  19  20
ENDBRANCH  18  19
ENDBRANCH   1  18
TORSDOF 17
