REMARK SMILES N#Cc1ccc(/C=C/C(=O)N[C@H]2C=C[C@H](C(=O)OCCOC(=O)c3ccc(-c4c5nc(c(-c6cccc(S(=O)(=O)[O-])c6F)c6ccc([nH]6)c(-c6cccc(S(=O)(=O)[O-])c6F)c6nc(c(-c7cccc(S(=O)(=O)[O-])c7F)c7ccc4[nH]7)C=C6)C=C5)cc3)C2)cc1
REMARK SMILES IDX 19 1 18 2 16 3 17 4 15 5 12 6 13 7 87 8 14 9 11 10 9 11
REMARK SMILES IDX 10 12 8 14 7 15 6 16 3 17 4 18 89 19 5 20 88 21 2 22 1 23
REMARK SMILES IDX 20 24 21 25 22 26 23 27 24 28 25 29 86 30 26 31 85 32 27 33
REMARK SMILES IDX 28 34 29 35 79 36 30 37 84 38 78 39 80 40 31 41 83 42 77 43
REMARK SMILES IDX 76 44 32 46 64 47 44 48 63 49 45 50 48 51 62 52 81 53 46 54
REMARK SMILES IDX 47 55 61 57 82 58 49 59 33 60 34 61 42 62 35 63 37 64 43 65
REMARK SMILES IDX 36 66 38 67 39 68 40 69 41 70 65 71 66 72 74 73 67 74 69 75
REMARK SMILES IDX 75 76 68 77 70 78 71 79 72 80 73 81 50 82 51 83 59 84 52 85
REMARK SMILES IDX 54 86 60 87 53 88 55 89 56 90 57 91 58 92
REMARK H PARENT 11 13 80 45 48 56
REMARK Flexibility Score: inf
ROOT
ATOM      1  C   UNL     1       2.020  -4.673   2.241  1.00  0.00     0.274 C 
ENDROOT
BRANCH   1   2
ATOM      2  O   UNL     1       3.438  -4.604   2.538  1.00  0.00    -0.462 OA
BRANCH   2   3
ATOM      3  C   UNL     1       4.172  -3.977   1.582  1.00  0.00     0.312 C 
ATOM      4  O   UNL     1       3.654  -3.483   0.586  1.00  0.00    -0.252 OA
BRANCH   3   5
ATOM      5  C   UNL     1       5.701  -3.984   1.854  1.00  0.00     0.124 C 
ATOM      6  C   UNL     1       6.201  -2.129   0.479  1.00  0.00     0.106 C 
ATOM      7  C   UNL     1       6.749  -3.361  -0.166  1.00  0.00    -0.006 C 
ATOM      8  C   UNL     1       6.299  -2.565   1.940  1.00  0.00     0.048 C 
ATOM      9  C   UNL     1       6.435  -4.424   0.599  1.00  0.00    -0.014 C 
BRANCH   6  10
ATOM     10  N   UNL     1       6.822  -0.937   0.028  1.00  0.00    -0.346 N 
ATOM     11  C   UNL     1       6.176   0.086  -0.624  1.00  0.00     0.244 C 
ATOM     12  O   UNL     1       6.839   1.015  -1.079  1.00  0.00    -0.270 OA
ATOM     13  H   UNL     1       7.786  -0.834   0.194  1.00  0.00     0.164 HD
BRANCH  11  14
ATOM     14  C   UNL     1       4.676   0.207  -0.540  1.00  0.00     0.072 C 
ATOM     15  C   UNL     1       3.629  -0.557  -0.913  1.00  0.00     0.014 C 
BRANCH  15  16
ATOM     16  C   UNL     1       2.152  -0.415  -0.621  1.00  0.00    -0.025 A 
ATOM     17  C   UNL     1      -0.697  -0.381  -0.184  1.00  0.00     0.052 A 
ATOM     18  C   UNL     1       0.049   0.769  -0.027  1.00  0.00     0.020 A 
ATOM     19  C   UNL     1      -0.031  -1.556  -0.532  1.00  0.00     0.020 A 
ATOM     20  C   UNL     1       1.441   0.725  -0.211  1.00  0.00     0.009 A 
ATOM     21  C   UNL     1       1.362  -1.563  -0.762  1.00  0.00     0.009 A 
BRANCH  17  22
ATOM     22  C   UNL     1      -2.109  -0.357   0.041  1.00  0.00     0.099 C 
ATOM     23  N   UNL     1      -3.256  -0.351   0.250  1.00  0.00    -0.192 NA
ENDBRANCH  17  22
ENDBRANCH  15  16
ENDBRANCH  11  14
ENDBRANCH   6  10
ENDBRANCH   3   5
ENDBRANCH   2   3
ENDBRANCH   1   2
BRANCH   1  24
ATOM     24  C   UNL     1       1.180  -3.753   3.138  1.00  0.00     0.275 C 
BRANCH  24  25
ATOM     25  O   UNL     1       1.332  -2.344   2.838  1.00  0.00    -0.458 OA
BRANCH  25  26
ATOM     26  C   UNL     1       2.273  -1.701   3.572  1.00  0.00     0.338 C 
ATOM     27  O   UNL     1       3.010  -2.226   4.397  1.00  0.00    -0.246 OA
BRANCH  26  28
ATOM     28  C   UNL     1       2.482  -0.298   3.135  1.00  0.00     0.060 A 
ATOM     29  C   UNL     1       3.754  -0.018   2.656  1.00  0.00     0.016 A 
ATOM     30  C   UNL     1       1.594   0.764   3.278  1.00  0.00     0.016 A 
ATOM     31  C   UNL     1       4.168   1.266   2.316  1.00  0.00     0.010 A 
ATOM     32  C   UNL     1       1.978   2.063   2.841  1.00  0.00     0.010 A 
ATOM     33  C   UNL     1       3.257   2.314   2.294  1.00  0.00    -0.014 A 
BRANCH  33  34
ATOM     34  C   UNL     1       3.750   3.659   1.849  1.00  0.00     0.031 A 
ATOM     35  C   UNL     1       4.264   4.562   2.929  1.00  0.00     0.074 A 
ATOM     36  C   UNL     1       3.887   4.059   0.557  1.00  0.00     0.049 A 
ATOM     37  N   UNL     1       4.704   5.785   2.834  1.00  0.00    -0.248 NA
ATOM     38  C   UNL     1       4.297   4.006   4.294  1.00  0.00     0.031 C 
ATOM     39  C   UNL     1       3.603   3.281  -0.632  1.00  0.00     0.029 A 
ATOM     40  N   UNL     1       4.329   5.245  -0.000  1.00  0.00    -0.354 N 
ATOM     41  C   UNL     1       5.008   6.170   4.128  1.00  0.00     0.074 A 
ATOM     42  C   UNL     1       4.730   5.043   4.991  1.00  0.00     0.031 C 
ATOM     43  C   UNL     1       3.868   3.947  -1.752  1.00  0.00     0.029 A 
ATOM     44  C   UNL     1       4.262   5.275  -1.385  1.00  0.00     0.049 A 
ATOM     45  H   UNL     1       4.661   6.000   0.537  1.00  0.00     0.167 HD
ATOM     46  C   UNL     1       5.458   7.371   4.554  1.00  0.00     0.034 A 
ATOM     47  C   UNL     1       4.439   6.239  -2.304  1.00  0.00     0.034 A 
ATOM     48  C   UNL     1       5.720   8.482   3.682  1.00  0.00     0.049 A 
ATOM     49  C   UNL     1       4.841   7.575  -1.799  1.00  0.00     0.074 A 
ATOM     50  C   UNL     1       6.151   9.751   4.021  1.00  0.00     0.029 A 
ATOM     51  N   UNL     1       5.555   8.471   2.303  1.00  0.00    -0.354 N 
ATOM     52  N   UNL     1       5.095   7.926  -0.565  1.00  0.00    -0.248 NA
ATOM     53  C   UNL     1       5.000   8.639  -2.792  1.00  0.00     0.031 C 
ATOM     54  C   UNL     1       6.189  10.524   2.857  1.00  0.00     0.029 A 
ATOM     55  C   UNL     1       5.850   9.720   1.781  1.00  0.00     0.049 A 
ATOM     56  H   UNL     1       5.271   7.691   1.774  1.00  0.00     0.167 HD
ATOM     57  C   UNL     1       5.473   9.251  -0.629  1.00  0.00     0.074 A 
ATOM     58  C   UNL     1       5.438   9.630  -2.030  1.00  0.00     0.031 C 
ATOM     59  C   UNL     1       5.813  10.076   0.387  1.00  0.00     0.034 A 
BRANCH  46  60
ATOM     60  C   UNL     1       5.604   7.553   6.037  1.00  0.00     0.023 A 
ATOM     61  C   UNL     1       6.622   6.888   6.750  1.00  0.00     0.012 A 
ATOM     62  C   UNL     1       4.706   8.389   6.727  1.00  0.00     0.148 A 
ATOM     63  C   UNL     1       6.716   7.023   8.135  1.00  0.00     0.002 A 
ATOM     64  C   UNL     1       4.842   8.564   8.095  1.00  0.00     0.091 A 
ATOM     65  F   UNL     1       3.723   8.980   6.033  1.00  0.00    -0.205 F 
ATOM     66  C   UNL     1       5.835   7.869   8.805  1.00  0.00     0.022 A 
BRANCH  64  67
ATOM     67  S   UNL     1       3.806   9.693   9.029  1.00  0.00     0.127 S 
ATOM     68  O   UNL     1       3.059   8.770   9.883  1.00  0.00    -0.237 OA
ATOM     69  O   UNL     1       4.801  10.505   9.731  1.00  0.00    -0.237 OA
ATOM     70  O   UNL     1       3.008  10.416   8.050  1.00  0.00    -0.744 OA
ENDBRANCH  64  67
ENDBRANCH  46  60
BRANCH  47  71
ATOM     71  C   UNL     1       4.212   5.970  -3.760  1.00  0.00     0.023 A 
ATOM     72  C   UNL     1       5.291   6.017  -4.663  1.00  0.00     0.012 A 
ATOM     73  C   UNL     1       2.933   5.620  -4.248  1.00  0.00     0.148 A 
ATOM     74  C   UNL     1       5.096   5.754  -6.022  1.00  0.00     0.002 A 
ATOM     75  C   UNL     1       2.759   5.297  -5.589  1.00  0.00     0.091 A 
ATOM     76  F   UNL     1       1.911   5.584  -3.381  1.00  0.00    -0.205 F 
ATOM     77  C   UNL     1       3.835   5.383  -6.483  1.00  0.00     0.022 A 
BRANCH  75  78
ATOM     78  S   UNL     1       1.203   4.672  -6.239  1.00  0.00     0.127 S 
ATOM     79  O   UNL     1       0.754   5.789  -7.066  1.00  0.00    -0.237 OA
ATOM     80  O   UNL     1       1.636   3.490  -6.984  1.00  0.00    -0.237 OA
ATOM     81  O   UNL     1       0.379   4.377  -5.074  1.00  0.00    -0.744 OA
ENDBRANCH  75  78
ENDBRANCH  47  71
BRANCH  59  82
ATOM     82  C   UNL     1       6.217  11.466   0.002  1.00  0.00     0.023 A 
ATOM     83  C   UNL     1       5.259  12.376  -0.484  1.00  0.00     0.012 A 
ATOM     84  C   UNL     1       7.555  11.868   0.151  1.00  0.00     0.148 A 
ATOM     85  C   UNL     1       5.641  13.661  -0.860  1.00  0.00     0.002 A 
ATOM     86  C   UNL     1       7.915  13.167  -0.163  1.00  0.00     0.091 A 
ATOM     87  F   UNL     1       8.449  10.969   0.590  1.00  0.00    -0.205 F 
ATOM     88  C   UNL     1       6.965  14.060  -0.686  1.00  0.00     0.022 A 
BRANCH  86  89
ATOM     89  S   UNL     1       9.569  13.797   0.127  1.00  0.00     0.127 S 
ATOM     90  O   UNL     1      10.042  14.026  -1.237  1.00  0.00    -0.237 OA
ATOM     91  O   UNL     1       9.300  15.013   0.894  1.00  0.00    -0.237 OA
ATOM     92  O   UNL     1      10.276  12.758   0.863  1.00  0.00    -0.744 OA
ENDBRANCH  86  89
ENDBRANCH  59  82
ENDBRANCH  33  34
ENDBRANCH  26  28
ENDBRANCH  25  26
ENDBRANCH  24  25
ENDBRANCH   1  24
TORSDOF 18
