REMARK SMILES Cc1ccc(C#N)cc1S(=O)(=O)Nc1cccc(C(=O)OCCOC(=O)c2ccc(-c3c4nc(c(-c5cccc(S(=O)(=O)[O-])c5F)c5ccc([nH]5)c(-c5cccc(S(=O)(=O)[O-])c5F)c5nc(c(-c6cccc(S(=O)(=O)[O-])c6F)c6ccc3[nH]6)C=C5)C=C4)cc2)c1
REMARK SMILES IDX 22 1 21 2 19 3 20 4 18 5 14 6 15 7 90 8 16 9 17 10 13 11
REMARK SMILES IDX 10 13 11 14 12 15 9 16 1 17 2 18 3 19 4 20 8 21 5 22 6 23
REMARK SMILES IDX 7 24 23 25 24 26 25 27 26 28 27 29 28 30 89 31 29 32 88 33
REMARK SMILES IDX 30 34 31 35 32 36 82 37 33 38 87 39 81 40 83 41 34 42 86 43
REMARK SMILES IDX 80 44 79 45 35 47 67 48 47 49 66 50 48 51 51 52 65 53 84 54
REMARK SMILES IDX 49 55 50 56 64 58 85 59 52 60 36 61 37 62 45 63 38 64 40 65
REMARK SMILES IDX 46 66 39 67 41 68 42 69 43 70 44 71 68 72 69 73 77 74 70 75
REMARK SMILES IDX 72 76 78 77 71 78 73 79 74 80 75 81 76 82 53 83 54 84 62 85
REMARK SMILES IDX 55 86 57 87 63 88 56 89 58 90 59 91 60 92 61 93
REMARK H PARENT 13 12 83 46 51 57
REMARK Flexibility Score: inf
ROOT
ATOM      1  C   UNL     1      -1.203   4.106   3.724  1.00  0.00     0.275 C 
ENDROOT
BRANCH   1   2
ATOM      2  O   UNL     1      -0.588   3.507   2.564  1.00  0.00    -0.458 OA
BRANCH   2   3
ATOM      3  C   UNL     1       0.763   3.359   2.599  1.00  0.00     0.338 C 
ATOM      4  O   UNL     1       1.490   3.665   3.530  1.00  0.00    -0.246 OA
BRANCH   3   5
ATOM      5  C   UNL     1       1.270   2.685   1.369  1.00  0.00     0.062 A 
ATOM      6  C   UNL     1       0.870   1.632  -0.781  1.00  0.00     0.050 A 
ATOM      7  C   UNL     1       2.171   1.135  -0.802  1.00  0.00     0.027 A 
ATOM      8  C   UNL     1       0.451   2.475   0.259  1.00  0.00     0.042 A 
ATOM      9  C   UNL     1       3.017   1.389   0.282  1.00  0.00     0.003 A 
ATOM     10  C   UNL     1       2.563   2.144   1.370  1.00  0.00     0.016 A 
BRANCH   6  11
ATOM     11  N   UNL     1      -0.158   1.220  -1.660  1.00  0.00    -0.280 N 
ATOM     12  H   UNL     1      -0.917   1.839  -1.759  1.00  0.00     0.180 HD
BRANCH  11  13
ATOM     13  S   UNL     1      -0.241  -0.179  -2.544  1.00  0.00     0.262 S 
ATOM     14  O   UNL     1       0.872  -0.186  -3.471  1.00  0.00    -0.201 OA
ATOM     15  O   UNL     1      -1.601  -0.188  -3.049  1.00  0.00    -0.201 OA
BRANCH  13  16
ATOM     16  C   UNL     1      -0.089  -1.674  -1.566  1.00  0.00     0.092 A 
ATOM     17  C   UNL     1      -0.012  -0.780   0.876  1.00  0.00     0.046 C 
ATOM     18  C   UNL     1       0.120  -1.823  -0.186  1.00  0.00    -0.030 A 
ATOM     19  C   UNL     1       0.464  -3.104   0.305  1.00  0.00     0.006 A 
ATOM     20  C   UNL     1       0.450  -4.235  -0.508  1.00  0.00     0.020 A 
ATOM     21  C   UNL     1      -0.150  -2.837  -2.369  1.00  0.00     0.042 A 
ATOM     22  C   UNL     1       0.087  -4.110  -1.842  1.00  0.00     0.053 A 
BRANCH  22  23
ATOM     23  C   UNL     1      -0.054  -5.270  -2.669  1.00  0.00     0.099 C 
ATOM     24  N   UNL     1      -0.204  -6.195  -3.358  1.00  0.00    -0.192 NA
ENDBRANCH  22  23
ENDBRANCH  13  16
ENDBRANCH  11  13
ENDBRANCH   6  11
ENDBRANCH   3   5
ENDBRANCH   2   3
ENDBRANCH   1   2
BRANCH   1  25
ATOM     25  C   UNL     1      -1.941   3.086   4.598  1.00  0.00     0.275 C 
BRANCH  25  26
ATOM     26  O   UNL     1      -1.033   2.189   5.258  1.00  0.00    -0.458 OA
BRANCH  26  27
ATOM     27  C   UNL     1      -0.764   1.054   4.573  1.00  0.00     0.338 C 
ATOM     28  O   UNL     1      -1.242   0.707   3.506  1.00  0.00    -0.246 OA
BRANCH  27  29
ATOM     29  C   UNL     1       0.339   0.340   5.229  1.00  0.00     0.060 A 
ATOM     30  C   UNL     1       0.180  -0.299   6.457  1.00  0.00     0.016 A 
ATOM     31  C   UNL     1       1.549   0.259   4.539  1.00  0.00     0.016 A 
ATOM     32  C   UNL     1       1.262  -1.001   7.002  1.00  0.00     0.010 A 
ATOM     33  C   UNL     1       2.609  -0.474   5.063  1.00  0.00     0.010 A 
ATOM     34  C   UNL     1       2.486  -1.101   6.308  1.00  0.00    -0.014 A 
BRANCH  34  35
ATOM     35  C   UNL     1       3.619  -1.894   6.858  1.00  0.00     0.031 A 
ATOM     36  C   UNL     1       4.943  -1.247   7.176  1.00  0.00     0.074 A 
ATOM     37  C   UNL     1       3.466  -3.222   7.034  1.00  0.00     0.049 A 
ATOM     38  N   UNL     1       6.009  -1.788   7.709  1.00  0.00    -0.248 NA
ATOM     39  C   UNL     1       5.108   0.178   6.837  1.00  0.00     0.031 C 
ATOM     40  C   UNL     1       2.271  -3.987   6.669  1.00  0.00     0.029 A 
ATOM     41  N   UNL     1       4.312  -4.164   7.564  1.00  0.00    -0.354 N 
ATOM     42  C   UNL     1       6.969  -0.784   7.750  1.00  0.00     0.074 A 
ATOM     43  C   UNL     1       6.378   0.392   7.154  1.00  0.00     0.031 C 
ATOM     44  C   UNL     1       2.441  -5.268   7.031  1.00  0.00     0.029 A 
ATOM     45  C   UNL     1       3.767  -5.426   7.620  1.00  0.00     0.049 A 
ATOM     46  H   UNL     1       5.223  -3.956   7.873  1.00  0.00     0.167 HD
ATOM     47  C   UNL     1       8.218  -0.827   8.271  1.00  0.00     0.034 A 
ATOM     48  C   UNL     1       4.268  -6.582   8.098  1.00  0.00     0.034 A 
ATOM     49  C   UNL     1       8.788  -1.982   8.906  1.00  0.00     0.049 A 
ATOM     50  C   UNL     1       5.638  -6.595   8.710  1.00  0.00     0.074 A 
ATOM     51  C   UNL     1      10.010  -2.089   9.545  1.00  0.00     0.029 A 
ATOM     52  N   UNL     1       8.185  -3.227   8.977  1.00  0.00    -0.354 N 
ATOM     53  N   UNL     1       6.474  -5.598   8.861  1.00  0.00    -0.248 NA
ATOM     54  C   UNL     1       6.128  -7.878   9.237  1.00  0.00     0.031 C 
ATOM     55  C   UNL     1      10.161  -3.408   9.976  1.00  0.00     0.029 A 
ATOM     56  C   UNL     1       9.016  -4.111   9.638  1.00  0.00     0.049 A 
ATOM     57  H   UNL     1       7.298  -3.448   8.611  1.00  0.00     0.167 HD
ATOM     58  C   UNL     1       7.577  -6.124   9.521  1.00  0.00     0.074 A 
ATOM     59  C   UNL     1       7.302  -7.527   9.749  1.00  0.00     0.031 C 
ATOM     60  C   UNL     1       8.716  -5.495   9.896  1.00  0.00     0.034 A 
BRANCH  47  61
ATOM     61  C   UNL     1       9.048   0.428   8.252  1.00  0.00     0.023 A 
ATOM     62  C   UNL     1       8.764   1.455   9.173  1.00  0.00     0.012 A 
ATOM     63  C   UNL     1      10.185   0.529   7.426  1.00  0.00     0.148 A 
ATOM     64  C   UNL     1       9.596   2.569   9.271  1.00  0.00     0.002 A 
ATOM     65  C   UNL     1      11.026   1.629   7.550  1.00  0.00     0.091 A 
ATOM     66  F   UNL     1      10.432  -0.460   6.556  1.00  0.00    -0.205 F 
ATOM     67  C   UNL     1      10.733   2.649   8.470  1.00  0.00     0.022 A 
BRANCH  65  68
ATOM     68  S   UNL     1      12.537   1.812   6.596  1.00  0.00     0.127 S 
ATOM     69  O   UNL     1      12.247   3.015   5.815  1.00  0.00    -0.237 OA
ATOM     70  O   UNL     1      13.541   1.993   7.644  1.00  0.00    -0.237 OA
ATOM     71  O   UNL     1      12.675   0.591   5.816  1.00  0.00    -0.744 OA
ENDBRANCH  65  68
ENDBRANCH  47  61
BRANCH  48  72
ATOM     72  C   UNL     1       3.419  -7.803   8.069  1.00  0.00     0.023 A 
ATOM     73  C   UNL     1       2.812  -8.256   9.255  1.00  0.00     0.012 A 
ATOM     74  C   UNL     1       3.139  -8.457   6.854  1.00  0.00     0.148 A 
ATOM     75  C   UNL     1       1.937  -9.342   9.232  1.00  0.00     0.002 A 
ATOM     76  C   UNL     1       2.239  -9.514   6.832  1.00  0.00     0.091 A 
ATOM     77  F   UNL     1       3.728  -8.000   5.740  1.00  0.00    -0.205 F 
ATOM     78  C   UNL     1       1.641  -9.963   8.020  1.00  0.00     0.022 A 
BRANCH  76  79
ATOM     79  S   UNL     1       1.727 -10.316   5.309  1.00  0.00     0.127 S 
ATOM     80  O   UNL     1       2.210 -11.680   5.515  1.00  0.00    -0.237 OA
ATOM     81  O   UNL     1       0.274 -10.159   5.365  1.00  0.00    -0.237 OA
ATOM     82  O   UNL     1       2.377  -9.579   4.234  1.00  0.00    -0.744 OA
ENDBRANCH  76  79
ENDBRANCH  48  72
BRANCH  60  83
ATOM     83  C   UNL     1       9.767  -6.285  10.623  1.00  0.00     0.023 A 
ATOM     84  C   UNL     1      10.632  -7.124   9.896  1.00  0.00     0.012 A 
ATOM     85  C   UNL     1      10.000  -6.059  11.994  1.00  0.00     0.148 A 
ATOM     86  C   UNL     1      11.721  -7.724  10.525  1.00  0.00     0.002 A 
ATOM     87  C   UNL     1      11.104  -6.634  12.606  1.00  0.00     0.091 A 
ATOM     88  F   UNL     1       9.158  -5.253  12.657  1.00  0.00    -0.205 F 
ATOM     89  C   UNL     1      11.966  -7.468  11.874  1.00  0.00     0.022 A 
BRANCH  87  90
ATOM     90  S   UNL     1      11.538  -6.315  14.319  1.00  0.00     0.127 S 
ATOM     91  O   UNL     1      11.414  -7.648  14.909  1.00  0.00    -0.237 OA
ATOM     92  O   UNL     1      12.910  -5.824  14.204  1.00  0.00    -0.237 OA
ATOM     93  O   UNL     1      10.576  -5.336  14.807  1.00  0.00    -0.744 OA
ENDBRANCH  87  90
ENDBRANCH  60  83
ENDBRANCH  34  35
ENDBRANCH  27  29
ENDBRANCH  26  27
ENDBRANCH  25  26
ENDBRANCH   1  25
TORSDOF 18
