REMARK SMILES O=C(CCC(=O)N1CCC(c2nnc3ccccn23)CC1)OCCOC(=O)c1ccc(-c2c3nc(c(-c4cccc(S(=O)(=O)[O-])c4F)c4ccc([nH]4)c(-c4cccc(S(=O)(=O)[O-])c4F)c4nc(c(-c5cccc(S(=O)(=O)[O-])c5F)c5ccc2[nH]5)C=C4)C=C3)cc1
REMARK SMILES IDX 23 1 22 2 2 3 1 4 3 5 4 6 5 7 6 8 7 9 8 10 21 11 9 12 20 13
REMARK SMILES IDX 10 14 11 15 12 16 19 17 13 18 14 19 18 20 15 21 17 22 16 23
REMARK SMILES IDX 24 24 25 25 26 26 27 27 28 28 29 29 90 30 30 31 89 32 31 33
REMARK SMILES IDX 32 34 33 35 83 36 34 37 88 38 82 39 84 40 35 41 87 42 81 43
REMARK SMILES IDX 80 44 36 46 68 47 48 48 67 49 49 50 52 51 66 52 85 53 50 54
REMARK SMILES IDX 51 55 65 57 86 58 53 59 37 60 38 61 46 62 39 63 41 64 47 65
REMARK SMILES IDX 40 66 42 67 43 68 44 69 45 70 69 71 70 72 78 73 71 74 73 75
REMARK SMILES IDX 79 76 72 77 74 78 75 79 76 80 77 81 54 82 55 83 63 84 56 85
REMARK SMILES IDX 58 86 64 87 57 88 59 89 60 90 61 91 62 92
REMARK H PARENT 84 45 52 56
REMARK Flexibility Score: inf
ROOT
ATOM      1  C   UNL     1       4.865   0.839   0.837  1.00  0.00     0.274 C 
ENDROOT
BRANCH   1   2
ATOM      2  O   UNL     1       3.462   0.822   0.472  1.00  0.00    -0.462 OA
BRANCH   2   3
ATOM      3  C   UNL     1       2.707  -0.245   0.148  1.00  0.00     0.306 C 
ATOM      4  O   UNL     1       1.488  -0.127   0.033  1.00  0.00    -0.252 OA
BRANCH   3   5
ATOM      5  C   UNL     1       3.380  -1.526  -0.234  1.00  0.00     0.132 C 
BRANCH   5   6
ATOM      6  C   UNL     1       3.592  -1.551  -1.736  1.00  0.00     0.112 C 
BRANCH   6   7
ATOM      7  C   UNL     1       4.709  -0.629  -2.177  1.00  0.00     0.223 C 
ATOM      8  O   UNL     1       5.879  -0.949  -1.952  1.00  0.00    -0.275 OA
ATOM      9  N   UNL     1       4.393   0.535  -2.859  1.00  0.00    -0.343 N 
ATOM     10  C   UNL     1       5.445   1.195  -3.612  1.00  0.00     0.120 C 
ATOM     11  C   UNL     1       3.144   1.299  -2.767  1.00  0.00     0.120 C 
ATOM     12  C   UNL     1       5.797   2.522  -2.969  1.00  0.00     0.033 C 
ATOM     13  C   UNL     1       3.400   2.686  -2.151  1.00  0.00     0.033 C 
ATOM     14  C   UNL     1       4.551   3.420  -2.858  1.00  0.00     0.062 C 
BRANCH  14  15
ATOM     15  C   UNL     1       4.945   4.694  -2.173  1.00  0.00     0.140 A 
ATOM     16  N   UNL     1       4.886   4.963  -0.882  1.00  0.00    -0.134 NA
ATOM     17  N   UNL     1       5.590   5.730  -2.817  1.00  0.00    -0.286 N 
ATOM     18  N   UNL     1       5.516   6.168  -0.657  1.00  0.00    -0.130 NA
ATOM     19  C   UNL     1       5.956   6.612  -1.813  1.00  0.00     0.160 A 
ATOM     20  C   UNL     1       5.907   5.927  -4.162  1.00  0.00     0.095 A 
ATOM     21  C   UNL     1       6.713   7.757  -2.188  1.00  0.00     0.050 A 
ATOM     22  C   UNL     1       6.612   7.013  -4.516  1.00  0.00     0.019 A 
ATOM     23  C   UNL     1       7.032   7.949  -3.484  1.00  0.00     0.005 A 
ENDBRANCH  14  15
ENDBRANCH   6   7
ENDBRANCH   5   6
ENDBRANCH   3   5
ENDBRANCH   2   3
ENDBRANCH   1   2
BRANCH   1  24
ATOM     24  C   UNL     1       4.983   1.246   2.303  1.00  0.00     0.275 C 
BRANCH  24  25
ATOM     25  O   UNL     1       4.462   0.166   3.092  1.00  0.00    -0.458 OA
BRANCH  25  26
ATOM     26  C   UNL     1       3.129   0.226   3.327  1.00  0.00     0.338 C 
ATOM     27  O   UNL     1       2.411   1.208   3.241  1.00  0.00    -0.246 OA
BRANCH  26  28
ATOM     28  C   UNL     1       2.631  -1.153   3.505  1.00  0.00     0.060 A 
ATOM     29  C   UNL     1       1.327  -1.446   3.082  1.00  0.00     0.016 A 
ATOM     30  C   UNL     1       3.431  -2.146   4.080  1.00  0.00     0.016 A 
ATOM     31  C   UNL     1       0.787  -2.705   3.321  1.00  0.00     0.010 A 
ATOM     32  C   UNL     1       2.892  -3.406   4.321  1.00  0.00     0.010 A 
ATOM     33  C   UNL     1       1.548  -3.660   4.007  1.00  0.00    -0.014 A 
BRANCH  33  34
ATOM     34  C   UNL     1       0.859  -4.777   4.684  1.00  0.00     0.031 A 
ATOM     35  C   UNL     1       0.452  -4.563   6.118  1.00  0.00     0.074 A 
ATOM     36  C   UNL     1       0.628  -5.943   4.059  1.00  0.00     0.049 A 
ATOM     37  N   UNL     1      -0.154  -5.376   6.939  1.00  0.00    -0.248 NA
ATOM     38  C   UNL     1       0.790  -3.254   6.709  1.00  0.00     0.031 C 
ATOM     39  C   UNL     1       0.996  -6.255   2.680  1.00  0.00     0.029 A 
ATOM     40  N   UNL     1       0.043  -7.091   4.524  1.00  0.00    -0.354 N 
ATOM     41  C   UNL     1      -0.243  -4.690   8.146  1.00  0.00     0.074 A 
ATOM     42  C   UNL     1       0.388  -3.405   7.960  1.00  0.00     0.031 C 
ATOM     43  C   UNL     1       0.644  -7.526   2.415  1.00  0.00     0.029 A 
ATOM     44  C   UNL     1       0.038  -8.114   3.608  1.00  0.00     0.049 A 
ATOM     45  H   UNL     1      -0.338  -7.174   5.428  1.00  0.00     0.167 HD
ATOM     46  C   UNL     1      -0.818  -5.088   9.303  1.00  0.00     0.034 A 
ATOM     47  C   UNL     1      -0.408  -9.380   3.733  1.00  0.00     0.034 A 
ATOM     48  C   UNL     1      -1.459  -6.360   9.471  1.00  0.00     0.049 A 
ATOM     49  C   UNL     1      -1.057  -9.795   5.029  1.00  0.00     0.074 A 
ATOM     50  C   UNL     1      -2.119  -6.854  10.579  1.00  0.00     0.029 A 
ATOM     51  N   UNL     1      -1.507  -7.347   8.498  1.00  0.00    -0.354 N 
ATOM     52  N   UNL     1      -1.259  -9.091   6.118  1.00  0.00    -0.248 NA
ATOM     53  C   UNL     1      -1.582 -11.166   5.098  1.00  0.00     0.031 C 
ATOM     54  C   UNL     1      -2.547  -8.153  10.283  1.00  0.00     0.029 A 
ATOM     55  C   UNL     1      -2.181  -8.453   8.979  1.00  0.00     0.049 A 
ATOM     56  H   UNL     1      -1.118  -7.271   7.596  1.00  0.00     0.167 HD
ATOM     57  C   UNL     1      -1.980  -9.912   6.979  1.00  0.00     0.074 A 
ATOM     58  C   UNL     1      -2.185 -11.165   6.280  1.00  0.00     0.031 C 
ATOM     59  C   UNL     1      -2.427  -9.661   8.235  1.00  0.00     0.034 A 
BRANCH  46  60
ATOM     60  C   UNL     1      -0.789  -4.125  10.460  1.00  0.00     0.023 A 
ATOM     61  C   UNL     1      -1.588  -2.962  10.425  1.00  0.00     0.012 A 
ATOM     62  C   UNL     1       0.016  -4.375  11.586  1.00  0.00     0.148 A 
ATOM     63  C   UNL     1      -1.556  -2.046  11.476  1.00  0.00     0.002 A 
ATOM     64  C   UNL     1       0.006  -3.482  12.651  1.00  0.00     0.091 A 
ATOM     65  F   UNL     1       0.792  -5.468  11.588  1.00  0.00    -0.205 F 
ATOM     66  C   UNL     1      -0.768  -2.311  12.592  1.00  0.00     0.022 A 
BRANCH  64  67
ATOM     67  S   UNL     1       0.929  -3.774  14.164  1.00  0.00     0.127 S 
ATOM     68  O   UNL     1       2.000  -2.785  14.053  1.00  0.00    -0.237 OA
ATOM     69  O   UNL     1      -0.068  -3.480  15.194  1.00  0.00    -0.237 OA
ATOM     70  O   UNL     1       1.354  -5.166  14.112  1.00  0.00    -0.744 OA
ENDBRANCH  64  67
ENDBRANCH  46  60
BRANCH  47  71
ATOM     71  C   UNL     1      -0.332 -10.316   2.577  1.00  0.00     0.023 A 
ATOM     72  C   UNL     1      -1.519 -10.705   1.925  1.00  0.00     0.012 A 
ATOM     73  C   UNL     1       0.901 -10.810   2.107  1.00  0.00     0.148 A 
ATOM     74  C   UNL     1      -1.485 -11.595   0.851  1.00  0.00     0.002 A 
ATOM     75  C   UNL     1       0.933 -11.655   1.004  1.00  0.00     0.091 A 
ATOM     76  F   UNL     1       2.018 -10.437   2.747  1.00  0.00    -0.205 F 
ATOM     77  C   UNL     1      -0.259 -12.062   0.385  1.00  0.00     0.022 A 
BRANCH  75  78
ATOM     78  S   UNL     1       2.469 -12.214   0.259  1.00  0.00     0.127 S 
ATOM     79  O   UNL     1       2.467 -13.635   0.599  1.00  0.00    -0.237 OA
ATOM     80  O   UNL     1       2.243 -11.919  -1.156  1.00  0.00    -0.237 OA
ATOM     81  O   UNL     1       3.519 -11.417   0.878  1.00  0.00    -0.744 OA
ENDBRANCH  75  78
ENDBRANCH  47  71
BRANCH  59  82
ATOM     82  C   UNL     1      -3.237 -10.732   8.915  1.00  0.00     0.023 A 
ATOM     83  C   UNL     1      -2.610 -11.903   9.384  1.00  0.00     0.012 A 
ATOM     84  C   UNL     1      -4.611 -10.536   9.161  1.00  0.00     0.148 A 
ATOM     85  C   UNL     1      -3.347 -12.879  10.053  1.00  0.00     0.002 A 
ATOM     86  C   UNL     1      -5.327 -11.489   9.875  1.00  0.00     0.091 A 
ATOM     87  F   UNL     1      -5.194  -9.423   8.691  1.00  0.00    -0.205 F 
ATOM     88  C   UNL     1      -4.700 -12.667  10.309  1.00  0.00     0.022 A 
BRANCH  86  89
ATOM     89  S   UNL     1      -7.044 -11.240  10.338  1.00  0.00     0.127 S 
ATOM     90  O   UNL     1      -7.741 -12.075   9.361  1.00  0.00    -0.237 OA
ATOM     91  O   UNL     1      -7.077 -11.751  11.709  1.00  0.00    -0.237 OA
ATOM     92  O   UNL     1      -7.281  -9.807  10.227  1.00  0.00    -0.744 OA
ENDBRANCH  86  89
ENDBRANCH  59  82
ENDBRANCH  33  34
ENDBRANCH  26  28
ENDBRANCH  25  26
ENDBRANCH  24  25
ENDBRANCH   1  24
TORSDOF 17
