REMARK SMILES C[C@H]1CCCCN1C(=O)N1Cc2nc[nH]c2C[C@H]1C(=O)OCCOC(=O)c1ccc(-c2c3nc(c(-c4cccc(S(=O)(=O)[O-])c4F)c4ccc([nH]4)c(-c4cccc(S(=O)(=O)[O-])c4F)c4nc(c(-c5cccc(S(=O)(=O)[O-])c5F)c5ccc2[nH]5)C=C4)C=C3)cc1
REMARK SMILES IDX 23 1 22 2 21 3 19 4 20 5 18 6 10 7 11 8 12 9 17 10 13 11
REMARK SMILES IDX 16 12 14 13 15 14 8 16 9 17 7 18 1 19 2 20 3 21 4 22 6 23
REMARK SMILES IDX 5 24 24 25 25 26 26 27 27 28 28 29 89 30 29 31 88 32 30 33
REMARK SMILES IDX 31 34 32 35 82 36 33 37 87 38 81 39 83 40 34 41 86 42 80 43
REMARK SMILES IDX 79 44 35 46 67 47 47 48 66 49 48 50 51 51 65 52 84 53 49 54
REMARK SMILES IDX 50 55 64 57 85 58 52 59 36 60 37 61 45 62 38 63 40 64 46 65
REMARK SMILES IDX 39 66 41 67 42 68 43 69 44 70 68 71 69 72 77 73 70 74 72 75
REMARK SMILES IDX 78 76 71 77 73 78 74 79 75 80 76 81 53 82 54 83 62 84 55 85
REMARK SMILES IDX 57 86 63 87 56 88 58 89 59 90 60 91 61 92
REMARK H PARENT 15 15 83 45 51 56
REMARK Flexibility Score: inf
ROOT
ATOM      1  C   UNL     1       6.192   1.367  -2.441  1.00  0.00     0.275 C 
ENDROOT
BRANCH   1   2
ATOM      2  C   UNL     1       6.074  -0.154  -2.374  1.00  0.00     0.274 C 
BRANCH   2   3
ATOM      3  O   UNL     1       4.750  -0.649  -2.072  1.00  0.00    -0.461 OA
BRANCH   3   4
ATOM      4  C   UNL     1       4.595  -1.265  -0.869  1.00  0.00     0.329 C 
ATOM      5  O   UNL     1       5.418  -1.193   0.044  1.00  0.00    -0.250 OA
BRANCH   4   6
ATOM      6  C   UNL     1       3.405  -2.268  -0.805  1.00  0.00     0.203 C 
ATOM      7  N   UNL     1       2.242  -2.135  -1.747  1.00  0.00    -0.304 N 
ATOM      8  C   UNL     1       2.504  -2.321  -3.194  1.00  0.00     0.180 C 
ATOM      9  C   UNL     1       3.636  -3.277  -3.411  1.00  0.00     0.081 A 
ATOM     10  C   UNL     1       4.072  -3.674  -0.951  1.00  0.00     0.093 C 
ATOM     11  N   UNL     1       4.210  -3.562  -4.623  1.00  0.00    -0.240 NA
ATOM     12  C   UNL     1       4.346  -3.878  -2.396  1.00  0.00     0.042 A 
ATOM     13  C   UNL     1       5.251  -4.317  -4.341  1.00  0.00     0.197 A 
ATOM     14  N   UNL     1       5.376  -4.537  -2.994  1.00  0.00    -0.348 N 
ATOM     15  H   UNL     1       6.075  -5.067  -2.547  1.00  0.00     0.167 HD
BRANCH   7  16
ATOM     16  C   UNL     1       0.990  -2.531  -1.314  1.00  0.00     0.321 C 
ATOM     17  O   UNL     1       0.582  -3.659  -1.602  1.00  0.00    -0.248 OA
BRANCH  16  18
ATOM     18  N   UNL     1       0.216  -1.625  -0.591  1.00  0.00    -0.322 N 
ATOM     19  C   UNL     1       1.786   0.394  -0.674  1.00  0.00     0.031 C 
ATOM     20  C   UNL     1       0.481  -0.212  -0.237  1.00  0.00     0.083 C 
ATOM     21  C   UNL     1      -0.632   0.715  -0.756  1.00  0.00     0.025 C 
ATOM     22  C   UNL     1      -1.986   0.291  -0.222  1.00  0.00     0.004 C 
ATOM     23  C   UNL     1      -1.107  -2.082  -0.129  1.00  0.00     0.121 C 
ATOM     24  C   UNL     1      -2.246  -1.163  -0.588  1.00  0.00     0.022 C 
ENDBRANCH  16  18
ENDBRANCH   7  16
ENDBRANCH   4   6
ENDBRANCH   3   4
ENDBRANCH   2   3
ENDBRANCH   1   2
BRANCH   1  25
ATOM     25  O   UNL     1       5.881   1.989  -1.190  1.00  0.00    -0.458 OA
BRANCH  25  26
ATOM     26  C   UNL     1       4.586   2.354  -1.159  1.00  0.00     0.338 C 
ATOM     27  O   UNL     1       3.742   2.112  -2.008  1.00  0.00    -0.246 OA
BRANCH  26  28
ATOM     28  C   UNL     1       4.260   3.200  -0.007  1.00  0.00     0.060 A 
ATOM     29  C   UNL     1       3.461   2.588   0.963  1.00  0.00     0.016 A 
ATOM     30  C   UNL     1       4.054   4.527  -0.384  1.00  0.00     0.016 A 
ATOM     31  C   UNL     1       2.237   3.170   1.261  1.00  0.00     0.010 A 
ATOM     32  C   UNL     1       2.862   5.128  -0.033  1.00  0.00     0.010 A 
ATOM     33  C   UNL     1       1.894   4.388   0.662  1.00  0.00    -0.014 A 
BRANCH  33  34
ATOM     34  C   UNL     1       0.556   4.961   0.881  1.00  0.00     0.031 A 
ATOM     35  C   UNL     1       0.213   5.203   2.315  1.00  0.00     0.074 A 
ATOM     36  C   UNL     1      -0.148   5.461  -0.163  1.00  0.00     0.049 A 
ATOM     37  N   UNL     1      -0.940   5.145   2.907  1.00  0.00    -0.248 NA
ATOM     38  C   UNL     1       1.343   5.447   3.236  1.00  0.00     0.031 C 
ATOM     39  C   UNL     1       0.229   5.388  -1.583  1.00  0.00     0.029 A 
ATOM     40  N   UNL     1      -1.183   6.364  -0.168  1.00  0.00    -0.354 N 
ATOM     41  C   UNL     1      -0.691   5.561   4.216  1.00  0.00     0.074 A 
ATOM     42  C   UNL     1       0.731   5.533   4.410  1.00  0.00     0.031 C 
ATOM     43  C   UNL     1      -0.305   6.442  -2.231  1.00  0.00     0.029 A 
ATOM     44  C   UNL     1      -1.115   7.197  -1.292  1.00  0.00     0.049 A 
ATOM     45  H   UNL     1      -1.880   6.418   0.526  1.00  0.00     0.167 HD
ATOM     46  C   UNL     1      -1.621   6.179   4.988  1.00  0.00     0.034 A 
ATOM     47  C   UNL     1      -1.541   8.481  -1.403  1.00  0.00     0.034 A 
ATOM     48  C   UNL     1      -2.964   5.917   4.574  1.00  0.00     0.049 A 
ATOM     49  C   UNL     1      -2.455   8.763  -0.278  1.00  0.00     0.074 A 
ATOM     50  C   UNL     1      -3.732   4.782   4.419  1.00  0.00     0.029 A 
ATOM     51  N   UNL     1      -3.651   6.934   3.961  1.00  0.00    -0.354 N 
ATOM     52  N   UNL     1      -3.655   8.273  -0.169  1.00  0.00    -0.248 NA
ATOM     53  C   UNL     1      -1.896   9.333   0.939  1.00  0.00     0.031 C 
ATOM     54  C   UNL     1      -4.625   5.078   3.354  1.00  0.00     0.029 A 
ATOM     55  C   UNL     1      -4.354   6.379   2.927  1.00  0.00     0.049 A 
ATOM     56  H   UNL     1      -3.640   7.884   4.218  1.00  0.00     0.167 HD
ATOM     57  C   UNL     1      -3.820   8.069   1.194  1.00  0.00     0.074 A 
ATOM     58  C   UNL     1      -2.775   8.865   1.828  1.00  0.00     0.031 C 
ATOM     59  C   UNL     1      -4.582   7.037   1.661  1.00  0.00     0.034 A 
BRANCH  46  60
ATOM     60  C   UNL     1      -1.269   7.298   5.932  1.00  0.00     0.023 A 
ATOM     61  C   UNL     1      -2.201   7.659   6.923  1.00  0.00     0.012 A 
ATOM     62  C   UNL     1      -0.167   8.165   5.735  1.00  0.00     0.148 A 
ATOM     63  C   UNL     1      -2.043   8.828   7.677  1.00  0.00     0.002 A 
ATOM     64  C   UNL     1       0.039   9.266   6.554  1.00  0.00     0.091 A 
ATOM     65  F   UNL     1       0.625   8.014   4.666  1.00  0.00    -0.205 F 
ATOM     66  C   UNL     1      -0.911   9.620   7.511  1.00  0.00     0.022 A 
BRANCH  64  67
ATOM     67  S   UNL     1       1.542  10.237   6.411  1.00  0.00     0.127 S 
ATOM     68  O   UNL     1       1.125  11.302   5.508  1.00  0.00    -0.237 OA
ATOM     69  O   UNL     1       1.778  10.649   7.794  1.00  0.00    -0.237 OA
ATOM     70  O   UNL     1       2.538   9.298   5.898  1.00  0.00    -0.744 OA
ENDBRANCH  64  67
ENDBRANCH  46  60
BRANCH  47  71
ATOM     71  C   UNL     1      -1.041   9.565  -2.289  1.00  0.00     0.023 A 
ATOM     72  C   UNL     1      -1.879  10.655  -2.594  1.00  0.00     0.012 A 
ATOM     73  C   UNL     1       0.316   9.650  -2.677  1.00  0.00     0.148 A 
ATOM     74  C   UNL     1      -1.387  11.785  -3.260  1.00  0.00     0.002 A 
ATOM     75  C   UNL     1       0.794  10.759  -3.371  1.00  0.00     0.091 A 
ATOM     76  F   UNL     1       1.167   8.691  -2.285  1.00  0.00    -0.205 F 
ATOM     77  C   UNL     1      -0.053  11.835  -3.656  1.00  0.00     0.022 A 
BRANCH  75  78
ATOM     78  S   UNL     1       2.501  10.860  -3.928  1.00  0.00     0.127 S 
ATOM     79  O   UNL     1       2.360  11.464  -5.254  1.00  0.00    -0.237 OA
ATOM     80  O   UNL     1       3.101  11.729  -2.921  1.00  0.00    -0.237 OA
ATOM     81  O   UNL     1       2.982   9.483  -3.953  1.00  0.00    -0.744 OA
ENDBRANCH  75  78
ENDBRANCH  47  71
BRANCH  59  82
ATOM     82  C   UNL     1      -5.466   6.298   0.686  1.00  0.00     0.023 A 
ATOM     83  C   UNL     1      -4.928   5.616  -0.425  1.00  0.00     0.012 A 
ATOM     84  C   UNL     1      -6.820   6.106   1.009  1.00  0.00     0.148 A 
ATOM     85  C   UNL     1      -5.724   4.782  -1.210  1.00  0.00     0.002 A 
ATOM     86  C   UNL     1      -7.596   5.231   0.259  1.00  0.00     0.091 A 
ATOM     87  F   UNL     1      -7.321   6.755   2.073  1.00  0.00    -0.205 F 
ATOM     88  C   UNL     1      -7.055   4.576  -0.859  1.00  0.00     0.022 A 
BRANCH  86  89
ATOM     89  S   UNL     1      -9.266   4.802   0.759  1.00  0.00     0.127 S 
ATOM     90  O   UNL     1     -10.076   5.645  -0.117  1.00  0.00    -0.237 OA
ATOM     91  O   UNL     1      -9.331   3.369   0.460  1.00  0.00    -0.237 OA
ATOM     92  O   UNL     1      -9.342   5.110   2.182  1.00  0.00    -0.744 OA
ENDBRANCH  86  89
ENDBRANCH  59  82
ENDBRANCH  33  34
ENDBRANCH  26  28
ENDBRANCH  25  26
ENDBRANCH   1  25
TORSDOF 16
