REMARK SMILES O=C(OCCOC(=O)c1sccc1S(=O)(=O)Nc1ccccc1N1CCCCC1)c1ccc(-c2c3nc(c(-c4cccc(S(=O)(=O)[O-])c4F)c4ccc([nH]4)c(-c4cccc(S(=O)(=O)[O-])c4F)c4nc(c(-c5cccc(S(=O)(=O)[O-])c5F)c5ccc2[nH]5)C=C4)C=C3)cc1
REMARK SMILES IDX 5 1 4 2 3 3 2 4 1 5 30 6 31 7 92 8 32 9 91 10 33 11 34 12
REMARK SMILES IDX 35 13 85 14 36 15 90 16 84 17 86 18 37 19 89 20 83 21 82 22
REMARK SMILES IDX 38 24 70 25 50 26 69 27 51 28 54 29 68 30 87 31 52 32 53 33
REMARK SMILES IDX 67 35 88 36 55 37 39 38 40 39 48 40 41 41 43 42 49 43 42 44
REMARK SMILES IDX 44 45 45 46 46 47 47 48 71 49 72 50 80 51 73 52 75 53 81 54
REMARK SMILES IDX 74 55 76 56 77 57 78 58 79 59 56 60 57 61 65 62 58 63 60 64
REMARK SMILES IDX 66 65 59 66 61 67 62 68 63 69 64 70 6 71 7 72 8 73 9 74
REMARK SMILES IDX 10 75 13 76 11 77 12 78 14 79 15 80 16 81 17 82 18 84 19 85
REMARK SMILES IDX 23 86 20 87 22 88 21 89 24 90 25 91 29 92 26 93 28 94 27 95
REMARK H PARENT 86 23 54 34 17 83
REMARK Flexibility Score: inf
ROOT
ATOM      1  C   UNL     1       4.453  -0.178  -0.932  1.00  0.00     0.275 C 
ENDROOT
BRANCH   1   2
ATOM      2  C   UNL     1       4.568  -1.655  -0.566  1.00  0.00     0.275 C 
BRANCH   2   3
ATOM      3  O   UNL     1       3.425  -2.192   0.114  1.00  0.00    -0.458 OA
BRANCH   3   4
ATOM      4  C   UNL     1       3.296  -2.362   1.452  1.00  0.00     0.338 C 
ATOM      5  O   UNL     1       2.562  -3.241   1.894  1.00  0.00    -0.246 OA
BRANCH   4   6
ATOM      6  C   UNL     1       3.861  -1.360   2.397  1.00  0.00     0.060 A 
ATOM      7  C   UNL     1       5.174  -0.885   2.354  1.00  0.00     0.016 A 
ATOM      8  C   UNL     1       3.014  -0.910   3.423  1.00  0.00     0.016 A 
ATOM      9  C   UNL     1       5.613   0.078   3.258  1.00  0.00     0.010 A 
ATOM     10  C   UNL     1       3.459   0.030   4.359  1.00  0.00     0.010 A 
ATOM     11  C   UNL     1       4.774   0.503   4.289  1.00  0.00    -0.014 A 
BRANCH  11  12
ATOM     12  C   UNL     1       5.427   1.108   5.468  1.00  0.00     0.031 A 
ATOM     13  C   UNL     1       5.993   0.143   6.457  1.00  0.00     0.074 A 
ATOM     14  C   UNL     1       5.629   2.430   5.587  1.00  0.00     0.049 A 
ATOM     15  N   UNL     1       6.844   0.362   7.416  1.00  0.00    -0.248 NA
ATOM     16  C   UNL     1       5.599  -1.270   6.299  1.00  0.00     0.031 C 
ATOM     17  C   UNL     1       5.183   3.409   4.616  1.00  0.00     0.029 A 
ATOM     18  N   UNL     1       6.263   3.183   6.537  1.00  0.00    -0.354 N 
ATOM     19  C   UNL     1       7.107  -0.886   7.957  1.00  0.00     0.074 A 
ATOM     20  C   UNL     1       6.319  -1.856   7.237  1.00  0.00     0.031 C 
ATOM     21  C   UNL     1       5.513   4.645   5.019  1.00  0.00     0.029 A 
ATOM     22  C   UNL     1       6.241   4.536   6.273  1.00  0.00     0.049 A 
ATOM     23  H   UNL     1       6.694   2.795   7.333  1.00  0.00     0.167 HD
ATOM     24  C   UNL     1       7.947  -1.192   8.967  1.00  0.00     0.034 A 
ATOM     25  C   UNL     1       6.792   5.560   6.953  1.00  0.00     0.034 A 
ATOM     26  C   UNL     1       8.642  -0.196   9.723  1.00  0.00     0.049 A 
ATOM     27  C   UNL     1       7.655   5.199   8.132  1.00  0.00     0.074 A 
ATOM     28  C   UNL     1       9.437  -0.354  10.837  1.00  0.00     0.029 A 
ATOM     29  N   UNL     1       8.578   1.167   9.452  1.00  0.00    -0.354 N 
ATOM     30  N   UNL     1       7.976   4.005   8.577  1.00  0.00    -0.248 NA
ATOM     31  C   UNL     1       8.275   6.304   8.871  1.00  0.00     0.031 C 
ATOM     32  C   UNL     1       9.825   0.922  11.264  1.00  0.00     0.029 A 
ATOM     33  C   UNL     1       9.301   1.869  10.394  1.00  0.00     0.049 A 
ATOM     34  H   UNL     1       8.088   1.571   8.700  1.00  0.00     0.167 HD
ATOM     35  C   UNL     1       8.861   4.210   9.623  1.00  0.00     0.074 A 
ATOM     36  C   UNL     1       9.040   5.647   9.733  1.00  0.00     0.031 C 
ATOM     37  C   UNL     1       9.466   3.302  10.430  1.00  0.00     0.034 A 
BRANCH  24  38
ATOM     38  C   UNL     1       8.054  -2.651   9.298  1.00  0.00     0.023 A 
ATOM     39  C   UNL     1       8.773  -3.509   8.438  1.00  0.00     0.012 A 
ATOM     40  C   UNL     1       7.314  -3.193  10.363  1.00  0.00     0.148 A 
ATOM     41  C   UNL     1       8.711  -4.892   8.606  1.00  0.00     0.002 A 
ATOM     42  C   UNL     1       7.281  -4.569  10.541  1.00  0.00     0.091 A 
ATOM     43  F   UNL     1       6.601  -2.359  11.133  1.00  0.00    -0.205 F 
ATOM     44  C   UNL     1       7.966  -5.421   9.656  1.00  0.00     0.022 A 
BRANCH  42  45
ATOM     45  S   UNL     1       6.357  -5.347  11.867  1.00  0.00     0.127 S 
ATOM     46  O   UNL     1       5.288  -6.019  11.129  1.00  0.00    -0.237 OA
ATOM     47  O   UNL     1       7.356  -6.245  12.447  1.00  0.00    -0.237 OA
ATOM     48  O   UNL     1       5.926  -4.268  12.744  1.00  0.00    -0.744 OA
ENDBRANCH  42  45
ENDBRANCH  24  38
BRANCH  25  49
ATOM     49  C   UNL     1       6.642   6.970   6.479  1.00  0.00     0.023 A 
ATOM     50  C   UNL     1       7.766   7.660   5.982  1.00  0.00     0.012 A 
ATOM     51  C   UNL     1       5.395   7.629   6.495  1.00  0.00     0.148 A 
ATOM     52  C   UNL     1       7.660   8.983   5.544  1.00  0.00     0.002 A 
ATOM     53  C   UNL     1       5.287   8.935   6.018  1.00  0.00     0.091 A 
ATOM     54  F   UNL     1       4.333   6.974   6.985  1.00  0.00    -0.205 F 
ATOM     55  C   UNL     1       6.421   9.618   5.555  1.00  0.00     0.022 A 
BRANCH  53  56
ATOM     56  S   UNL     1       3.708   9.790   5.907  1.00  0.00     0.127 S 
ATOM     57  O   UNL     1       3.757  10.665   7.075  1.00  0.00    -0.237 OA
ATOM     58  O   UNL     1       3.814  10.479   4.620  1.00  0.00    -0.237 OA
ATOM     59  O   UNL     1       2.697   8.740   5.937  1.00  0.00    -0.744 OA
ENDBRANCH  53  56
ENDBRANCH  25  49
BRANCH  37  60
ATOM     60  C   UNL     1      10.376   3.840  11.494  1.00  0.00     0.023 A 
ATOM     61  C   UNL     1       9.823   4.439  12.642  1.00  0.00     0.012 A 
ATOM     62  C   UNL     1      11.766   3.647  11.402  1.00  0.00     0.148 A 
ATOM     63  C   UNL     1      10.649   4.857  13.681  1.00  0.00     0.002 A 
ATOM     64  C   UNL     1      12.577   4.020  12.463  1.00  0.00     0.091 A 
ATOM     65  F   UNL     1      12.265   3.098  10.285  1.00  0.00    -0.205 F 
ATOM     66  C   UNL     1      12.022   4.634  13.599  1.00  0.00     0.022 A 
BRANCH  64  67
ATOM     67  S   UNL     1      14.335   3.663  12.481  1.00  0.00     0.127 S 
ATOM     68  O   UNL     1      14.908   4.968  12.157  1.00  0.00    -0.237 OA
ATOM     69  O   UNL     1      14.552   3.226  13.861  1.00  0.00    -0.237 OA
ATOM     70  O   UNL     1      14.538   2.620  11.483  1.00  0.00    -0.744 OA
ENDBRANCH  64  67
ENDBRANCH  37  60
ENDBRANCH  11  12
ENDBRANCH   4   6
ENDBRANCH   3   4
ENDBRANCH   2   3
ENDBRANCH   1   2
BRANCH   1  71
ATOM     71  O   UNL     1       4.042   0.695   0.127  1.00  0.00    -0.458 OA
BRANCH  71  72
ATOM     72  C   UNL     1       2.708   0.923   0.241  1.00  0.00     0.349 C 
ATOM     73  O   UNL     1       1.861   0.320  -0.415  1.00  0.00    -0.245 OA
BRANCH  72  74
ATOM     74  C   UNL     1       2.423   1.891   1.282  1.00  0.00     0.133 A 
ATOM     75  S   UNL     1       1.032   1.554   2.263  1.00  0.00    -0.136 S 
ATOM     76  C   UNL     1       3.010   3.095   1.654  1.00  0.00     0.113 A 
ATOM     77  C   UNL     1       1.310   2.900   3.267  1.00  0.00     0.067 A 
ATOM     78  C   UNL     1       2.343   3.675   2.796  1.00  0.00     0.035 A 
BRANCH  76  79
ATOM     79  S   UNL     1       4.392   3.864   0.917  1.00  0.00     0.263 S 
ATOM     80  O   UNL     1       4.679   4.997   1.778  1.00  0.00    -0.201 OA
ATOM     81  O   UNL     1       5.386   2.832   0.753  1.00  0.00    -0.201 OA
BRANCH  79  82
ATOM     82  N   UNL     1       4.106   4.557  -0.590  1.00  0.00    -0.277 N 
ATOM     83  H   UNL     1       4.386   5.480  -0.785  1.00  0.00     0.180 HD
BRANCH  82  84
ATOM     84  C   UNL     1       3.445   3.767  -1.577  1.00  0.00     0.072 A 
ATOM     85  C   UNL     1       4.226   2.980  -2.430  1.00  0.00     0.029 A 
ATOM     86  C   UNL     1       2.030   3.720  -1.603  1.00  0.00     0.061 A 
ATOM     87  C   UNL     1       3.609   2.114  -3.328  1.00  0.00     0.002 A 
ATOM     88  C   UNL     1       1.448   2.787  -2.471  1.00  0.00     0.028 A 
ATOM     89  C   UNL     1       2.223   1.995  -3.325  1.00  0.00     0.002 A 
BRANCH  86  90
ATOM     90  N   UNL     1       1.223   4.577  -0.870  1.00  0.00    -0.370 N 
ATOM     91  C   UNL     1       0.127   4.084  -0.038  1.00  0.00     0.116 C 
ATOM     92  C   UNL     1       1.592   5.983  -0.693  1.00  0.00     0.116 C 
ATOM     93  C   UNL     1      -1.119   4.939  -0.213  1.00  0.00     0.021 C 
ATOM     94  C   UNL     1       0.352   6.846  -0.920  1.00  0.00     0.021 C 
ATOM     95  C   UNL     1      -0.795   6.418  -0.009  1.00  0.00     0.004 C 
ENDBRANCH  86  90
ENDBRANCH  82  84
ENDBRANCH  79  82
ENDBRANCH  76  79
ENDBRANCH  72  74
ENDBRANCH  71  72
ENDBRANCH   1  71
TORSDOF 18
