REMARK SMILES Cc1cc(OC(F)(F)F)cc2c1O[C@@H](C(F)(F)F)C(C(=O)OCCOC(=O)c1ccc(-c3c4nc(c(-c5cccc(S(=O)(=O)[O-])c5F)c5ccc([nH]5)c(-c5cccc(S(=O)(=O)[O-])c5F)c5nc(c(-c6cccc(S(=O)(=O)[O-])c6F)c6ccc3[nH]6)C=C5)C=C4)cc1)=C2
REMARK SMILES IDX 24 1 23 2 22 3 20 4 21 5 19 6 1 7 2 8 3 9 12 10 4 11 11 12
REMARK SMILES IDX 13 13 10 14 91 15 14 16 5 17 6 18 7 19 8 20 9 21 15 22 16 23
REMARK SMILES IDX 17 24 18 25 25 26 26 27 27 28 28 29 29 30 90 31 30 32 89 33
REMARK SMILES IDX 31 34 32 35 33 36 83 37 34 38 88 39 82 40 84 41 35 42 87 43
REMARK SMILES IDX 81 44 80 45 36 47 68 48 48 49 67 50 49 51 52 52 66 53 85 54
REMARK SMILES IDX 50 55 51 56 65 58 86 59 53 60 37 61 38 62 46 63 39 64 41 65
REMARK SMILES IDX 47 66 40 67 42 68 43 69 44 70 45 71 69 72 70 73 78 74 71 75
REMARK SMILES IDX 73 76 79 77 72 78 74 79 75 80 76 81 77 82 54 83 55 84 63 85
REMARK SMILES IDX 56 86 58 87 64 88 57 89 59 90 60 91 61 92 62 93
REMARK H PARENT 84 46 52 57
REMARK Flexibility Score: inf
ROOT
ATOM      1  C   UNL     1       1.699  -8.051   4.228  1.00  0.00     0.275 C 
ENDROOT
BRANCH   1   2
ATOM      2  C   UNL     1       0.829  -7.853   2.987  1.00  0.00     0.275 C 
BRANCH   2   3
ATOM      3  O   UNL     1       0.971  -6.509   2.482  1.00  0.00    -0.459 OA
BRANCH   3   4
ATOM      4  C   UNL     1      -0.044  -5.661   2.744  1.00  0.00     0.338 C 
ATOM      5  O   UNL     1      -1.119  -5.962   3.241  1.00  0.00    -0.246 OA
BRANCH   4   6
ATOM      6  C   UNL     1       0.330  -4.277   2.403  1.00  0.00     0.087 C 
ATOM      7  C   UNL     1       1.156   0.039  -0.254  1.00  0.00     0.048 C 
ATOM      8  C   UNL     1       0.671  -0.307   1.125  1.00  0.00    -0.005 A 
ATOM      9  C   UNL     1       0.369   0.726   2.036  1.00  0.00     0.054 A 
ATOM     10  C   UNL     1       0.551  -1.641   1.536  1.00  0.00     0.131 A 
ATOM     11  C   UNL     1      -0.078   0.436   3.327  1.00  0.00     0.130 A 
ATOM     12  C   UNL     1       0.087  -1.931   2.819  1.00  0.00     0.021 A 
ATOM     13  O   UNL     1       0.828  -2.631   0.625  1.00  0.00    -0.475 OA
ATOM     14  C   UNL     1      -0.212  -0.898   3.713  1.00  0.00     0.058 A 
ATOM     15  C   UNL     1      -0.172  -3.311   3.183  1.00  0.00     0.027 C 
ATOM     16  C   UNL     1       1.110  -3.966   1.155  1.00  0.00     0.316 C 
BRANCH  11  17
ATOM     17  O   UNL     1      -0.418   1.337   4.294  1.00  0.00    -0.406 OA
BRANCH  17  18
ATOM     18  C   UNL     1      -0.537   2.698   3.923  1.00  0.00     0.573 C 
ATOM     19  F   UNL     1       0.661   3.206   3.558  1.00  0.00    -0.132 F 
ATOM     20  F   UNL     1      -1.413   2.851   2.905  1.00  0.00    -0.132 F 
ATOM     21  F   UNL     1      -0.991   3.407   4.978  1.00  0.00    -0.132 F 
ENDBRANCH  17  18
ENDBRANCH  11  17
BRANCH  16  22
ATOM     22  C   UNL     1       2.634  -4.161   1.249  1.00  0.00     0.430 C 
ATOM     23  F   UNL     1       3.227  -3.769   0.088  1.00  0.00    -0.167 F 
ATOM     24  F   UNL     1       3.195  -3.442   2.243  1.00  0.00    -0.167 F 
ATOM     25  F   UNL     1       2.986  -5.455   1.418  1.00  0.00    -0.167 F 
ENDBRANCH  16  22
ENDBRANCH   4   6
ENDBRANCH   3   4
ENDBRANCH   2   3
ENDBRANCH   1   2
BRANCH   1  26
ATOM     26  O   UNL     1       1.156  -7.316   5.339  1.00  0.00    -0.458 OA
BRANCH  26  27
ATOM     27  C   UNL     1       1.799  -6.167   5.652  1.00  0.00     0.338 C 
ATOM     28  O   UNL     1       2.790  -5.702   5.118  1.00  0.00    -0.246 OA
BRANCH  27  29
ATOM     29  C   UNL     1       1.073  -5.484   6.732  1.00  0.00     0.060 A 
ATOM     30  C   UNL     1      -0.152  -4.891   6.442  1.00  0.00     0.016 A 
ATOM     31  C   UNL     1       1.649  -5.332   7.993  1.00  0.00     0.016 A 
ATOM     32  C   UNL     1      -0.759  -4.056   7.374  1.00  0.00     0.010 A 
ATOM     33  C   UNL     1       0.979  -4.583   8.968  1.00  0.00     0.010 A 
ATOM     34  C   UNL     1      -0.214  -3.908   8.659  1.00  0.00    -0.014 A 
BRANCH  34  35
ATOM     35  C   UNL     1      -0.919  -3.061   9.661  1.00  0.00     0.031 A 
ATOM     36  C   UNL     1      -0.253  -1.849  10.259  1.00  0.00     0.074 A 
ATOM     37  C   UNL     1      -2.183  -3.374  10.017  1.00  0.00     0.049 A 
ATOM     38  N   UNL     1      -0.720  -1.017  11.155  1.00  0.00    -0.248 NA
ATOM     39  C   UNL     1       1.110  -1.528   9.803  1.00  0.00     0.031 C 
ATOM     40  C   UNL     1      -2.934  -4.531   9.523  1.00  0.00     0.029 A 
ATOM     41  N   UNL     1      -3.065  -2.746  10.862  1.00  0.00    -0.354 N 
ATOM     42  C   UNL     1       0.304  -0.112  11.407  1.00  0.00     0.074 A 
ATOM     43  C   UNL     1       1.420  -0.490  10.570  1.00  0.00     0.031 C 
ATOM     44  C   UNL     1      -4.175  -4.502  10.031  1.00  0.00     0.029 A 
ATOM     45  C   UNL     1      -4.293  -3.363  10.934  1.00  0.00     0.049 A 
ATOM     46  H   UNL     1      -2.840  -1.932  11.368  1.00  0.00     0.167 HD
ATOM     47  C   UNL     1       0.306   0.950  12.246  1.00  0.00     0.034 A 
ATOM     48  C   UNL     1      -5.392  -3.060  11.652  1.00  0.00     0.034 A 
ATOM     49  C   UNL     1      -0.826   1.371  13.024  1.00  0.00     0.049 A 
ATOM     50  C   UNL     1      -5.372  -1.861  12.554  1.00  0.00     0.074 A 
ATOM     51  C   UNL     1      -0.927   2.466  13.864  1.00  0.00     0.029 A 
ATOM     52  N   UNL     1      -2.053   0.728  13.051  1.00  0.00    -0.354 N 
ATOM     53  N   UNL     1      -4.411  -0.988  12.730  1.00  0.00    -0.248 NA
ATOM     54  C   UNL     1      -6.579  -1.598  13.351  1.00  0.00     0.031 C 
ATOM     55  C   UNL     1      -2.216   2.484  14.402  1.00  0.00     0.029 A 
ATOM     56  C   UNL     1      -2.918   1.403  13.892  1.00  0.00     0.049 A 
ATOM     57  H   UNL     1      -2.275  -0.088  12.547  1.00  0.00     0.167 HD
ATOM     58  C   UNL     1      -4.900  -0.065  13.645  1.00  0.00     0.074 A 
ATOM     59  C   UNL     1      -6.248  -0.475  13.977  1.00  0.00     0.031 C 
ATOM     60  C   UNL     1      -4.275   1.014  14.173  1.00  0.00     0.034 A 
BRANCH  47  61
ATOM     61  C   UNL     1       1.556   1.782  12.341  1.00  0.00     0.023 A 
ATOM     62  C   UNL     1       1.823   2.740  11.344  1.00  0.00     0.012 A 
ATOM     63  C   UNL     1       2.398   1.695  13.467  1.00  0.00     0.148 A 
ATOM     64  C   UNL     1       2.917   3.597  11.462  1.00  0.00     0.002 A 
ATOM     65  C   UNL     1       3.470   2.571  13.591  1.00  0.00     0.091 A 
ATOM     66  F   UNL     1       2.127   0.769  14.397  1.00  0.00    -0.205 F 
ATOM     67  C   UNL     1       3.733   3.520  12.588  1.00  0.00     0.022 A 
BRANCH  65  68
ATOM     68  S   UNL     1       4.550   2.595  15.027  1.00  0.00     0.127 S 
ATOM     69  O   UNL     1       5.824   2.176  14.444  1.00  0.00    -0.237 OA
ATOM     70  O   UNL     1       4.495   4.000  15.429  1.00  0.00    -0.237 OA
ATOM     71  O   UNL     1       3.971   1.661  15.983  1.00  0.00    -0.744 OA
ENDBRANCH  65  68
ENDBRANCH  47  61
BRANCH  48  72
ATOM     72  C   UNL     1      -6.616  -3.892  11.490  1.00  0.00     0.023 A 
ATOM     73  C   UNL     1      -7.699  -3.383  10.748  1.00  0.00     0.012 A 
ATOM     74  C   UNL     1      -6.672  -5.213  11.977  1.00  0.00     0.148 A 
ATOM     75  C   UNL     1      -8.817  -4.177  10.492  1.00  0.00     0.002 A 
ATOM     76  C   UNL     1      -7.768  -6.013  11.680  1.00  0.00     0.091 A 
ATOM     77  F   UNL     1      -5.630  -5.669  12.687  1.00  0.00    -0.205 F 
ATOM     78  C   UNL     1      -8.847  -5.494  10.945  1.00  0.00     0.022 A 
BRANCH  76  79
ATOM     79  S   UNL     1      -7.842  -7.755  12.114  1.00  0.00     0.127 S 
ATOM     80  O   UNL     1      -8.935  -7.775  13.082  1.00  0.00    -0.237 OA
ATOM     81  O   UNL     1      -8.149  -8.372  10.823  1.00  0.00    -0.237 OA
ATOM     82  O   UNL     1      -6.527  -8.087  12.644  1.00  0.00    -0.744 OA
ENDBRANCH  76  79
ENDBRANCH  48  72
BRANCH  60  83
ATOM     83  C   UNL     1      -5.023   1.858  15.165  1.00  0.00     0.023 A 
ATOM     84  C   UNL     1      -5.064   1.456  16.513  1.00  0.00     0.012 A 
ATOM     85  C   UNL     1      -5.526   3.120  14.794  1.00  0.00     0.148 A 
ATOM     86  C   UNL     1      -5.591   2.304  17.484  1.00  0.00     0.002 A 
ATOM     87  C   UNL     1      -6.021   3.973  15.773  1.00  0.00     0.091 A 
ATOM     88  F   UNL     1      -5.472   3.473  13.502  1.00  0.00    -0.205 F 
ATOM     89  C   UNL     1      -6.056   3.566  17.117  1.00  0.00     0.022 A 
BRANCH  87  90
ATOM     90  S   UNL     1      -6.569   5.646  15.416  1.00  0.00     0.127 S 
ATOM     91  O   UNL     1      -7.974   5.590  15.816  1.00  0.00    -0.237 OA
ATOM     92  O   UNL     1      -5.714   6.442  16.295  1.00  0.00    -0.237 OA
ATOM     93  O   UNL     1      -6.345   5.852  13.991  1.00  0.00    -0.744 OA
ENDBRANCH  87  90
ENDBRANCH  60  83
ENDBRANCH  34  35
ENDBRANCH  27  29
ENDBRANCH  26  27
ENDBRANCH   1  26
TORSDOF 17
