REMARK SMILES Cc1nn([C@H]2CCS(=O)(=O)C2)c(C)c1[C@@H]([NH3+])C(=O)OCCOC(=O)c1ccc(-c2c3nc(c(-c4cccc(S(=O)(=O)[O-])c4F)c4ccc([nH]4)c(-c4cccc(S(=O)(=O)[O-])c4F)c4nc(c(-c5cccc(S(=O)(=O)[O-])c5F)c5ccc2[nH]5)C=C4)C=C3)cc1
REMARK SMILES IDX 21 1 20 2 19 3 17 4 18 5 15 6 14 7 1 8 2 9 3 10 4 11 12 12
REMARK SMILES IDX 13 13 5 14 6 15 11 16 7 17 8 18 9 19 10 20 16 21 22 25 23 26
REMARK SMILES IDX 24 27 25 28 26 29 87 30 27 31 86 32 28 33 29 34 30 35 80 36
REMARK SMILES IDX 31 37 85 38 79 39 81 40 32 41 84 42 78 43 77 44 33 46 65 47
REMARK SMILES IDX 45 48 64 49 46 50 49 51 63 52 82 53 47 54 48 55 62 57 83 58
REMARK SMILES IDX 50 59 34 60 35 61 43 62 36 63 38 64 44 65 37 66 39 67 40 68
REMARK SMILES IDX 41 69 42 70 66 71 67 72 75 73 68 74 70 75 76 76 69 77 71 78
REMARK SMILES IDX 72 79 73 80 74 81 51 82 52 83 60 84 53 85 55 86 61 87 54 88
REMARK SMILES IDX 56 89 57 90 58 91 59 92
REMARK H PARENT 16 22 16 23 16 24 81 45 49 56
REMARK Flexibility Score: inf
ROOT
ATOM      1  C   UNL     1       4.321  -5.949  -3.972  1.00  0.00     0.275 C 
ENDROOT
BRANCH   1   2
ATOM      2  C   UNL     1       5.192  -5.187  -2.985  1.00  0.00     0.274 C 
BRANCH   2   3
ATOM      3  O   UNL     1       4.380  -4.308  -2.187  1.00  0.00    -0.457 OA
BRANCH   3   4
ATOM      4  C   UNL     1       4.290  -3.006  -2.565  1.00  0.00     0.370 C 
ATOM      5  O   UNL     1       5.022  -2.490  -3.410  1.00  0.00    -0.245 OA
BRANCH   4   6
ATOM      6  C   UNL     1       3.230  -2.181  -1.801  1.00  0.00     0.326 C 
BRANCH   6   7
ATOM      7  C   UNL     1       2.064  -2.903  -1.173  1.00  0.00     0.065 A 
ATOM      8  C   UNL     1       0.046  -1.593  -2.261  1.00  0.00     0.069 C 
ATOM      9  C   UNL     1       0.680  -2.628  -1.402  1.00  0.00     0.069 A 
ATOM     10  N   UNL     1      -0.109  -3.428  -0.683  1.00  0.00    -0.177 NA
ATOM     11  N   UNL     1       0.728  -4.275  -0.058  1.00  0.00    -0.265 N 
ATOM     12  C   UNL     1       2.050  -3.943  -0.244  1.00  0.00     0.046 A 
ATOM     13  C   UNL     1       3.208  -4.617   0.397  1.00  0.00     0.067 C 
BRANCH  11  14
ATOM     14  C   UNL     1       0.079  -5.285   0.760  1.00  0.00     0.123 C 
ATOM     15  C   UNL     1      -0.769  -6.283  -0.059  1.00  0.00     0.044 C 
ATOM     16  C   UNL     1       0.953  -6.163   1.639  1.00  0.00     0.164 C 
ATOM     17  C   UNL     1      -1.363  -7.266   0.948  1.00  0.00     0.139 C 
ATOM     18  S   UNL     1      -0.161  -7.393   2.261  1.00  0.00     0.152 S 
ATOM     19  O   UNL     1      -0.744  -6.889   3.487  1.00  0.00    -0.229 OA
ATOM     20  O   UNL     1       0.498  -8.682   2.199  1.00  0.00    -0.229 OA
ENDBRANCH  11  14
ENDBRANCH   6   7
BRANCH   6  21
ATOM     21  N   UNL     1       3.891  -1.366  -0.756  1.00  0.00    -0.342 N 
ATOM     22  H   UNL     1       4.293  -1.981  -0.049  1.00  0.00     0.345 HD
ATOM     23  H   UNL     1       3.205  -0.750  -0.321  1.00  0.00     0.345 HD
ATOM     24  H   UNL     1       4.631  -0.806  -1.180  1.00  0.00     0.345 HD
ENDBRANCH   6  21
ENDBRANCH   4   6
ENDBRANCH   3   4
ENDBRANCH   2   3
ENDBRANCH   1   2
BRANCH   1  25
ATOM     25  O   UNL     1       3.861  -5.074  -4.999  1.00  0.00    -0.458 OA
BRANCH  25  26
ATOM     26  C   UNL     1       2.680  -4.479  -4.731  1.00  0.00     0.338 C 
ATOM     27  O   UNL     1       2.102  -4.435  -3.661  1.00  0.00    -0.246 OA
BRANCH  26  28
ATOM     28  C   UNL     1       2.048  -4.034  -5.963  1.00  0.00     0.060 A 
ATOM     29  C   UNL     1       0.878  -3.275  -5.835  1.00  0.00     0.016 A 
ATOM     30  C   UNL     1       2.424  -4.649  -7.160  1.00  0.00     0.016 A 
ATOM     31  C   UNL     1      -0.020  -3.275  -6.872  1.00  0.00     0.010 A 
ATOM     32  C   UNL     1       1.516  -4.673  -8.182  1.00  0.00     0.010 A 
ATOM     33  C   UNL     1       0.283  -4.045  -7.993  1.00  0.00    -0.014 A 
BRANCH  33  34
ATOM     34  C   UNL     1      -0.704  -4.150  -9.039  1.00  0.00     0.031 A 
ATOM     35  C   UNL     1      -0.746  -2.959  -9.914  1.00  0.00     0.074 A 
ATOM     36  C   UNL     1      -1.331  -5.320  -9.257  1.00  0.00     0.049 A 
ATOM     37  N   UNL     1      -1.737  -2.162 -10.139  1.00  0.00    -0.248 NA
ATOM     38  C   UNL     1       0.537  -2.497 -10.474  1.00  0.00     0.031 C 
ATOM     39  C   UNL     1      -1.058  -6.601  -8.591  1.00  0.00     0.029 A 
ATOM     40  N   UNL     1      -2.197  -5.658 -10.247  1.00  0.00    -0.354 N 
ATOM     41  C   UNL     1      -1.251  -1.257 -11.081  1.00  0.00     0.074 A 
ATOM     42  C   UNL     1       0.180  -1.349 -11.043  1.00  0.00     0.031 C 
ATOM     43  C   UNL     1      -1.529  -7.603  -9.363  1.00  0.00     0.029 A 
ATOM     44  C   UNL     1      -2.230  -7.026 -10.495  1.00  0.00     0.049 A 
ATOM     45  H   UNL     1      -2.744  -5.003 -10.738  1.00  0.00     0.167 HD
ATOM     46  C   UNL     1      -2.058  -0.774 -12.061  1.00  0.00     0.034 A 
ATOM     47  C   UNL     1      -2.699  -7.623 -11.615  1.00  0.00     0.034 A 
ATOM     48  C   UNL     1      -3.449  -0.918 -11.714  1.00  0.00     0.049 A 
ATOM     49  C   UNL     1      -3.567  -6.643 -12.308  1.00  0.00     0.074 A 
ATOM     50  C   UNL     1      -4.265  -0.471 -10.696  1.00  0.00     0.029 A 
ATOM     51  N   UNL     1      -4.114  -1.951 -12.326  1.00  0.00    -0.354 N 
ATOM     52  N   UNL     1      -4.692  -6.198 -11.823  1.00  0.00    -0.248 NA
ATOM     53  C   UNL     1      -3.008  -5.860 -13.400  1.00  0.00     0.031 C 
ATOM     54  C   UNL     1      -5.233  -1.500 -10.507  1.00  0.00     0.029 A 
ATOM     55  C   UNL     1      -4.979  -2.517 -11.432  1.00  0.00     0.049 A 
ATOM     56  H   UNL     1      -3.987  -2.239 -13.259  1.00  0.00     0.167 HD
ATOM     57  C   UNL     1      -4.748  -4.873 -12.231  1.00  0.00     0.074 A 
ATOM     58  C   UNL     1      -3.788  -4.779 -13.325  1.00  0.00     0.031 C 
ATOM     59  C   UNL     1      -5.334  -3.923 -11.443  1.00  0.00     0.034 A 
BRANCH  46  60
ATOM     60  C   UNL     1      -1.621  -0.608 -13.508  1.00  0.00     0.023 A 
ATOM     61  C   UNL     1      -2.560  -0.026 -14.388  1.00  0.00     0.012 A 
ATOM     62  C   UNL     1      -0.507  -1.250 -14.104  1.00  0.00     0.148 A 
ATOM     63  C   UNL     1      -2.442  -0.151 -15.777  1.00  0.00     0.002 A 
ATOM     64  C   UNL     1      -0.355  -1.305 -15.484  1.00  0.00     0.091 A 
ATOM     65  F   UNL     1       0.361  -1.941 -13.363  1.00  0.00    -0.205 F 
ATOM     66  C   UNL     1      -1.338  -0.790 -16.326  1.00  0.00     0.022 A 
BRANCH  64  67
ATOM     67  S   UNL     1       1.077  -2.095 -16.232  1.00  0.00     0.127 S 
ATOM     68  O   UNL     1       0.517  -3.377 -16.644  1.00  0.00    -0.237 OA
ATOM     69  O   UNL     1       1.392  -1.173 -17.324  1.00  0.00    -0.237 OA
ATOM     70  O   UNL     1       2.089  -2.138 -15.183  1.00  0.00    -0.744 OA
ENDBRANCH  64  67
ENDBRANCH  46  60
BRANCH  47  71
ATOM     71  C   UNL     1      -2.248  -8.878 -12.257  1.00  0.00     0.023 A 
ATOM     72  C   UNL     1      -3.113  -9.556 -13.136  1.00  0.00     0.012 A 
ATOM     73  C   UNL     1      -0.894  -9.286 -12.206  1.00  0.00     0.148 A 
ATOM     74  C   UNL     1      -2.642 -10.586 -13.958  1.00  0.00     0.002 A 
ATOM     75  C   UNL     1      -0.434 -10.323 -13.010  1.00  0.00     0.091 A 
ATOM     76  F   UNL     1      -0.039  -8.600 -11.435  1.00  0.00    -0.205 F 
ATOM     77  C   UNL     1      -1.304 -10.967 -13.899  1.00  0.00     0.022 A 
BRANCH  75  78
ATOM     78  S   UNL     1       1.279 -10.870 -12.985  1.00  0.00     0.127 S 
ATOM     79  O   UNL     1       1.132 -12.323 -12.884  1.00  0.00    -0.237 OA
ATOM     80  O   UNL     1       1.769 -10.394 -14.276  1.00  0.00    -0.237 OA
ATOM     81  O   UNL     1       1.878 -10.249 -11.811  1.00  0.00    -0.744 OA
ENDBRANCH  75  78
ENDBRANCH  47  71
BRANCH  59  82
ATOM     82  C   UNL     1      -6.210  -4.396 -10.308  1.00  0.00     0.023 A 
ATOM     83  C   UNL     1      -5.687  -5.107  -9.208  1.00  0.00     0.012 A 
ATOM     84  C   UNL     1      -7.548  -3.971 -10.268  1.00  0.00     0.148 A 
ATOM     85  C   UNL     1      -6.486  -5.410  -8.104  1.00  0.00     0.002 A 
ATOM     86  C   UNL     1      -8.328  -4.234  -9.147  1.00  0.00     0.091 A 
ATOM     87  F   UNL     1      -8.027  -3.284 -11.316  1.00  0.00    -0.205 F 
ATOM     88  C   UNL     1      -7.804  -4.963  -8.068  1.00  0.00     0.022 A 
BRANCH  86  89
ATOM     89  S   UNL     1      -9.989  -3.577  -8.976  1.00  0.00     0.127 S 
ATOM     90  O   UNL     1     -10.811  -4.771  -9.161  1.00  0.00    -0.237 OA
ATOM     91  O   UNL     1      -9.977  -3.047  -7.611  1.00  0.00    -0.237 OA
ATOM     92  O   UNL     1     -10.125  -2.556 -10.008  1.00  0.00    -0.744 OA
ENDBRANCH  86  89
ENDBRANCH  59  82
ENDBRANCH  33  34
ENDBRANCH  26  28
ENDBRANCH  25  26
ENDBRANCH   1  25
TORSDOF 17
