REMARK SMILES O=C(OCCOC(=O)[C@@]1(CCc2ccccc2)CCC[N@@H+](Cc2cccnc2)C1)c1ccc(-c2c3nc(c(-c4cccc(S(=O)(=O)[O-])c4F)c4ccc([nH]4)c(-c4cccc(S(=O)(=O)[O-])c4F)c4nc(c(-c5cccc(S(=O)(=O)[O-])c5F)c5ccc2[nH]5)C=C4)C=C3)cc1
REMARK SMILES IDX 4 1 3 2 2 3 1 4 30 5 31 6 92 7 32 8 91 9 33 10 34 11 35 12
REMARK SMILES IDX 85 13 36 14 90 15 84 16 86 17 37 18 89 19 83 20 82 21 38 23
REMARK SMILES IDX 70 24 50 25 69 26 51 27 54 28 68 29 87 30 52 31 53 32 67 34
REMARK SMILES IDX 88 35 55 36 39 37 40 38 48 39 41 40 43 41 49 42 42 43 44 44
REMARK SMILES IDX 45 45 46 46 47 47 71 48 72 49 80 50 73 51 75 52 81 53 74 54
REMARK SMILES IDX 76 55 77 56 78 57 79 58 56 59 57 60 65 61 58 62 60 63 66 64
REMARK SMILES IDX 59 65 61 66 62 67 63 68 64 69 5 70 6 71 7 72 8 73 9 74 18 75
REMARK SMILES IDX 29 76 19 77 21 78 20 79 10 81 11 82 12 83 13 84 17 85 14 86
REMARK SMILES IDX 16 87 15 88 22 89 23 90 24 91 28 92 25 93 27 94 26 95
REMARK H PARENT 86 22 54 33 21 80
REMARK Flexibility Score: inf
ROOT
ATOM      1  C   UNL     1       1.620   1.033   6.460  1.00  0.00     0.275 C 
ENDROOT
BRANCH   1   2
ATOM      2  O   UNL     1       1.595  -0.345   6.851  1.00  0.00    -0.458 OA
BRANCH   2   3
ATOM      3  C   UNL     1       0.802  -1.324   6.356  1.00  0.00     0.338 C 
ATOM      4  O   UNL     1       0.950  -2.476   6.760  1.00  0.00    -0.246 OA
BRANCH   3   5
ATOM      5  C   UNL     1      -0.127  -1.078   5.211  1.00  0.00     0.060 A 
ATOM      6  C   UNL     1      -0.933   0.033   4.962  1.00  0.00     0.016 A 
ATOM      7  C   UNL     1      -0.137  -2.068   4.252  1.00  0.00     0.016 A 
ATOM      8  C   UNL     1      -1.562   0.224   3.696  1.00  0.00     0.010 A 
ATOM      9  C   UNL     1      -0.679  -1.799   2.987  1.00  0.00     0.010 A 
ATOM     10  C   UNL     1      -1.341  -0.641   2.617  1.00  0.00    -0.014 A 
BRANCH  10  11
ATOM     11  C   UNL     1      -1.935  -0.449   1.220  1.00  0.00     0.031 A 
ATOM     12  C   UNL     1      -3.337  -0.952   1.037  1.00  0.00     0.074 A 
ATOM     13  C   UNL     1      -1.346  -0.047   0.052  1.00  0.00     0.049 A 
ATOM     14  N   UNL     1      -4.124  -0.842   0.003  1.00  0.00    -0.248 NA
ATOM     15  C   UNL     1      -3.850  -1.818   2.109  1.00  0.00     0.031 C 
ATOM     16  C   UNL     1       0.068   0.042  -0.254  1.00  0.00     0.029 A 
ATOM     17  N   UNL     1      -1.895   0.446  -1.131  1.00  0.00    -0.354 N 
ATOM     18  C   UNL     1      -5.180  -1.698   0.252  1.00  0.00     0.074 A 
ATOM     19  C   UNL     1      -4.916  -2.337   1.524  1.00  0.00     0.031 C 
ATOM     20  C   UNL     1       0.289   0.762  -1.364  1.00  0.00     0.029 A 
ATOM     21  C   UNL     1      -0.980   1.129  -1.933  1.00  0.00     0.049 A 
ATOM     22  H   UNL     1      -2.840   0.324  -1.377  1.00  0.00     0.167 HD
ATOM     23  C   UNL     1      -6.279  -1.925  -0.502  1.00  0.00     0.034 A 
ATOM     24  C   UNL     1      -1.121   1.966  -2.987  1.00  0.00     0.034 A 
ATOM     25  C   UNL     1      -6.561  -1.256  -1.740  1.00  0.00     0.049 A 
ATOM     26  C   UNL     1      -2.483   2.031  -3.609  1.00  0.00     0.074 A 
ATOM     27  C   UNL     1      -7.702  -1.333  -2.518  1.00  0.00     0.029 A 
ATOM     28  N   UNL     1      -5.703  -0.373  -2.378  1.00  0.00    -0.354 N 
ATOM     29  N   UNL     1      -3.559   1.376  -3.257  1.00  0.00    -0.248 NA
ATOM     30  C   UNL     1      -2.657   2.891  -4.790  1.00  0.00     0.031 C 
ATOM     31  C   UNL     1      -7.550  -0.467  -3.606  1.00  0.00     0.029 A 
ATOM     32  C   UNL     1      -6.320   0.160  -3.497  1.00  0.00     0.049 A 
ATOM     33  H   UNL     1      -4.790  -0.158  -2.079  1.00  0.00     0.167 HD
ATOM     34  C   UNL     1      -4.522   1.709  -4.192  1.00  0.00     0.074 A 
ATOM     35  C   UNL     1      -3.938   2.701  -5.070  1.00  0.00     0.031 C 
ATOM     36  C   UNL     1      -5.758   1.180  -4.342  1.00  0.00     0.034 A 
BRANCH  23  37
ATOM     37  C   UNL     1      -7.281  -2.888   0.067  1.00  0.00     0.023 A 
ATOM     38  C   UNL     1      -7.948  -2.554   1.266  1.00  0.00     0.012 A 
ATOM     39  C   UNL     1      -7.540  -4.125  -0.548  1.00  0.00     0.148 A 
ATOM     40  C   UNL     1      -8.789  -3.469   1.891  1.00  0.00     0.002 A 
ATOM     41  C   UNL     1      -8.436  -5.004   0.043  1.00  0.00     0.091 A 
ATOM     42  F   UNL     1      -6.888  -4.428  -1.680  1.00  0.00    -0.205 F 
ATOM     43  C   UNL     1      -9.038  -4.690   1.276  1.00  0.00     0.022 A 
BRANCH  41  44
ATOM     44  S   UNL     1      -8.921  -6.559  -0.706  1.00  0.00     0.127 S 
ATOM     45  O   UNL     1      -8.425  -7.525   0.270  1.00  0.00    -0.237 OA
ATOM     46  O   UNL     1     -10.373  -6.428  -0.759  1.00  0.00    -0.237 OA
ATOM     47  O   UNL     1      -8.260  -6.601  -2.010  1.00  0.00    -0.744 OA
ENDBRANCH  41  44
ENDBRANCH  23  37
BRANCH  24  48
ATOM     48  C   UNL     1      -0.020   2.864  -3.500  1.00  0.00     0.023 A 
ATOM     49  C   UNL     1      -0.220   4.266  -3.441  1.00  0.00     0.012 A 
ATOM     50  C   UNL     1       1.180   2.401  -4.070  1.00  0.00     0.148 A 
ATOM     51  C   UNL     1       0.702   5.167  -3.986  1.00  0.00     0.002 A 
ATOM     52  C   UNL     1       2.140   3.308  -4.529  1.00  0.00     0.091 A 
ATOM     53  F   UNL     1       1.364   1.079  -4.193  1.00  0.00    -0.205 F 
ATOM     54  C   UNL     1       1.891   4.688  -4.519  1.00  0.00     0.022 A 
BRANCH  52  55
ATOM     55  S   UNL     1       3.780   2.776  -5.045  1.00  0.00     0.127 S 
ATOM     56  O   UNL     1       3.655   2.766  -6.499  1.00  0.00    -0.237 OA
ATOM     57  O   UNL     1       4.635   3.837  -4.508  1.00  0.00    -0.237 OA
ATOM     58  O   UNL     1       3.971   1.482  -4.403  1.00  0.00    -0.744 OA
ENDBRANCH  52  55
ENDBRANCH  24  48
BRANCH  36  59
ATOM     59  C   UNL     1      -6.582   1.693  -5.483  1.00  0.00     0.023 A 
ATOM     60  C   UNL     1      -6.261   1.333  -6.807  1.00  0.00     0.012 A 
ATOM     61  C   UNL     1      -7.705   2.500  -5.231  1.00  0.00     0.148 A 
ATOM     62  C   UNL     1      -7.034   1.798  -7.869  1.00  0.00     0.002 A 
ATOM     63  C   UNL     1      -8.499   2.916  -6.288  1.00  0.00     0.091 A 
ATOM     64  F   UNL     1      -7.967   2.853  -3.964  1.00  0.00    -0.205 F 
ATOM     65  C   UNL     1      -8.160   2.577  -7.609  1.00  0.00     0.022 A 
BRANCH  63  66
ATOM     66  S   UNL     1     -10.013   3.844  -6.035  1.00  0.00     0.127 S 
ATOM     67  O   UNL     1      -9.635   5.168  -6.524  1.00  0.00    -0.237 OA
ATOM     68  O   UNL     1     -10.961   3.125  -6.887  1.00  0.00    -0.237 OA
ATOM     69  O   UNL     1     -10.300   3.763  -4.609  1.00  0.00    -0.744 OA
ENDBRANCH  63  66
ENDBRANCH  36  59
ENDBRANCH  10  11
ENDBRANCH   3   5
ENDBRANCH   2   3
ENDBRANCH   1   2
BRANCH   1  70
ATOM     70  C   UNL     1       2.354   1.354   5.156  1.00  0.00     0.274 C 
BRANCH  70  71
ATOM     71  O   UNL     1       2.193   0.403   4.083  1.00  0.00    -0.461 OA
BRANCH  71  72
ATOM     72  C   UNL     1       3.262  -0.415   3.876  1.00  0.00     0.317 C 
ATOM     73  O   UNL     1       4.152  -0.557   4.711  1.00  0.00    -0.251 OA
BRANCH  72  74
ATOM     74  C   UNL     1       3.350  -0.977   2.424  1.00  0.00     0.117 C 
ATOM     75  C   UNL     1       4.509  -2.032   2.479  1.00  0.00     0.030 C 
ATOM     76  C   UNL     1       2.094  -1.832   2.030  1.00  0.00     0.281 C 
ATOM     77  C   UNL     1       4.522  -3.022   1.309  1.00  0.00     0.063 C 
ATOM     78  N   UNL     1       2.126  -2.833   0.930  1.00  0.00    -0.330 N 
ATOM     79  C   UNL     1       3.204  -3.784   1.146  1.00  0.00     0.262 C 
ATOM     80  H   UNL     1       2.289  -2.205   0.143  1.00  0.00     0.348 HD
BRANCH  74  81
ATOM     81  C   UNL     1       3.839   0.272   1.584  1.00  0.00     0.029 C 
BRANCH  81  82
ATOM     82  C   UNL     1       3.013   1.352   0.829  1.00  0.00     0.037 C 
BRANCH  82  83
ATOM     83  C   UNL     1       1.978   2.357   1.338  1.00  0.00    -0.048 A 
ATOM     84  C   UNL     1       0.775   1.945   1.898  1.00  0.00     0.004 A 
ATOM     85  C   UNL     1       2.025   3.703   0.920  1.00  0.00     0.004 A 
ATOM     86  C   UNL     1      -0.373   2.759   1.881  1.00  0.00     0.000 A 
ATOM     87  C   UNL     1       0.898   4.548   0.980  1.00  0.00     0.000 A 
ATOM     88  C   UNL     1      -0.320   4.059   1.419  1.00  0.00     0.000 A 
ENDBRANCH  82  83
ENDBRANCH  81  82
ENDBRANCH  74  81
BRANCH  78  89
ATOM     89  C   UNL     1       0.881  -3.454   0.326  1.00  0.00     0.300 C 
BRANCH  89  90
ATOM     90  C   UNL     1       0.039  -4.594   0.944  1.00  0.00     0.025 A 
ATOM     91  C   UNL     1      -1.286  -4.408   1.397  1.00  0.00     0.013 A 
ATOM     92  C   UNL     1       0.405  -5.931   0.899  1.00  0.00     0.120 A 
ATOM     93  C   UNL     1      -2.037  -5.415   2.005  1.00  0.00     0.021 A 
ATOM     94  N   UNL     1      -0.325  -6.972   1.407  1.00  0.00    -0.264 NA
ATOM     95  C   UNL     1      -1.516  -6.684   1.979  1.00  0.00     0.111 A 
ENDBRANCH  89  90
ENDBRANCH  78  89
ENDBRANCH  72  74
ENDBRANCH  71  72
ENDBRANCH  70  71
ENDBRANCH   1  70
TORSDOF 19
