REMARK SMILES COC(=O)[C@H]1CC[C@]2(C)[C@H](CC[C@]3(C)[C@H]2CC=C2[C@H]4CC(C)(C)CC[C@]4(C(=O)OCCOC(=O)c4ccc(-c5c6nc(c(-c7cccc(S(=O)(=O)[O-])c7F)c7ccc([nH]7)c(-c7cccc(S(=O)(=O)[O-])c7F)c7nc(c(-c8cccc(S(=O)(=O)[O-])c8F)c8ccc5[nH]8)C=C7)C=C6)cc4)CC[C@@]23C)C1(C)C
REMARK SMILES IDX 31 1 30 2 29 3 27 4 28 5 26 6 5 7 6 8 102 9 7 10 10 11
REMARK SMILES IDX 103 12 104 13 8 14 11 15 15 16 9 17 12 18 16 19 13 20 17 21
REMARK SMILES IDX 100 22 14 23 18 24 99 25 101 26 19 27 98 28 20 29 21 30
REMARK SMILES IDX 25 31 24 32 22 33 23 34 3 35 4 36 2 37 1 38 32 39 33 40
REMARK SMILES IDX 34 41 35 42 36 43 97 44 37 45 96 46 38 47 39 48 40 49 90 50
REMARK SMILES IDX 41 51 95 52 89 53 91 54 42 55 94 56 88 57 87 58 43 60 75 61
REMARK SMILES IDX 55 62 74 63 56 64 59 65 73 66 92 67 57 68 58 69 72 71 93 72
REMARK SMILES IDX 60 73 44 74 45 75 53 76 46 77 48 78 54 79 47 80 49 81 50 82
REMARK SMILES IDX 51 83 52 84 76 85 77 86 85 87 78 88 80 89 86 90 79 91 81 92
REMARK SMILES IDX 82 93 83 94 84 95 61 96 62 97 70 98 63 99 65 100 71 101
REMARK SMILES IDX 64 102 66 103 67 104 68 105 69 106
REMARK H PARENT 91 59 59 70
REMARK Flexibility Score: inf
ROOT
ATOM      1  C   UNL     1      -2.300   9.472  -1.865  1.00  0.00     0.275 C 
ENDROOT
BRANCH   1   2
ATOM      2  C   UNL     1      -3.366   8.413  -2.194  1.00  0.00     0.274 C 
BRANCH   2   3
ATOM      3  O   UNL     1      -3.399   8.141  -3.620  1.00  0.00    -0.462 OA
BRANCH   3   4
ATOM      4  C   UNL     1      -4.567   7.753  -4.206  1.00  0.00     0.312 C 
ATOM      5  O   UNL     1      -5.660   8.037  -3.735  1.00  0.00    -0.252 OA
BRANCH   4   6
ATOM      6  C   UNL     1      -4.352   6.749  -5.398  1.00  0.00     0.075 C 
ATOM      7  C   UNL     1       0.876   1.470  -2.781  1.00  0.00     0.105 C 
ATOM      8  C   UNL     1       2.083   2.458  -2.831  1.00  0.00     0.016 C 
ATOM      9  C   UNL     1      -0.530   1.982  -3.316  1.00  0.00    -0.019 C 
ATOM     10  C   UNL     1       2.073   3.585  -3.900  1.00  0.00     0.008 C 
ATOM     11  C   UNL     1      -0.199   2.982  -4.503  1.00  0.00     0.002 C 
ATOM     12  C   UNL     1      -1.388   2.530  -2.128  1.00  0.00     0.012 C 
ATOM     13  C   UNL     1      -1.406   0.793  -3.813  1.00  0.00     0.012 C 
ATOM     14  C   UNL     1       0.657   4.230  -4.090  1.00  0.00    -0.026 C 
ATOM     15  C   UNL     1      -1.251   3.170  -5.583  1.00  0.00     0.005 C 
ATOM     16  C   UNL     1       0.730   5.434  -5.215  1.00  0.00     0.006 C 
ATOM     17  C   UNL     1       0.393   4.801  -2.652  1.00  0.00     0.012 C 
ATOM     18  C   UNL     1      -0.744   3.930  -6.801  1.00  0.00     0.008 C 
ATOM     19  C   UNL     1       0.483   6.822  -4.533  1.00  0.00     0.032 C 
ATOM     20  C   UNL     1      -0.207   5.362  -6.585  1.00  0.00    -0.020 C 
ATOM     21  C   UNL     1      -0.994   6.880  -4.213  1.00  0.00    -0.027 C 
ATOM     22  C   UNL     1      -1.385   6.497  -6.566  1.00  0.00    -0.006 C 
ATOM     23  C   UNL     1       0.727   5.639  -7.802  1.00  0.00     0.012 C 
ATOM     24  C   UNL     1      -1.870   6.416  -5.121  1.00  0.00    -0.063 C 
ATOM     25  C   UNL     1      -2.686   6.432  -7.461  1.00  0.00     0.013 C 
ATOM     26  C   UNL     1      -0.834   7.932  -6.961  1.00  0.00     0.017 C 
ATOM     27  C   UNL     1      -3.270   5.777  -4.945  1.00  0.00     0.033 C 
ATOM     28  C   UNL     1      -3.893   7.258  -6.817  1.00  0.00     0.020 C 
ATOM     29  C   UNL     1      -3.689   4.967  -3.703  1.00  0.00     0.015 C 
ATOM     30  C   UNL     1      -5.014   4.162  -3.923  1.00  0.00    -0.035 C 
ATOM     31  C   UNL     1      -5.698   5.984  -5.598  1.00  0.00     0.020 C 
ATOM     32  C   UNL     1      -6.126   5.104  -4.416  1.00  0.00     0.007 C 
ATOM     33  C   UNL     1      -5.438   3.530  -2.584  1.00  0.00     0.011 C 
ATOM     34  C   UNL     1      -4.871   3.002  -4.938  1.00  0.00     0.011 C 
BRANCH   7  35
ATOM     35  C   UNL     1       1.266   0.157  -3.447  1.00  0.00     0.309 C 
ATOM     36  O   UNL     1       1.198  -0.931  -2.890  1.00  0.00    -0.252 OA
BRANCH  35  37
ATOM     37  O   UNL     1       1.558   0.351  -4.759  1.00  0.00    -0.469 OA
ATOM     38  C   UNL     1       1.407  -0.785  -5.610  1.00  0.00     0.282 C 
ENDBRANCH  35  37
ENDBRANCH   7  35
ENDBRANCH   4   6
ENDBRANCH   3   4
ENDBRANCH   2   3
ENDBRANCH   1   2
BRANCH   1  39
ATOM     39  O   UNL     1      -2.754  10.755  -2.311  1.00  0.00    -0.458 OA
BRANCH  39  40
ATOM     40  C   UNL     1      -2.398  11.054  -3.587  1.00  0.00     0.338 C 
ATOM     41  O   UNL     1      -1.370  10.746  -4.158  1.00  0.00    -0.246 OA
BRANCH  40  42
ATOM     42  C   UNL     1      -3.659  11.433  -4.251  1.00  0.00     0.060 A 
ATOM     43  C   UNL     1      -4.079  10.582  -5.272  1.00  0.00     0.016 A 
ATOM     44  C   UNL     1      -4.505  12.417  -3.755  1.00  0.00     0.016 A 
ATOM     45  C   UNL     1      -5.397  10.599  -5.712  1.00  0.00     0.010 A 
ATOM     46  C   UNL     1      -5.807  12.492  -4.250  1.00  0.00     0.010 A 
ATOM     47  C   UNL     1      -6.269  11.558  -5.197  1.00  0.00    -0.014 A 
BRANCH  47  48
ATOM     48  C   UNL     1      -7.620  11.713  -5.769  1.00  0.00     0.031 A 
ATOM     49  C   UNL     1      -7.774  12.689  -6.889  1.00  0.00     0.074 A 
ATOM     50  C   UNL     1      -8.680  11.053  -5.271  1.00  0.00     0.049 A 
ATOM     51  N   UNL     1      -8.860  13.204  -7.395  1.00  0.00    -0.248 NA
ATOM     52  C   UNL     1      -6.526  13.157  -7.516  1.00  0.00     0.031 C 
ATOM     53  C   UNL     1      -8.635  10.019  -4.239  1.00  0.00     0.029 A 
ATOM     54  N   UNL     1     -10.017  11.194  -5.549  1.00  0.00    -0.354 N 
ATOM     55  C   UNL     1      -8.425  14.107  -8.353  1.00  0.00     0.074 A 
ATOM     56  C   UNL     1      -6.981  14.048  -8.382  1.00  0.00     0.031 C 
ATOM     57  C   UNL     1      -9.893   9.655  -3.932  1.00  0.00     0.029 A 
ATOM     58  C   UNL     1     -10.828  10.465  -4.710  1.00  0.00     0.049 A 
ATOM     59  H   UNL     1     -10.362  11.760  -6.277  1.00  0.00     0.167 HD
ATOM     60  C   UNL     1      -9.168  14.925  -9.131  1.00  0.00     0.034 A 
ATOM     61  C   UNL     1     -12.168  10.496  -4.559  1.00  0.00     0.034 A 
ATOM     62  C   UNL     1     -10.602  14.967  -9.100  1.00  0.00     0.049 A 
ATOM     63  C   UNL     1     -12.974  11.443  -5.415  1.00  0.00     0.074 A 
ATOM     64  C   UNL     1     -11.457  15.761  -9.839  1.00  0.00     0.029 A 
ATOM     65  N   UNL     1     -11.393  14.178  -8.278  1.00  0.00    -0.354 N 
ATOM     66  N   UNL     1     -12.565  12.270  -6.348  1.00  0.00    -0.248 NA
ATOM     67  C   UNL     1     -14.430  11.452  -5.206  1.00  0.00     0.031 C 
ATOM     68  C   UNL     1     -12.768  15.460  -9.456  1.00  0.00     0.029 A 
ATOM     69  C   UNL     1     -12.729  14.463  -8.493  1.00  0.00     0.049 A 
ATOM     70  H   UNL     1     -11.054  13.513  -7.636  1.00  0.00     0.167 HD
ATOM     71  C   UNL     1     -13.711  12.872  -6.858  1.00  0.00     0.074 A 
ATOM     72  C   UNL     1     -14.834  12.295  -6.146  1.00  0.00     0.031 C 
ATOM     73  C   UNL     1     -13.830  13.829  -7.813  1.00  0.00     0.034 A 
BRANCH  60  74
ATOM     74  C   UNL     1      -8.427  15.841 -10.060  1.00  0.00     0.023 A 
ATOM     75  C   UNL     1      -7.812  15.319 -11.216  1.00  0.00     0.012 A 
ATOM     76  C   UNL     1      -8.335  17.218  -9.785  1.00  0.00     0.148 A 
ATOM     77  C   UNL     1      -7.090  16.151 -12.070  1.00  0.00     0.002 A 
ATOM     78  C   UNL     1      -7.651  18.048 -10.663  1.00  0.00     0.091 A 
ATOM     79  F   UNL     1      -8.893  17.684  -8.659  1.00  0.00    -0.205 F 
ATOM     80  C   UNL     1      -7.018  17.516 -11.799  1.00  0.00     0.022 A 
BRANCH  78  81
ATOM     81  S   UNL     1      -7.559  19.827 -10.436  1.00  0.00     0.127 S 
ATOM     82  O   UNL     1      -6.158  20.004 -10.056  1.00  0.00    -0.237 OA
ATOM     83  O   UNL     1      -7.897  20.324 -11.770  1.00  0.00    -0.237 OA
ATOM     84  O   UNL     1      -8.533  20.150  -9.403  1.00  0.00    -0.744 OA
ENDBRANCH  78  81
ENDBRANCH  60  74
BRANCH  61  85
ATOM     85  C   UNL     1     -12.841   9.610  -3.564  1.00  0.00     0.023 A 
ATOM     86  C   UNL     1     -13.682   8.576  -4.021  1.00  0.00     0.012 A 
ATOM     87  C   UNL     1     -12.668   9.787  -2.177  1.00  0.00     0.148 A 
ATOM     88  C   UNL     1     -14.363   7.757  -3.119  1.00  0.00     0.002 A 
ATOM     89  C   UNL     1     -13.307   8.932  -1.283  1.00  0.00     0.091 A 
ATOM     90  F   UNL     1     -11.888  10.792  -1.756  1.00  0.00    -0.205 F 
ATOM     91  C   UNL     1     -14.168   7.928  -1.751  1.00  0.00     0.022 A 
BRANCH  89  92
ATOM     92  S   UNL     1     -13.026   9.004   0.491  1.00  0.00     0.127 S 
ATOM     93  O   UNL     1     -14.296   9.540   0.974  1.00  0.00    -0.237 OA
ATOM     94  O   UNL     1     -12.788   7.597   0.817  1.00  0.00    -0.237 OA
ATOM     95  O   UNL     1     -11.866   9.866   0.671  1.00  0.00    -0.744 OA
ENDBRANCH  89  92
ENDBRANCH  61  85
BRANCH  73  96
ATOM     96  C   UNL     1     -15.219  14.284  -8.175  1.00  0.00     0.023 A 
ATOM     97  C   UNL     1     -15.943  15.103  -7.285  1.00  0.00     0.012 A 
ATOM     98  C   UNL     1     -15.778  13.961  -9.427  1.00  0.00     0.148 A 
ATOM     99  C   UNL     1     -17.215  15.563  -7.622  1.00  0.00     0.002 A 
ATOM    100  C   UNL     1     -17.026  14.463  -9.775  1.00  0.00     0.091 A 
ATOM    101  F   UNL     1     -15.083  13.165 -10.253  1.00  0.00    -0.205 F 
ATOM    102  C   UNL     1     -17.751  15.254  -8.870  1.00  0.00     0.022 A 
BRANCH 100 103
ATOM    103  S   UNL     1     -17.741  14.192 -11.401  1.00  0.00     0.127 S 
ATOM    104  O   UNL     1     -18.695  13.118 -11.133  1.00  0.00    -0.237 OA
ATOM    105  O   UNL     1     -18.350  15.489 -11.699  1.00  0.00    -0.237 OA
ATOM    106  O   UNL     1     -16.624  13.843 -12.270  1.00  0.00    -0.744 OA
ENDBRANCH 100 103
ENDBRANCH  73  96
ENDBRANCH  47  48
ENDBRANCH  40  42
ENDBRANCH  39  40
ENDBRANCH   1  39
TORSDOF 16
