REMARK SMILES [NH3+][C@H](CC[S@@](=O)[O-])C(=O)OCCOC(=O)c1ccc(-c2c3nc(c(-c4cccc(S(=O)(=O)[O-])c4F)c4ccc([nH]4)c(-c4cccc(S(=O)(=O)[O-])c4F)c4nc(c(-c5cccc(S(=O)(=O)[O-])c5F)c5ccc2[nH]5)C=C4)C=C3)cc1
REMARK SMILES IDX 11 1 10 2 8 3 9 4 2 5 1 6 3 10 4 11 5 12 6 13 7 14 12 15
REMARK SMILES IDX 13 16 14 17 15 18 16 19 17 20 78 21 18 22 77 23 19 24 20 25
REMARK SMILES IDX 21 26 71 27 22 28 76 29 70 30 72 31 23 32 75 33 69 34 68 35
REMARK SMILES IDX 24 37 56 38 36 39 55 40 37 41 40 42 54 43 73 44 38 45 39 46
REMARK SMILES IDX 53 48 74 49 41 50 25 51 26 52 34 53 27 54 29 55 35 56 28 57
REMARK SMILES IDX 30 58 31 59 32 60 33 61 57 62 58 63 66 64 59 65 61 66 67 67
REMARK SMILES IDX 60 68 62 69 63 70 64 71 65 72 42 73 43 74 51 75 44 76 46 77
REMARK SMILES IDX 52 78 45 79 47 80 48 81 49 82 50 83
REMARK H PARENT 1 7 1 8 1 9 72 36 40 47
REMARK Flexibility Score: inf
ROOT
ATOM      1  C   UNL     1      -3.099   0.547  -1.204  1.00  0.00     0.274 C 
ENDROOT
BRANCH   1   2
ATOM      2  O   UNL     1      -1.660   0.466  -1.224  1.00  0.00    -0.458 OA
BRANCH   2   3
ATOM      3  C   UNL     1      -1.007   1.665  -1.196  1.00  0.00     0.364 C 
ATOM      4  O   UNL     1      -1.562   2.757  -1.149  1.00  0.00    -0.245 OA
BRANCH   3   5
ATOM      5  C   UNL     1       0.523   1.498  -1.283  1.00  0.00     0.292 C 
BRANCH   5   6
ATOM      6  N   UNL     1       0.922   1.279  -2.691  1.00  0.00    -0.346 N 
ATOM      7  H   UNL     1       0.559   2.037  -3.269  1.00  0.00     0.345 HD
ATOM      8  H   UNL     1       0.543   0.390  -3.017  1.00  0.00     0.345 HD
ATOM      9  H   UNL     1       1.940   1.259  -2.756  1.00  0.00     0.345 HD
ENDBRANCH   5   6
BRANCH   5  10
ATOM     10  C   UNL     1       1.047   0.380  -0.365  1.00  0.00     0.090 C 
BRANCH  10  11
ATOM     11  C   UNL     1       2.539   0.476  -0.051  1.00  0.00     0.096 C 
BRANCH  11  12
ATOM     12  S   UNL     1       2.880   1.409   1.482  1.00  0.00    -0.055 S 
ATOM     13  O   UNL     1       4.358   1.375   1.713  1.00  0.00    -0.275 OA
ATOM     14  O   UNL     1       2.603   2.842   0.820  1.00  0.00    -0.772 OA
ENDBRANCH  11  12
ENDBRANCH  10  11
ENDBRANCH   5  10
ENDBRANCH   3   5
ENDBRANCH   2   3
ENDBRANCH   1   2
BRANCH   1  15
ATOM     15  C   UNL     1      -3.680   0.325   0.195  1.00  0.00     0.275 C 
BRANCH  15  16
ATOM     16  O   UNL     1      -3.283   1.356   1.116  1.00  0.00    -0.458 OA
BRANCH  16  17
ATOM     17  C   UNL     1      -2.238   1.030   1.909  1.00  0.00     0.338 C 
ATOM     18  O   UNL     1      -1.637  -0.035   1.930  1.00  0.00    -0.246 OA
BRANCH  17  19
ATOM     19  C   UNL     1      -1.801   2.185   2.705  1.00  0.00     0.060 A 
ATOM     20  C   UNL     1      -0.576   2.765   2.379  1.00  0.00     0.016 A 
ATOM     21  C   UNL     1      -2.481   2.572   3.860  1.00  0.00     0.016 A 
ATOM     22  C   UNL     1       0.021   3.672   3.249  1.00  0.00     0.010 A 
ATOM     23  C   UNL     1      -1.895   3.514   4.717  1.00  0.00     0.010 A 
ATOM     24  C   UNL     1      -0.617   4.032   4.443  1.00  0.00    -0.014 A 
BRANCH  24  25
ATOM     25  C   UNL     1       0.119   4.864   5.431  1.00  0.00     0.031 A 
ATOM     26  C   UNL     1       0.603   4.250   6.720  1.00  0.00     0.074 A 
ATOM     27  C   UNL     1       0.414   6.149   5.152  1.00  0.00     0.049 A 
ATOM     28  N   UNL     1       1.274   4.806   7.697  1.00  0.00    -0.248 NA
ATOM     29  C   UNL     1       0.292   2.828   6.940  1.00  0.00     0.031 C 
ATOM     30  C   UNL     1       0.017   6.861   3.938  1.00  0.00     0.029 A 
ATOM     31  N   UNL     1       1.127   7.079   5.869  1.00  0.00    -0.354 N 
ATOM     32  C   UNL     1       1.420   3.821   8.666  1.00  0.00     0.074 A 
ATOM     33  C   UNL     1       0.772   2.630   8.160  1.00  0.00     0.031 C 
ATOM     34  C   UNL     1       0.507   8.111   3.984  1.00  0.00     0.029 A 
ATOM     35  C   UNL     1       1.230   8.297   5.240  1.00  0.00     0.049 A 
ATOM     36  H   UNL     1       1.526   6.891   6.749  1.00  0.00     0.167 HD
ATOM     37  C   UNL     1       2.053   3.890   9.861  1.00  0.00     0.034 A 
ATOM     38  C   UNL     1       1.841   9.435   5.629  1.00  0.00     0.034 A 
ATOM     39  C   UNL     1       2.766   5.043  10.340  1.00  0.00     0.049 A 
ATOM     40  C   UNL     1       2.577   9.468   6.941  1.00  0.00     0.074 A 
ATOM     41  C   UNL     1       3.460   5.193  11.528  1.00  0.00     0.029 A 
ATOM     42  N   UNL     1       2.894   6.236   9.648  1.00  0.00    -0.354 N 
ATOM     43  N   UNL     1       2.770   8.501   7.804  1.00  0.00    -0.248 NA
ATOM     44  C   UNL     1       3.204  10.744   7.320  1.00  0.00     0.031 C 
ATOM     45  C   UNL     1       4.019   6.476  11.549  1.00  0.00     0.029 A 
ATOM     46  C   UNL     1       3.664   7.125  10.377  1.00  0.00     0.049 A 
ATOM     47  H   UNL     1       2.496   6.424   8.767  1.00  0.00     0.167 HD
ATOM     48  C   UNL     1       3.556   9.043   8.815  1.00  0.00     0.074 A 
ATOM     49  C   UNL     1       3.828  10.416   8.444  1.00  0.00     0.031 C 
ATOM     50  C   UNL     1       3.988   8.464   9.962  1.00  0.00     0.034 A 
BRANCH  37  51
ATOM     51  C   UNL     1       2.047   2.657  10.722  1.00  0.00     0.023 A 
ATOM     52  C   UNL     1       2.952   1.615  10.441  1.00  0.00     0.012 A 
ATOM     53  C   UNL     1       1.189   2.551  11.832  1.00  0.00     0.148 A 
ATOM     54  C   UNL     1       2.990   0.475  11.243  1.00  0.00     0.002 A 
ATOM     55  C   UNL     1       1.253   1.424  12.645  1.00  0.00     0.091 A 
ATOM     56  F   UNL     1       0.311   3.537  12.065  1.00  0.00    -0.205 F 
ATOM     57  C   UNL     1       2.149   0.384  12.350  1.00  0.00     0.022 A 
BRANCH  55  58
ATOM     58  S   UNL     1       0.241   1.266  14.121  1.00  0.00     0.127 S 
ATOM     59  O   UNL     1      -0.898   0.500  13.621  1.00  0.00    -0.237 OA
ATOM     60  O   UNL     1       1.117   0.528  15.033  1.00  0.00    -0.237 OA
ATOM     61  O   UNL     1      -0.043   2.632  14.542  1.00  0.00    -0.744 OA
ENDBRANCH  55  58
ENDBRANCH  37  51
BRANCH  38  62
ATOM     62  C   UNL     1       1.845  10.617   4.724  1.00  0.00     0.023 A 
ATOM     63  C   UNL     1       3.044  10.990   4.087  1.00  0.00     0.012 A 
ATOM     64  C   UNL     1       0.672  11.348   4.460  1.00  0.00     0.148 A 
ATOM     65  C   UNL     1       3.079  12.080   3.217  1.00  0.00     0.002 A 
ATOM     66  C   UNL     1       0.702  12.402   3.551  1.00  0.00     0.091 A 
ATOM     67  F   UNL     1      -0.456  11.001   5.096  1.00  0.00    -0.205 F 
ATOM     68  C   UNL     1       1.906  12.777   2.938  1.00  0.00     0.022 A 
BRANCH  66  69
ATOM     69  S   UNL     1      -0.803  13.246   3.053  1.00  0.00     0.127 S 
ATOM     70  O   UNL     1      -0.829  14.383   3.968  1.00  0.00    -0.237 OA
ATOM     71  O   UNL     1      -0.528  13.587   1.656  1.00  0.00    -0.237 OA
ATOM     72  O   UNL     1      -1.859  12.256   3.222  1.00  0.00    -0.744 OA
ENDBRANCH  66  69
ENDBRANCH  38  62
BRANCH  50  73
ATOM     73  C   UNL     1       4.813   9.303  10.899  1.00  0.00     0.023 A 
ATOM     74  C   UNL     1       4.171  10.251  11.718  1.00  0.00     0.012 A 
ATOM     75  C   UNL     1       6.201   9.105  11.027  1.00  0.00     0.148 A 
ATOM     76  C   UNL     1       4.900  11.005  12.637  1.00  0.00     0.002 A 
ATOM     77  C   UNL     1       6.917   9.837  11.970  1.00  0.00     0.091 A 
ATOM     78  F   UNL     1       6.804   8.216  10.224  1.00  0.00    -0.205 F 
ATOM     79  C   UNL     1       6.271  10.791  12.771  1.00  0.00     0.022 A 
BRANCH  77  80
ATOM     80  S   UNL     1       8.670   9.545  12.236  1.00  0.00     0.127 S 
ATOM     81  O   UNL     1       9.280  10.471  11.286  1.00  0.00    -0.237 OA
ATOM     82  O   UNL     1       8.851   9.911  13.643  1.00  0.00    -0.237 OA
ATOM     83  O   UNL     1       8.862   8.126  11.964  1.00  0.00    -0.744 OA
ENDBRANCH  77  80
ENDBRANCH  50  73
ENDBRANCH  24  25
ENDBRANCH  17  19
ENDBRANCH  16  17
ENDBRANCH  15  16
ENDBRANCH   1  15
TORSDOF 18
