REMARK SMILES COc1ccc(-c2cc(Cl)cc3c2O[C@H](C(F)(F)F)C(C(=O)OCCOC(=O)c2ccc(-c4c5nc(c(-c6cccc(S(=O)(=O)[O-])c6F)c6ccc([nH]6)c(-c6cccc(S(=O)(=O)[O-])c6F)c6nc(c(-c7cccc(S(=O)(=O)[O-])c7F)c7ccc4[nH]7)C=C6)C=C5)cc2)=C3)cc1C
REMARK SMILES IDX 25 1 24 2 23 3 21 4 22 5 20 6 7 7 8 8 13 9 9 10 12 11 14 12
REMARK SMILES IDX 10 13 11 14 92 15 15 16 6 17 3 18 4 19 94 20 5 21 93 22
REMARK SMILES IDX 95 23 2 24 1 25 16 26 17 27 18 28 19 29 26 30 27 31 28 32
REMARK SMILES IDX 29 33 30 34 91 35 31 36 90 37 32 38 33 39 34 40 84 41 35 42
REMARK SMILES IDX 89 43 83 44 85 45 36 46 88 47 82 48 81 49 37 51 69 52 49 53
REMARK SMILES IDX 68 54 50 55 53 56 67 57 86 58 51 59 52 60 66 62 87 63 54 64
REMARK SMILES IDX 38 65 39 66 47 67 40 68 42 69 48 70 41 71 43 72 44 73 45 74
REMARK SMILES IDX 46 75 70 76 71 77 79 78 72 79 74 80 80 81 73 82 75 83 76 84
REMARK SMILES IDX 77 85 78 86 55 87 56 88 64 89 57 90 59 91 65 92 58 93 60 94
REMARK SMILES IDX 61 95 62 96 63 97
REMARK H PARENT 85 50 53 61
REMARK Flexibility Score: inf
ROOT
ATOM      1  C   UNL     1      -3.799   2.889   4.360  1.00  0.00     0.275 C 
ENDROOT
BRANCH   1   2
ATOM      2  C   UNL     1      -2.689   1.893   4.960  1.00  0.00     0.275 C 
BRANCH   2   3
ATOM      3  O   UNL     1      -1.404   2.290   5.504  1.00  0.00    -0.459 OA
BRANCH   3   4
ATOM      4  C   UNL     1      -1.350   3.471   6.309  1.00  0.00     0.338 C 
ATOM      5  O   UNL     1      -2.323   3.333   7.075  1.00  0.00    -0.246 OA
BRANCH   4   6
ATOM      6  C   UNL     1      -0.250   5.079   5.570  1.00  0.00     0.087 C 
ATOM      7  C   UNL     1       0.554   6.341   2.480  1.00  0.00     0.026 A 
ATOM      8  C   UNL     1       1.391   7.331   1.931  1.00  0.00     0.033 A 
ATOM      9  C   UNL     1       0.194   6.582   3.821  1.00  0.00     0.135 A 
ATOM     10  C   UNL     1       1.930   8.331   2.756  1.00  0.00     0.042 A 
ATOM     11  C   UNL     1       1.147   7.099   4.582  1.00  0.00     0.019 A 
ATOM     12  O   UNL     1      -0.605   5.884   4.741  1.00  0.00    -0.475 OA
ATOM     13  Cl  UNL     1       2.946   9.534   2.058  1.00  0.00    -0.084 Cl
ATOM     14  C   UNL     1       1.841   8.195   4.141  1.00  0.00     0.032 A 
ATOM     15  C   UNL     1       1.231   5.926   5.481  1.00  0.00     0.027 C 
ATOM     16  C   UNL     1      -1.476   5.002   6.348  1.00  0.00     0.316 C 
BRANCH   7  17
ATOM     17  C   UNL     1       0.470   5.029   1.738  1.00  0.00    -0.014 A 
ATOM     18  C   UNL     1       0.410   2.537   0.290  1.00  0.00     0.121 A 
ATOM     19  C   UNL     1      -0.745   3.301   0.503  1.00  0.00     0.047 A 
ATOM     20  C   UNL     1       1.634   3.022   0.752  1.00  0.00    -0.008 A 
ATOM     21  C   UNL     1      -0.713   4.537   1.187  1.00  0.00     0.013 A 
ATOM     22  C   UNL     1       1.632   4.233   1.504  1.00  0.00     0.016 A 
ATOM     23  C   UNL     1       2.939   2.340   0.435  1.00  0.00     0.048 C 
BRANCH  18  24
ATOM     24  O   UNL     1       0.247   1.429  -0.503  1.00  0.00    -0.496 OA
ATOM     25  C   UNL     1       0.738   0.202   0.037  1.00  0.00     0.278 C 
ENDBRANCH  18  24
ENDBRANCH   7  17
BRANCH  16  26
ATOM     26  C   UNL     1      -1.865   5.366   8.208  1.00  0.00     0.430 C 
ATOM     27  F   UNL     1      -0.834   5.455   9.091  1.00  0.00    -0.167 F 
ATOM     28  F   UNL     1      -2.618   6.495   8.339  1.00  0.00    -0.167 F 
ATOM     29  F   UNL     1      -2.648   4.412   8.805  1.00  0.00    -0.167 F 
ENDBRANCH  16  26
ENDBRANCH   4   6
ENDBRANCH   3   4
ENDBRANCH   2   3
ENDBRANCH   1   2
BRANCH   1  30
ATOM     30  O   UNL     1      -3.687   4.116   3.511  1.00  0.00    -0.458 OA
BRANCH  30  31
ATOM     31  C   UNL     1      -3.509   5.434   3.862  1.00  0.00     0.338 C 
ATOM     32  O   UNL     1      -4.120   6.394   3.432  1.00  0.00    -0.246 OA
BRANCH  31  33
ATOM     33  C   UNL     1      -2.273   5.547   4.591  1.00  0.00     0.060 A 
ATOM     34  C   UNL     1      -1.614   6.794   6.008  1.00  0.00     0.016 A 
ATOM     35  C   UNL     1      -1.123   4.022   4.185  1.00  0.00     0.016 A 
ATOM     36  C   UNL     1      -0.124   6.167   7.162  1.00  0.00     0.010 A 
ATOM     37  C   UNL     1       0.408   3.430   5.258  1.00  0.00     0.010 A 
ATOM     38  C   UNL     1       0.746   4.391   6.938  1.00  0.00    -0.014 A 
BRANCH  38  39
ATOM     39  C   UNL     1       1.785   3.599   7.661  1.00  0.00     0.031 A 
ATOM     40  C   UNL     1       1.593   2.997   9.012  1.00  0.00     0.074 A 
ATOM     41  C   UNL     1       2.640   2.916   6.843  1.00  0.00     0.049 A 
ATOM     42  N   UNL     1       2.544   2.469   9.722  1.00  0.00    -0.248 NA
ATOM     43  C   UNL     1       0.290   2.891   9.655  1.00  0.00     0.031 C 
ATOM     44  C   UNL     1       2.991   1.498   6.971  1.00  0.00     0.029 A 
ATOM     45  N   UNL     1       3.243   3.263   5.622  1.00  0.00    -0.354 N 
ATOM     46  C   UNL     1       1.943   1.793  10.774  1.00  0.00     0.074 A 
ATOM     47  C   UNL     1       0.581   2.255  10.794  1.00  0.00     0.031 C 
ATOM     48  C   UNL     1       3.856   1.158   6.002  1.00  0.00     0.029 A 
ATOM     49  C   UNL     1       4.293   2.376   5.353  1.00  0.00     0.049 A 
ATOM     50  H   UNL     1       2.970   4.012   5.046  1.00  0.00     0.167 HD
ATOM     51  C   UNL     1       2.521   0.700  11.357  1.00  0.00     0.034 A 
ATOM     52  C   UNL     1       5.592   2.700   5.067  1.00  0.00     0.034 A 
ATOM     53  C   UNL     1       3.669   0.249  10.565  1.00  0.00     0.049 A 
ATOM     54  C   UNL     1       6.596   2.046   5.986  1.00  0.00     0.074 A 
ATOM     55  C   UNL     1       3.778  -0.756   9.617  1.00  0.00     0.029 A 
ATOM     56  N   UNL     1       4.831   0.996  10.490  1.00  0.00    -0.354 N 
ATOM     57  N   UNL     1       6.295   1.204   6.928  1.00  0.00    -0.248 NA
ATOM     58  C   UNL     1       7.994   2.479   6.045  1.00  0.00     0.031 C 
ATOM     59  C   UNL     1       5.012  -0.592   8.948  1.00  0.00     0.029 A 
ATOM     60  C   UNL     1       5.670   0.493   9.504  1.00  0.00     0.049 A 
ATOM     61  H   UNL     1       5.035   1.775  11.057  1.00  0.00     0.167 HD
ATOM     62  C   UNL     1       7.237   1.361   7.913  1.00  0.00     0.074 A 
ATOM     63  C   UNL     1       8.355   1.998   7.243  1.00  0.00     0.031 C 
ATOM     64  C   UNL     1       6.953   1.130   9.231  1.00  0.00     0.034 A 
BRANCH  51  65
ATOM     65  C   UNL     1       1.878  -0.226  12.399  1.00  0.00     0.023 A 
ATOM     66  C   UNL     1       2.449  -1.515  12.557  1.00  0.00     0.012 A 
ATOM     67  C   UNL     1       0.782   0.059  13.250  1.00  0.00     0.148 A 
ATOM     68  C   UNL     1       1.914  -2.492  13.404  1.00  0.00     0.002 A 
ATOM     69  C   UNL     1       0.209  -0.937  14.059  1.00  0.00     0.091 A 
ATOM     70  F   UNL     1       0.330   1.313  13.352  1.00  0.00    -0.205 F 
ATOM     71  C   UNL     1       0.771  -2.215  14.132  1.00  0.00     0.022 A 
BRANCH  69  72
ATOM     72  S   UNL     1      -1.304  -0.686  15.010  1.00  0.00     0.127 S 
ATOM     73  O   UNL     1      -2.130  -1.818  14.581  1.00  0.00    -0.237 OA
ATOM     74  O   UNL     1      -0.830  -0.775  16.390  1.00  0.00    -0.237 OA
ATOM     75  O   UNL     1      -1.825   0.614  14.607  1.00  0.00    -0.744 OA
ENDBRANCH  69  72
ENDBRANCH  51  65
BRANCH  52  76
ATOM     76  C   UNL     1       5.774   4.122   4.685  1.00  0.00     0.023 A 
ATOM     77  C   UNL     1       5.328   4.522   3.413  1.00  0.00     0.012 A 
ATOM     78  C   UNL     1       5.836   5.037   5.755  1.00  0.00     0.148 A 
ATOM     79  C   UNL     1       4.739   5.770   3.281  1.00  0.00     0.002 A 
ATOM     80  C   UNL     1       5.159   6.224   5.639  1.00  0.00     0.091 A 
ATOM     81  F   UNL     1       6.389   4.670   6.917  1.00  0.00    -0.205 F 
ATOM     82  C   UNL     1       4.618   6.582   4.407  1.00  0.00     0.022 A 
BRANCH  80  83
ATOM     83  S   UNL     1       4.748   7.147   7.121  1.00  0.00     0.127 S 
ATOM     84  O   UNL     1       4.117   8.354   6.586  1.00  0.00    -0.237 OA
ATOM     85  O   UNL     1       3.819   6.249   7.796  1.00  0.00    -0.237 OA
ATOM     86  O   UNL     1       6.046   7.364   7.744  1.00  0.00    -0.744 OA
ENDBRANCH  80  83
ENDBRANCH  52  76
BRANCH  64  87
ATOM     87  C   UNL     1       7.880   1.505  10.364  1.00  0.00     0.023 A 
ATOM     88  C   UNL     1       8.796   2.571  10.271  1.00  0.00     0.012 A 
ATOM     89  C   UNL     1       7.807   0.833  11.607  1.00  0.00     0.148 A 
ATOM     90  C   UNL     1       9.712   2.847  11.290  1.00  0.00     0.002 A 
ATOM     91  C   UNL     1       8.632   1.197  12.665  1.00  0.00     0.091 A 
ATOM     92  F   UNL     1       6.955  -0.192  11.760  1.00  0.00    -0.205 F 
ATOM     93  C   UNL     1       9.627   2.161  12.492  1.00  0.00     0.022 A 
BRANCH  91  94
ATOM     94  S   UNL     1       8.377   0.533  14.314  1.00  0.00     0.127 S 
ATOM     95  O   UNL     1       9.329  -0.576  14.342  1.00  0.00    -0.237 OA
ATOM     96  O   UNL     1       8.738   1.666  15.169  1.00  0.00    -0.237 OA
ATOM     97  O   UNL     1       6.968   0.171  14.366  1.00  0.00    -0.744 OA
ENDBRANCH  91  94
ENDBRANCH  64  87
ENDBRANCH  38  39
ENDBRANCH  31  33
ENDBRANCH  30  31
ENDBRANCH   1  30
TORSDOF 17
