REMARK SMILES O=C(NC(=S)Nc1ccccc1C(=O)OCCOC(=O)c1ccc(-c2c3nc(c(-c4cccc(S(=O)(=O)[O-])c4F)c4ccc([nH]4)c(-c4cccc(S(=O)(=O)[O-])c4F)c4nc(c(-c5cccc(S(=O)(=O)[O-])c5F)c5ccc2[nH]5)C=C4)C=C3)cc1)c1ccc2ccccc2c1
REMARK SMILES IDX 16 1 15 2 13 3 14 4 12 5 7 6 8 7 9 8 11 9 10 10 6 11 4 13
REMARK SMILES IDX 5 14 3 15 1 16 2 17 84 19 85 20 93 21 86 22 92 23 87 24
REMARK SMILES IDX 91 25 88 26 90 27 89 28 17 29 18 30 19 31 20 32 21 33 22 34
REMARK SMILES IDX 83 35 23 36 82 37 24 38 25 39 26 40 76 41 27 42 81 43 75 44
REMARK SMILES IDX 77 45 28 46 80 47 74 48 73 49 29 51 61 52 41 53 60 54 42 55
REMARK SMILES IDX 45 56 59 57 78 58 43 59 44 60 58 62 79 63 46 64 30 65 31 66
REMARK SMILES IDX 39 67 32 68 34 69 40 70 33 71 35 72 36 73 37 74 38 75 62 76
REMARK SMILES IDX 63 77 71 78 64 79 66 80 72 81 65 82 67 83 68 84 69 85 70 86
REMARK SMILES IDX 47 87 48 88 56 89 49 90 51 91 57 92 50 93 52 94 53 95 54 96
REMARK SMILES IDX 55 97
REMARK H PARENT 6 12 3 18 77 50 45 61
REMARK Flexibility Score: inf
ROOT
ATOM      1  C   UNL     1       4.089   3.021  -1.234  1.00  0.00     0.275 C 
ENDROOT
BRANCH   1   2
ATOM      2  O   UNL     1       4.726   1.727  -1.415  1.00  0.00    -0.458 OA
BRANCH   2   3
ATOM      3  C   UNL     1       3.821   0.728  -1.480  1.00  0.00     0.340 C 
ATOM      4  O   UNL     1       2.610   0.906  -1.465  1.00  0.00    -0.246 OA
BRANCH   3   5
ATOM      5  C   UNL     1       4.308  -0.678  -1.376  1.00  0.00     0.083 A 
ATOM      6  C   UNL     1       5.117  -1.105   0.371  1.00  0.00     0.055 A 
ATOM      7  C   UNL     1       4.764  -2.921   1.164  1.00  0.00     0.027 A 
ATOM      8  C   UNL     1       3.615  -4.059   0.029  1.00  0.00     0.002 A 
ATOM      9  C   UNL     1       3.119  -1.811  -2.474  1.00  0.00     0.018 A 
ATOM     10  C   UNL     1       2.773  -3.634  -1.699  1.00  0.00     0.001 A 
BRANCH   6  11
ATOM     11  N   UNL     1       5.324  -0.057   1.278  1.00  0.00    -0.332 N 
ATOM     12  H   UNL     1       6.230   0.049   1.649  1.00  0.00     0.169 HD
BRANCH  11  13
ATOM     13  C   UNL     1       4.380   0.823   1.686  1.00  0.00     0.177 C 
ATOM     14  S   UNL     1       4.883   2.204   2.490  1.00  0.00    -0.040 S 
BRANCH  13  15
ATOM     15  N   UNL     1       3.016   0.605   1.537  1.00  0.00    -0.299 N 
ATOM     16  O   UNL     1       0.860  -0.116   1.460  1.00  0.00    -0.269 OA
ATOM     17  C   UNL     1       2.021  -0.318   1.093  1.00  0.00     0.257 C 
ATOM     18  H   UNL     1       2.550   1.405   1.870  1.00  0.00     0.172 HD
BRANCH  17  19
ATOM     19  C   UNL     1       2.216  -1.538   0.252  1.00  0.00     0.040 A 
ATOM     20  C   UNL     1       3.437  -1.949   0.252  1.00  0.00     0.014 A 
ATOM     21  C   UNL     1       3.003  -2.087  -0.662  1.00  0.00     0.022 A 
ATOM     22  C   UNL     1       5.104  -2.709  -0.645  1.00  0.00     0.009 A 
ATOM     23  C   UNL     1       4.519  -2.880  -1.838  1.00  0.00    -0.018 A 
ATOM     24  C   UNL     1       5.718  -3.216  -1.627  1.00  0.00    -0.018 A 
ATOM     25  C   UNL     1       4.729  -3.409  -3.371  1.00  0.00     0.009 A 
ATOM     26  C   UNL     1       6.571  -4.370  -1.860  1.00  0.00     0.009 A 
ATOM     27  C   UNL     1       5.718  -4.249  -3.981  1.00  0.00     0.001 A 
ATOM     28  C   UNL     1       6.606  -4.849  -3.134  1.00  0.00     0.001 A 
ENDBRANCH  17  19
ENDBRANCH  13  15
ENDBRANCH  11  13
ENDBRANCH   6  11
ENDBRANCH   3   5
ENDBRANCH   2   3
ENDBRANCH   1   2
BRANCH   1  29
ATOM     29  C   UNL     1       3.665   3.719  -2.535  1.00  0.00     0.275 C 
BRANCH  29  30
ATOM     30  O   UNL     1       2.560   3.071  -3.194  1.00  0.00    -0.458 OA
BRANCH  30  31
ATOM     31  C   UNL     1       2.922   2.169  -4.133  1.00  0.00     0.338 C 
ATOM     32  O   UNL     1       4.061   1.884  -4.472  1.00  0.00    -0.246 OA
BRANCH  31  33
ATOM     33  C   UNL     1       1.756   1.500  -4.727  1.00  0.00     0.060 A 
ATOM     34  C   UNL     1       1.111   0.480  -4.033  1.00  0.00     0.016 A 
ATOM     35  C   UNL     1       1.479   1.705  -6.075  1.00  0.00     0.016 A 
ATOM     36  C   UNL     1       0.336  -0.449  -4.713  1.00  0.00     0.010 A 
ATOM     37  C   UNL     1       0.571   0.864  -6.720  1.00  0.00     0.010 A 
ATOM     38  C   UNL     1       0.034  -0.257  -6.060  1.00  0.00    -0.014 A 
BRANCH  38  39
ATOM     39  C   UNL     1      -0.828  -1.218  -6.793  1.00  0.00     0.031 A 
ATOM     40  C   UNL     1      -0.344  -1.803  -8.090  1.00  0.00     0.074 A 
ATOM     41  C   UNL     1      -2.062  -1.505  -6.331  1.00  0.00     0.049 A 
ATOM     42  N   UNL     1      -1.026  -2.383  -9.039  1.00  0.00    -0.248 NA
ATOM     43  C   UNL     1       1.099  -1.691  -8.371  1.00  0.00     0.031 C 
ATOM     44  C   UNL     1      -2.627  -1.045  -5.059  1.00  0.00     0.029 A 
ATOM     45  N   UNL     1      -3.084  -2.220  -6.903  1.00  0.00    -0.354 N 
ATOM     46  C   UNL     1      -0.122  -2.615 -10.069  1.00  0.00     0.074 A 
ATOM     47  C   UNL     1       1.166  -2.132  -9.620  1.00  0.00     0.031 C 
ATOM     48  C   UNL     1      -3.891  -1.475  -4.952  1.00  0.00     0.029 A 
ATOM     49  C   UNL     1      -4.260  -2.137  -6.192  1.00  0.00     0.049 A 
ATOM     50  H   UNL     1      -2.987  -2.738  -7.735  1.00  0.00     0.167 HD
ATOM     51  C   UNL     1      -0.356  -3.171 -11.281  1.00  0.00     0.034 A 
ATOM     52  C   UNL     1      -5.518  -2.473  -6.533  1.00  0.00     0.034 A 
ATOM     53  C   UNL     1      -1.639  -3.683 -11.680  1.00  0.00     0.049 A 
ATOM     54  C   UNL     1      -5.758  -3.056  -7.893  1.00  0.00     0.074 A 
ATOM     55  C   UNL     1      -1.985  -4.311 -12.863  1.00  0.00     0.029 A 
ATOM     56  N   UNL     1      -2.790  -3.622 -10.907  1.00  0.00    -0.354 N 
ATOM     57  N   UNL     1      -4.896  -3.294  -8.851  1.00  0.00    -0.248 NA
ATOM     58  C   UNL     1      -7.140  -3.430  -8.217  1.00  0.00     0.031 C 
ATOM     59  C   UNL     1      -3.355  -4.588 -12.823  1.00  0.00     0.029 A 
ATOM     60  C   UNL     1      -3.849  -4.188 -11.591  1.00  0.00     0.049 A 
ATOM     61  H   UNL     1      -2.843  -3.232 -10.005  1.00  0.00     0.167 HD
ATOM     62  C   UNL     1      -5.621  -3.888  -9.875  1.00  0.00     0.074 A 
ATOM     63  C   UNL     1      -6.992  -3.980  -9.415  1.00  0.00     0.031 C 
ATOM     64  C   UNL     1      -5.193  -4.316 -11.087  1.00  0.00     0.034 A 
BRANCH  51  65
ATOM     65  C   UNL     1       0.783  -3.239 -12.265  1.00  0.00     0.023 A 
ATOM     66  C   UNL     1       1.869  -4.109 -12.042  1.00  0.00     0.012 A 
ATOM     67  C   UNL     1       0.748  -2.471 -13.448  1.00  0.00     0.148 A 
ATOM     68  C   UNL     1       2.919  -4.185 -12.959  1.00  0.00     0.002 A 
ATOM     69  C   UNL     1       1.770  -2.591 -14.381  1.00  0.00     0.091 A 
ATOM     70  F   UNL     1      -0.283  -1.635 -13.636  1.00  0.00    -0.205 F 
ATOM     71  C   UNL     1       2.864  -3.435 -14.131  1.00  0.00     0.022 A 
BRANCH  69  72
ATOM     72  S   UNL     1       1.751  -1.734 -15.960  1.00  0.00     0.127 S 
ATOM     73  O   UNL     1       2.873  -0.808 -15.807  1.00  0.00    -0.237 OA
ATOM     74  O   UNL     1       1.987  -2.827 -16.903  1.00  0.00    -0.237 OA
ATOM     75  O   UNL     1       0.440  -1.109 -16.065  1.00  0.00    -0.744 OA
ENDBRANCH  69  72
ENDBRANCH  51  65
BRANCH  52  76
ATOM     76  C   UNL     1      -6.636  -2.242  -5.576  1.00  0.00     0.023 A 
ATOM     77  C   UNL     1      -7.290  -3.348  -5.000  1.00  0.00     0.012 A 
ATOM     78  C   UNL     1      -7.031  -0.940  -5.206  1.00  0.00     0.148 A 
ATOM     79  C   UNL     1      -8.338  -3.162  -4.099  1.00  0.00     0.002 A 
ATOM     80  C   UNL     1      -8.035  -0.763  -4.263  1.00  0.00     0.091 A 
ATOM     81  F   UNL     1      -6.399   0.100  -5.769  1.00  0.00    -0.205 F 
ATOM     82  C   UNL     1      -8.704  -1.872  -3.722  1.00  0.00     0.022 A 
BRANCH  80  83
ATOM     83  S   UNL     1      -8.485   0.854  -3.621  1.00  0.00     0.127 S 
ATOM     84  O   UNL     1      -9.834   1.022  -4.156  1.00  0.00    -0.237 OA
ATOM     85  O   UNL     1      -8.419   0.631  -2.176  1.00  0.00    -0.237 OA
ATOM     86  O   UNL     1      -7.484   1.777  -4.135  1.00  0.00    -0.744 OA
ENDBRANCH  80  83
ENDBRANCH  52  76
BRANCH  64  87
ATOM     87  C   UNL     1      -6.197  -4.998 -11.975  1.00  0.00     0.023 A 
ATOM     88  C   UNL     1      -7.209  -4.256 -12.612  1.00  0.00     0.012 A 
ATOM     89  C   UNL     1      -6.072  -6.376 -12.240  1.00  0.00     0.148 A 
ATOM     90  C   UNL     1      -8.101  -4.883 -13.481  1.00  0.00     0.002 A 
ATOM     91  C   UNL     1      -6.926  -6.981 -13.150  1.00  0.00     0.091 A 
ATOM     92  F   UNL     1      -5.111  -7.064 -11.605  1.00  0.00    -0.205 F 
ATOM     93  C   UNL     1      -7.950  -6.240 -13.761  1.00  0.00     0.022 A 
BRANCH  91  94
ATOM     94  S   UNL     1      -6.740  -8.695 -13.651  1.00  0.00     0.127 S 
ATOM     95  O   UNL     1      -7.952  -9.299 -13.101  1.00  0.00    -0.237 OA
ATOM     96  O   UNL     1      -6.719  -8.587 -15.110  1.00  0.00    -0.237 OA
ATOM     97  O   UNL     1      -5.493  -9.159 -13.058  1.00  0.00    -0.744 OA
ENDBRANCH  91  94
ENDBRANCH  64  87
ENDBRANCH  38  39
ENDBRANCH  31  33
ENDBRANCH  30  31
ENDBRANCH  29  30
ENDBRANCH   1  29
TORSDOF 18
