REMARK SMILES O=Cc1cc(Cl)c(OCc2ccc(C(=O)OCCOC(=O)c3ccc(-c4c5nc(c(-c6cccc(S(=O)(=O)[O-])c6F)c6ccc([nH]6)c(-c6cccc(S(=O)(=O)[O-])c6F)c6nc(c(-c7cccc(S(=O)(=O)[O-])c7F)c7ccc4[nH]7)C=C6)C=C5)cc3)cc2)c(Cl)c1
REMARK SMILES IDX 17 1 16 2 14 3 15 4 13 5 10 6 11 7 86 8 12 9 85 10 9 11 8 12
REMARK SMILES IDX 7 13 3 14 4 15 89 16 5 17 87 18 6 19 88 20 2 21 1 22 18 23
REMARK SMILES IDX 19 24 20 25 21 26 22 27 23 28 84 29 24 30 83 31 25 32 26 33
REMARK SMILES IDX 27 34 77 35 28 36 82 37 76 38 78 39 29 40 81 41 75 42 74 43
REMARK SMILES IDX 30 45 62 46 42 47 61 48 43 49 46 50 60 51 79 52 44 53 45 54
REMARK SMILES IDX 59 56 80 57 47 58 31 59 32 60 40 61 33 62 35 63 41 64 34 65
REMARK SMILES IDX 36 66 37 67 38 68 39 69 63 70 64 71 72 72 65 73 67 74 73 75
REMARK SMILES IDX 66 76 68 77 69 78 70 79 71 80 48 81 49 82 57 83 50 84 52 85
REMARK SMILES IDX 58 86 51 87 53 88 54 89 55 90 56 91
REMARK H PARENT 78 44 46 55
REMARK Flexibility Score: inf
ROOT
ATOM      1  C   UNL     1      -2.376  -7.663  -4.666  1.00  0.00     0.275 C 
ENDROOT
BRANCH   1   2
ATOM      2  O   UNL     1      -0.987  -7.310  -4.493  1.00  0.00    -0.458 OA
BRANCH   2   3
ATOM      3  C   UNL     1      -0.551  -6.316  -5.306  1.00  0.00     0.338 C 
ATOM      4  O   UNL     1      -1.210  -5.758  -6.173  1.00  0.00    -0.246 OA
BRANCH   3   5
ATOM      5  C   UNL     1       0.831  -5.887  -4.981  1.00  0.00     0.060 A 
ATOM      6  C   UNL     1       3.447  -4.912  -4.537  1.00  0.00    -0.011 A 
ATOM      7  C   UNL     1       2.447  -4.076  -5.042  1.00  0.00     0.008 A 
ATOM      8  C   UNL     1       3.113  -6.245  -4.235  1.00  0.00     0.008 A 
ATOM      9  C   UNL     1       1.167  -4.564  -5.284  1.00  0.00     0.016 A 
ATOM     10  C   UNL     1       1.809  -6.732  -4.451  1.00  0.00     0.016 A 
BRANCH   6  11
ATOM     11  C   UNL     1       4.872  -4.396  -4.452  1.00  0.00     0.265 C 
BRANCH  11  12
ATOM     12  O   UNL     1       5.352  -3.930  -3.189  1.00  0.00    -0.486 OA
BRANCH  12  13
ATOM     13  C   UNL     1       4.665  -2.967  -2.499  1.00  0.00     0.157 A 
ATOM     14  C   UNL     1       3.269  -1.169  -0.852  1.00  0.00     0.017 A 
ATOM     15  C   UNL     1       3.483  -0.854  -2.191  1.00  0.00     0.036 A 
ATOM     16  C   UNL     1       3.807  -2.328  -0.300  1.00  0.00     0.036 A 
ATOM     17  C   UNL     1       4.206  -1.740  -3.006  1.00  0.00     0.085 A 
ATOM     18  C   UNL     1       4.510  -3.211  -1.120  1.00  0.00     0.085 A 
ATOM     19  Cl  UNL     1       4.595  -1.159  -4.587  1.00  0.00    -0.080 Cl
ATOM     20  Cl  UNL     1       5.218  -4.605  -0.372  1.00  0.00    -0.080 Cl
BRANCH  14  21
ATOM     21  C   UNL     1       2.478  -0.271  -0.000  1.00  0.00     0.260 C 
ATOM     22  O   UNL     1       1.612  -0.734   0.731  1.00  0.00    -0.298 OA
ENDBRANCH  14  21
ENDBRANCH  12  13
ENDBRANCH  11  12
ENDBRANCH   6  11
ENDBRANCH   3   5
ENDBRANCH   2   3
ENDBRANCH   1   2
BRANCH   1  23
ATOM     23  C   UNL     1      -3.250  -7.048  -3.573  1.00  0.00     0.275 C 
BRANCH  23  24
ATOM     24  O   UNL     1      -3.215  -5.610  -3.633  1.00  0.00    -0.458 OA
BRANCH  24  25
ATOM     25  C   UNL     1      -2.641  -5.000  -2.569  1.00  0.00     0.338 C 
ATOM     26  O   UNL     1      -2.167  -5.534  -1.580  1.00  0.00    -0.246 OA
BRANCH  25  27
ATOM     27  C   UNL     1      -2.632  -3.541  -2.760  1.00  0.00     0.060 A 
ATOM     28  C   UNL     1      -1.739  -2.986  -3.671  1.00  0.00     0.016 A 
ATOM     29  C   UNL     1      -3.382  -2.714  -1.926  1.00  0.00     0.016 A 
ATOM     30  C   UNL     1      -1.515  -1.609  -3.684  1.00  0.00     0.010 A 
ATOM     31  C   UNL     1      -3.226  -1.323  -2.010  1.00  0.00     0.010 A 
ATOM     32  C   UNL     1      -2.255  -0.751  -2.854  1.00  0.00    -0.014 A 
BRANCH  32  33
ATOM     33  C   UNL     1      -1.988   0.722  -2.842  1.00  0.00     0.031 A 
ATOM     34  C   UNL     1      -1.627   1.431  -1.555  1.00  0.00     0.074 A 
ATOM     35  C   UNL     1      -2.069   1.443  -3.980  1.00  0.00     0.049 A 
ATOM     36  N   UNL     1      -1.467   2.713  -1.334  1.00  0.00    -0.248 NA
ATOM     37  C   UNL     1      -1.426   0.595  -0.362  1.00  0.00     0.031 C 
ATOM     38  C   UNL     1      -2.409   0.909  -5.299  1.00  0.00     0.029 A 
ATOM     39  N   UNL     1      -1.883   2.788  -4.209  1.00  0.00    -0.354 N 
ATOM     40  C   UNL     1      -1.214   2.840   0.028  1.00  0.00     0.074 A 
ATOM     41  C   UNL     1      -1.243   1.505   0.585  1.00  0.00     0.031 C 
ATOM     42  C   UNL     1      -2.391   1.903  -6.199  1.00  0.00     0.029 A 
ATOM     43  C   UNL     1      -2.113   3.162  -5.514  1.00  0.00     0.049 A 
ATOM     44  H   UNL     1      -1.611   3.422  -3.507  1.00  0.00     0.167 HD
ATOM     45  C   UNL     1      -0.952   3.956   0.752  1.00  0.00     0.034 A 
ATOM     46  C   UNL     1      -2.140   4.377  -6.098  1.00  0.00     0.034 A 
ATOM     47  C   UNL     1      -0.844   5.280   0.198  1.00  0.00     0.049 A 
ATOM     48  C   UNL     1      -1.868   5.603  -5.271  1.00  0.00     0.074 A 
ATOM     49  C   UNL     1      -0.511   6.457   0.847  1.00  0.00     0.029 A 
ATOM     50  N   UNL     1      -1.063   5.605  -1.130  1.00  0.00    -0.354 N 
ATOM     51  N   UNL     1      -1.540   5.686  -4.005  1.00  0.00    -0.248 NA
ATOM     52  C   UNL     1      -1.958   6.901  -5.956  1.00  0.00     0.031 C 
ATOM     53  C   UNL     1      -0.543   7.497  -0.088  1.00  0.00     0.029 A 
ATOM     54  C   UNL     1      -0.882   6.965  -1.321  1.00  0.00     0.049 A 
ATOM     55  H   UNL     1      -1.310   4.964  -1.835  1.00  0.00     0.167 HD
ATOM     56  C   UNL     1      -1.364   7.041  -3.747  1.00  0.00     0.074 A 
ATOM     57  C   UNL     1      -1.596   7.740  -4.994  1.00  0.00     0.031 C 
ATOM     58  C   UNL     1      -1.060   7.651  -2.575  1.00  0.00     0.034 A 
BRANCH  45  59
ATOM     59  C   UNL     1      -0.711   3.793   2.231  1.00  0.00     0.023 A 
ATOM     60  C   UNL     1       0.513   3.257   2.679  1.00  0.00     0.012 A 
ATOM     61  C   UNL     1      -1.663   4.227   3.175  1.00  0.00     0.148 A 
ATOM     62  C   UNL     1       0.776   3.130   4.043  1.00  0.00     0.002 A 
ATOM     63  C   UNL     1      -1.379   4.129   4.534  1.00  0.00     0.091 A 
ATOM     64  F   UNL     1      -2.829   4.718   2.730  1.00  0.00    -0.205 F 
ATOM     65  C   UNL     1      -0.165   3.574   4.968  1.00  0.00     0.022 A 
BRANCH  63  66
ATOM     66  S   UNL     1      -2.498   4.736   5.803  1.00  0.00     0.127 S 
ATOM     67  O   UNL     1      -3.028   3.489   6.352  1.00  0.00    -0.237 OA
ATOM     68  O   UNL     1      -1.591   5.457   6.697  1.00  0.00    -0.237 OA
ATOM     69  O   UNL     1      -3.464   5.580   5.114  1.00  0.00    -0.744 OA
ENDBRANCH  63  66
ENDBRANCH  45  59
BRANCH  46  70
ATOM     70  C   UNL     1      -2.428   4.489  -7.557  1.00  0.00     0.023 A 
ATOM     71  C   UNL     1      -1.407   4.893  -8.438  1.00  0.00     0.012 A 
ATOM     72  C   UNL     1      -3.692   4.153  -8.081  1.00  0.00     0.148 A 
ATOM     73  C   UNL     1      -1.643   4.972  -9.811  1.00  0.00     0.002 A 
ATOM     74  C   UNL     1      -3.902   4.173  -9.454  1.00  0.00     0.091 A 
ATOM     75  F   UNL     1      -4.663   3.801  -7.225  1.00  0.00    -0.205 F 
ATOM     76  C   UNL     1      -2.884   4.597 -10.321  1.00  0.00     0.022 A 
BRANCH  74  77
ATOM     77  S   UNL     1      -5.420   3.560 -10.194  1.00  0.00     0.127 S 
ATOM     78  O   UNL     1      -6.100   4.801 -10.555  1.00  0.00    -0.237 OA
ATOM     79  O   UNL     1      -4.915   2.782 -11.327  1.00  0.00    -0.237 OA
ATOM     80  O   UNL     1      -6.058   2.758  -9.159  1.00  0.00    -0.744 OA
ENDBRANCH  74  77
ENDBRANCH  46  70
BRANCH  58  81
ATOM     81  C   UNL     1      -0.932   9.151  -2.578  1.00  0.00     0.023 A 
ATOM     82  C   UNL     1      -2.092   9.947  -2.642  1.00  0.00     0.012 A 
ATOM     83  C   UNL     1       0.325   9.770  -2.437  1.00  0.00     0.148 A 
ATOM     84  C   UNL     1      -2.001  11.338  -2.590  1.00  0.00     0.002 A 
ATOM     85  C   UNL     1       0.405  11.155  -2.342  1.00  0.00     0.091 A 
ATOM     86  F   UNL     1       1.419   8.995  -2.400  1.00  0.00    -0.205 F 
ATOM     87  C   UNL     1      -0.756  11.941  -2.428  1.00  0.00     0.022 A 
BRANCH  85  88
ATOM     88  S   UNL     1       1.957  12.008  -2.041  1.00  0.00     0.127 S 
ATOM     89  O   UNL     1       2.247  12.575  -3.357  1.00  0.00    -0.237 OA
ATOM     90  O   UNL     1       1.583  12.990  -1.022  1.00  0.00    -0.237 OA
ATOM     91  O   UNL     1       2.889  10.988  -1.579  1.00  0.00    -0.744 OA
ENDBRANCH  85  88
ENDBRANCH  58  81
ENDBRANCH  32  33
ENDBRANCH  25  27
ENDBRANCH  24  25
ENDBRANCH  23  24
ENDBRANCH   1  23
TORSDOF 18
