REMARK SMILES CC(C)[C@H](NC(=O)[C@H](Cc1ccccc1)n1c(=O)[nH]c2ccccc2c1=O)C(=O)OCCOC(=O)c1ccc(-c2c3nc(c(-c4cccc(S(=O)(=O)[O-])c4F)c4ccc([nH]4)c(-c4cccc(S(=O)(=O)[O-])c4F)c4nc(c(-c5cccc(S(=O)(=O)[O-])c5F)c5ccc2[nH]5)C=C4)C=C3)cc1
REMARK SMILES IDX 31 1 30 2 28 3 29 4 4 5 2 6 1 7 3 8 5 9 6 10 7 12 8 13 16 14
REMARK SMILES IDX 17 15 26 16 18 17 19 18 25 19 27 20 20 21 24 23 21 24 23 25
REMARK SMILES IDX 22 26 9 27 10 28 11 29 15 30 12 31 14 32 13 33 32 34 33 35
REMARK SMILES IDX 34 36 35 37 36 38 37 39 98 40 38 41 97 42 39 43 40 44 41 45
REMARK SMILES IDX 91 46 42 47 96 48 90 49 92 50 43 51 95 52 89 53 88 54 44 56
REMARK SMILES IDX 76 57 56 58 75 59 57 60 60 61 74 62 93 63 58 64 59 65 73 67
REMARK SMILES IDX 94 68 61 69 45 70 46 71 54 72 47 73 49 74 55 75 48 76 50 77
REMARK SMILES IDX 51 78 52 79 53 80 77 81 78 82 86 83 79 84 81 85 87 86 80 87
REMARK SMILES IDX 82 88 83 89 84 90 85 91 62 92 63 93 71 94 64 95 66 96 72 97
REMARK SMILES IDX 65 98 67 99 68 100 69 101 70 102
REMARK H PARENT 5 11 19 22 92 55 60 66
REMARK Flexibility Score: inf
ROOT
ATOM      1  C   UNL     1      -5.198  -2.588  -1.114  1.00  0.00     0.274 C 
ENDROOT
BRANCH   1   2
ATOM      2  O   UNL     1      -4.253  -3.675  -1.056  1.00  0.00    -0.461 OA
BRANCH   2   3
ATOM      3  C   UNL     1      -3.006  -3.377  -0.583  1.00  0.00     0.329 C 
ATOM      4  O   UNL     1      -2.671  -2.260  -0.213  1.00  0.00    -0.250 OA
BRANCH   3   5
ATOM      5  C   UNL     1      -2.140  -4.657  -0.414  1.00  0.00     0.194 C 
BRANCH   5   6
ATOM      6  C   UNL     1      -0.591  -4.533  -0.410  1.00  0.00     0.017 C 
ATOM      7  C   UNL     1       0.021  -3.277   0.217  1.00  0.00     0.010 C 
ATOM      8  C   UNL     1       0.075  -5.760   0.234  1.00  0.00     0.010 C 
ENDBRANCH   5   6
BRANCH   5   9
ATOM      9  N   UNL     1      -2.624  -5.800  -1.204  1.00  0.00    -0.341 N 
ATOM     10  C   UNL     1      -2.792  -6.039  -2.531  1.00  0.00     0.244 C 
ATOM     11  H   UNL     1      -2.886  -6.566  -0.644  1.00  0.00     0.164 HD
ATOM     12  O   UNL     1      -3.266  -7.154  -2.795  1.00  0.00    -0.273 OA
BRANCH  10  13
ATOM     13  C   UNL     1      -2.691  -4.948  -3.629  1.00  0.00     0.189 C 
BRANCH  13  14
ATOM     14  N   UNL     1      -1.573  -3.999  -3.496  1.00  0.00    -0.247 N 
ATOM     15  C   UNL     1      -0.285  -4.476  -3.703  1.00  0.00     0.329 A 
ATOM     16  C   UNL     1      -1.872  -2.641  -3.370  1.00  0.00     0.264 A 
ATOM     17  O   UNL     1      -0.009  -5.669  -3.830  1.00  0.00    -0.248 OA
ATOM     18  N   UNL     1       0.726  -3.555  -3.684  1.00  0.00    -0.307 N 
ATOM     19  C   UNL     1      -0.738  -1.729  -3.141  1.00  0.00     0.064 A 
ATOM     20  O   UNL     1      -3.006  -2.173  -3.451  1.00  0.00    -0.268 OA
ATOM     21  C   UNL     1       0.546  -2.215  -3.349  1.00  0.00     0.055 A 
ATOM     22  H   UNL     1       1.633  -3.856  -3.922  1.00  0.00     0.171 HD
ATOM     23  C   UNL     1      -0.936  -0.423  -2.685  1.00  0.00     0.016 A 
ATOM     24  C   UNL     1       1.649  -1.387  -3.152  1.00  0.00     0.027 A 
ATOM     25  C   UNL     1       0.168   0.397  -2.449  1.00  0.00     0.001 A 
ATOM     26  C   UNL     1       1.457  -0.080  -2.694  1.00  0.00     0.002 A 
ENDBRANCH  13  14
BRANCH  13  27
ATOM     27  C   UNL     1      -2.820  -5.601  -5.044  1.00  0.00     0.071 C 
BRANCH  27  28
ATOM     28  C   UNL     1      -2.082  -4.872  -6.146  1.00  0.00    -0.045 A 
ATOM     29  C   UNL     1      -0.922  -5.448  -6.685  1.00  0.00     0.004 A 
ATOM     30  C   UNL     1      -2.416  -3.557  -6.487  1.00  0.00     0.004 A 
ATOM     31  C   UNL     1      -0.047  -4.684  -7.451  1.00  0.00     0.000 A 
ATOM     32  C   UNL     1      -1.536  -2.793  -7.252  1.00  0.00     0.000 A 
ATOM     33  C   UNL     1      -0.343  -3.349  -7.713  1.00  0.00     0.000 A 
ENDBRANCH  27  28
ENDBRANCH  13  27
ENDBRANCH  10  13
ENDBRANCH   5   9
ENDBRANCH   3   5
ENDBRANCH   2   3
ENDBRANCH   1   2
BRANCH   1  34
ATOM     34  C   UNL     1      -6.175  -2.630   0.066  1.00  0.00     0.275 C 
BRANCH  34  35
ATOM     35  O   UNL     1      -5.528  -2.295   1.308  1.00  0.00    -0.458 OA
BRANCH  35  36
ATOM     36  C   UNL     1      -4.995  -3.343   1.972  1.00  0.00     0.338 C 
ATOM     37  O   UNL     1      -5.068  -4.528   1.663  1.00  0.00    -0.246 OA
BRANCH  36  38
ATOM     38  C   UNL     1      -4.105  -2.871   3.037  1.00  0.00     0.060 A 
ATOM     39  C   UNL     1      -2.746  -3.139   2.881  1.00  0.00     0.016 A 
ATOM     40  C   UNL     1      -4.572  -2.287   4.211  1.00  0.00     0.016 A 
ATOM     41  C   UNL     1      -1.842  -2.874   3.888  1.00  0.00     0.010 A 
ATOM     42  C   UNL     1      -3.656  -1.996   5.231  1.00  0.00     0.010 A 
ATOM     43  C   UNL     1      -2.293  -2.312   5.077  1.00  0.00    -0.014 A 
BRANCH  43  44
ATOM     44  C   UNL     1      -1.319  -2.175   6.176  1.00  0.00     0.031 A 
ATOM     45  C   UNL     1      -1.403  -3.114   7.341  1.00  0.00     0.074 A 
ATOM     46  C   UNL     1      -0.314  -1.287   6.066  1.00  0.00     0.049 A 
ATOM     47  N   UNL     1      -0.692  -3.134   8.435  1.00  0.00    -0.248 NA
ATOM     48  C   UNL     1      -2.421  -4.175   7.262  1.00  0.00     0.031 C 
ATOM     49  C   UNL     1      -0.100  -0.392   4.926  1.00  0.00     0.029 A 
ATOM     50  N   UNL     1       0.717  -0.996   6.918  1.00  0.00    -0.354 N 
ATOM     51  C   UNL     1      -1.217  -4.163   9.204  1.00  0.00     0.074 A 
ATOM     52  C   UNL     1      -2.295  -4.758   8.445  1.00  0.00     0.031 C 
ATOM     53  C   UNL     1       0.992   0.355   5.155  1.00  0.00     0.029 A 
ATOM     54  C   UNL     1       1.518   0.030   6.476  1.00  0.00     0.049 A 
ATOM     55  H   UNL     1       0.870  -1.474   7.765  1.00  0.00     0.167 HD
ATOM     56  C   UNL     1      -0.828  -4.573  10.433  1.00  0.00     0.034 A 
ATOM     57  C   UNL     1       2.540   0.656   7.088  1.00  0.00     0.034 A 
ATOM     58  C   UNL     1       0.278  -3.998  11.148  1.00  0.00     0.049 A 
ATOM     59  C   UNL     1       2.942   0.189   8.460  1.00  0.00     0.074 A 
ATOM     60  C   UNL     1       0.761  -4.327  12.401  1.00  0.00     0.029 A 
ATOM     61  N   UNL     1       1.080  -2.974  10.664  1.00  0.00    -0.354 N 
ATOM     62  N   UNL     1       2.451  -0.798   9.171  1.00  0.00    -0.248 NA
ATOM     63  C   UNL     1       4.050   0.904   9.105  1.00  0.00     0.031 C 
ATOM     64  C   UNL     1       1.851  -3.494  12.678  1.00  0.00     0.029 A 
ATOM     65  C   UNL     1       2.059  -2.660  11.590  1.00  0.00     0.049 A 
ATOM     66  H   UNL     1       0.970  -2.536   9.790  1.00  0.00     0.167 HD
ATOM     67  C   UNL     1       3.203  -0.839  10.338  1.00  0.00     0.074 A 
ATOM     68  C   UNL     1       4.203   0.205  10.222  1.00  0.00     0.031 C 
ATOM     69  C   UNL     1       3.070  -1.647  11.419  1.00  0.00     0.034 A 
BRANCH  56  70
ATOM     70  C   UNL     1      -1.611  -5.688  11.071  1.00  0.00     0.023 A 
ATOM     71  C   UNL     1      -1.453  -7.011  10.614  1.00  0.00     0.012 A 
ATOM     72  C   UNL     1      -2.496  -5.424  12.134  1.00  0.00     0.148 A 
ATOM     73  C   UNL     1      -2.187  -8.051  11.185  1.00  0.00     0.002 A 
ATOM     74  C   UNL     1      -3.194  -6.471  12.725  1.00  0.00     0.091 A 
ATOM     75  F   UNL     1      -2.657  -4.154  12.532  1.00  0.00    -0.205 F 
ATOM     76  C   UNL     1      -3.049  -7.783  12.245  1.00  0.00     0.022 A 
BRANCH  74  77
ATOM     77  S   UNL     1      -4.276  -6.232  14.139  1.00  0.00     0.127 S 
ATOM     78  O   UNL     1      -5.596  -6.386  13.529  1.00  0.00    -0.237 OA
ATOM     79  O   UNL     1      -3.880  -7.330  15.021  1.00  0.00    -0.237 OA
ATOM     80  O   UNL     1      -3.974  -4.904  14.653  1.00  0.00    -0.744 OA
ENDBRANCH  74  77
ENDBRANCH  56  70
BRANCH  57  81
ATOM     81  C   UNL     1       3.251   1.772   6.402  1.00  0.00     0.023 A 
ATOM     82  C   UNL     1       4.588   1.600   5.996  1.00  0.00     0.012 A 
ATOM     83  C   UNL     1       2.598   2.987   6.113  1.00  0.00     0.148 A 
ATOM     84  C   UNL     1       5.268   2.624   5.336  1.00  0.00     0.002 A 
ATOM     85  C   UNL     1       3.262   3.980   5.402  1.00  0.00     0.091 A 
ATOM     86  F   UNL     1       1.333   3.144   6.527  1.00  0.00    -0.205 F 
ATOM     87  C   UNL     1       4.603   3.808   5.027  1.00  0.00     0.022 A 
BRANCH  85  88
ATOM     88  S   UNL     1       2.433   5.471   4.837  1.00  0.00     0.127 S 
ATOM     89  O   UNL     1       2.974   6.477   5.745  1.00  0.00    -0.237 OA
ATOM     90  O   UNL     1       2.900   5.573   3.453  1.00  0.00    -0.237 OA
ATOM     91  O   UNL     1       1.008   5.196   4.965  1.00  0.00    -0.744 OA
ENDBRANCH  85  88
ENDBRANCH  57  81
BRANCH  69  92
ATOM     92  C   UNL     1       4.048  -1.449  12.544  1.00  0.00     0.023 A 
ATOM     93  C   UNL     1       3.926  -0.325  13.385  1.00  0.00     0.012 A 
ATOM     94  C   UNL     1       5.052  -2.402  12.801  1.00  0.00     0.148 A 
ATOM     95  C   UNL     1       4.813  -0.134  14.442  1.00  0.00     0.002 A 
ATOM     96  C   UNL     1       5.903  -2.228  13.885  1.00  0.00     0.091 A 
ATOM     97  F   UNL     1       5.167  -3.453  11.975  1.00  0.00    -0.205 F 
ATOM     98  C   UNL     1       5.793  -1.090  14.699  1.00  0.00     0.022 A 
BRANCH  96  99
ATOM     99  S   UNL     1       7.126  -3.464  14.335  1.00  0.00     0.127 S 
ATOM    100  O   UNL     1       8.345  -2.903  13.754  1.00  0.00    -0.237 OA
ATOM    101  O   UNL     1       7.080  -3.438  15.797  1.00  0.00    -0.237 OA
ATOM    102  O   UNL     1       6.659  -4.711  13.744  1.00  0.00    -0.744 OA
ENDBRANCH  96  99
ENDBRANCH  69  92
ENDBRANCH  43  44
ENDBRANCH  36  38
ENDBRANCH  35  36
ENDBRANCH  34  35
ENDBRANCH   1  34
TORSDOF 20
