REMARK SMILES O=C(C[NH+]1CC[NH+](Cc2cc(Cl)ccc2[N+](=O)[O-])CC1)OCCOC(=O)c1ccc(-c2c3nc(c(-c4cccc(S(=O)(=O)[O-])c4F)c4ccc([nH]4)c(-c4cccc(S(=O)(=O)[O-])c4F)c4nc(c(-c5cccc(S(=O)(=O)[O-])c5F)c5ccc2[nH]5)C=C4)C=C3)cc1
REMARK SMILES IDX 22 1 21 2 2 3 1 4 3 5 4 6 5 7 20 8 6 10 19 11 7 12 8 14 9 15
REMARK SMILES IDX 10 16 15 17 11 18 14 19 12 20 13 21 16 22 17 23 18 24 23 25
REMARK SMILES IDX 24 26 25 27 26 28 27 29 28 30 89 31 29 32 88 33 30 34 31 35
REMARK SMILES IDX 32 36 82 37 33 38 87 39 81 40 83 41 34 42 86 43 80 44 79 45
REMARK SMILES IDX 35 47 67 48 47 49 66 50 48 51 51 52 65 53 84 54 49 55 50 56
REMARK SMILES IDX 64 58 85 59 52 60 36 61 37 62 45 63 38 64 40 65 46 66 39 67
REMARK SMILES IDX 41 68 42 69 43 70 44 71 68 72 69 73 77 74 70 75 72 76 78 77
REMARK SMILES IDX 71 78 73 79 74 80 75 81 76 82 53 83 54 84 62 85 55 86 57 87
REMARK SMILES IDX 63 88 56 89 58 90 59 91 60 92 61 93
REMARK H PARENT 4 9 7 13 83 46 51 57
REMARK Flexibility Score: inf
ROOT
ATOM      1  C   UNL     1       3.063   1.720   0.300  1.00  0.00     0.274 C 
ENDROOT
BRANCH   1   2
ATOM      2  O   UNL     1       2.121   0.673   0.028  1.00  0.00    -0.458 OA
BRANCH   2   3
ATOM      3  C   UNL     1       2.463  -0.104  -1.042  1.00  0.00     0.361 C 
ATOM      4  O   UNL     1       2.687   0.345  -2.158  1.00  0.00    -0.245 OA
BRANCH   3   5
ATOM      5  C   UNL     1       2.650  -1.556  -0.596  1.00  0.00     0.386 C 
BRANCH   5   6
ATOM      6  N   UNL     1       4.011  -2.065  -0.857  1.00  0.00    -0.316 N 
ATOM      7  C   UNL     1       5.090  -1.190  -0.395  1.00  0.00     0.325 C 
ATOM      8  C   UNL     1       4.139  -3.494  -0.536  1.00  0.00     0.325 C 
ATOM      9  H   UNL     1       4.149  -2.023  -1.867  1.00  0.00     0.348 HD
ATOM     10  C   UNL     1       6.198  -1.748   0.515  1.00  0.00     0.324 C 
ATOM     11  C   UNL     1       5.291  -3.952   0.393  1.00  0.00     0.324 C 
ATOM     12  N   UNL     1       6.517  -3.157   0.359  1.00  0.00    -0.322 N 
ATOM     13  H   UNL     1       7.062  -3.439   1.173  1.00  0.00     0.348 HD
BRANCH  12  14
ATOM     14  C   UNL     1       7.521  -3.497  -0.655  1.00  0.00     0.306 C 
BRANCH  14  15
ATOM     15  C   UNL     1       7.088  -3.447  -2.107  1.00  0.00     0.085 A 
ATOM     16  C   UNL     1       7.145  -2.183  -2.739  1.00  0.00     0.037 A 
ATOM     17  C   UNL     1       6.549  -4.519  -2.854  1.00  0.00     0.278 A 
ATOM     18  C   UNL     1       6.556  -1.955  -3.983  1.00  0.00     0.042 A 
ATOM     19  C   UNL     1       5.952  -4.275  -4.112  1.00  0.00     0.088 A 
ATOM     20  Cl  UNL     1       6.573  -0.373  -4.658  1.00  0.00    -0.084 Cl
ATOM     21  C   UNL     1       5.930  -2.991  -4.658  1.00  0.00     0.027 A 
BRANCH  17  22
ATOM     22  N   UNL     1       6.591  -5.931  -2.411  1.00  0.00     0.063 N 
ATOM     23  O   UNL     1       6.008  -6.761  -3.119  1.00  0.00    -0.258 OA
ATOM     24  O   UNL     1       7.249  -6.221  -1.407  1.00  0.00    -0.258 OA
ENDBRANCH  17  22
ENDBRANCH  14  15
ENDBRANCH  12  14
ENDBRANCH   5   6
ENDBRANCH   3   5
ENDBRANCH   2   3
ENDBRANCH   1   2
BRANCH   1  25
ATOM     25  C   UNL     1       3.614   1.595   1.737  1.00  0.00     0.275 C 
BRANCH  25  26
ATOM     26  O   UNL     1       3.460   0.266   2.273  1.00  0.00    -0.458 OA
BRANCH  26  27
ATOM     27  C   UNL     1       2.248   0.051   2.857  1.00  0.00     0.338 C 
ATOM     28  O   UNL     1       1.403   0.895   3.081  1.00  0.00    -0.246 OA
BRANCH  27  29
ATOM     29  C   UNL     1       2.001  -1.403   3.023  1.00  0.00     0.060 A 
ATOM     30  C   UNL     1       0.717  -1.871   2.709  1.00  0.00     0.016 A 
ATOM     31  C   UNL     1       2.980  -2.297   3.467  1.00  0.00     0.016 A 
ATOM     32  C   UNL     1       0.392  -3.216   2.894  1.00  0.00     0.010 A 
ATOM     33  C   UNL     1       2.649  -3.647   3.661  1.00  0.00     0.010 A 
ATOM     34  C   UNL     1       1.341  -4.103   3.419  1.00  0.00    -0.014 A 
BRANCH  34  35
ATOM     35  C   UNL     1       0.879  -5.421   3.926  1.00  0.00     0.031 A 
ATOM     36  C   UNL     1       0.489  -5.526   5.378  1.00  0.00     0.074 A 
ATOM     37  C   UNL     1       0.753  -6.497   3.127  1.00  0.00     0.049 A 
ATOM     38  N   UNL     1      -0.087  -6.513   6.013  1.00  0.00    -0.248 NA
ATOM     39  C   UNL     1       0.788  -4.358   6.224  1.00  0.00     0.031 C 
ATOM     40  C   UNL     1       1.111  -6.555   1.712  1.00  0.00     0.029 A 
ATOM     41  N   UNL     1       0.287  -7.759   3.408  1.00  0.00    -0.354 N 
ATOM     42  C   UNL     1      -0.218  -6.088   7.330  1.00  0.00     0.074 A 
ATOM     43  C   UNL     1       0.368  -4.768   7.411  1.00  0.00     0.031 C 
ATOM     44  C   UNL     1       0.859  -7.794   1.249  1.00  0.00     0.029 A 
ATOM     45  C   UNL     1       0.312  -8.614   2.332  1.00  0.00     0.049 A 
ATOM     46  H   UNL     1      -0.035  -8.027   4.299  1.00  0.00     0.167 HD
ATOM     47  C   UNL     1      -0.802  -6.718   8.376  1.00  0.00     0.034 A 
ATOM     48  C   UNL     1      -0.079  -9.901   2.228  1.00  0.00     0.034 A 
ATOM     49  C   UNL     1      -1.399  -8.021   8.309  1.00  0.00     0.049 A 
ATOM     50  C   UNL     1      -0.713 -10.589   3.414  1.00  0.00     0.074 A 
ATOM     51  C   UNL     1      -2.065  -8.715   9.303  1.00  0.00     0.029 A 
ATOM     52  N   UNL     1      -1.385  -8.837   7.190  1.00  0.00    -0.354 N 
ATOM     53  N   UNL     1      -1.003 -10.104   4.597  1.00  0.00    -0.248 NA
ATOM     54  C   UNL     1      -1.118 -11.993   3.230  1.00  0.00     0.031 C 
ATOM     55  C   UNL     1      -2.440  -9.961   8.788  1.00  0.00     0.029 A 
ATOM     56  C   UNL     1      -2.020 -10.034   7.470  1.00  0.00     0.049 A 
ATOM     57  H   UNL     1      -0.983  -8.600   6.323  1.00  0.00     0.167 HD
ATOM     58  C   UNL     1      -1.670 -11.121   5.276  1.00  0.00     0.074 A 
ATOM     59  C   UNL     1      -1.748 -12.247   4.370  1.00  0.00     0.031 C 
ATOM     60  C   UNL     1      -2.165 -11.123   6.538  1.00  0.00     0.034 A 
BRANCH  47  61
ATOM     61  C   UNL     1      -0.861  -5.968   9.678  1.00  0.00     0.023 A 
ATOM     62  C   UNL     1      -1.779  -4.907   9.820  1.00  0.00     0.012 A 
ATOM     63  C   UNL     1      -0.030  -6.317  10.757  1.00  0.00     0.148 A 
ATOM     64  C   UNL     1      -1.845  -4.182  11.008  1.00  0.00     0.002 A 
ATOM     65  C   UNL     1      -0.127  -5.612  11.952  1.00  0.00     0.091 A 
ATOM     66  F   UNL     1       0.859  -7.306  10.590  1.00  0.00    -0.205 F 
ATOM     67  C   UNL     1      -1.026  -4.540  12.076  1.00  0.00     0.022 A 
BRANCH  65  68
ATOM     68  S   UNL     1       0.846  -6.047  13.397  1.00  0.00     0.127 S 
ATOM     69  O   UNL     1       1.913  -5.049  13.345  1.00  0.00    -0.237 OA
ATOM     70  O   UNL     1      -0.111  -5.860  14.488  1.00  0.00    -0.237 OA
ATOM     71  O   UNL     1       1.260  -7.428  13.190  1.00  0.00    -0.744 OA
ENDBRANCH  65  68
ENDBRANCH  47  61
BRANCH  48  72
ATOM     72  C   UNL     1       0.023 -10.614   0.923  1.00  0.00     0.023 A 
ATOM     73  C   UNL     1      -1.155 -10.916   0.211  1.00  0.00     0.012 A 
ATOM     74  C   UNL     1       1.266 -11.011   0.396  1.00  0.00     0.148 A 
ATOM     75  C   UNL     1      -1.100 -11.627  -0.988  1.00  0.00     0.002 A 
ATOM     76  C   UNL     1       1.317 -11.683  -0.820  1.00  0.00     0.091 A 
ATOM     77  F   UNL     1       2.372 -10.727   1.098  1.00  0.00    -0.205 F 
ATOM     78  C   UNL     1       0.135 -12.005  -1.506  1.00  0.00     0.022 A 
BRANCH  76  79
ATOM     79  S   UNL     1       2.863 -12.135  -1.615  1.00  0.00     0.127 S 
ATOM     80  O   UNL     1       2.830 -13.592  -1.524  1.00  0.00    -0.237 OA
ATOM     81  O   UNL     1       2.672 -11.598  -2.963  1.00  0.00    -0.237 OA
ATOM     82  O   UNL     1       3.908 -11.479  -0.842  1.00  0.00    -0.744 OA
ENDBRANCH  76  79
ENDBRANCH  48  72
BRANCH  60  83
ATOM     83  C   UNL     1      -2.887 -12.356   7.020  1.00  0.00     0.023 A 
ATOM     84  C   UNL     1      -2.157 -13.517   7.337  1.00  0.00     0.012 A 
ATOM     85  C   UNL     1      -4.278 -12.332   7.249  1.00  0.00     0.148 A 
ATOM     86  C   UNL     1      -2.802 -14.643   7.851  1.00  0.00     0.002 A 
ATOM     87  C   UNL     1      -4.907 -13.441   7.804  1.00  0.00     0.091 A 
ATOM     88  F   UNL     1      -4.964 -11.226   6.922  1.00  0.00    -0.205 F 
ATOM     89  C   UNL     1      -4.173 -14.601   8.096  1.00  0.00     0.022 A 
BRANCH  87  90
ATOM     90  S   UNL     1      -6.650 -13.425   8.243  1.00  0.00     0.127 S 
ATOM     91  O   UNL     1      -7.253 -14.117   7.107  1.00  0.00    -0.237 OA
ATOM     92  O   UNL     1      -6.669 -14.181   9.497  1.00  0.00    -0.237 OA
ATOM     93  O   UNL     1      -7.004 -12.019   8.389  1.00  0.00    -0.744 OA
ENDBRANCH  87  90
ENDBRANCH  60  83
ENDBRANCH  34  35
ENDBRANCH  27  29
ENDBRANCH  26  27
ENDBRANCH  25  26
ENDBRANCH   1  25
TORSDOF 18
