REMARK SMILES Cc1ccccc1[C@@H]1[NH2+][C@H](C(=O)OCCOC(=O)c2ccc(-c3c4nc(c(-c5cccc(S(=O)(=O)[O-])c5F)c5ccc([nH]5)c(-c5cccc(S(=O)(=O)[O-])c5F)c5nc(c(-c6cccc(S(=O)(=O)[O-])c6F)c6ccc3[nH]6)C=C5)C=C4)cc2)CC2=c3ccccc3=N[C@H]21
REMARK SMILES IDX 15 1 14 2 13 3 11 4 12 5 10 6 8 7 9 8 91 9 83 12 90 13 82 14
REMARK SMILES IDX 84 15 89 16 85 17 88 18 86 19 87 20 7 21 1 22 2 23 3 24 4 25
REMARK SMILES IDX 6 26 5 27 16 28 17 29 18 30 19 31 20 32 81 33 21 34 80 35
REMARK SMILES IDX 22 36 23 37 24 38 74 39 25 40 79 41 73 42 75 43 26 44 78 45
REMARK SMILES IDX 72 46 71 47 27 49 59 50 39 51 58 52 40 53 43 54 57 55 76 56
REMARK SMILES IDX 41 57 42 58 56 60 77 61 44 62 28 63 29 64 37 65 30 66 32 67
REMARK SMILES IDX 38 68 31 69 33 70 34 71 35 72 36 73 60 74 61 75 69 76 62 77
REMARK SMILES IDX 64 78 70 79 63 80 65 81 66 82 67 83 68 84 45 85 46 86 54 87
REMARK SMILES IDX 47 88 49 89 55 90 48 91 50 92 51 93 52 94 53 95
REMARK H PARENT 9 10 9 11 75 48 43 59
REMARK Flexibility Score: inf
ROOT
ATOM      1  C   UNL     1      -2.110   7.402  -3.260  1.00  0.00     0.275 C 
ENDROOT
BRANCH   1   2
ATOM      2  C   UNL     1      -2.573   7.072  -1.844  1.00  0.00     0.274 C 
BRANCH   2   3
ATOM      3  O   UNL     1      -1.699   6.146  -1.197  1.00  0.00    -0.458 OA
BRANCH   3   4
ATOM      4  C   UNL     1      -2.326   5.462  -0.204  1.00  0.00     0.365 C 
ATOM      5  O   UNL     1      -3.490   5.669   0.136  1.00  0.00    -0.245 OA
BRANCH   4   6
ATOM      6  C   UNL     1      -1.445   4.502   0.564  1.00  0.00     0.298 C 
ATOM      7  C   UNL     1       0.533   3.065   0.790  1.00  0.00     0.243 C 
ATOM      8  N   UNL     1      -0.189   4.044  -0.098  1.00  0.00    -0.326 N 
ATOM      9  C   UNL     1       0.690   3.500   2.304  1.00  0.00     0.196 C 
ATOM     10  H   UNL     1      -0.419   3.592  -0.983  1.00  0.00     0.347 HD
ATOM     11  H   UNL     1       0.414   4.850  -0.269  1.00  0.00     0.347 HD
ATOM     12  C   UNL     1      -0.564   4.185   2.751  1.00  0.00    -0.024 C 
ATOM     13  N   UNL     1       0.795   2.313   3.216  1.00  0.00    -0.270 NA
ATOM     14  C   UNL     1      -1.112   5.233   1.868  1.00  0.00     0.111 C 
ATOM     15  C   UNL     1      -1.202   3.506   3.692  1.00  0.00     0.002 A 
ATOM     16  C   UNL     1      -0.298   2.371   3.918  1.00  0.00     0.066 A 
ATOM     17  C   UNL     1      -2.520   3.561   4.229  1.00  0.00     0.010 A 
ATOM     18  C   UNL     1      -0.763   1.376   4.909  1.00  0.00     0.028 A 
ATOM     19  C   UNL     1      -2.911   2.573   5.047  1.00  0.00     0.001 A 
ATOM     20  C   UNL     1      -2.003   1.497   5.417  1.00  0.00     0.002 A 
BRANCH   7  21
ATOM     21  C   UNL     1       1.901   2.663   0.229  1.00  0.00     0.015 A 
ATOM     22  C   UNL     1       2.745   5.066  -0.136  1.00  0.00     0.045 C 
ATOM     23  C   UNL     1       2.920   3.572  -0.140  1.00  0.00    -0.042 A 
ATOM     24  C   UNL     1       4.198   3.074  -0.465  1.00  0.00     0.004 A 
ATOM     25  C   UNL     1       4.467   1.706  -0.469  1.00  0.00     0.000 A 
ATOM     26  C   UNL     1       2.191   1.281   0.185  1.00  0.00     0.010 A 
ATOM     27  C   UNL     1       3.457   0.807  -0.160  1.00  0.00     0.001 A 
ENDBRANCH   7  21
ENDBRANCH   4   6
ENDBRANCH   3   4
ENDBRANCH   2   3
ENDBRANCH   1   2
BRANCH   1  28
ATOM     28  O   UNL     1      -1.366   6.393  -4.000  1.00  0.00    -0.458 OA
BRANCH  28  29
ATOM     29  C   UNL     1      -1.591   5.063  -4.123  1.00  0.00     0.338 C 
ATOM     30  O   UNL     1      -0.777   4.326  -4.686  1.00  0.00    -0.246 OA
BRANCH  29  31
ATOM     31  C   UNL     1      -2.839   4.511  -3.582  1.00  0.00     0.060 A 
ATOM     32  C   UNL     1      -2.821   3.379  -2.749  1.00  0.00     0.016 A 
ATOM     33  C   UNL     1      -4.037   5.149  -3.882  1.00  0.00     0.016 A 
ATOM     34  C   UNL     1      -3.995   2.953  -2.115  1.00  0.00     0.010 A 
ATOM     35  C   UNL     1      -5.176   4.777  -3.199  1.00  0.00     0.010 A 
ATOM     36  C   UNL     1      -5.172   3.672  -2.321  1.00  0.00    -0.014 A 
BRANCH  36  37
ATOM     37  C   UNL     1      -6.510   3.215  -1.946  1.00  0.00     0.031 A 
ATOM     38  C   UNL     1      -7.166   3.339  -0.624  1.00  0.00     0.074 A 
ATOM     39  C   UNL     1      -7.242   2.839  -3.017  1.00  0.00     0.049 A 
ATOM     40  N   UNL     1      -8.274   2.732  -0.338  1.00  0.00    -0.248 NA
ATOM     41  C   UNL     1      -6.649   4.120   0.489  1.00  0.00     0.031 C 
ATOM     42  C   UNL     1      -8.684   2.833  -3.174  1.00  0.00     0.029 A 
ATOM     43  N   UNL     1      -6.755   2.253  -4.190  1.00  0.00    -0.354 N 
ATOM     44  C   UNL     1      -8.751   3.233   0.856  1.00  0.00     0.074 A 
ATOM     45  C   UNL     1      -7.658   4.028   1.371  1.00  0.00     0.031 C 
ATOM     46  C   UNL     1      -8.988   2.069  -4.234  1.00  0.00     0.029 A 
ATOM     47  C   UNL     1      -7.761   1.407  -4.654  1.00  0.00     0.049 A 
ATOM     48  H   UNL     1      -5.877   2.408  -4.606  1.00  0.00     0.167 HD
ATOM     49  C   UNL     1     -10.062   3.027   1.189  1.00  0.00     0.034 A 
ATOM     50  C   UNL     1      -7.588   0.068  -4.833  1.00  0.00     0.034 A 
ATOM     51  C   UNL     1     -10.745   2.223   0.166  1.00  0.00     0.049 A 
ATOM     52  C   UNL     1      -8.612  -0.747  -4.082  1.00  0.00     0.074 A 
ATOM     53  C   UNL     1     -11.543   2.574  -0.912  1.00  0.00     0.029 A 
ATOM     54  N   UNL     1     -10.483   0.866   0.043  1.00  0.00    -0.354 N 
ATOM     55  N   UNL     1      -9.373  -0.265  -3.142  1.00  0.00    -0.248 NA
ATOM     56  C   UNL     1      -8.851  -2.165  -4.316  1.00  0.00     0.031 C 
ATOM     57  C   UNL     1     -11.718   1.423  -1.720  1.00  0.00     0.029 A 
ATOM     58  C   UNL     1     -11.048   0.369  -1.121  1.00  0.00     0.049 A 
ATOM     59  H   UNL     1      -9.970   0.332   0.691  1.00  0.00     0.167 HD
ATOM     60  C   UNL     1     -10.126  -1.264  -2.589  1.00  0.00     0.074 A 
ATOM     61  C   UNL     1      -9.808  -2.424  -3.406  1.00  0.00     0.031 C 
ATOM     62  C   UNL     1     -10.899  -1.037  -1.482  1.00  0.00     0.034 A 
BRANCH  49  63
ATOM     63  C   UNL     1     -10.868   3.758   2.264  1.00  0.00     0.023 A 
ATOM     64  C   UNL     1     -12.281   3.755   2.122  1.00  0.00     0.012 A 
ATOM     65  C   UNL     1     -10.371   4.481   3.370  1.00  0.00     0.148 A 
ATOM     66  C   UNL     1     -13.136   4.502   2.940  1.00  0.00     0.002 A 
ATOM     67  C   UNL     1     -11.220   5.265   4.167  1.00  0.00     0.091 A 
ATOM     68  F   UNL     1      -9.083   4.372   3.703  1.00  0.00    -0.205 F 
ATOM     69  C   UNL     1     -12.601   5.285   3.947  1.00  0.00     0.022 A 
BRANCH  67  70
ATOM     70  S   UNL     1     -10.616   6.341   5.481  1.00  0.00     0.127 S 
ATOM     71  O   UNL     1     -11.080   7.657   5.034  1.00  0.00    -0.237 OA
ATOM     72  O   UNL     1     -11.307   5.824   6.660  1.00  0.00    -0.237 OA
ATOM     73  O   UNL     1      -9.166   6.190   5.498  1.00  0.00    -0.744 OA
ENDBRANCH  67  70
ENDBRANCH  49  63
BRANCH  50  74
ATOM     74  C   UNL     1      -6.180  -0.353  -5.099  1.00  0.00     0.023 A 
ATOM     75  C   UNL     1      -5.569   0.140  -6.278  1.00  0.00     0.012 A 
ATOM     76  C   UNL     1      -5.361  -0.897  -4.092  1.00  0.00     0.148 A 
ATOM     77  C   UNL     1      -4.180   0.172  -6.414  1.00  0.00     0.002 A 
ATOM     78  C   UNL     1      -3.973  -0.857  -4.236  1.00  0.00     0.091 A 
ATOM     79  F   UNL     1      -5.936  -1.334  -2.964  1.00  0.00    -0.205 F 
ATOM     80  C   UNL     1      -3.382  -0.311  -5.385  1.00  0.00     0.022 A 
BRANCH  78  81
ATOM     81  S   UNL     1      -2.868  -1.415  -2.933  1.00  0.00     0.127 S 
ATOM     82  O   UNL     1      -1.750  -1.978  -3.693  1.00  0.00    -0.237 OA
ATOM     83  O   UNL     1      -2.569  -0.161  -2.242  1.00  0.00    -0.237 OA
ATOM     84  O   UNL     1      -3.636  -2.398  -2.186  1.00  0.00    -0.744 OA
ENDBRANCH  78  81
ENDBRANCH  50  74
BRANCH  62  85
ATOM     85  C   UNL     1     -11.598  -2.094  -0.646  1.00  0.00     0.023 A 
ATOM     86  C   UNL     1     -11.262  -3.459  -0.721  1.00  0.00     0.012 A 
ATOM     87  C   UNL     1     -12.541  -1.733   0.353  1.00  0.00     0.148 A 
ATOM     88  C   UNL     1     -11.865  -4.423   0.096  1.00  0.00     0.002 A 
ATOM     89  C   UNL     1     -13.060  -2.680   1.234  1.00  0.00     0.091 A 
ATOM     90  F   UNL     1     -12.966  -0.465   0.451  1.00  0.00    -0.205 F 
ATOM     91  C   UNL     1     -12.748  -4.032   1.090  1.00  0.00     0.022 A 
BRANCH  89  92
ATOM     92  S   UNL     1     -14.023  -2.175   2.667  1.00  0.00     0.127 S 
ATOM     93  O   UNL     1     -15.386  -2.201   2.143  1.00  0.00    -0.237 OA
ATOM     94  O   UNL     1     -13.726  -3.231   3.638  1.00  0.00    -0.237 OA
ATOM     95  O   UNL     1     -13.492  -0.869   3.030  1.00  0.00    -0.744 OA
ENDBRANCH  89  92
ENDBRANCH  62  85
ENDBRANCH  36  37
ENDBRANCH  29  31
ENDBRANCH  28  29
ENDBRANCH   1  28
TORSDOF 15
