REMARK SMILES Cc1cc2c(=O)c3ccccc3oc2c(C(=O)OCCOC(=O)c2ccc(-c3c4nc(c(-c5cccc(S(=O)(=O)[O-])c5F)c5ccc([nH]5)c(-c5cccc(S(=O)(=O)[O-])c5F)c5nc(c(-c6cccc(S(=O)(=O)[O-])c6F)c6ccc3[nH]6)C=C5)C=C4)cc2)c1C
REMARK SMILES IDX 21 1 20 2 19 3 18 4 16 5 17 6 15 7 1 8 2 9 3 10 87 11 4 12
REMARK SMILES IDX 88 13 5 14 14 15 6 16 7 17 13 18 8 19 12 20 9 21 11 22 10 23
REMARK SMILES IDX 22 24 23 25 24 26 25 27 86 28 26 29 85 30 27 31 28 32 29 33
REMARK SMILES IDX 79 34 30 35 84 36 78 37 80 38 31 39 83 40 77 41 76 42 32 44
REMARK SMILES IDX 64 45 44 46 63 47 45 48 48 49 62 50 81 51 46 52 47 53 61 55
REMARK SMILES IDX 82 56 49 57 33 58 34 59 42 60 35 61 37 62 43 63 36 64 38 65
REMARK SMILES IDX 39 66 40 67 41 68 65 69 66 70 74 71 67 72 69 73 75 74 68 75
REMARK SMILES IDX 70 76 71 77 72 78 73 79 50 80 51 81 59 82 52 83 54 84 60 85
REMARK SMILES IDX 53 86 55 87 56 88 57 89 58 90
REMARK H PARENT 80 43 48 54
REMARK Flexibility Score: inf
ROOT
ATOM      1  O   UNL     1       2.324  -6.540   3.651  1.00  0.00    -0.458 OA
ENDROOT
BRANCH   1   2
ATOM      2  C   UNL     1       2.580  -6.599   2.239  1.00  0.00     0.275 C 
BRANCH   2   3
ATOM      3  C   UNL     1       1.360  -6.100   1.460  1.00  0.00     0.275 C 
BRANCH   3   4
ATOM      4  O   UNL     1       1.225  -4.669   1.590  1.00  0.00    -0.458 OA
BRANCH   4   5
ATOM      5  C   UNL     1       0.034  -4.168   2.013  1.00  0.00     0.342 C 
ATOM      6  O   UNL     1      -0.907  -4.834   2.401  1.00  0.00    -0.246 OA
BRANCH   5   7
ATOM      7  C   UNL     1       0.050  -2.665   1.944  1.00  0.00     0.106 A 
ATOM      8  C   UNL     1       1.313   0.267  -0.237  1.00  0.00     0.044 C 
ATOM      9  C   UNL     1       0.710  -0.550   0.874  1.00  0.00    -0.046 A 
ATOM     10  C   UNL     1       0.169   0.140   1.960  1.00  0.00     0.019 A 
ATOM     11  C   UNL     1       0.689  -1.968   0.870  1.00  0.00    -0.030 A 
ATOM     12  C   UNL     1      -0.455  -0.546   2.998  1.00  0.00     0.067 A 
ATOM     13  C   UNL     1       1.372  -2.709  -0.257  1.00  0.00     0.046 C 
ATOM     14  C   UNL     1      -0.928   0.216   4.162  1.00  0.00     0.200 A 
ATOM     15  C   UNL     1      -0.589  -1.934   2.974  1.00  0.00     0.153 A 
ATOM     16  O   UNL     1      -0.807   1.433   4.220  1.00  0.00    -0.288 OA
ATOM     17  C   UNL     1      -1.538  -0.552   5.245  1.00  0.00     0.065 A 
ATOM     18  O   UNL     1      -1.345  -2.596   3.920  1.00  0.00    -0.455 OA
ATOM     19  C   UNL     1      -1.852   0.054   6.465  1.00  0.00     0.016 A 
ATOM     20  C   UNL     1      -1.808  -1.896   5.013  1.00  0.00     0.138 A 
ATOM     21  C   UNL     1      -2.488  -0.691   7.453  1.00  0.00     0.001 A 
ATOM     22  C   UNL     1      -2.528  -2.609   5.971  1.00  0.00     0.048 A 
ATOM     23  C   UNL     1      -2.858  -2.009   7.192  1.00  0.00     0.004 A 
ENDBRANCH   5   7
ENDBRANCH   4   5
ENDBRANCH   3   4
ENDBRANCH   2   3
ENDBRANCH   1   2
BRANCH   1  24
ATOM     24  C   UNL     1       2.649  -5.362   4.237  1.00  0.00     0.338 C 
ATOM     25  O   UNL     1       3.281  -4.445   3.739  1.00  0.00    -0.246 OA
BRANCH  24  26
ATOM     26  C   UNL     1       1.921  -5.261   5.513  1.00  0.00     0.060 A 
ATOM     27  C   UNL     1       1.948  -6.269   6.483  1.00  0.00     0.016 A 
ATOM     28  C   UNL     1       1.175  -4.104   5.722  1.00  0.00     0.016 A 
ATOM     29  C   UNL     1       1.175  -6.132   7.647  1.00  0.00     0.010 A 
ATOM     30  C   UNL     1       0.418  -3.972   6.880  1.00  0.00     0.010 A 
ATOM     31  C   UNL     1       0.374  -4.995   7.833  1.00  0.00    -0.014 A 
BRANCH  31  32
ATOM     32  C   UNL     1      -0.428  -4.772   9.060  1.00  0.00     0.031 A 
ATOM     33  C   UNL     1      -1.907  -5.045   9.100  1.00  0.00     0.074 A 
ATOM     34  C   UNL     1       0.163  -4.146  10.093  1.00  0.00     0.049 A 
ATOM     35  N   UNL     1      -2.760  -4.810  10.066  1.00  0.00    -0.248 NA
ATOM     36  C   UNL     1      -2.522  -5.598   7.885  1.00  0.00     0.031 C 
ATOM     37  C   UNL     1       1.557  -3.700  10.112  1.00  0.00     0.029 A 
ATOM     38  N   UNL     1      -0.337  -3.749  11.305  1.00  0.00    -0.354 N 
ATOM     39  C   UNL     1      -4.018  -5.127   9.562  1.00  0.00     0.074 A 
ATOM     40  C   UNL     1      -3.814  -5.570   8.197  1.00  0.00     0.031 C 
ATOM     41  C   UNL     1       1.805  -3.103  11.287  1.00  0.00     0.029 A 
ATOM     42  C   UNL     1       0.594  -3.132  12.103  1.00  0.00     0.049 A 
ATOM     43  H   UNL     1      -1.273  -3.892  11.577  1.00  0.00     0.167 HD
ATOM     44  C   UNL     1      -5.221  -5.060  10.186  1.00  0.00     0.034 A 
ATOM     45  C   UNL     1       0.497  -2.673  13.365  1.00  0.00     0.034 A 
ATOM     46  C   UNL     1      -5.387  -4.715  11.577  1.00  0.00     0.049 A 
ATOM     47  C   UNL     1      -0.797  -2.819  14.108  1.00  0.00     0.074 A 
ATOM     48  C   UNL     1      -6.537  -4.792  12.347  1.00  0.00     0.029 A 
ATOM     49  N   UNL     1      -4.383  -4.250  12.410  1.00  0.00    -0.354 N 
ATOM     50  N   UNL     1      -1.945  -3.273  13.670  1.00  0.00    -0.248 NA
ATOM     51  C   UNL     1      -0.802  -2.433  15.526  1.00  0.00     0.031 C 
ATOM     52  C   UNL     1      -6.227  -4.375  13.644  1.00  0.00     0.029 A 
ATOM     53  C   UNL     1      -4.881  -4.054  13.687  1.00  0.00     0.049 A 
ATOM     54  H   UNL     1      -3.453  -4.083  12.135  1.00  0.00     0.167 HD
ATOM     55  C   UNL     1      -2.804  -3.250  14.762  1.00  0.00     0.074 A 
ATOM     56  C   UNL     1      -2.040  -2.750  15.887  1.00  0.00     0.031 C 
ATOM     57  C   UNL     1      -4.111  -3.601  14.816  1.00  0.00     0.034 A 
BRANCH  44  58
ATOM     58  C   UNL     1      -6.465  -5.468   9.432  1.00  0.00     0.023 A 
ATOM     59  C   UNL     1      -6.671  -6.831   9.140  1.00  0.00     0.012 A 
ATOM     60  C   UNL     1      -7.503  -4.545   9.172  1.00  0.00     0.148 A 
ATOM     61  C   UNL     1      -7.875  -7.269   8.589  1.00  0.00     0.002 A 
ATOM     62  C   UNL     1      -8.716  -4.996   8.659  1.00  0.00     0.091 A 
ATOM     63  F   UNL     1      -7.294  -3.252   9.459  1.00  0.00    -0.205 F 
ATOM     64  C   UNL     1      -8.900  -6.356   8.362  1.00  0.00     0.022 A 
BRANCH  62  65
ATOM     65  S   UNL     1     -10.139  -3.924   8.407  1.00  0.00     0.127 S 
ATOM     66  O   UNL     1     -10.289  -3.971   6.953  1.00  0.00    -0.237 OA
ATOM     67  O   UNL     1     -11.186  -4.624   9.150  1.00  0.00    -0.237 OA
ATOM     68  O   UNL     1      -9.767  -2.624   8.949  1.00  0.00    -0.744 OA
ENDBRANCH  62  65
ENDBRANCH  44  58
BRANCH  45  69
ATOM     69  C   UNL     1       1.731  -2.193  14.035  1.00  0.00     0.023 A 
ATOM     70  C   UNL     1       2.421  -3.083  14.882  1.00  0.00     0.012 A 
ATOM     71  C   UNL     1       2.285  -0.933  13.749  1.00  0.00     0.148 A 
ATOM     72  C   UNL     1       3.647  -2.724  15.438  1.00  0.00     0.002 A 
ATOM     73  C   UNL     1       3.523  -0.594  14.280  1.00  0.00     0.091 A 
ATOM     74  F   UNL     1       1.611  -0.117  12.926  1.00  0.00    -0.205 F 
ATOM     75  C   UNL     1       4.202  -1.485  15.130  1.00  0.00     0.022 A 
BRANCH  73  76
ATOM     76  S   UNL     1       4.372   0.934  13.870  1.00  0.00     0.127 S 
ATOM     77  O   UNL     1       4.460   1.584  15.175  1.00  0.00    -0.237 OA
ATOM     78  O   UNL     1       5.643   0.435  13.343  1.00  0.00    -0.237 OA
ATOM     79  O   UNL     1       3.529   1.607  12.893  1.00  0.00    -0.744 OA
ENDBRANCH  73  76
ENDBRANCH  45  69
BRANCH  57  80
ATOM     80  C   UNL     1      -4.826  -3.482  16.134  1.00  0.00     0.023 A 
ATOM     81  C   UNL     1      -5.256  -2.217  16.578  1.00  0.00     0.012 A 
ATOM     82  C   UNL     1      -5.180  -4.634  16.865  1.00  0.00     0.148 A 
ATOM     83  C   UNL     1      -6.025  -2.098  17.735  1.00  0.00     0.002 A 
ATOM     84  C   UNL     1      -5.971  -4.511  18.001  1.00  0.00     0.091 A 
ATOM     85  F   UNL     1      -4.754  -5.826  16.423  1.00  0.00    -0.205 F 
ATOM     86  C   UNL     1      -6.391  -3.244  18.439  1.00  0.00     0.022 A 
BRANCH  84  87
ATOM     87  S   UNL     1      -6.546  -5.927  18.945  1.00  0.00     0.127 S 
ATOM     88  O   UNL     1      -5.883  -5.717  20.231  1.00  0.00    -0.237 OA
ATOM     89  O   UNL     1      -7.994  -5.718  18.963  1.00  0.00    -0.237 OA
ATOM     90  O   UNL     1      -6.108  -7.108  18.213  1.00  0.00    -0.744 OA
ENDBRANCH  84  87
ENDBRANCH  57  80
ENDBRANCH  31  32
ENDBRANCH  24  26
ENDBRANCH   1  24
TORSDOF 14
