REMARK SMILES CC1=NN(c2ccc(Cl)c(C(=O)OCCOC(=O)c3ccc(-c4c5nc(c(-c6cccc(S(=O)(=O)[O-])c6F)c6ccc([nH]6)c(-c6cccc(S(=O)(=O)[O-])c6F)c6nc(c(-c7cccc(S(=O)(=O)[O-])c7F)c7ccc4[nH]7)C=C6)C=C5)cc3)c2)C(=O)/C1=C\c1ccccc1Cl
REMARK SMILES IDX 15 1 14 2 13 3 11 4 12 5 10 6 5 7 6 8 82 9 7 10 8 11 9 12
REMARK SMILES IDX 4 13 1 14 2 15 3 16 85 17 83 18 86 19 84 20 87 21 88 22
REMARK SMILES IDX 92 23 89 24 91 25 93 26 90 27 16 28 17 29 18 30 19 31 20 32
REMARK SMILES IDX 81 33 21 34 80 35 22 36 23 37 24 38 74 39 25 40 79 41 73 42
REMARK SMILES IDX 75 43 26 44 78 45 72 46 71 47 27 49 59 50 39 51 58 52 40 53
REMARK SMILES IDX 43 54 57 55 76 56 41 57 42 58 56 60 77 61 44 62 28 63 29 64
REMARK SMILES IDX 37 65 30 66 32 67 38 68 31 69 33 70 34 71 35 72 36 73 60 74
REMARK SMILES IDX 61 75 69 76 62 77 64 78 70 79 63 80 65 81 66 82 67 83 68 84
REMARK SMILES IDX 45 85 46 86 54 87 47 88 49 89 55 90 48 91 50 92 51 93 52 94
REMARK SMILES IDX 53 95
REMARK H PARENT 75 48 43 59
REMARK Flexibility Score: inf
ROOT
ATOM      1  C   UNL     1       0.674   8.134   3.303  1.00  0.00     0.275 C 
ENDROOT
BRANCH   1   2
ATOM      2  C   UNL     1       2.075   7.633   2.964  1.00  0.00     0.275 C 
BRANCH   2   3
ATOM      3  O   UNL     1       2.060   6.837   1.761  1.00  0.00    -0.458 OA
BRANCH   3   4
ATOM      4  C   UNL     1       2.282   5.514   1.934  1.00  0.00     0.339 C 
ATOM      5  O   UNL     1       2.435   4.933   2.997  1.00  0.00    -0.246 OA
BRANCH   4   6
ATOM      6  C   UNL     1       2.271   4.784   0.652  1.00  0.00     0.080 A 
ATOM      7  C   UNL     1       1.579   2.738  -0.483  1.00  0.00     0.070 A 
ATOM      8  C   UNL     1       2.504   3.004  -1.492  1.00  0.00     0.030 A 
ATOM      9  C   UNL     1       1.458   3.641   0.574  1.00  0.00     0.045 A 
ATOM     10  C   UNL     1       3.268   4.177  -1.459  1.00  0.00     0.023 A 
ATOM     11  C   UNL     1       3.169   5.062  -0.379  1.00  0.00     0.055 A 
ATOM     12  Cl  UNL     1       4.252   6.408  -0.351  1.00  0.00    -0.083 Cl
BRANCH   7  13
ATOM     13  N   UNL     1       0.857   1.534  -0.441  1.00  0.00    -0.196 N 
ATOM     14  C   UNL     1      -2.239  -0.177   0.273  1.00  0.00     0.069 C 
ATOM     15  C   UNL     1      -0.848   0.285  -0.014  1.00  0.00     0.071 C 
ATOM     16  N   UNL     1      -0.472   1.541  -0.027  1.00  0.00    -0.169 NA
ATOM     17  C   UNL     1       0.275  -0.625  -0.297  1.00  0.00     0.065 C 
ATOM     18  C   UNL     1       1.389   0.267  -0.708  1.00  0.00     0.280 C 
ATOM     19  C   UNL     1       0.317  -1.935  -0.019  1.00  0.00     0.025 C 
ATOM     20  O   UNL     1       2.483  -0.056  -1.123  1.00  0.00    -0.267 OA
BRANCH  19  21
ATOM     21  C   UNL     1       1.590  -2.667   0.037  1.00  0.00    -0.006 A 
ATOM     22  C   UNL     1       1.978  -3.454  -1.053  1.00  0.00     0.009 A 
ATOM     23  C   UNL     1       2.465  -2.544   1.136  1.00  0.00     0.048 A 
ATOM     24  C   UNL     1       3.226  -4.085  -1.058  1.00  0.00     0.001 A 
ATOM     25  C   UNL     1       3.711  -3.174   1.125  1.00  0.00     0.021 A 
ATOM     26  Cl  UNL     1       2.055  -1.604   2.531  1.00  0.00    -0.084 Cl
ATOM     27  C   UNL     1       4.093  -3.939   0.025  1.00  0.00     0.002 A 
ENDBRANCH  19  21
ENDBRANCH   7  13
ENDBRANCH   4   6
ENDBRANCH   3   4
ENDBRANCH   2   3
ENDBRANCH   1   2
BRANCH   1  28
ATOM     28  O   UNL     1      -0.163   7.025   3.673  1.00  0.00    -0.458 OA
BRANCH  28  29
ATOM     29  C   UNL     1      -1.087   6.669   2.753  1.00  0.00     0.338 C 
ATOM     30  O   UNL     1      -1.333   7.222   1.694  1.00  0.00    -0.246 OA
BRANCH  29  31
ATOM     31  C   UNL     1      -1.760   5.435   3.179  1.00  0.00     0.060 A 
ATOM     32  C   UNL     1      -1.041   4.245   3.175  1.00  0.00     0.016 A 
ATOM     33  C   UNL     1      -3.133   5.422   3.408  1.00  0.00     0.016 A 
ATOM     34  C   UNL     1      -1.710   3.025   3.239  1.00  0.00     0.010 A 
ATOM     35  C   UNL     1      -3.781   4.200   3.616  1.00  0.00     0.010 A 
ATOM     36  C   UNL     1      -3.092   2.980   3.474  1.00  0.00    -0.014 A 
BRANCH  36  37
ATOM     37  C   UNL     1      -3.820   1.677   3.541  1.00  0.00     0.031 A 
ATOM     38  C   UNL     1      -5.031   1.437   2.670  1.00  0.00     0.074 A 
ATOM     39  C   UNL     1      -3.419   0.707   4.391  1.00  0.00     0.049 A 
ATOM     40  N   UNL     1      -5.911   0.469   2.724  1.00  0.00    -0.248 NA
ATOM     41  C   UNL     1      -5.297   2.421   1.607  1.00  0.00     0.031 C 
ATOM     42  C   UNL     1      -2.261   0.783   5.283  1.00  0.00     0.029 A 
ATOM     43  N   UNL     1      -3.956  -0.531   4.658  1.00  0.00    -0.354 N 
ATOM     44  C   UNL     1      -6.880   0.778   1.775  1.00  0.00     0.074 A 
ATOM     45  C   UNL     1      -6.470   2.012   1.141  1.00  0.00     0.031 C 
ATOM     46  C   UNL     1      -2.161  -0.357   5.981  1.00  0.00     0.029 A 
ATOM     47  C   UNL     1      -3.297  -1.210   5.658  1.00  0.00     0.049 A 
ATOM     48  H   UNL     1      -4.735  -0.896   4.180  1.00  0.00     0.167 HD
ATOM     49  C   UNL     1      -8.005   0.093   1.452  1.00  0.00     0.034 A 
ATOM     50  C   UNL     1      -3.594  -2.364   6.289  1.00  0.00     0.034 A 
ATOM     51  C   UNL     1      -8.368  -1.178   2.020  1.00  0.00     0.049 A 
ATOM     52  C   UNL     1      -4.835  -3.113   5.897  1.00  0.00     0.074 A 
ATOM     53  C   UNL     1      -9.461  -1.972   1.720  1.00  0.00     0.029 A 
ATOM     54  N   UNL     1      -7.641  -1.850   2.989  1.00  0.00    -0.354 N 
ATOM     55  N   UNL     1      -5.714  -2.825   4.969  1.00  0.00    -0.248 NA
ATOM     56  C   UNL     1      -5.121  -4.354   6.633  1.00  0.00     0.031 C 
ATOM     57  C   UNL     1      -9.397  -3.124   2.512  1.00  0.00     0.029 A 
ATOM     58  C   UNL     1      -8.255  -3.053   3.292  1.00  0.00     0.049 A 
ATOM     59  H   UNL     1      -6.810  -1.520   3.401  1.00  0.00     0.167 HD
ATOM     60  C   UNL     1      -6.643  -3.858   4.993  1.00  0.00     0.074 A 
ATOM     61  C   UNL     1      -6.204  -4.794   6.006  1.00  0.00     0.031 C 
ATOM     62  C   UNL     1      -7.772  -4.006   4.258  1.00  0.00     0.034 A 
BRANCH  49  63
ATOM     63  C   UNL     1      -8.919   0.683   0.408  1.00  0.00     0.023 A 
ATOM     64  C   UNL     1      -8.548   0.644  -0.951  1.00  0.00     0.012 A 
ATOM     65  C   UNL     1     -10.180   1.204   0.764  1.00  0.00     0.148 A 
ATOM     66  C   UNL     1      -9.404   1.139  -1.935  1.00  0.00     0.002 A 
ATOM     67  C   UNL     1     -11.045   1.657  -0.226  1.00  0.00     0.091 A 
ATOM     68  F   UNL     1     -10.509   1.249   2.063  1.00  0.00    -0.205 F 
ATOM     69  C   UNL     1     -10.654   1.634  -1.575  1.00  0.00     0.022 A 
BRANCH  67  70
ATOM     70  S   UNL     1     -12.708   2.237   0.129  1.00  0.00     0.127 S 
ATOM     71  O   UNL     1     -12.577   3.674  -0.109  1.00  0.00    -0.237 OA
ATOM     72  O   UNL     1     -13.504   1.524  -0.872  1.00  0.00    -0.237 OA
ATOM     73  O   UNL     1     -12.982   1.853   1.506  1.00  0.00    -0.744 OA
ENDBRANCH  67  70
ENDBRANCH  49  63
BRANCH  50  74
ATOM     74  C   UNL     1      -2.690  -2.885   7.354  1.00  0.00     0.023 A 
ATOM     75  C   UNL     1      -1.949  -4.059   7.119  1.00  0.00     0.012 A 
ATOM     76  C   UNL     1      -2.534  -2.211   8.582  1.00  0.00     0.148 A 
ATOM     77  C   UNL     1      -1.088  -4.564   8.094  1.00  0.00     0.002 A 
ATOM     78  C   UNL     1      -1.628  -2.685   9.524  1.00  0.00     0.091 A 
ATOM     79  F   UNL     1      -3.267  -1.110   8.802  1.00  0.00    -0.205 F 
ATOM     80  C   UNL     1      -0.916  -3.870   9.289  1.00  0.00     0.022 A 
BRANCH  78  81
ATOM     81  S   UNL     1      -1.247  -1.769  11.021  1.00  0.00     0.127 S 
ATOM     82  O   UNL     1      -2.002  -2.510  12.027  1.00  0.00    -0.237 OA
ATOM     83  O   UNL     1       0.207  -1.916  11.110  1.00  0.00    -0.237 OA
ATOM     84  O   UNL     1      -1.692  -0.406  10.762  1.00  0.00    -0.744 OA
ENDBRANCH  78  81
ENDBRANCH  50  74
BRANCH  62  85
ATOM     85  C   UNL     1      -8.592  -5.247   4.486  1.00  0.00     0.023 A 
ATOM     86  C   UNL     1      -9.377  -5.362   5.650  1.00  0.00     0.012 A 
ATOM     87  C   UNL     1      -8.632  -6.268   3.518  1.00  0.00     0.148 A 
ATOM     88  C   UNL     1     -10.168  -6.491   5.860  1.00  0.00     0.002 A 
ATOM     89  C   UNL     1      -9.458  -7.369   3.713  1.00  0.00     0.091 A 
ATOM     90  F   UNL     1      -7.860  -6.149   2.428  1.00  0.00    -0.205 F 
ATOM     91  C   UNL     1     -10.218  -7.487   4.888  1.00  0.00     0.022 A 
BRANCH  89  92
ATOM     92  S   UNL     1      -9.649  -8.654   2.472  1.00  0.00     0.127 S 
ATOM     93  O   UNL     1      -8.870  -9.747   3.053  1.00  0.00    -0.237 OA
ATOM     94  O   UNL     1     -11.096  -8.872   2.468  1.00  0.00    -0.237 OA
ATOM     95  O   UNL     1      -9.120  -8.095   1.235  1.00  0.00    -0.744 OA
ENDBRANCH  89  92
ENDBRANCH  62  85
ENDBRANCH  36  37
ENDBRANCH  29  31
ENDBRANCH  28  29
ENDBRANCH   1  28
TORSDOF 16
