REMARK SMILES COc1ccc(/C=C2/C(=O)N(c3ccccc3)C(=O)N=C2OCCOC(=O)c2ccc(-c3c4nc(c(-c5cccc(S(=O)(=O)[O-])c5F)c5ccc([nH]5)c(-c5cccc(S(=O)(=O)[O-])c5F)c5nc(c(-c6cccc(S(=O)(=O)[O-])c6F)c6ccc3[nH]6)C=C5)C=C4)cc2)cc1C(=O)[O-]
REMARK SMILES IDX 24 1 23 2 22 3 21 4 7 5 8 6 9 7 10 8 11 9 20 10 18 11 19 12
REMARK SMILES IDX 6 13 3 14 4 15 92 16 5 17 91 18 2 19 1 20 93 21 94 22 95 23
REMARK SMILES IDX 12 24 13 25 17 26 14 27 16 28 15 29 25 30 26 31 27 32 28 33
REMARK SMILES IDX 29 34 90 35 30 36 89 37 31 38 32 39 33 40 83 41 34 42 88 43
REMARK SMILES IDX 82 44 84 45 35 46 87 47 81 48 80 49 36 51 68 52 48 53 67 54
REMARK SMILES IDX 49 55 52 56 66 57 85 58 50 59 51 60 65 62 86 63 53 64 37 65
REMARK SMILES IDX 38 66 46 67 39 68 41 69 47 70 40 71 42 72 43 73 44 74 45 75
REMARK SMILES IDX 69 76 70 77 78 78 71 79 73 80 79 81 72 82 74 83 75 84 76 85
REMARK SMILES IDX 77 86 54 87 55 88 63 89 56 90 58 91 64 92 57 93 59 94 60 95
REMARK SMILES IDX 61 96 62 97
REMARK H PARENT 84 50 52 61
REMARK Flexibility Score: inf
ROOT
ATOM      1  C   UNL     1      -3.371  -5.779  -1.096  1.00  0.00     0.274 C 
ENDROOT
BRANCH   1   2
ATOM      2  C   UNL     1      -2.337  -6.136  -0.023  1.00  0.00     0.273 C 
BRANCH   2   3
ATOM      3  O   UNL     1      -0.999  -6.099  -0.579  1.00  0.00    -0.473 OA
BRANCH   3   4
ATOM      4  C   UNL     1      -0.155  -7.141  -0.412  1.00  0.00     0.231 C 
ATOM      5  C   UNL     1       1.968  -5.826  -0.904  1.00  0.00     0.027 C 
ATOM      6  C   UNL     1       1.172  -6.912  -0.984  1.00  0.00     0.103 C 
ATOM      7  C   UNL     1       1.728  -8.130  -1.647  1.00  0.00     0.272 C 
ATOM      8  O   UNL     1       2.635  -8.029  -2.471  1.00  0.00    -0.268 OA
ATOM      9  N   UNL     1       1.173  -9.319  -1.181  1.00  0.00    -0.226 N 
ATOM     10  N   UNL     1      -0.509  -8.269   0.092  1.00  0.00    -0.156 NA
ATOM     11  C   UNL     1       0.415  -9.294  -0.002  1.00  0.00     0.358 C 
ATOM     12  O   UNL     1       0.516 -10.112   0.904  1.00  0.00    -0.245 OA
BRANCH   5  13
ATOM     13  C   UNL     1       1.797  -4.499  -0.276  1.00  0.00    -0.024 A 
ATOM     14  C   UNL     1       1.506  -1.850   0.660  1.00  0.00     0.127 A 
ATOM     15  C   UNL     1       0.633  -2.849   1.082  1.00  0.00     0.048 A 
ATOM     16  C   UNL     1       2.624  -2.196  -0.101  1.00  0.00     0.040 A 
ATOM     17  C   UNL     1       0.807  -4.168   0.651  1.00  0.00     0.012 A 
ATOM     18  C   UNL     1       2.734  -3.504  -0.604  1.00  0.00     0.022 A 
BRANCH  14  19
ATOM     19  O   UNL     1       1.194  -0.576   1.052  1.00  0.00    -0.496 OA
ATOM     20  C   UNL     1       0.831   0.227  -0.076  1.00  0.00     0.278 C 
ENDBRANCH  14  19
BRANCH  16  21
ATOM     21  C   UNL     1       3.745  -1.274  -0.386  1.00  0.00     0.075 C 
ATOM     22  O   UNL     1       4.510  -1.356  -1.332  1.00  0.00    -0.545 OA
ATOM     23  O   UNL     1       3.939  -0.368   0.586  1.00  0.00    -0.545 OA
ENDBRANCH  16  21
ENDBRANCH   5  13
BRANCH   9  24
ATOM     24  C   UNL     1       1.446 -10.552  -1.869  1.00  0.00     0.054 A 
ATOM     25  C   UNL     1       1.439 -10.561  -3.281  1.00  0.00     0.027 A 
ATOM     26  C   UNL     1       1.556 -11.785  -1.214  1.00  0.00     0.027 A 
ATOM     27  C   UNL     1       1.473 -11.760  -4.002  1.00  0.00     0.002 A 
ATOM     28  C   UNL     1       1.633 -12.982  -1.938  1.00  0.00     0.002 A 
ATOM     29  C   UNL     1       1.567 -12.972  -3.328  1.00  0.00     0.000 A 
ENDBRANCH   9  24
ENDBRANCH   3   4
ENDBRANCH   2   3
ENDBRANCH   1   2
BRANCH   1  30
ATOM     30  O   UNL     1      -3.752  -6.969  -1.808  1.00  0.00    -0.458 OA
BRANCH  30  31
ATOM     31  C   UNL     1      -3.086  -7.198  -2.961  1.00  0.00     0.338 C 
ATOM     32  O   UNL     1      -2.342  -6.440  -3.557  1.00  0.00    -0.246 OA
BRANCH  31  33
ATOM     33  C   UNL     1      -3.159  -8.641  -3.223  1.00  0.00     0.060 A 
ATOM     34  C   UNL     1      -2.080  -9.386  -2.762  1.00  0.00     0.016 A 
ATOM     35  C   UNL     1      -4.199  -9.256  -3.914  1.00  0.00     0.016 A 
ATOM     36  C   UNL     1      -2.013 -10.748  -3.002  1.00  0.00     0.010 A 
ATOM     37  C   UNL     1      -4.126 -10.636  -4.163  1.00  0.00     0.010 A 
ATOM     38  C   UNL     1      -3.014 -11.387  -3.733  1.00  0.00    -0.014 A 
BRANCH  38  39
ATOM     39  C   UNL     1      -2.777 -12.789  -4.167  1.00  0.00     0.031 A 
ATOM     40  C   UNL     1      -2.573 -13.070  -5.629  1.00  0.00     0.074 A 
ATOM     41  C   UNL     1      -2.611 -13.784  -3.273  1.00  0.00     0.049 A 
ATOM     42  N   UNL     1      -2.502 -14.217  -6.249  1.00  0.00    -0.248 NA
ATOM     43  C   UNL     1      -2.416 -11.900  -6.509  1.00  0.00     0.031 C 
ATOM     44  C   UNL     1      -2.635 -13.631  -1.819  1.00  0.00     0.029 A 
ATOM     45  N   UNL     1      -2.371 -15.124  -3.462  1.00  0.00    -0.354 N 
ATOM     46  C   UNL     1      -2.385 -13.909  -7.598  1.00  0.00     0.074 A 
ATOM     47  C   UNL     1      -2.351 -12.467  -7.705  1.00  0.00     0.031 C 
ATOM     48  C   UNL     1      -2.403 -14.823  -1.248  1.00  0.00     0.029 A 
ATOM     49  C   UNL     1      -2.309 -15.841  -2.289  1.00  0.00     0.049 A 
ATOM     50  H   UNL     1      -2.255 -15.532  -4.351  1.00  0.00     0.167 HD
ATOM     51  C   UNL     1      -2.320 -14.753  -8.653  1.00  0.00     0.034 A 
ATOM     52  C   UNL     1      -2.242 -17.171  -2.078  1.00  0.00     0.034 A 
ATOM     53  C   UNL     1      -2.288 -16.185  -8.535  1.00  0.00     0.049 A 
ATOM     54  C   UNL     1      -2.222 -18.096  -3.266  1.00  0.00     0.074 A 
ATOM     55  C   UNL     1      -2.265 -17.132  -9.542  1.00  0.00     0.029 A 
ATOM     56  N   UNL     1      -2.255 -16.875  -7.333  1.00  0.00    -0.354 N 
ATOM     57  N   UNL     1      -2.173 -17.800  -4.542  1.00  0.00    -0.248 NA
ATOM     58  C   UNL     1      -2.255 -19.540  -2.986  1.00  0.00     0.031 C 
ATOM     59  C   UNL     1      -2.230 -18.398  -8.948  1.00  0.00     0.029 A 
ATOM     60  C   UNL     1      -2.208 -18.237  -7.572  1.00  0.00     0.049 A 
ATOM     61  H   UNL     1      -2.264 -16.458  -6.442  1.00  0.00     0.167 HD
ATOM     62  C   UNL     1      -2.158 -19.015  -5.217  1.00  0.00     0.074 A 
ATOM     63  C   UNL     1      -2.169 -20.053  -4.207  1.00  0.00     0.031 C 
ATOM     64  C   UNL     1      -2.164 -19.253  -6.552  1.00  0.00     0.034 A 
BRANCH  51  65
ATOM     65  C   UNL     1      -2.312 -14.146 -10.028  1.00  0.00     0.023 A 
ATOM     66  C   UNL     1      -1.141 -13.554 -10.537  1.00  0.00     0.012 A 
ATOM     67  C   UNL     1      -3.471 -14.193 -10.828  1.00  0.00     0.148 A 
ATOM     68  C   UNL     1      -1.132 -12.993 -11.815  1.00  0.00     0.002 A 
ATOM     69  C   UNL     1      -3.443 -13.668 -12.113  1.00  0.00     0.091 A 
ATOM     70  F   UNL     1      -4.583 -14.734 -10.309  1.00  0.00    -0.205 F 
ATOM     71  C   UNL     1      -2.278 -13.059 -12.605  1.00  0.00     0.022 A 
BRANCH  69  72
ATOM     72  S   UNL     1      -4.850 -13.768 -13.225  1.00  0.00     0.127 S 
ATOM     73  O   UNL     1      -5.315 -12.382 -13.237  1.00  0.00    -0.237 OA
ATOM     74  O   UNL     1      -4.228 -14.215 -14.471  1.00  0.00    -0.237 OA
ATOM     75  O   UNL     1      -5.765 -14.731 -12.627  1.00  0.00    -0.744 OA
ENDBRANCH  69  72
ENDBRANCH  51  65
BRANCH  52  76
ATOM     76  C   UNL     1      -2.227 -17.707  -0.685  1.00  0.00     0.023 A 
ATOM     77  C   UNL     1      -1.093 -18.390  -0.206  1.00  0.00     0.012 A 
ATOM     78  C   UNL     1      -3.326 -17.521   0.179  1.00  0.00     0.148 A 
ATOM     79  C   UNL     1      -1.059 -18.886   1.099  1.00  0.00     0.002 A 
ATOM     80  C   UNL     1      -3.257 -17.955   1.497  1.00  0.00     0.091 A 
ATOM     81  F   UNL     1      -4.418 -16.911  -0.303  1.00  0.00    -0.205 F 
ATOM     82  C   UNL     1      -2.132 -18.653   1.955  1.00  0.00     0.022 A 
BRANCH  80  83
ATOM     83  S   UNL     1      -4.535 -17.549   2.693  1.00  0.00     0.127 S 
ATOM     84  O   UNL     1      -5.271 -18.807   2.786  1.00  0.00    -0.237 OA
ATOM     85  O   UNL     1      -3.749 -17.207   3.880  1.00  0.00    -0.237 OA
ATOM     86  O   UNL     1      -5.260 -16.424   2.116  1.00  0.00    -0.744 OA
ENDBRANCH  80  83
ENDBRANCH  52  76
BRANCH  64  87
ATOM     87  C   UNL     1      -2.154 -20.687  -7.006  1.00  0.00     0.023 A 
ATOM     88  C   UNL     1      -3.330 -21.456  -6.911  1.00  0.00     0.012 A 
ATOM     89  C   UNL     1      -1.008 -21.242  -7.609  1.00  0.00     0.148 A 
ATOM     90  C   UNL     1      -3.359 -22.766  -7.387  1.00  0.00     0.002 A 
ATOM     91  C   UNL     1      -1.058 -22.532  -8.122  1.00  0.00     0.091 A 
ATOM     92  F   UNL     1       0.105 -20.498  -7.671  1.00  0.00    -0.205 F 
ATOM     93  C   UNL     1      -2.228 -23.299  -8.003  1.00  0.00     0.022 A 
BRANCH  91  94
ATOM     94  S   UNL     1       0.320 -23.264  -9.013  1.00  0.00     0.127 S 
ATOM     95  O   UNL     1       0.836 -24.217  -8.032  1.00  0.00    -0.237 OA
ATOM     96  O   UNL     1      -0.343 -23.873 -10.166  1.00  0.00    -0.237 OA
ATOM     97  O   UNL     1       1.212 -22.161  -9.344  1.00  0.00    -0.744 OA
ENDBRANCH  91  94
ENDBRANCH  64  87
ENDBRANCH  38  39
ENDBRANCH  31  33
ENDBRANCH  30  31
ENDBRANCH   1  30
TORSDOF 17
