REMARK SMILES Nc1ccc(O)c(C(=O)OCCOC(=O)c2ccc(-c3c4nc(c(-c5cccc(S(=O)(=O)[O-])c5F)c5ccc([nH]5)c(-c5cccc(S(=O)(=O)[O-])c5F)c5nc(c(-c6cccc(S(=O)(=O)[O-])c6F)c6ccc3[nH]6)C=C5)C=C4)cc2)c1
REMARK SMILES IDX 12 1 11 2 10 3 8 4 9 5 7 6 2 7 3 8 79 9 4 10 5 11 1 12 6 15
REMARK SMILES IDX 13 17 14 18 15 19 16 20 17 21 78 22 18 23 77 24 19 25 20 26
REMARK SMILES IDX 21 27 71 28 22 29 76 30 70 31 72 32 23 33 75 34 69 35 68 36
REMARK SMILES IDX 24 38 56 39 36 40 55 41 37 42 40 43 54 44 73 45 38 46 39 47
REMARK SMILES IDX 53 49 74 50 41 51 25 52 26 53 34 54 27 55 29 56 35 57 28 58
REMARK SMILES IDX 30 59 31 60 32 61 33 62 57 63 58 64 66 65 59 66 61 67 67 68
REMARK SMILES IDX 60 69 62 70 63 71 64 72 65 73 42 74 43 75 51 76 44 77 46 78
REMARK SMILES IDX 52 79 45 80 47 81 48 82 49 83 50 84
REMARK H PARENT 1 13 1 14 6 16 72 37 40 48
REMARK Flexibility Score: inf
ROOT
ATOM      1  C   UNL     1       2.199  -4.911  -1.048  1.00  0.00     0.275 C 
ENDROOT
BRANCH   1   2
ATOM      2  C   UNL     1       1.145  -4.620   0.025  1.00  0.00     0.275 C 
BRANCH   2   3
ATOM      3  O   UNL     1       0.384  -3.426  -0.265  1.00  0.00    -0.458 OA
BRANCH   3   4
ATOM      4  C   UNL     1       0.720  -2.330   0.457  1.00  0.00     0.342 C 
ATOM      5  O   UNL     1       1.606  -2.268   1.297  1.00  0.00    -0.246 OA
BRANCH   4   6
ATOM      6  C   UNL     1      -0.149  -1.185   0.122  1.00  0.00     0.103 A 
ATOM      7  C   UNL     1      -2.362  -0.184   0.165  1.00  0.00     0.032 A 
ATOM      8  C   UNL     1      -1.783   1.072  -0.041  1.00  0.00     0.029 A 
ATOM      9  C   UNL     1      -1.533  -1.304   0.301  1.00  0.00     0.045 A 
ATOM     10  C   UNL     1      -0.412   1.195  -0.240  1.00  0.00     0.049 A 
ATOM     11  C   UNL     1       0.390   0.062  -0.202  1.00  0.00     0.130 A 
BRANCH   7  12
ATOM     12  N   UNL     1      -3.729  -0.286   0.382  1.00  0.00    -0.399 N 
ATOM     13  H   UNL     1      -4.303   0.507   0.284  1.00  0.00     0.156 HD
ATOM     14  H   UNL     1      -4.124  -1.152   0.636  1.00  0.00     0.156 HD
ENDBRANCH   7  12
BRANCH  11  15
ATOM     15  O   UNL     1       1.690   0.261  -0.545  1.00  0.00    -0.507 OA
ATOM     16  H   UNL     1       1.993   1.123  -0.753  1.00  0.00     0.293 HD
ENDBRANCH  11  15
ENDBRANCH   4   6
ENDBRANCH   3   4
ENDBRANCH   2   3
ENDBRANCH   1   2
BRANCH   1  17
ATOM     17  O   UNL     1       3.339  -4.040  -0.935  1.00  0.00    -0.458 OA
BRANCH  17  18
ATOM     18  C   UNL     1       3.286  -2.937  -1.712  1.00  0.00     0.338 C 
ATOM     19  O   UNL     1       2.387  -2.606  -2.466  1.00  0.00    -0.246 OA
BRANCH  18  20
ATOM     20  C   UNL     1       4.420  -2.042  -1.451  1.00  0.00     0.060 A 
ATOM     21  C   UNL     1       4.272  -1.129  -0.414  1.00  0.00     0.016 A 
ATOM     22  C   UNL     1       5.442  -1.884  -2.387  1.00  0.00     0.016 A 
ATOM     23  C   UNL     1       5.026   0.037  -0.415  1.00  0.00     0.010 A 
ATOM     24  C   UNL     1       6.302  -0.780  -2.287  1.00  0.00     0.010 A 
ATOM     25  C   UNL     1       6.069   0.227  -1.333  1.00  0.00    -0.014 A 
BRANCH  25  26
ATOM     26  C   UNL     1       6.880   1.482  -1.287  1.00  0.00     0.031 A 
ATOM     27  C   UNL     1       7.058   2.344  -2.515  1.00  0.00     0.074 A 
ATOM     28  C   UNL     1       7.449   1.870  -0.125  1.00  0.00     0.049 A 
ATOM     29  N   UNL     1       7.858   3.365  -2.696  1.00  0.00    -0.248 NA
ATOM     30  C   UNL     1       6.250   2.010  -3.699  1.00  0.00     0.031 C 
ATOM     31  C   UNL     1       7.353   1.148   1.146  1.00  0.00     0.029 A 
ATOM     32  N   UNL     1       8.215   2.968   0.182  1.00  0.00    -0.354 N 
ATOM     33  C   UNL     1       7.717   3.736  -4.029  1.00  0.00     0.074 A 
ATOM     34  C   UNL     1       6.736   2.844  -4.609  1.00  0.00     0.031 C 
ATOM     35  C   UNL     1       7.981   1.843   2.102  1.00  0.00     0.029 A 
ATOM     36  C   UNL     1       8.622   3.003   1.497  1.00  0.00     0.049 A 
ATOM     37  H   UNL     1       8.450   3.664  -0.474  1.00  0.00     0.167 HD
ATOM     38  C   UNL     1       8.342   4.731  -4.704  1.00  0.00     0.034 A 
ATOM     39  C   UNL     1       9.456   3.838   2.145  1.00  0.00     0.034 A 
ATOM     40  C   UNL     1       9.241   5.680  -4.100  1.00  0.00     0.049 A 
ATOM     41  C   UNL     1      10.103   4.955   1.382  1.00  0.00     0.074 A 
ATOM     42  C   UNL     1       9.898   6.743  -4.696  1.00  0.00     0.029 A 
ATOM     43  N   UNL     1       9.588   5.701  -2.758  1.00  0.00    -0.354 N 
ATOM     44  N   UNL     1       9.949   5.290   0.125  1.00  0.00    -0.248 NA
ATOM     45  C   UNL     1      11.038   5.811   2.125  1.00  0.00     0.031 C 
ATOM     46  C   UNL     1      10.644   7.405  -3.715  1.00  0.00     0.029 A 
ATOM     47  C   UNL     1      10.444   6.760  -2.506  1.00  0.00     0.049 A 
ATOM     48  H   UNL     1       9.273   5.057  -2.083  1.00  0.00     0.167 HD
ATOM     49  C   UNL     1      10.762   6.397  -0.075  1.00  0.00     0.074 A 
ATOM     50  C   UNL     1      11.377   6.701   1.202  1.00  0.00     0.031 C 
ATOM     51  C   UNL     1      11.006   7.080  -1.219  1.00  0.00     0.034 A 
BRANCH  38  52
ATOM     52  C   UNL     1       8.062   4.876  -6.179  1.00  0.00     0.023 A 
ATOM     53  C   UNL     1       6.851   5.453  -6.610  1.00  0.00     0.012 A 
ATOM     54  C   UNL     1       9.037   4.523  -7.135  1.00  0.00     0.148 A 
ATOM     55  C   UNL     1       6.606   5.657  -7.968  1.00  0.00     0.002 A 
ATOM     56  C   UNL     1       8.802   4.765  -8.484  1.00  0.00     0.091 A 
ATOM     57  F   UNL     1      10.176   3.958  -6.708  1.00  0.00    -0.205 F 
ATOM     58  C   UNL     1       7.584   5.324  -8.903  1.00  0.00     0.022 A 
BRANCH  56  59
ATOM     59  S   UNL     1      10.031   4.440  -9.755  1.00  0.00     0.127 S 
ATOM     60  O   UNL     1       9.478   3.253 -10.405  1.00  0.00    -0.237 OA
ATOM     61  O   UNL     1       9.973   5.659 -10.563  1.00  0.00    -0.237 OA
ATOM     62  O   UNL     1      11.291   4.241  -9.052  1.00  0.00    -0.744 OA
ENDBRANCH  56  59
ENDBRANCH  38  52
BRANCH  39  63
ATOM     63  C   UNL     1       9.720   3.634   3.598  1.00  0.00     0.023 A 
ATOM     64  C   UNL     1       9.238   4.572   4.530  1.00  0.00     0.012 A 
ATOM     65  C   UNL     1      10.384   2.482   4.066  1.00  0.00     0.148 A 
ATOM     66  C   UNL     1       9.421   4.371   5.899  1.00  0.00     0.002 A 
ATOM     67  C   UNL     1      10.499   2.253   5.432  1.00  0.00     0.091 A 
ATOM     68  F   UNL     1      10.867   1.613   3.167  1.00  0.00    -0.205 F 
ATOM     69  C   UNL     1      10.033   3.204   6.351  1.00  0.00     0.022 A 
BRANCH  67  70
ATOM     70  S   UNL     1      11.116   0.692   6.072  1.00  0.00     0.127 S 
ATOM     71  O   UNL     1      12.511   1.013   6.358  1.00  0.00    -0.237 OA
ATOM     72  O   UNL     1      10.277   0.483   7.253  1.00  0.00    -0.237 OA
ATOM     73  O   UNL     1      10.883  -0.273   5.004  1.00  0.00    -0.744 OA
ENDBRANCH  67  70
ENDBRANCH  39  63
BRANCH  51  74
ATOM     74  C   UNL     1      11.969   8.232  -1.141  1.00  0.00     0.023 A 
ATOM     75  C   UNL     1      13.351   7.972  -1.049  1.00  0.00     0.012 A 
ATOM     76  C   UNL     1      11.516   9.563  -1.210  1.00  0.00     0.148 A 
ATOM     77  C   UNL     1      14.267   9.021  -0.998  1.00  0.00     0.002 A 
ATOM     78  C   UNL     1      12.438  10.603  -1.198  1.00  0.00     0.091 A 
ATOM     79  F   UNL     1      10.196   9.789  -1.272  1.00  0.00    -0.205 F 
ATOM     80  C   UNL     1      13.812  10.335  -1.083  1.00  0.00     0.022 A 
BRANCH  78  81
ATOM     81  S   UNL     1      11.944  12.320  -1.382  1.00  0.00     0.127 S 
ATOM     82  O   UNL     1      12.043  12.809  -0.008  1.00  0.00    -0.237 OA
ATOM     83  O   UNL     1      12.963  12.845  -2.292  1.00  0.00    -0.237 OA
ATOM     84  O   UNL     1      10.599  12.288  -1.943  1.00  0.00    -0.744 OA
ENDBRANCH  78  81
ENDBRANCH  51  74
ENDBRANCH  25  26
ENDBRANCH  18  20
ENDBRANCH  17  18
ENDBRANCH   1  17
TORSDOF 16
