REMARK SMILES CCn1c(C(=O)OCCOC(=O)c2ccc(-c3c4nc(c(-c5cccc(S(=O)(=O)[O-])c5F)c5ccc([nH]5)c(-c5cccc(S(=O)(=O)[O-])c5F)c5nc(c(-c6cccc(S(=O)(=O)[O-])c6F)c6ccc3[nH]6)C=C5)C=C4)cc2)c(CC(=O)Nc2ccccc2OC)c2ccccc21
REMARK SMILES IDX 8 1 7 2 5 3 6 4 4 5 3 6 94 7 76 8 89 9 93 10 90 11 92 12
REMARK SMILES IDX 91 13 2 14 1 15 77 16 78 17 79 18 80 19 81 21 82 22 86 23
REMARK SMILES IDX 83 24 85 25 84 26 87 27 88 28 9 29 10 30 11 31 12 32 13 33
REMARK SMILES IDX 14 34 75 35 15 36 74 37 16 38 17 39 18 40 68 41 19 42 73 43
REMARK SMILES IDX 67 44 69 45 20 46 72 47 66 48 65 49 21 51 53 52 33 53 52 54
REMARK SMILES IDX 34 55 37 56 51 57 70 58 35 59 36 60 50 62 71 63 38 64 22 65
REMARK SMILES IDX 23 66 31 67 24 68 26 69 32 70 25 71 27 72 28 73 29 74 30 75
REMARK SMILES IDX 54 76 55 77 63 78 56 79 58 80 64 81 57 82 59 83 60 84 61 85
REMARK SMILES IDX 62 86 39 87 40 88 48 89 41 90 43 91 49 92 42 93 44 94 45 95
REMARK SMILES IDX 46 96 47 97
REMARK H PARENT 80 20 69 50 37 61
REMARK Flexibility Score: inf
ROOT
ATOM      1  C   UNL     1      -2.907   1.852   0.108  1.00  0.00     0.275 C 
ENDROOT
BRANCH   1   2
ATOM      2  O   UNL     1      -1.666   1.722   0.855  1.00  0.00    -0.457 OA
BRANCH   2   3
ATOM      3  C   UNL     1      -0.747   2.687   0.584  1.00  0.00     0.355 C 
ATOM      4  O   UNL     1      -1.040   3.670  -0.099  1.00  0.00    -0.244 OA
BRANCH   3   5
ATOM      5  C   UNL     1       0.574   2.478   1.167  1.00  0.00     0.132 A 
ATOM      6  N   UNL     1       1.322   1.319   1.303  1.00  0.00    -0.335 N 
ATOM      7  C   UNL     1       2.617   1.615   1.720  1.00  0.00     0.049 A 
ATOM      8  C   UNL     1       1.396   3.489   1.676  1.00  0.00     0.002 A 
ATOM      9  C   UNL     1       2.701   2.994   1.863  1.00  0.00     0.004 A 
ATOM     10  C   UNL     1       3.739   0.810   1.969  1.00  0.00     0.027 A 
ATOM     11  C   UNL     1       3.926   3.611   2.186  1.00  0.00     0.010 A 
ATOM     12  C   UNL     1       4.943   1.439   2.323  1.00  0.00     0.002 A 
ATOM     13  C   UNL     1       5.047   2.821   2.407  1.00  0.00     0.001 A 
BRANCH   6  14
ATOM     14  C   UNL     1       0.855  -0.028   1.038  1.00  0.00     0.119 C 
ATOM     15  C   UNL     1       1.113  -0.467  -0.390  1.00  0.00     0.027 C 
ENDBRANCH   6  14
BRANCH   8  16
ATOM     16  C   UNL     1       0.991   4.878   1.941  1.00  0.00     0.139 C 
BRANCH  16  17
ATOM     17  C   UNL     1       1.298   5.497   3.295  1.00  0.00     0.229 C 
ATOM     18  O   UNL     1       2.174   6.361   3.415  1.00  0.00    -0.274 OA
ATOM     19  N   UNL     1       0.450   5.306   4.361  1.00  0.00    -0.323 N 
ATOM     20  H   UNL     1       0.540   5.955   5.096  1.00  0.00     0.170 HD
BRANCH  19  21
ATOM     21  C   UNL     1      -0.526   4.315   4.544  1.00  0.00     0.083 A 
ATOM     22  C   UNL     1      -0.168   2.993   4.243  1.00  0.00     0.030 A 
ATOM     23  C   UNL     1      -1.799   4.554   5.078  1.00  0.00     0.142 A 
ATOM     24  C   UNL     1      -1.085   1.946   4.275  1.00  0.00     0.002 A 
ATOM     25  C   UNL     1      -2.712   3.480   5.132  1.00  0.00     0.048 A 
ATOM     26  C   UNL     1      -2.376   2.197   4.698  1.00  0.00     0.004 A 
BRANCH  23  27
ATOM     27  O   UNL     1      -2.376   5.710   5.525  1.00  0.00    -0.495 OA
ATOM     28  C   UNL     1      -1.692   6.945   5.457  1.00  0.00     0.278 C 
ENDBRANCH  23  27
ENDBRANCH  19  21
ENDBRANCH  16  17
ENDBRANCH   8  16
ENDBRANCH   3   5
ENDBRANCH   2   3
ENDBRANCH   1   2
BRANCH   1  29
ATOM     29  C   UNL     1      -3.990   2.736   0.759  1.00  0.00     0.275 C 
BRANCH  29  30
ATOM     30  O   UNL     1      -3.884   4.105   0.319  1.00  0.00    -0.458 OA
BRANCH  30  31
ATOM     31  C   UNL     1      -3.418   4.995   1.232  1.00  0.00     0.338 C 
ATOM     32  O   UNL     1      -3.315   4.786   2.428  1.00  0.00    -0.246 OA
BRANCH  31  33
ATOM     33  C   UNL     1      -2.788   6.160   0.547  1.00  0.00     0.060 A 
ATOM     34  C   UNL     1      -2.816   6.271  -0.842  1.00  0.00     0.016 A 
ATOM     35  C   UNL     1      -1.748   6.753   1.244  1.00  0.00     0.016 A 
ATOM     36  C   UNL     1      -1.604   6.435  -1.518  1.00  0.00     0.010 A 
ATOM     37  C   UNL     1      -0.576   7.006   0.548  1.00  0.00     0.010 A 
ATOM     38  C   UNL     1      -0.432   6.571  -0.782  1.00  0.00    -0.014 A 
BRANCH  38  39
ATOM     39  C   UNL     1       0.930   6.409  -1.352  1.00  0.00     0.031 A 
ATOM     40  C   UNL     1       1.726   7.636  -1.131  1.00  0.00     0.074 A 
ATOM     41  C   UNL     1       1.591   5.363  -1.923  1.00  0.00     0.049 A 
ATOM     42  N   UNL     1       1.520   8.726  -1.790  1.00  0.00    -0.248 NA
ATOM     43  C   UNL     1       2.601   7.792   0.039  1.00  0.00     0.031 C 
ATOM     44  C   UNL     1       1.274   3.937  -2.066  1.00  0.00     0.029 A 
ATOM     45  N   UNL     1       2.825   5.414  -2.527  1.00  0.00    -0.354 N 
ATOM     46  C   UNL     1       2.424   9.627  -1.276  1.00  0.00     0.074 A 
ATOM     47  C   UNL     1       2.821   9.110   0.007  1.00  0.00     0.031 C 
ATOM     48  C   UNL     1       2.356   3.243  -2.520  1.00  0.00     0.029 A 
ATOM     49  C   UNL     1       3.377   4.191  -2.918  1.00  0.00     0.049 A 
ATOM     50  H   UNL     1       3.294   6.267  -2.677  1.00  0.00     0.167 HD
ATOM     51  C   UNL     1       2.989  10.576  -2.065  1.00  0.00     0.034 A 
ATOM     52  C   UNL     1       4.529   4.006  -3.623  1.00  0.00     0.034 A 
ATOM     53  C   UNL     1       2.452  10.539  -3.406  1.00  0.00     0.049 A 
ATOM     54  C   UNL     1       4.700   5.249  -4.410  1.00  0.00     0.074 A 
ATOM     55  C   UNL     1       1.196  10.692  -3.963  1.00  0.00     0.029 A 
ATOM     56  N   UNL     1       3.184   9.825  -4.329  1.00  0.00    -0.354 N 
ATOM     57  N   UNL     1       3.885   5.632  -5.351  1.00  0.00    -0.248 NA
ATOM     58  C   UNL     1       5.578   6.270  -3.874  1.00  0.00     0.031 C 
ATOM     59  C   UNL     1       1.104   9.677  -4.965  1.00  0.00     0.029 A 
ATOM     60  C   UNL     1       2.325   9.003  -5.015  1.00  0.00     0.049 A 
ATOM     61  H   UNL     1       4.156   9.893  -4.472  1.00  0.00     0.167 HD
ATOM     62  C   UNL     1       3.812   7.008  -5.191  1.00  0.00     0.074 A 
ATOM     63  C   UNL     1       4.947   7.351  -4.337  1.00  0.00     0.031 C 
ATOM     64  C   UNL     1       2.685   7.697  -5.532  1.00  0.00     0.034 A 
BRANCH  51  65
ATOM     65  C   UNL     1       4.254  11.301  -1.733  1.00  0.00     0.023 A 
ATOM     66  C   UNL     1       4.470  12.535  -2.374  1.00  0.00     0.012 A 
ATOM     67  C   UNL     1       5.314  10.761  -0.971  1.00  0.00     0.148 A 
ATOM     68  C   UNL     1       5.686  13.210  -2.252  1.00  0.00     0.002 A 
ATOM     69  C   UNL     1       6.492  11.471  -0.789  1.00  0.00     0.091 A 
ATOM     70  F   UNL     1       5.236   9.504  -0.519  1.00  0.00    -0.205 F 
ATOM     71  C   UNL     1       6.689  12.689  -1.444  1.00  0.00     0.022 A 
BRANCH  69  72
ATOM     72  S   UNL     1       7.814  10.867   0.266  1.00  0.00     0.127 S 
ATOM     73  O   UNL     1       8.821  10.485  -0.719  1.00  0.00    -0.237 OA
ATOM     74  O   UNL     1       8.136  12.058   1.053  1.00  0.00    -0.237 OA
ATOM     75  O   UNL     1       7.229   9.780   1.039  1.00  0.00    -0.744 OA
ENDBRANCH  69  72
ENDBRANCH  51  65
BRANCH  52  76
ATOM     76  C   UNL     1       5.631   2.997  -3.610  1.00  0.00     0.023 A 
ATOM     77  C   UNL     1       6.576   3.007  -4.669  1.00  0.00     0.012 A 
ATOM     78  C   UNL     1       5.988   2.317  -2.428  1.00  0.00     0.148 A 
ATOM     79  C   UNL     1       7.856   2.454  -4.522  1.00  0.00     0.002 A 
ATOM     80  C   UNL     1       7.265   1.757  -2.291  1.00  0.00     0.091 A 
ATOM     81  F   UNL     1       5.122   2.308  -1.406  1.00  0.00    -0.205 F 
ATOM     82  C   UNL     1       8.208   1.848  -3.324  1.00  0.00     0.022 A 
BRANCH  80  83
ATOM     83  S   UNL     1       7.795   0.929  -0.784  1.00  0.00     0.127 S 
ATOM     84  O   UNL     1       8.670  -0.130  -1.292  1.00  0.00    -0.237 OA
ATOM     85  O   UNL     1       8.488   1.995  -0.068  1.00  0.00    -0.237 OA
ATOM     86  O   UNL     1       6.571   0.425  -0.176  1.00  0.00    -0.744 OA
ENDBRANCH  80  83
ENDBRANCH  52  76
BRANCH  64  87
ATOM     87  C   UNL     1       1.621   6.966  -6.321  1.00  0.00     0.023 A 
ATOM     88  C   UNL     1       0.856   5.912  -5.775  1.00  0.00     0.012 A 
ATOM     89  C   UNL     1       1.268   7.472  -7.582  1.00  0.00     0.148 A 
ATOM     90  C   UNL     1      -0.241   5.384  -6.467  1.00  0.00     0.002 A 
ATOM     91  C   UNL     1       0.159   6.970  -8.252  1.00  0.00     0.091 A 
ATOM     92  F   UNL     1       2.009   8.470  -8.088  1.00  0.00    -0.205 F 
ATOM     93  C   UNL     1      -0.599   5.925  -7.699  1.00  0.00     0.022 A 
BRANCH  91  94
ATOM     94  S   UNL     1      -0.415   7.678  -9.798  1.00  0.00     0.127 S 
ATOM     95  O   UNL     1      -0.205   6.577 -10.736  1.00  0.00    -0.237 OA
ATOM     96  O   UNL     1      -1.819   7.968  -9.501  1.00  0.00    -0.237 OA
ATOM     97  O   UNL     1       0.405   8.859 -10.035  1.00  0.00    -0.744 OA
ENDBRANCH  91  94
ENDBRANCH  64  87
ENDBRANCH  38  39
ENDBRANCH  31  33
ENDBRANCH  30  31
ENDBRANCH  29  30
ENDBRANCH   1  29
TORSDOF 19
