REMARK SMILES C#CCN(CC(=O)OCCOC(=O)c1ccc(-c2c3nc(c(-c4cccc(S(=O)(=O)[O-])c4F)c4ccc([nH]4)c(-c4cccc(S(=O)(=O)[O-])c4F)c4nc(c(-c5cccc(S(=O)(=O)[O-])c5F)c5ccc2[nH]5)C=C4)C=C3)cc1)C(=O)[C@H]1C[NH2+]C[C@H]1C
REMARK SMILES IDX 9 1 8 2 6 3 7 4 5 5 4 6 3 7 2 8 1 9 77 10 78 11 79 12 80 13
REMARK SMILES IDX 83 14 81 15 82 16 84 17 10 20 11 21 12 22 13 23 14 24 15 25
REMARK SMILES IDX 76 26 16 27 75 28 17 29 18 30 19 31 69 32 20 33 74 34 68 35
REMARK SMILES IDX 70 36 21 37 73 38 67 39 66 40 22 42 54 43 34 44 53 45 35 46
REMARK SMILES IDX 38 47 52 48 71 49 36 50 37 51 51 53 72 54 39 55 23 56 24 57
REMARK SMILES IDX 32 58 25 59 27 60 33 61 26 62 28 63 29 64 30 65 31 66 55 67
REMARK SMILES IDX 56 68 64 69 57 70 59 71 65 72 58 73 60 74 61 75 62 76 63 77
REMARK SMILES IDX 40 78 41 79 49 80 42 81 44 82 50 83 43 84 45 85 46 86 47 87
REMARK SMILES IDX 48 88
REMARK H PARENT 81 18 81 19 70 41 38 52
REMARK Flexibility Score: inf
ROOT
ATOM      1  C   UNL     1      -6.572   1.231   1.494  1.00  0.00     0.274 C 
ENDROOT
BRANCH   1   2
ATOM      2  O   UNL     1      -5.153   1.211   1.231  1.00  0.00    -0.461 OA
BRANCH   2   3
ATOM      3  C   UNL     1      -4.765   1.909   0.130  1.00  0.00     0.325 C 
ATOM      4  O   UNL     1      -5.536   2.472  -0.643  1.00  0.00    -0.250 OA
BRANCH   3   5
ATOM      5  C   UNL     1      -3.253   2.083   0.007  1.00  0.00     0.243 C 
BRANCH   5   6
ATOM      6  N   UNL     1      -2.368   1.176   0.738  1.00  0.00    -0.320 N 
BRANCH   6   7
ATOM      7  C   UNL     1      -1.908  -0.017   0.052  1.00  0.00     0.210 C 
BRANCH   7   8
ATOM      8  C   UNL     1      -0.388  -0.017   0.052  1.00  0.00    -0.085 C 
ATOM      9  C   UNL     1       0.916  -0.017   0.052  1.00  0.00     0.006 C 
ENDBRANCH   7   8
ENDBRANCH   6   7
BRANCH   6  10
ATOM     10  C   UNL     1      -1.947   1.309   2.046  1.00  0.00     0.233 C 
ATOM     11  O   UNL     1      -1.728   0.300   2.727  1.00  0.00    -0.274 OA
BRANCH  10  12
ATOM     12  C   UNL     1      -1.722   2.690   2.641  1.00  0.00     0.142 C 
ATOM     13  C   UNL     1      -0.674   2.566   3.752  1.00  0.00     0.274 C 
ATOM     14  C   UNL     1      -1.130   3.832   1.806  1.00  0.00     0.059 C 
ATOM     15  N   UNL     1      -0.194   3.921   4.029  1.00  0.00    -0.345 N 
ATOM     16  C   UNL     1      -0.551   4.751   2.879  1.00  0.00     0.264 C 
ATOM     17  C   UNL     1      -0.072   3.467   0.770  1.00  0.00     0.015 C 
ATOM     18  H   UNL     1       0.818   3.914   4.154  1.00  0.00     0.346 HD
ATOM     19  H   UNL     1      -0.615   4.285   4.884  1.00  0.00     0.346 HD
ENDBRANCH  10  12
ENDBRANCH   6  10
ENDBRANCH   5   6
ENDBRANCH   3   5
ENDBRANCH   2   3
ENDBRANCH   1   2
BRANCH   1  20
ATOM     20  C   UNL     1      -6.921   2.236   2.592  1.00  0.00     0.275 C 
BRANCH  20  21
ATOM     21  O   UNL     1      -6.320   3.515   2.319  1.00  0.00    -0.458 OA
BRANCH  21  22
ATOM     22  C   UNL     1      -5.544   4.007   3.312  1.00  0.00     0.338 C 
ATOM     23  O   UNL     1      -5.333   3.483   4.400  1.00  0.00    -0.246 OA
BRANCH  22  24
ATOM     24  C   UNL     1      -4.917   5.289   2.934  1.00  0.00     0.060 A 
ATOM     25  C   UNL     1      -4.393   5.498   1.659  1.00  0.00     0.016 A 
ATOM     26  C   UNL     1      -4.718   6.248   3.931  1.00  0.00     0.016 A 
ATOM     27  C   UNL     1      -3.561   6.600   1.428  1.00  0.00     0.010 A 
ATOM     28  C   UNL     1      -3.973   7.400   3.661  1.00  0.00     0.010 A 
ATOM     29  C   UNL     1      -3.331   7.566   2.426  1.00  0.00    -0.014 A 
BRANCH  29  30
ATOM     30  C   UNL     1      -2.431   8.737   2.189  1.00  0.00     0.031 A 
ATOM     31  C   UNL     1      -1.250   9.028   3.093  1.00  0.00     0.074 A 
ATOM     32  C   UNL     1      -2.679   9.572   1.159  1.00  0.00     0.049 A 
ATOM     33  N   UNL     1      -0.404  10.029   3.050  1.00  0.00    -0.248 NA
ATOM     34  C   UNL     1      -0.967   8.071   4.175  1.00  0.00     0.031 C 
ATOM     35  C   UNL     1      -3.779   9.431   0.205  1.00  0.00     0.029 A 
ATOM     36  N   UNL     1      -2.037  10.720   0.757  1.00  0.00    -0.354 N 
ATOM     37  C   UNL     1       0.496   9.824   4.092  1.00  0.00     0.074 A 
ATOM     38  C   UNL     1       0.102   8.601   4.753  1.00  0.00     0.031 C 
ATOM     39  C   UNL     1      -3.732  10.441  -0.674  1.00  0.00     0.029 A 
ATOM     40  C   UNL     1      -2.655  11.350  -0.298  1.00  0.00     0.049 A 
ATOM     41  H   UNL     1      -1.216  11.057   1.182  1.00  0.00     0.167 HD
ATOM     42  C   UNL     1       1.557  10.575   4.471  1.00  0.00     0.034 A 
ATOM     43  C   UNL     1      -2.429  12.547  -0.874  1.00  0.00     0.034 A 
ATOM     44  C   UNL     1       1.953  11.807   3.845  1.00  0.00     0.049 A 
ATOM     45  C   UNL     1      -1.315  13.415  -0.369  1.00  0.00     0.074 A 
ATOM     46  C   UNL     1       3.028  12.623   4.155  1.00  0.00     0.029 A 
ATOM     47  N   UNL     1       1.278  12.416   2.801  1.00  0.00    -0.354 N 
ATOM     48  N   UNL     1      -0.426  13.155   0.557  1.00  0.00    -0.248 NA
ATOM     49  C   UNL     1      -1.172  14.740  -0.988  1.00  0.00     0.031 C 
ATOM     50  C   UNL     1       2.988  13.740   3.313  1.00  0.00     0.029 A 
ATOM     51  C   UNL     1       1.895  13.612   2.473  1.00  0.00     0.049 A 
ATOM     52  H   UNL     1       0.477  12.053   2.358  1.00  0.00     0.167 HD
ATOM     53  C   UNL     1       0.385  14.280   0.631  1.00  0.00     0.074 A 
ATOM     54  C   UNL     1      -0.099  15.213  -0.366  1.00  0.00     0.031 C 
ATOM     55  C   UNL     1       1.423  14.525   1.466  1.00  0.00     0.034 A 
BRANCH  42  56
ATOM     56  C   UNL     1       2.400  10.075   5.614  1.00  0.00     0.023 A 
ATOM     57  C   UNL     1       3.375   9.089   5.366  1.00  0.00     0.012 A 
ATOM     58  C   UNL     1       2.290  10.633   6.902  1.00  0.00     0.148 A 
ATOM     59  C   UNL     1       4.228   8.663   6.385  1.00  0.00     0.002 A 
ATOM     60  C   UNL     1       3.161  10.223   7.906  1.00  0.00     0.091 A 
ATOM     61  F   UNL     1       1.332  11.544   7.126  1.00  0.00    -0.205 F 
ATOM     62  C   UNL     1       4.130   9.238   7.649  1.00  0.00     0.022 A 
BRANCH  60  63
ATOM     63  S   UNL     1       3.138  10.956   9.546  1.00  0.00     0.127 S 
ATOM     64  O   UNL     1       2.388   9.957  10.306  1.00  0.00    -0.237 OA
ATOM     65  O   UNL     1       4.561  11.033   9.880  1.00  0.00    -0.237 OA
ATOM     66  O   UNL     1       2.488  12.249   9.388  1.00  0.00    -0.744 OA
ENDBRANCH  60  63
ENDBRANCH  42  56
BRANCH  43  67
ATOM     67  C   UNL     1      -3.304  12.981  -1.998  1.00  0.00     0.023 A 
ATOM     68  C   UNL     1      -2.787  13.027  -3.305  1.00  0.00     0.012 A 
ATOM     69  C   UNL     1      -4.674  13.238  -1.791  1.00  0.00     0.148 A 
ATOM     70  C   UNL     1      -3.622  13.311  -4.386  1.00  0.00     0.002 A 
ATOM     71  C   UNL     1      -5.512  13.446  -2.878  1.00  0.00     0.091 A 
ATOM     72  F   UNL     1      -5.143  13.230  -0.534  1.00  0.00    -0.205 F 
ATOM     73  C   UNL     1      -4.987  13.497  -4.177  1.00  0.00     0.022 A 
BRANCH  71  74
ATOM     74  S   UNL     1      -7.298  13.487  -2.678  1.00  0.00     0.127 S 
ATOM     75  O   UNL     1      -7.561  14.919  -2.588  1.00  0.00    -0.237 OA
ATOM     76  O   UNL     1      -7.768  12.848  -3.908  1.00  0.00    -0.237 OA
ATOM     77  O   UNL     1      -7.556  12.705  -1.474  1.00  0.00    -0.744 OA
ENDBRANCH  71  74
ENDBRANCH  43  67
BRANCH  55  78
ATOM     78  C   UNL     1       2.099  15.863   1.356  1.00  0.00     0.023 A 
ATOM     79  C   UNL     1       1.471  16.995   1.912  1.00  0.00     0.012 A 
ATOM     80  C   UNL     1       3.365  15.998   0.756  1.00  0.00     0.148 A 
ATOM     81  C   UNL     1       2.083  18.247   1.851  1.00  0.00     0.002 A 
ATOM     82  C   UNL     1       3.984  17.242   0.728  1.00  0.00     0.091 A 
ATOM     83  F   UNL     1       3.936  14.914   0.210  1.00  0.00    -0.205 F 
ATOM     84  C   UNL     1       3.342  18.369   1.268  1.00  0.00     0.022 A 
BRANCH  82  85
ATOM     85  S   UNL     1       5.636  17.460   0.056  1.00  0.00     0.127 S 
ATOM     86  O   UNL     1       5.349  17.915  -1.303  1.00  0.00    -0.237 OA
ATOM     87  O   UNL     1       6.206  18.484   0.933  1.00  0.00    -0.237 OA
ATOM     88  O   UNL     1       6.275  16.155   0.168  1.00  0.00    -0.744 OA
ENDBRANCH  82  85
ENDBRANCH  55  78
ENDBRANCH  29  30
ENDBRANCH  22  24
ENDBRANCH  21  22
ENDBRANCH  20  21
ENDBRANCH   1  20
TORSDOF 19
