REMARK SMILES C[C@H](C(=O)OCCOC(=O)c1ccc(-c2c3nc(c(-c4cccc(S(=O)(=O)[O-])c4F)c4ccc([nH]4)c(-c4cccc(S(=O)(=O)[O-])c4F)c4nc(c(-c5cccc(S(=O)(=O)[O-])c5F)c5ccc2[nH]5)C=C4)C=C3)cc1)[C@@H](C)[NH2+]Cc1ccc(F)c(F)c1
REMARK SMILES IDX 6 1 5 2 3 3 4 4 2 5 1 6 74 7 75 8 76 9 77 12 78 13 79 14
REMARK SMILES IDX 85 15 80 16 83 17 81 18 84 19 82 20 7 21 8 22 9 23 10 24
REMARK SMILES IDX 11 25 12 26 73 27 13 28 72 29 14 30 15 31 16 32 66 33 17 34
REMARK SMILES IDX 71 35 65 36 67 37 18 38 70 39 64 40 63 41 19 43 51 44 31 45
REMARK SMILES IDX 50 46 32 47 35 48 49 49 68 50 33 51 34 52 48 54 69 55 36 56
REMARK SMILES IDX 20 57 21 58 29 59 22 60 24 61 30 62 23 63 25 64 26 65 27 66
REMARK SMILES IDX 28 67 52 68 53 69 61 70 54 71 56 72 62 73 55 74 57 75 58 76
REMARK SMILES IDX 59 77 60 78 37 79 38 80 46 81 39 82 41 83 47 84 40 85 42 86
REMARK SMILES IDX 43 87 44 88 45 89
REMARK H PARENT 76 10 76 11 67 42 35 53
REMARK Flexibility Score: inf
ROOT
ATOM      1  C   UNL     1       1.908   1.539   1.484  1.00  0.00     0.274 C 
ENDROOT
BRANCH   1   2
ATOM      2  O   UNL     1       1.358   1.470   0.151  1.00  0.00    -0.462 OA
BRANCH   2   3
ATOM      3  C   UNL     1       1.593   0.317  -0.534  1.00  0.00     0.314 C 
ATOM      4  O   UNL     1       2.420  -0.520  -0.199  1.00  0.00    -0.252 OA
BRANCH   3   5
ATOM      5  C   UNL     1       0.719   0.221  -1.786  1.00  0.00     0.154 C 
ATOM      6  C   UNL     1       1.244  -0.947  -2.646  1.00  0.00     0.026 C 
BRANCH   5   7
ATOM      7  C   UNL     1      -0.807   0.054  -1.484  1.00  0.00     0.193 C 
ATOM      8  C   UNL     1      -1.367   1.225  -0.670  1.00  0.00     0.076 C 
BRANCH   7   9
ATOM      9  N   UNL     1      -1.515  -0.121  -2.771  1.00  0.00    -0.340 N 
ATOM     10  H   UNL     1      -1.093  -0.921  -3.244  1.00  0.00     0.346 HD
ATOM     11  H   UNL     1      -1.411   0.776  -3.245  1.00  0.00     0.346 HD
BRANCH   9  12
ATOM     12  C   UNL     1      -2.962  -0.352  -2.730  1.00  0.00     0.297 C 
BRANCH  12  13
ATOM     13  C   UNL     1      -3.776   0.915  -2.554  1.00  0.00     0.009 A 
ATOM     14  C   UNL     1      -3.528   2.054  -3.344  1.00  0.00     0.013 A 
ATOM     15  C   UNL     1      -4.737   0.996  -1.532  1.00  0.00     0.052 A 
ATOM     16  C   UNL     1      -4.141   3.272  -3.046  1.00  0.00     0.043 A 
ATOM     17  C   UNL     1      -5.346   2.215  -1.245  1.00  0.00     0.159 A 
ATOM     18  C   UNL     1      -5.033   3.349  -1.983  1.00  0.00     0.158 A 
ATOM     19  F   UNL     1      -6.207   2.296  -0.221  1.00  0.00    -0.204 F 
ATOM     20  F   UNL     1      -5.580   4.532  -1.671  1.00  0.00    -0.204 F 
ENDBRANCH  12  13
ENDBRANCH   9  12
ENDBRANCH   7   9
ENDBRANCH   5   7
ENDBRANCH   3   5
ENDBRANCH   2   3
ENDBRANCH   1   2
BRANCH   1  21
ATOM     21  C   UNL     1       0.946   0.909   2.497  1.00  0.00     0.275 C 
BRANCH  21  22
ATOM     22  O   UNL     1       0.878  -0.509   2.269  1.00  0.00    -0.458 OA
BRANCH  22  23
ATOM     23  C   UNL     1      -0.334  -1.091   2.372  1.00  0.00     0.338 C 
ATOM     24  O   UNL     1      -1.390  -0.552   2.683  1.00  0.00    -0.246 OA
BRANCH  23  25
ATOM     25  C   UNL     1      -0.209  -2.523   2.049  1.00  0.00     0.060 A 
ATOM     26  C   UNL     1       0.296  -2.921   0.809  1.00  0.00     0.016 A 
ATOM     27  C   UNL     1      -0.642  -3.481   2.964  1.00  0.00     0.016 A 
ATOM     28  C   UNL     1       0.342  -4.269   0.463  1.00  0.00     0.010 A 
ATOM     29  C   UNL     1      -0.532  -4.838   2.644  1.00  0.00     0.010 A 
ATOM     30  C   UNL     1      -0.056  -5.245   1.384  1.00  0.00    -0.014 A 
BRANCH  30  31
ATOM     31  C   UNL     1       0.005  -6.686   1.029  1.00  0.00     0.031 A 
ATOM     32  C   UNL     1      -1.259  -7.498   0.970  1.00  0.00     0.074 A 
ATOM     33  C   UNL     1       1.194  -7.275   0.789  1.00  0.00     0.049 A 
ATOM     34  N   UNL     1      -1.406  -8.790   0.834  1.00  0.00    -0.248 NA
ATOM     35  C   UNL     1      -2.527  -6.759   1.093  1.00  0.00     0.031 C 
ATOM     36  C   UNL     1       2.492  -6.599   0.805  1.00  0.00     0.029 A 
ATOM     37  N   UNL     1       1.504  -8.583   0.506  1.00  0.00    -0.354 N 
ATOM     38  C   UNL     1      -2.772  -9.028   0.922  1.00  0.00     0.074 A 
ATOM     39  C   UNL     1      -3.413  -7.745   1.113  1.00  0.00     0.031 C 
ATOM     40  C   UNL     1       3.457  -7.495   0.546  1.00  0.00     0.029 A 
ATOM     41  C   UNL     1       2.856  -8.816   0.401  1.00  0.00     0.049 A 
ATOM     42  H   UNL     1       0.824  -9.286   0.389  1.00  0.00     0.167 HD
ATOM     43  C   UNL     1      -3.433 -10.207   0.839  1.00  0.00     0.034 A 
ATOM     44  C   UNL     1       3.538  -9.967   0.240  1.00  0.00     0.034 A 
ATOM     45  C   UNL     1      -2.800 -11.472   0.581  1.00  0.00     0.049 A 
ATOM     46  C   UNL     1       2.777 -11.260   0.131  1.00  0.00     0.074 A 
ATOM     47  C   UNL     1      -3.391 -12.715   0.434  1.00  0.00     0.029 A 
ATOM     48  N   UNL     1      -1.436 -11.656   0.419  1.00  0.00    -0.354 N 
ATOM     49  N   UNL     1       1.481 -11.459   0.149  1.00  0.00    -0.248 NA
ATOM     50  C   UNL     1       3.570 -12.487  -0.037  1.00  0.00     0.031 C 
ATOM     51  C   UNL     1      -2.382 -13.652   0.186  1.00  0.00     0.029 A 
ATOM     52  C   UNL     1      -1.164 -12.991   0.171  1.00  0.00     0.049 A 
ATOM     53  H   UNL     1      -0.759 -10.942   0.471  1.00  0.00     0.167 HD
ATOM     54  C   UNL     1       1.302 -12.826  -0.024  1.00  0.00     0.074 A 
ATOM     55  C   UNL     1       2.622 -13.405  -0.173  1.00  0.00     0.031 C 
ATOM     56  C   UNL     1       0.151 -13.542  -0.032  1.00  0.00     0.034 A 
BRANCH  43  57
ATOM     57  C   UNL     1      -4.929 -10.180   0.996  1.00  0.00     0.023 A 
ATOM     58  C   UNL     1      -5.732  -9.719  -0.066  1.00  0.00     0.012 A 
ATOM     59  C   UNL     1      -5.542 -10.657   2.171  1.00  0.00     0.148 A 
ATOM     60  C   UNL     1      -7.122  -9.709   0.049  1.00  0.00     0.002 A 
ATOM     61  C   UNL     1      -6.929 -10.679   2.264  1.00  0.00     0.091 A 
ATOM     62  F   UNL     1      -4.760 -11.065   3.182  1.00  0.00    -0.205 F 
ATOM     63  C   UNL     1      -7.720 -10.198   1.208  1.00  0.00     0.022 A 
BRANCH  61  64
ATOM     64  S   UNL     1      -7.785 -11.357   3.691  1.00  0.00     0.127 S 
ATOM     65  O   UNL     1      -8.195 -10.143   4.394  1.00  0.00    -0.237 OA
ATOM     66  O   UNL     1      -8.882 -12.102   3.072  1.00  0.00    -0.237 OA
ATOM     67  O   UNL     1      -6.807 -12.187   4.381  1.00  0.00    -0.744 OA
ENDBRANCH  61  64
ENDBRANCH  43  57
BRANCH  44  68
ATOM     68  C   UNL     1       5.025  -9.938   0.140  1.00  0.00     0.023 A 
ATOM     69  C   UNL     1       5.638 -10.216  -1.096  1.00  0.00     0.012 A 
ATOM     70  C   UNL     1       5.830  -9.590   1.243  1.00  0.00     0.148 A 
ATOM     71  C   UNL     1       7.026 -10.164  -1.229  1.00  0.00     0.002 A 
ATOM     72  C   UNL     1       7.207  -9.484   1.089  1.00  0.00     0.091 A 
ATOM     73  F   UNL     1       5.231  -9.355   2.420  1.00  0.00    -0.205 F 
ATOM     74  C   UNL     1       7.809  -9.784  -0.142  1.00  0.00     0.022 A 
BRANCH  72  75
ATOM     75  S   UNL     1       8.267  -8.864   2.401  1.00  0.00     0.127 S 
ATOM     76  O   UNL     1       8.867 -10.094   2.909  1.00  0.00    -0.237 OA
ATOM     77  O   UNL     1       9.183  -7.988   1.670  1.00  0.00    -0.237 OA
ATOM     78  O   UNL     1       7.376  -8.162   3.316  1.00  0.00    -0.744 OA
ENDBRANCH  72  75
ENDBRANCH  44  68
BRANCH  56  79
ATOM     79  C   UNL     1       0.259 -15.030  -0.227  1.00  0.00     0.023 A 
ATOM     80  C   UNL     1       0.688 -15.838   0.845  1.00  0.00     0.012 A 
ATOM     81  C   UNL     1      -0.136 -15.634  -1.436  1.00  0.00     0.148 A 
ATOM     82  C   UNL     1       0.746 -17.224   0.707  1.00  0.00     0.002 A 
ATOM     83  C   UNL     1      -0.113 -17.019  -1.552  1.00  0.00     0.091 A 
ATOM     84  F   UNL     1      -0.520 -14.846  -2.451  1.00  0.00    -0.205 F 
ATOM     85  C   UNL     1       0.335 -17.815  -0.485  1.00  0.00     0.022 A 
BRANCH  83  86
ATOM     86  S   UNL     1      -0.706 -17.862  -3.024  1.00  0.00     0.127 S 
ATOM     87  O   UNL     1       0.545 -18.200  -3.700  1.00  0.00    -0.237 OA
ATOM     88  O   UNL     1      -1.424 -19.008  -2.464  1.00  0.00    -0.237 OA
ATOM     89  O   UNL     1      -1.556 -16.901  -3.714  1.00  0.00    -0.744 OA
ENDBRANCH  83  86
ENDBRANCH  56  79
ENDBRANCH  30  31
ENDBRANCH  23  25
ENDBRANCH  22  23
ENDBRANCH  21  22
ENDBRANCH   1  21
TORSDOF 18
