REMARK SMILES Cc1cc(Cl)cc2c1O[C@H](C(F)(F)F)C(C(=O)OCCOC(=O)c1ccc(-c3c4nc(c(-c5cccc(S(=O)(=O)[O-])c5F)c5ccc([nH]5)c(-c5cccc(S(=O)(=O)[O-])c5F)c5nc(c(-c6cccc(S(=O)(=O)[O-])c6F)c6ccc3[nH]6)C=C5)C=C4)cc1)=C2
REMARK SMILES IDX 20 1 19 2 18 3 16 4 17 5 15 6 1 7 2 8 3 9 8 10 4 11 7 12
REMARK SMILES IDX 9 13 5 14 6 15 87 16 10 17 11 18 12 19 13 20 14 21 21 22
REMARK SMILES IDX 22 23 23 24 24 25 25 26 86 27 26 28 85 29 27 30 28 31 29 32
REMARK SMILES IDX 79 33 30 34 84 35 78 36 80 37 31 38 83 39 77 40 76 41 32 43
REMARK SMILES IDX 64 44 44 45 63 46 45 47 48 48 62 49 81 50 46 51 47 52 61 54
REMARK SMILES IDX 82 55 49 56 33 57 34 58 42 59 35 60 37 61 43 62 36 63 38 64
REMARK SMILES IDX 39 65 40 66 41 67 65 68 66 69 74 70 67 71 69 72 75 73 68 74
REMARK SMILES IDX 70 75 71 76 72 77 73 78 50 79 51 80 59 81 52 82 54 83 60 84
REMARK SMILES IDX 53 85 55 86 56 87 57 88 58 89
REMARK H PARENT 80 42 48 53
REMARK Flexibility Score: inf
ROOT
ATOM      1  C   UNL     1      -7.665   2.726   0.527  1.00  0.00     0.275 C 
ENDROOT
BRANCH   1   2
ATOM      2  C   UNL     1      -7.039   1.821  -0.536  1.00  0.00     0.275 C 
BRANCH   2   3
ATOM      3  O   UNL     1      -5.643   1.568  -0.262  1.00  0.00    -0.459 OA
BRANCH   3   4
ATOM      4  C   UNL     1      -4.768   2.256  -1.031  1.00  0.00     0.338 C 
ATOM      5  O   UNL     1      -5.046   3.022  -1.942  1.00  0.00    -0.246 OA
BRANCH   4   6
ATOM      6  C   UNL     1      -3.378   1.967  -0.632  1.00  0.00     0.087 C 
ATOM      7  C   UNL     1       1.217  -0.223   0.010  1.00  0.00     0.048 C 
ATOM      8  C   UNL     1       0.689   1.181  -0.024  1.00  0.00    -0.007 A 
ATOM      9  C   UNL     1       1.577   2.265   0.083  1.00  0.00     0.027 A 
ATOM     10  C   UNL     1      -0.685   1.431  -0.167  1.00  0.00     0.131 A 
ATOM     11  C   UNL     1       1.101   3.574   0.054  1.00  0.00     0.042 A 
ATOM     12  C   UNL     1      -1.149   2.747  -0.211  1.00  0.00     0.019 A 
ATOM     13  O   UNL     1      -1.520   0.347  -0.241  1.00  0.00    -0.475 OA
ATOM     14  Cl  UNL     1       2.202   4.888   0.177  1.00  0.00    -0.084 Cl
ATOM     15  C   UNL     1      -0.259   3.821  -0.089  1.00  0.00     0.032 A 
ATOM     16  C   UNL     1      -2.556   3.002  -0.432  1.00  0.00     0.027 C 
ATOM     17  C   UNL     1      -2.909   0.544  -0.631  1.00  0.00     0.316 C 
BRANCH  17  18
ATOM     18  C   UNL     1      -3.139  -0.120  -1.997  1.00  0.00     0.430 C 
ATOM     19  F   UNL     1      -2.696  -1.402  -2.000  1.00  0.00    -0.167 F 
ATOM     20  F   UNL     1      -4.456  -0.172  -2.314  1.00  0.00    -0.167 F 
ATOM     21  F   UNL     1      -2.505   0.528  -2.999  1.00  0.00    -0.167 F 
ENDBRANCH  17  18
ENDBRANCH   4   6
ENDBRANCH   3   4
ENDBRANCH   2   3
ENDBRANCH   1   2
BRANCH   1  22
ATOM     22  O   UNL     1      -7.114   4.052   0.453  1.00  0.00    -0.458 OA
BRANCH  22  23
ATOM     23  C   UNL     1      -6.168   4.326   1.380  1.00  0.00     0.338 C 
ATOM     24  O   UNL     1      -5.771   3.590   2.267  1.00  0.00    -0.246 OA
BRANCH  23  25
ATOM     25  C   UNL     1      -5.561   5.639   1.122  1.00  0.00     0.060 A 
ATOM     26  C   UNL     1      -4.680   5.749   0.056  1.00  0.00     0.016 A 
ATOM     27  C   UNL     1      -5.668   6.671   2.049  1.00  0.00     0.016 A 
ATOM     28  C   UNL     1      -3.758   6.788   0.023  1.00  0.00     0.010 A 
ATOM     29  C   UNL     1      -4.859   7.806   1.905  1.00  0.00     0.010 A 
ATOM     30  C   UNL     1      -3.846   7.853   0.928  1.00  0.00    -0.014 A 
BRANCH  30  31
ATOM     31  C   UNL     1      -2.880   8.990   0.853  1.00  0.00     0.031 A 
ATOM     32  C   UNL     1      -2.117   9.433   2.079  1.00  0.00     0.074 A 
ATOM     33  C   UNL     1      -2.677   9.630  -0.319  1.00  0.00     0.049 A 
ATOM     34  N   UNL     1      -1.382  10.502   2.253  1.00  0.00    -0.248 NA
ATOM     35  C   UNL     1      -2.201   8.574   3.274  1.00  0.00     0.031 C 
ATOM     36  C   UNL     1      -3.321   9.294  -1.593  1.00  0.00     0.029 A 
ATOM     37  N   UNL     1      -1.874  10.699  -0.637  1.00  0.00    -0.354 N 
ATOM     38  C   UNL     1      -0.984  10.485   3.586  1.00  0.00     0.074 A 
ATOM     39  C   UNL     1      -1.557   9.297   4.180  1.00  0.00     0.031 C 
ATOM     40  C   UNL     1      -2.855  10.099  -2.556  1.00  0.00     0.029 A 
ATOM     41  C   UNL     1      -1.974  11.089  -1.955  1.00  0.00     0.049 A 
ATOM     42  H   UNL     1      -1.284  11.143   0.013  1.00  0.00     0.167 HD
ATOM     43  C   UNL     1      -0.202  11.370   4.249  1.00  0.00     0.034 A 
ATOM     44  C   UNL     1      -1.465  12.153  -2.606  1.00  0.00     0.034 A 
ATOM     45  C   UNL     1       0.427  12.507   3.630  1.00  0.00     0.049 A 
ATOM     46  C   UNL     1      -0.623  13.133  -1.841  1.00  0.00     0.074 A 
ATOM     47  C   UNL     1       1.264  13.445   4.209  1.00  0.00     0.029 A 
ATOM     48  N   UNL     1       0.305  12.853   2.293  1.00  0.00    -0.354 N 
ATOM     49  N   UNL     1      -0.243  13.088  -0.588  1.00  0.00    -0.248 NA
ATOM     50  C   UNL     1      -0.133  14.306  -2.578  1.00  0.00     0.031 C 
ATOM     51  C   UNL     1       1.623  14.375   3.230  1.00  0.00     0.029 A 
ATOM     52  C   UNL     1       1.041  13.996   2.031  1.00  0.00     0.049 A 
ATOM     53  H   UNL     1      -0.227  12.359   1.628  1.00  0.00     0.167 HD
ATOM     54  C   UNL     1       0.547  14.213  -0.389  1.00  0.00     0.074 A 
ATOM     55  C   UNL     1       0.616  14.904  -1.661  1.00  0.00     0.031 C 
ATOM     56  C   UNL     1       1.142  14.646   0.749  1.00  0.00     0.034 A 
BRANCH  43  57
ATOM     57  C   UNL     1       0.053  11.144   5.720  1.00  0.00     0.023 A 
ATOM     58  C   UNL     1       0.902  10.099   6.134  1.00  0.00     0.012 A 
ATOM     59  C   UNL     1      -0.465  12.034   6.685  1.00  0.00     0.148 A 
ATOM     60  C   UNL     1       1.213   9.927   7.484  1.00  0.00     0.002 A 
ATOM     61  C   UNL     1      -0.111  11.887   8.022  1.00  0.00     0.091 A 
ATOM     62  F   UNL     1      -1.282  13.014   6.275  1.00  0.00    -0.205 F 
ATOM     63  C   UNL     1       0.718  10.827   8.424  1.00  0.00     0.022 A 
BRANCH  61  64
ATOM     64  S   UNL     1      -0.618  13.045   9.298  1.00  0.00     0.127 S 
ATOM     65  O   UNL     1      -1.486  12.210  10.127  1.00  0.00    -0.237 OA
ATOM     66  O   UNL     1       0.659  13.398   9.917  1.00  0.00    -0.237 OA
ATOM     67  O   UNL     1      -1.287  14.140   8.609  1.00  0.00    -0.744 OA
ENDBRANCH  61  64
ENDBRANCH  43  57
BRANCH  44  68
ATOM     68  C   UNL     1      -1.739  12.333  -4.063  1.00  0.00     0.023 A 
ATOM     69  C   UNL     1      -0.681  12.217  -4.984  1.00  0.00     0.012 A 
ATOM     70  C   UNL     1      -3.046  12.554  -4.546  1.00  0.00     0.148 A 
ATOM     71  C   UNL     1      -0.914  12.332  -6.355  1.00  0.00     0.002 A 
ATOM     72  C   UNL     1      -3.282  12.598  -5.915  1.00  0.00     0.091 A 
ATOM     73  F   UNL     1      -4.039  12.682  -3.655  1.00  0.00    -0.205 F 
ATOM     74  C   UNL     1      -2.215  12.505  -6.821  1.00  0.00     0.022 A 
BRANCH  72  75
ATOM     75  S   UNL     1      -4.939  12.660  -6.607  1.00  0.00     0.127 S 
ATOM     76  O   UNL     1      -4.966  13.993  -7.202  1.00  0.00    -0.237 OA
ATOM     77  O   UNL     1      -4.905  11.556  -7.568  1.00  0.00    -0.237 OA
ATOM     78  O   UNL     1      -5.844  12.450  -5.485  1.00  0.00    -0.744 OA
ENDBRANCH  72  75
ENDBRANCH  44  68
BRANCH  56  79
ATOM     79  C   UNL     1       1.946  15.917   0.680  1.00  0.00     0.023 A 
ATOM     80  C   UNL     1       1.285  17.154   0.555  1.00  0.00     0.012 A 
ATOM     81  C   UNL     1       3.345  15.892   0.848  1.00  0.00     0.148 A 
ATOM     82  C   UNL     1       2.006  18.347   0.573  1.00  0.00     0.002 A 
ATOM     83  C   UNL     1       4.050  17.087   0.922  1.00  0.00     0.091 A 
ATOM     84  F   UNL     1       3.955  14.703   0.950  1.00  0.00    -0.205 F 
ATOM     85  C   UNL     1       3.384  18.314   0.772  1.00  0.00     0.022 A 
BRANCH  83  86
ATOM     86  S   UNL     1       5.808  17.151   1.286  1.00  0.00     0.127 S 
ATOM     87  O   UNL     1       6.356  17.639   0.021  1.00  0.00    -0.237 OA
ATOM     88  O   UNL     1       5.860  18.115   2.385  1.00  0.00    -0.237 OA
ATOM     89  O   UNL     1       6.196  15.795   1.648  1.00  0.00    -0.744 OA
ENDBRANCH  83  86
ENDBRANCH  56  79
ENDBRANCH  30  31
ENDBRANCH  23  25
ENDBRANCH  22  23
ENDBRANCH   1  22
TORSDOF 15
