REMARK SMILES COc1c(C)cc([C@H](C(=O)OCCOC(=O)c2ccc(-c3c4nc(c(-c5cccc(S(=O)(=O)[O-])c5F)c5ccc([nH]5)c(-c5cccc(S(=O)(=O)[O-])c5F)c5nc(c(-c6cccc(S(=O)(=O)[O-])c6F)c6ccc3[nH]6)C=C5)C=C4)cc2)[N@@H+](C)CCN2CCCCC2=O)cc1C
REMARK SMILES IDX 12 1 11 2 9 3 10 4 8 5 7 6 3 7 4 8 92 9 5 10 6 11 91 12
REMARK SMILES IDX 93 13 2 14 1 15 80 16 81 17 82 19 83 20 84 21 85 22 89 23
REMARK SMILES IDX 86 24 88 25 90 26 87 27 13 28 14 29 15 30 16 31 17 32 18 33
REMARK SMILES IDX 79 34 19 35 78 36 20 37 21 38 22 39 72 40 23 41 77 42 71 43
REMARK SMILES IDX 73 44 24 45 76 46 70 47 69 48 25 50 57 51 37 52 56 53 38 54
REMARK SMILES IDX 41 55 55 56 74 57 39 58 40 59 54 61 75 62 42 63 26 64 27 65
REMARK SMILES IDX 35 66 28 67 30 68 36 69 29 70 31 71 32 72 33 73 34 74 58 75
REMARK SMILES IDX 59 76 67 77 60 78 62 79 68 80 61 81 63 82 64 83 65 84 66 85
REMARK SMILES IDX 43 86 44 87 52 88 45 89 47 90 53 91 46 92 48 93 49 94 50 95
REMARK SMILES IDX 51 96
REMARK H PARENT 80 18 73 49 41 60
REMARK Flexibility Score: inf
ROOT
ATOM      1  C   UNL     1       0.605  -1.904  -3.893  1.00  0.00     0.274 C 
ENDROOT
BRANCH   1   2
ATOM      2  O   UNL     1       1.560  -1.644  -4.971  1.00  0.00    -0.457 OA
BRANCH   2   3
ATOM      3  C   UNL     1       1.173  -1.008  -6.129  1.00  0.00     0.370 C 
ATOM      4  O   UNL     1       0.108  -0.405  -6.222  1.00  0.00    -0.245 OA
BRANCH   3   5
ATOM      5  C   UNL     1       2.137  -1.238  -7.355  1.00  0.00     0.326 C 
BRANCH   5   6
ATOM      6  C   UNL     1       2.780  -0.063  -8.125  1.00  0.00     0.022 A 
ATOM      7  C   UNL     1       4.697   1.740  -9.158  1.00  0.00     0.124 A 
ATOM      8  C   UNL     1       4.594   0.465  -9.704  1.00  0.00    -0.008 A 
ATOM      9  C   UNL     1       3.722   2.193  -8.255  1.00  0.00    -0.008 A 
ATOM     10  C   UNL     1       5.587  -0.096 -10.678  1.00  0.00     0.048 C 
ATOM     11  C   UNL     1       3.568  -0.373  -9.251  1.00  0.00     0.017 A 
ATOM     12  C   UNL     1       2.751   1.285  -7.762  1.00  0.00     0.017 A 
ATOM     13  C   UNL     1       3.781   3.599  -7.731  1.00  0.00     0.048 C 
BRANCH   7  14
ATOM     14  O   UNL     1       5.871   2.428  -9.311  1.00  0.00    -0.496 OA
ATOM     15  C   UNL     1       5.821   3.465 -10.279  1.00  0.00     0.278 C 
ENDBRANCH   7  14
ENDBRANCH   5   6
BRANCH   5  16
ATOM     16  N   UNL     1       3.077  -2.373  -7.098  1.00  0.00    -0.320 N 
ATOM     17  C   UNL     1       3.221  -3.330  -8.189  1.00  0.00     0.333 C 
ATOM     18  H   UNL     1       2.475  -2.749  -6.366  1.00  0.00     0.348 HD
BRANCH  16  19
ATOM     19  C   UNL     1       4.290  -2.255  -6.268  1.00  0.00     0.284 C 
BRANCH  19  20
ATOM     20  C   UNL     1       5.238  -1.019  -6.173  1.00  0.00     0.180 C 
BRANCH  20  21
ATOM     21  N   UNL     1       4.914   0.097  -5.285  1.00  0.00    -0.337 N 
ATOM     22  C   UNL     1       4.057  -0.055  -4.143  1.00  0.00     0.119 C 
ATOM     23  C   UNL     1       5.573   1.320  -5.417  1.00  0.00     0.222 C 
ATOM     24  C   UNL     1       2.999   0.997  -4.286  1.00  0.00     0.022 C 
ATOM     25  C   UNL     1       5.054   2.449  -4.523  1.00  0.00     0.100 C 
ATOM     26  O   UNL     1       6.561   1.476  -6.130  1.00  0.00    -0.275 OA
ATOM     27  C   UNL     1       3.569   2.392  -4.199  1.00  0.00     0.012 C 
ENDBRANCH  20  21
ENDBRANCH  19  20
ENDBRANCH  16  19
ENDBRANCH   5  16
ENDBRANCH   3   5
ENDBRANCH   2   3
ENDBRANCH   1   2
BRANCH   1  28
ATOM     28  C   UNL     1       0.715  -0.992  -2.648  1.00  0.00     0.275 C 
BRANCH  28  29
ATOM     29  O   UNL     1       0.010   0.238  -2.907  1.00  0.00    -0.458 OA
BRANCH  29  30
ATOM     30  C   UNL     1       0.376   1.358  -2.231  1.00  0.00     0.338 C 
ATOM     31  O   UNL     1       0.965   1.379  -1.148  1.00  0.00    -0.246 OA
BRANCH  30  32
ATOM     32  C   UNL     1       0.242   2.537  -3.147  1.00  0.00     0.060 A 
ATOM     33  C   UNL     1      -0.110   2.317  -4.481  1.00  0.00     0.016 A 
ATOM     34  C   UNL     1       0.678   3.817  -2.777  1.00  0.00     0.016 A 
ATOM     35  C   UNL     1       0.057   3.311  -5.442  1.00  0.00     0.010 A 
ATOM     36  C   UNL     1       0.720   4.860  -3.729  1.00  0.00     0.010 A 
ATOM     37  C   UNL     1       0.398   4.621  -5.076  1.00  0.00    -0.014 A 
BRANCH  37  38
ATOM     38  C   UNL     1       0.195   5.725  -6.066  1.00  0.00     0.031 A 
ATOM     39  C   UNL     1       1.275   6.691  -6.489  1.00  0.00     0.074 A 
ATOM     40  C   UNL     1      -1.046   5.866  -6.586  1.00  0.00     0.049 A 
ATOM     41  N   UNL     1       1.171   7.750  -7.256  1.00  0.00    -0.248 NA
ATOM     42  C   UNL     1       2.647   6.430  -6.031  1.00  0.00     0.031 C 
ATOM     43  C   UNL     1      -2.188   4.989  -6.300  1.00  0.00     0.029 A 
ATOM     44  N   UNL     1      -1.570   6.815  -7.431  1.00  0.00    -0.354 N 
ATOM     45  C   UNL     1       2.452   8.281  -7.377  1.00  0.00     0.074 A 
ATOM     46  C   UNL     1       3.327   7.413  -6.616  1.00  0.00     0.031 C 
ATOM     47  C   UNL     1      -3.268   5.439  -6.940  1.00  0.00     0.029 A 
ATOM     48  C   UNL     1      -2.937   6.714  -7.553  1.00  0.00     0.049 A 
ATOM     49  H   UNL     1      -1.028   7.492  -7.897  1.00  0.00     0.167 HD
ATOM     50  C   UNL     1       2.853   9.393  -8.045  1.00  0.00     0.034 A 
ATOM     51  C   UNL     1      -3.864   7.587  -7.987  1.00  0.00     0.034 A 
ATOM     52  C   UNL     1       1.962  10.296  -8.739  1.00  0.00     0.049 A 
ATOM     53  C   UNL     1      -3.425   8.903  -8.534  1.00  0.00     0.074 A 
ATOM     54  C   UNL     1       2.278  11.454  -9.432  1.00  0.00     0.029 A 
ATOM     55  N   UNL     1       0.582  10.178  -8.784  1.00  0.00    -0.354 N 
ATOM     56  N   UNL     1      -2.208   9.356  -8.695  1.00  0.00    -0.248 NA
ATOM     57  C   UNL     1      -4.482   9.819  -8.973  1.00  0.00     0.031 C 
ATOM     58  C   UNL     1       1.087  12.071  -9.832  1.00  0.00     0.029 A 
ATOM     59  C   UNL     1       0.029  11.267  -9.442  1.00  0.00     0.049 A 
ATOM     60  H   UNL     1       0.068   9.429  -8.404  1.00  0.00     0.167 HD
ATOM     61  C   UNL     1      -2.348  10.605  -9.282  1.00  0.00     0.074 A 
ATOM     62  C   UNL     1      -3.770  10.825  -9.462  1.00  0.00     0.031 C 
ATOM     63  C   UNL     1      -1.382  11.486  -9.634  1.00  0.00     0.034 A 
BRANCH  50  64
ATOM     64  C   UNL     1       4.323   9.746  -8.053  1.00  0.00     0.023 A 
ATOM     65  C   UNL     1       5.207   9.058  -8.908  1.00  0.00     0.012 A 
ATOM     66  C   UNL     1       4.801  10.852  -7.317  1.00  0.00     0.148 A 
ATOM     67  C   UNL     1       6.541   9.458  -9.024  1.00  0.00     0.002 A 
ATOM     68  C   UNL     1       6.122  11.264  -7.461  1.00  0.00     0.091 A 
ATOM     69  F   UNL     1       3.948  11.491  -6.504  1.00  0.00    -0.205 F 
ATOM     70  C   UNL     1       6.995  10.565  -8.310  1.00  0.00     0.022 A 
BRANCH  68  71
ATOM     71  S   UNL     1       6.782  12.720  -6.638  1.00  0.00     0.127 S 
ATOM     72  O   UNL     1       7.688  12.120  -5.660  1.00  0.00    -0.237 OA
ATOM     73  O   UNL     1       7.448  13.422  -7.736  1.00  0.00    -0.237 OA
ATOM     74  O   UNL     1       5.635  13.419  -6.077  1.00  0.00    -0.744 OA
ENDBRANCH  68  71
ENDBRANCH  50  64
BRANCH  51  75
ATOM     75  C   UNL     1      -5.301   7.239  -7.819  1.00  0.00     0.023 A 
ATOM     76  C   UNL     1      -6.085   6.930  -8.942  1.00  0.00     0.012 A 
ATOM     77  C   UNL     1      -5.851   7.094  -6.527  1.00  0.00     0.148 A 
ATOM     78  C   UNL     1      -7.395   6.476  -8.781  1.00  0.00     0.002 A 
ATOM     79  C   UNL     1      -7.125   6.569  -6.372  1.00  0.00     0.091 A 
ATOM     80  F   UNL     1      -5.090   7.419  -5.471  1.00  0.00    -0.205 F 
ATOM     81  C   UNL     1      -7.906   6.274  -7.499  1.00  0.00     0.022 A 
BRANCH  79  82
ATOM     82  S   UNL     1      -7.773   6.099  -4.763  1.00  0.00     0.127 S 
ATOM     83  O   UNL     1      -8.762   7.146  -4.522  1.00  0.00    -0.237 OA
ATOM     84  O   UNL     1      -8.331   4.774  -5.035  1.00  0.00    -0.237 OA
ATOM     85  O   UNL     1      -6.626   6.088  -3.866  1.00  0.00    -0.744 OA
ENDBRANCH  79  82
ENDBRANCH  51  75
BRANCH  63  86
ATOM     86  C   UNL     1      -1.834  12.764 -10.287  1.00  0.00     0.023 A 
ATOM     87  C   UNL     1      -2.499  13.748  -9.527  1.00  0.00     0.012 A 
ATOM     88  C   UNL     1      -1.598  12.991 -11.657  1.00  0.00     0.148 A 
ATOM     89  C   UNL     1      -2.964  14.915 -10.131  1.00  0.00     0.002 A 
ATOM     90  C   UNL     1      -2.018  14.179 -12.241  1.00  0.00     0.091 A 
ATOM     91  F   UNL     1      -0.985  12.033 -12.367  1.00  0.00    -0.205 F 
ATOM     92  C   UNL     1      -2.716  15.135 -11.484  1.00  0.00     0.022 A 
BRANCH  90  93
ATOM     93  S   UNL     1      -1.671  14.586 -13.955  1.00  0.00     0.127 S 
ATOM     94  O   UNL     1      -2.998  14.484 -14.560  1.00  0.00    -0.237 OA
ATOM     95  O   UNL     1      -1.151  15.949 -13.849  1.00  0.00    -0.237 OA
ATOM     96  O   UNL     1      -0.699  13.602 -14.413  1.00  0.00    -0.744 OA
ENDBRANCH  90  93
ENDBRANCH  63  86
ENDBRANCH  37  38
ENDBRANCH  30  32
ENDBRANCH  29  30
ENDBRANCH  28  29
ENDBRANCH   1  28
TORSDOF 20
