REMARK SMILES CCC[C@]1(C(=O)OCCOC(=O)c2ccc(-c3c4nc(c(-c5cccc(S(=O)(=O)[O-])c5F)c5ccc([nH]5)c(-c5cccc(S(=O)(=O)[O-])c5F)c5nc(c(-c6cccc(S(=O)(=O)[O-])c6F)c6ccc3[nH]6)C=C5)C=C4)cc2)CCCN(C(=O)c2ccc(NS(=O)(=O)CC)cc2)C1
REMARK SMILES IDX 8 1 7 2 5 3 6 4 4 5 76 6 94 7 77 8 79 9 78 10 3 11 2 12 1 13
REMARK SMILES IDX 80 14 81 15 82 16 83 17 93 18 84 19 92 20 85 21 86 22 87 24
REMARK SMILES IDX 88 25 89 26 90 27 91 28 9 29 10 30 11 31 12 32 13 33 14 34
REMARK SMILES IDX 75 35 15 36 74 37 16 38 17 39 18 40 68 41 19 42 73 43 67 44
REMARK SMILES IDX 69 45 20 46 72 47 66 48 65 49 21 51 53 52 33 53 52 54 34 55
REMARK SMILES IDX 37 56 51 57 70 58 35 59 36 60 50 62 71 63 38 64 22 65 23 66
REMARK SMILES IDX 31 67 24 68 26 69 32 70 25 71 27 72 28 73 29 74 30 75 54 76
REMARK SMILES IDX 55 77 63 78 56 79 58 80 64 81 57 82 59 83 60 84 61 85 62 86
REMARK SMILES IDX 39 87 40 88 48 89 41 90 43 91 49 92 42 93 44 94 45 95 46 96
REMARK SMILES IDX 47 97
REMARK H PARENT 86 23 69 50 37 61
REMARK Flexibility Score: inf
ROOT
ATOM      1  C   UNL     1       0.646  -2.882   2.237  1.00  0.00     0.274 C 
ENDROOT
BRANCH   1   2
ATOM      2  O   UNL     1       0.770  -2.864   0.806  1.00  0.00    -0.462 OA
BRANCH   2   3
ATOM      3  C   UNL     1      -0.350  -2.559   0.095  1.00  0.00     0.314 C 
ATOM      4  O   UNL     1      -1.427  -2.273   0.601  1.00  0.00    -0.252 OA
BRANCH   3   5
ATOM      5  C   UNL     1      -0.094  -2.662  -1.415  1.00  0.00     0.086 C 
ATOM      6  C   UNL     1       1.007  -3.757  -1.651  1.00  0.00     0.022 C 
ATOM      7  C   UNL     1      -1.413  -3.140  -2.074  1.00  0.00     0.138 C 
ATOM      8  C   UNL     1       1.120  -4.251  -3.092  1.00  0.00     0.023 C 
ATOM      9  N   UNL     1      -1.174  -3.576  -3.455  1.00  0.00    -0.338 N 
ATOM     10  C   UNL     1      -0.244  -4.691  -3.595  1.00  0.00     0.120 C 
BRANCH   5  11
ATOM     11  C   UNL     1       0.374  -1.318  -2.035  1.00  0.00     0.020 C 
BRANCH  11  12
ATOM     12  C   UNL     1      -0.371  -0.020  -1.703  1.00  0.00    -0.002 C 
ATOM     13  C   UNL     1      -0.084   0.543  -0.317  1.00  0.00     0.004 C 
ENDBRANCH  11  12
ENDBRANCH   5  11
BRANCH   9  14
ATOM     14  C   UNL     1      -1.573  -2.750  -4.499  1.00  0.00     0.253 C 
ATOM     15  O   UNL     1      -2.285  -1.760  -4.371  1.00  0.00    -0.269 OA
BRANCH  14  16
ATOM     16  C   UNL     1      -1.056  -3.041  -5.845  1.00  0.00     0.040 A 
ATOM     17  C   UNL     1       0.075  -2.364  -6.301  1.00  0.00     0.016 A 
ATOM     18  C   UNL     1      -1.731  -3.938  -6.669  1.00  0.00     0.016 A 
ATOM     19  C   UNL     1       0.522  -2.570  -7.608  1.00  0.00     0.027 A 
ATOM     20  C   UNL     1      -1.291  -4.118  -7.982  1.00  0.00     0.027 A 
ATOM     21  C   UNL     1      -0.173  -3.424  -8.469  1.00  0.00     0.049 A 
BRANCH  21  22
ATOM     22  N   UNL     1       0.009  -3.415  -9.883  1.00  0.00    -0.284 N 
ATOM     23  H   UNL     1      -0.789  -3.545 -10.444  1.00  0.00     0.180 HD
BRANCH  22  24
ATOM     24  S   UNL     1       1.466  -3.203 -10.659  1.00  0.00     0.232 S 
ATOM     25  O   UNL     1       2.476  -3.962  -9.956  1.00  0.00    -0.207 OA
ATOM     26  O   UNL     1       1.171  -3.491 -12.050  1.00  0.00    -0.207 OA
BRANCH  24  27
ATOM     27  C   UNL     1       1.852  -1.453 -10.544  1.00  0.00     0.156 C 
ATOM     28  C   UNL     1       0.654  -0.527 -10.557  1.00  0.00     0.023 C 
ENDBRANCH  24  27
ENDBRANCH  22  24
ENDBRANCH  21  22
ENDBRANCH  14  16
ENDBRANCH   9  14
ENDBRANCH   3   5
ENDBRANCH   2   3
ENDBRANCH   1   2
BRANCH   1  29
ATOM     29  C   UNL     1       2.046  -2.904   2.858  1.00  0.00     0.275 C 
BRANCH  29  30
ATOM     30  O   UNL     1       2.775  -1.727   2.461  1.00  0.00    -0.458 OA
BRANCH  30  31
ATOM     31  C   UNL     1       3.594  -1.895   1.392  1.00  0.00     0.338 C 
ATOM     32  O   UNL     1       3.895  -2.946   0.852  1.00  0.00    -0.246 OA
BRANCH  31  33
ATOM     33  C   UNL     1       3.897  -0.572   0.814  1.00  0.00     0.060 A 
ATOM     34  C   UNL     1       3.616  -0.398  -0.543  1.00  0.00     0.016 A 
ATOM     35  C   UNL     1       4.429   0.479   1.560  1.00  0.00     0.016 A 
ATOM     36  C   UNL     1       3.771   0.846  -1.149  1.00  0.00     0.010 A 
ATOM     37  C   UNL     1       4.668   1.708   0.932  1.00  0.00     0.010 A 
ATOM     38  C   UNL     1       4.332   1.899  -0.421  1.00  0.00    -0.014 A 
BRANCH  38  39
ATOM     39  C   UNL     1       4.743   3.135  -1.124  1.00  0.00     0.031 A 
ATOM     40  C   UNL     1       6.088   3.158  -1.790  1.00  0.00     0.074 A 
ATOM     41  C   UNL     1       3.946   4.218  -1.162  1.00  0.00     0.049 A 
ATOM     42  N   UNL     1       6.720   4.156  -2.346  1.00  0.00    -0.248 NA
ATOM     43  C   UNL     1       6.815   1.877  -1.842  1.00  0.00     0.031 C 
ATOM     44  C   UNL     1       2.588   4.290  -0.625  1.00  0.00     0.029 A 
ATOM     45  N   UNL     1       4.182   5.478  -1.655  1.00  0.00    -0.354 N 
ATOM     46  C   UNL     1       7.931   3.635  -2.783  1.00  0.00     0.074 A 
ATOM     47  C   UNL     1       7.937   2.228  -2.451  1.00  0.00     0.031 C 
ATOM     48  C   UNL     1       2.127   5.545  -0.778  1.00  0.00     0.029 A 
ATOM     49  C   UNL     1       3.172   6.371  -1.381  1.00  0.00     0.049 A 
ATOM     50  H   UNL     1       4.995   5.719  -2.155  1.00  0.00     0.167 HD
ATOM     51  C   UNL     1       8.954   4.274  -3.396  1.00  0.00     0.034 A 
ATOM     52  C   UNL     1       3.121   7.708  -1.558  1.00  0.00     0.034 A 
ATOM     53  C   UNL     1       8.956   5.676  -3.703  1.00  0.00     0.049 A 
ATOM     54  C   UNL     1       4.310   8.412  -2.167  1.00  0.00     0.074 A 
ATOM     55  C   UNL     1       9.956   6.426  -4.292  1.00  0.00     0.029 A 
ATOM     56  N   UNL     1       7.910   6.543  -3.429  1.00  0.00    -0.354 N 
ATOM     57  N   UNL     1       5.430   7.904  -2.622  1.00  0.00    -0.248 NA
ATOM     58  C   UNL     1       4.222   9.875  -2.302  1.00  0.00     0.031 C 
ATOM     59  C   UNL     1       9.523   7.754  -4.354  1.00  0.00     0.029 A 
ATOM     60  C   UNL     1       8.240   7.823  -3.833  1.00  0.00     0.049 A 
ATOM     61  H   UNL     1       7.057   6.285  -3.009  1.00  0.00     0.167 HD
ATOM     62  C   UNL     1       6.157   8.973  -3.135  1.00  0.00     0.074 A 
ATOM     63  C   UNL     1       5.348  10.158  -2.944  1.00  0.00     0.031 C 
ATOM     64  C   UNL     1       7.389   8.977  -3.702  1.00  0.00     0.034 A 
BRANCH  51  65
ATOM     65  C   UNL     1      10.163   3.455  -3.750  1.00  0.00     0.023 A 
ATOM     66  C   UNL     1      10.111   2.567  -4.843  1.00  0.00     0.012 A 
ATOM     67  C   UNL     1      11.355   3.579  -3.011  1.00  0.00     0.148 A 
ATOM     68  C   UNL     1      11.221   1.792  -5.177  1.00  0.00     0.002 A 
ATOM     69  C   UNL     1      12.468   2.832  -3.374  1.00  0.00     0.091 A 
ATOM     70  F   UNL     1      11.370   4.407  -1.957  1.00  0.00    -0.205 F 
ATOM     71  C   UNL     1      12.400   1.931  -4.449  1.00  0.00     0.022 A 
BRANCH  69  72
ATOM     72  S   UNL     1      14.049   2.987  -2.537  1.00  0.00     0.127 S 
ATOM     73  O   UNL     1      14.128   1.716  -1.819  1.00  0.00    -0.237 OA
ATOM     74  O   UNL     1      14.980   3.112  -3.659  1.00  0.00    -0.237 OA
ATOM     75  O   UNL     1      13.945   4.173  -1.699  1.00  0.00    -0.744 OA
ENDBRANCH  69  72
ENDBRANCH  51  65
BRANCH  52  76
ATOM     76  C   UNL     1       1.911   8.481  -1.152  1.00  0.00     0.023 A 
ATOM     77  C   UNL     1       1.123   9.106  -2.138  1.00  0.00     0.012 A 
ATOM     78  C   UNL     1       1.546   8.616   0.202  1.00  0.00     0.148 A 
ATOM     79  C   UNL     1       0.015   9.878  -1.782  1.00  0.00     0.002 A 
ATOM     80  C   UNL     1       0.411   9.341   0.547  1.00  0.00     0.091 A 
ATOM     81  F   UNL     1       2.321   8.036   1.130  1.00  0.00    -0.205 F 
ATOM     82  C   UNL     1      -0.346   9.987  -0.442  1.00  0.00     0.022 A 
BRANCH  80  83
ATOM     83  S   UNL     1      -0.193   9.441   2.236  1.00  0.00     0.127 S 
ATOM     84  O   UNL     1       0.102  10.830   2.577  1.00  0.00    -0.237 OA
ATOM     85  O   UNL     1      -1.614   9.136   2.068  1.00  0.00    -0.237 OA
ATOM     86  O   UNL     1       0.553   8.435   2.980  1.00  0.00    -0.744 OA
ENDBRANCH  80  83
ENDBRANCH  52  76
BRANCH  64  87
ATOM     87  C   UNL     1       7.926  10.284  -4.224  1.00  0.00     0.023 A 
ATOM     88  C   UNL     1       8.397  11.263  -3.327  1.00  0.00     0.012 A 
ATOM     89  C   UNL     1       8.070  10.488  -5.611  1.00  0.00     0.148 A 
ATOM     90  C   UNL     1       8.984  12.434  -3.805  1.00  0.00     0.002 A 
ATOM     91  C   UNL     1       8.699  11.635  -6.078  1.00  0.00     0.091 A 
ATOM     92  F   UNL     1       7.598   9.551  -6.447  1.00  0.00    -0.205 F 
ATOM     93  C   UNL     1       9.148  12.614  -5.177  1.00  0.00     0.022 A 
BRANCH  91  94
ATOM     94  S   UNL     1       9.047  11.900  -7.821  1.00  0.00     0.127 S 
ATOM     95  O   UNL     1       8.091  12.953  -8.159  1.00  0.00    -0.237 OA
ATOM     96  O   UNL     1      10.445  12.331  -7.797  1.00  0.00    -0.237 OA
ATOM     97  O   UNL     1       8.822  10.618  -8.475  1.00  0.00    -0.744 OA
ENDBRANCH  91  94
ENDBRANCH  64  87
ENDBRANCH  38  39
ENDBRANCH  31  33
ENDBRANCH  30  31
ENDBRANCH  29  30
ENDBRANCH   1  29
TORSDOF 21
