REMARK SMILES CCc1nc2sc(C(=O)NCC(=O)OCCOC(=O)c3ccc(-c4c5nc(c(-c6cccc(S(=O)(=O)[O-])c6F)c6ccc([nH]6)c(-c6cccc(S(=O)(=O)[O-])c6F)c6nc(c(-c7cccc(S(=O)(=O)[O-])c7F)c7ccc4[nH]7)C=C6)C=C5)cc3)c(N)c2c(C(F)(F)F)c1C
REMARK SMILES IDX 15 1 14 2 12 3 13 4 11 5 10 6 8 7 9 8 7 10 3 11 4 12 91 13
REMARK SMILES IDX 5 14 86 15 92 16 6 17 85 18 83 19 2 20 1 21 87 22 88 23
REMARK SMILES IDX 89 24 90 25 84 26 16 29 17 30 18 31 19 32 20 33 21 34 82 35
REMARK SMILES IDX 22 36 81 37 23 38 24 39 25 40 75 41 26 42 80 43 74 44 76 45
REMARK SMILES IDX 27 46 79 47 73 48 72 49 28 51 60 52 40 53 59 54 41 55 44 56
REMARK SMILES IDX 58 57 77 58 42 59 43 60 57 62 78 63 45 64 29 65 30 66 38 67
REMARK SMILES IDX 31 68 33 69 39 70 32 71 34 72 35 73 36 74 37 75 61 76 62 77
REMARK SMILES IDX 70 78 63 79 65 80 71 81 64 82 66 83 67 84 68 85 69 86 46 87
REMARK SMILES IDX 47 88 55 89 48 90 50 91 56 92 49 93 51 94 52 95 53 96 54 97
REMARK H PARENT 10 9 84 27 84 28 76 50 44 61
REMARK Flexibility Score: inf
ROOT
ATOM      1  C   UNL     1      -0.326  -5.175   7.993  1.00  0.00     0.274 C 
ENDROOT
BRANCH   1   2
ATOM      2  O   UNL     1       0.375  -5.928   6.982  1.00  0.00    -0.461 OA
BRANCH   2   3
ATOM      3  C   UNL     1       1.737  -5.840   7.002  1.00  0.00     0.325 C 
ATOM      4  O   UNL     1       2.372  -5.056   7.704  1.00  0.00    -0.250 OA
BRANCH   3   5
ATOM      5  C   UNL     1       2.416  -6.924   6.157  1.00  0.00     0.239 C 
BRANCH   5   6
ATOM      6  N   UNL     1       1.610  -7.604   5.181  1.00  0.00    -0.340 N 
ATOM      7  C   UNL     1       1.246  -7.245   3.918  1.00  0.00     0.264 C 
ATOM      8  O   UNL     1       0.697  -8.156   3.287  1.00  0.00    -0.268 OA
ATOM      9  H   UNL     1       1.262  -8.477   5.475  1.00  0.00     0.164 HD
BRANCH   7  10
ATOM     10  C   UNL     1       1.433  -5.900   3.369  1.00  0.00     0.118 A 
ATOM     11  C   UNL     1       1.025  -2.004   0.721  1.00  0.00     0.045 A 
ATOM     12  N   UNL     1       0.717  -3.315   0.706  1.00  0.00    -0.242 NA
ATOM     13  C   UNL     1       1.730  -1.405   1.781  1.00  0.00    -0.017 A 
ATOM     14  C   UNL     1       1.090  -4.044   1.757  1.00  0.00     0.127 A 
ATOM     15  C   UNL     1       2.046  -2.198   2.934  1.00  0.00     0.073 A 
ATOM     16  C   UNL     1       2.151   0.039   1.789  1.00  0.00     0.047 C 
ATOM     17  S   UNL     1       0.751  -5.694   1.788  1.00  0.00    -0.108 S 
ATOM     18  C   UNL     1       1.739  -3.589   2.880  1.00  0.00     0.048 A 
ATOM     19  C   UNL     1       1.989  -4.691   3.774  1.00  0.00     0.066 A 
BRANCH  11  20
ATOM     20  C   UNL     1       0.457  -1.377  -0.530  1.00  0.00     0.053 C 
ATOM     21  C   UNL     1       0.547   0.096  -0.860  1.00  0.00     0.011 C 
ENDBRANCH  11  20
BRANCH  15  22
ATOM     22  C   UNL     1       2.693  -1.627   4.184  1.00  0.00     0.417 C 
ATOM     23  F   UNL     1       2.050  -2.009   5.329  1.00  0.00    -0.166 F 
ATOM     24  F   UNL     1       3.987  -2.030   4.332  1.00  0.00    -0.166 F 
ATOM     25  F   UNL     1       2.727  -0.268   4.266  1.00  0.00    -0.166 F 
ENDBRANCH  15  22
BRANCH  19  26
ATOM     26  N   UNL     1       2.707  -4.472   4.892  1.00  0.00    -0.397 N 
ATOM     27  H   UNL     1       2.888  -5.214   5.514  1.00  0.00     0.156 HD
ATOM     28  H   UNL     1       3.050  -3.571   5.088  1.00  0.00     0.156 HD
ENDBRANCH  19  26
ENDBRANCH   7  10
ENDBRANCH   5   6
ENDBRANCH   3   5
ENDBRANCH   2   3
ENDBRANCH   1   2
BRANCH   1  29
ATOM     29  C   UNL     1      -0.505  -5.973   9.288  1.00  0.00     0.275 C 
BRANCH  29  30
ATOM     30  O   UNL     1       0.751  -6.169   9.942  1.00  0.00    -0.458 OA
BRANCH  30  31
ATOM     31  C   UNL     1       1.418  -7.250   9.506  1.00  0.00     0.338 C 
ATOM     32  O   UNL     1       1.053  -8.050   8.637  1.00  0.00    -0.246 OA
BRANCH  31  33
ATOM     33  C   UNL     1       2.689  -7.408  10.196  1.00  0.00     0.060 A 
ATOM     34  C   UNL     1       3.728  -8.034   9.489  1.00  0.00     0.016 A 
ATOM     35  C   UNL     1       2.635  -7.385  11.587  1.00  0.00     0.016 A 
ATOM     36  C   UNL     1       4.559  -8.890  10.160  1.00  0.00     0.010 A 
ATOM     37  C   UNL     1       3.456  -8.255  12.258  1.00  0.00     0.010 A 
ATOM     38  C   UNL     1       4.321  -9.070  11.515  1.00  0.00    -0.014 A 
BRANCH  38  39
ATOM     39  C   UNL     1       4.898 -10.241  12.135  1.00  0.00     0.031 A 
ATOM     40  C   UNL     1       6.264 -10.064  12.667  1.00  0.00     0.074 A 
ATOM     41  C   UNL     1       4.114 -11.317  12.338  1.00  0.00     0.049 A 
ATOM     42  N   UNL     1       7.298 -10.822  12.503  1.00  0.00    -0.248 NA
ATOM     43  C   UNL     1       6.530  -8.818  13.403  1.00  0.00     0.031 C 
ATOM     44  C   UNL     1       2.664 -11.408  12.109  1.00  0.00     0.029 A 
ATOM     45  N   UNL     1       4.401 -12.471  12.997  1.00  0.00    -0.354 N 
ATOM     46  C   UNL     1       8.298 -10.236  13.273  1.00  0.00     0.074 A 
ATOM     47  C   UNL     1       7.827  -8.933  13.662  1.00  0.00     0.031 C 
ATOM     48  C   UNL     1       2.166 -12.391  12.887  1.00  0.00     0.029 A 
ATOM     49  C   UNL     1       3.270 -13.049  13.564  1.00  0.00     0.049 A 
ATOM     50  H   UNL     1       5.306 -12.854  13.065  1.00  0.00     0.167 HD
ATOM     51  C   UNL     1       9.371 -10.924  13.736  1.00  0.00     0.034 A 
ATOM     52  C   UNL     1       3.253 -13.886  14.627  1.00  0.00     0.034 A 
ATOM     53  C   UNL     1       9.580 -12.162  13.049  1.00  0.00     0.049 A 
ATOM     54  C   UNL     1       4.629 -14.405  14.813  1.00  0.00     0.074 A 
ATOM     55  C   UNL     1       9.887 -12.516  11.752  1.00  0.00     0.029 A 
ATOM     56  N   UNL     1       9.146 -13.307  13.668  1.00  0.00    -0.354 N 
ATOM     57  N   UNL     1       5.238 -15.199  13.978  1.00  0.00    -0.248 NA
ATOM     58  C   UNL     1       5.489 -13.740  15.780  1.00  0.00     0.031 C 
ATOM     59  C   UNL     1       9.232 -13.762  11.538  1.00  0.00     0.029 A 
ATOM     60  C   UNL     1       8.557 -14.097  12.714  1.00  0.00     0.049 A 
ATOM     61  H   UNL     1       9.239 -13.522  14.624  1.00  0.00     0.167 HD
ATOM     62  C   UNL     1       6.573 -14.818  14.036  1.00  0.00     0.074 A 
ATOM     63  C   UNL     1       6.683 -14.024  15.256  1.00  0.00     0.031 C 
ATOM     64  C   UNL     1       7.392 -14.930  12.947  1.00  0.00     0.034 A 
BRANCH  51  65
ATOM     65  C   UNL     1      10.085 -10.559  15.004  1.00  0.00     0.023 A 
ATOM     66  C   UNL     1      11.394 -11.034  15.201  1.00  0.00     0.012 A 
ATOM     67  C   UNL     1       9.457  -9.914  16.095  1.00  0.00     0.148 A 
ATOM     68  C   UNL     1      12.056 -10.847  16.420  1.00  0.00     0.002 A 
ATOM     69  C   UNL     1      10.155  -9.635  17.261  1.00  0.00     0.091 A 
ATOM     70  F   UNL     1       8.141  -9.665  16.059  1.00  0.00    -0.205 F 
ATOM     71  C   UNL     1      11.450 -10.120  17.440  1.00  0.00     0.022 A 
BRANCH  69  72
ATOM     72  S   UNL     1       9.429  -8.577  18.517  1.00  0.00     0.127 S 
ATOM     73  O   UNL     1       8.786  -9.547  19.395  1.00  0.00    -0.237 OA
ATOM     74  O   UNL     1      10.603  -7.912  19.084  1.00  0.00    -0.237 OA
ATOM     75  O   UNL     1       8.549  -7.683  17.771  1.00  0.00    -0.744 OA
ENDBRANCH  69  72
ENDBRANCH  51  65
BRANCH  52  76
ATOM     76  C   UNL     1       2.214 -14.016  15.674  1.00  0.00     0.023 A 
ATOM     77  C   UNL     1       2.154 -15.199  16.434  1.00  0.00     0.012 A 
ATOM     78  C   UNL     1       1.440 -12.911  16.098  1.00  0.00     0.148 A 
ATOM     79  C   UNL     1       1.366 -15.274  17.588  1.00  0.00     0.002 A 
ATOM     80  C   UNL     1       0.639 -12.999  17.233  1.00  0.00     0.091 A 
ATOM     81  F   UNL     1       1.562 -11.742  15.455  1.00  0.00    -0.205 F 
ATOM     82  C   UNL     1       0.608 -14.176  17.988  1.00  0.00     0.022 A 
BRANCH  80  83
ATOM     83  S   UNL     1      -0.362 -11.612  17.790  1.00  0.00     0.127 S 
ATOM     84  O   UNL     1      -1.588 -12.275  18.240  1.00  0.00    -0.237 OA
ATOM     85  O   UNL     1       0.460 -11.056  18.860  1.00  0.00    -0.237 OA
ATOM     86  O   UNL     1      -0.542 -10.768  16.615  1.00  0.00    -0.744 OA
ENDBRANCH  80  83
ENDBRANCH  52  76
BRANCH  64  87
ATOM     87  C   UNL     1       6.886 -15.708  11.751  1.00  0.00     0.023 A 
ATOM     88  C   UNL     1       5.732 -15.303  11.046  1.00  0.00     0.012 A 
ATOM     89  C   UNL     1       7.683 -16.729  11.201  1.00  0.00     0.148 A 
ATOM     90  C   UNL     1       5.366 -15.910   9.844  1.00  0.00     0.002 A 
ATOM     91  C   UNL     1       7.344 -17.296   9.975  1.00  0.00     0.091 A 
ATOM     92  F   UNL     1       8.784 -17.108  11.868  1.00  0.00    -0.205 F 
ATOM     93  C   UNL     1       6.181 -16.897   9.299  1.00  0.00     0.022 A 
BRANCH  91  94
ATOM     94  S   UNL     1       8.436 -18.459   9.149  1.00  0.00     0.127 S 
ATOM     95  O   UNL     1       7.839 -19.745   9.500  1.00  0.00    -0.237 OA
ATOM     96  O   UNL     1       8.297 -18.085   7.740  1.00  0.00    -0.237 OA
ATOM     97  O   UNL     1       9.763 -18.205   9.697  1.00  0.00    -0.744 OA
ENDBRANCH  91  94
ENDBRANCH  64  87
ENDBRANCH  38  39
ENDBRANCH  31  33
ENDBRANCH  30  31
ENDBRANCH  29  30
ENDBRANCH   1  29
TORSDOF 19
