REMARK SMILES C[C@@H]1C[N@@H+](CC(C)(C)C(=O)OCCOC(=O)c2ccc(-c3c4nc(c(-c5cccc(S(=O)(=O)[O-])c5F)c5ccc([nH]5)c(-c5cccc(S(=O)(=O)[O-])c5F)c5nc(c(-c6cccc(S(=O)(=O)[O-])c6F)c6ccc3[nH]6)C=C5)C=C4)cc2)CC[C@@H]1[NH3+]
REMARK SMILES IDX 12 1 11 2 9 3 10 4 6 5 7 6 8 7 5 8 4 9 1 10 2 11 3 12 82 13
REMARK SMILES IDX 81 14 80 15 83 17 13 21 14 22 15 23 16 24 17 25 18 26 79 27
REMARK SMILES IDX 19 28 78 29 20 30 21 31 22 32 72 33 23 34 77 35 71 36 73 37
REMARK SMILES IDX 24 38 76 39 70 40 69 41 25 43 57 44 37 45 56 46 38 47 41 48
REMARK SMILES IDX 55 49 74 50 39 51 40 52 54 54 75 55 42 56 26 57 27 58 35 59
REMARK SMILES IDX 28 60 30 61 36 62 29 63 31 64 32 65 33 66 34 67 58 68 59 69
REMARK SMILES IDX 67 70 60 71 62 72 68 73 61 74 63 75 64 76 65 77 66 78 43 79
REMARK SMILES IDX 44 80 52 81 45 82 47 83 53 84 46 85 48 86 49 87 50 88 51 89
REMARK H PARENT 4 16 83 18 83 19 83 20 73 42 41 53
REMARK Flexibility Score: inf
ROOT
ATOM      1  C   UNL     1      -4.285   2.555   2.659  1.00  0.00     0.274 C 
ENDROOT
BRANCH   1   2
ATOM      2  O   UNL     1      -4.222   3.272   1.397  1.00  0.00    -0.461 OA
BRANCH   2   3
ATOM      3  C   UNL     1      -3.298   2.752   0.551  1.00  0.00     0.317 C 
ATOM      4  O   UNL     1      -2.765   1.683   0.805  1.00  0.00    -0.251 OA
BRANCH   3   5
ATOM      5  C   UNL     1      -2.993   3.563  -0.705  1.00  0.00     0.111 C 
ATOM      6  C   UNL     1      -2.661   5.020  -0.372  1.00  0.00     0.029 C 
ATOM      7  C   UNL     1      -4.286   3.519  -1.552  1.00  0.00     0.029 C 
BRANCH   5   8
ATOM      8  C   UNL     1      -1.816   2.929  -1.559  1.00  0.00     0.280 C 
BRANCH   8   9
ATOM      9  N   UNL     1      -0.428   2.721  -1.078  1.00  0.00    -0.333 N 
ATOM     10  C   UNL     1       1.683   0.612   0.273  1.00  0.00     0.020 C 
ATOM     11  C   UNL     1       1.118   1.919   0.816  1.00  0.00     0.099 C 
ATOM     12  C   UNL     1      -0.292   2.164   0.268  1.00  0.00     0.271 C 
ATOM     13  C   UNL     1       1.970   3.156   0.552  1.00  0.00     0.194 C 
ATOM     14  C   UNL     1       1.938   3.496  -0.937  1.00  0.00     0.126 C 
ATOM     15  C   UNL     1       0.502   3.796  -1.389  1.00  0.00     0.268 C 
ATOM     16  H   UNL     1      -0.114   1.951  -1.668  1.00  0.00     0.348 HD
BRANCH  13  17
ATOM     17  N   UNL     1       3.342   2.999   1.034  1.00  0.00    -0.355 N 
ATOM     18  H   UNL     1       3.791   2.229   0.537  1.00  0.00     0.344 HD
ATOM     19  H   UNL     1       3.330   2.797   2.034  1.00  0.00     0.344 HD
ATOM     20  H   UNL     1       3.862   3.860   0.868  1.00  0.00     0.344 HD
ENDBRANCH  13  17
ENDBRANCH   8   9
ENDBRANCH   5   8
ENDBRANCH   3   5
ENDBRANCH   2   3
ENDBRANCH   1   2
BRANCH   1  21
ATOM     21  C   UNL     1      -5.030   1.193   2.642  1.00  0.00     0.275 C 
BRANCH  21  22
ATOM     22  O   UNL     1      -4.301   0.091   2.036  1.00  0.00    -0.458 OA
BRANCH  22  23
ATOM     23  C   UNL     1      -4.710  -0.294   0.794  1.00  0.00     0.338 C 
ATOM     24  O   UNL     1      -5.699   0.127   0.211  1.00  0.00    -0.246 OA
BRANCH  23  25
ATOM     25  C   UNL     1      -3.697  -1.142   0.102  1.00  0.00     0.060 A 
ATOM     26  C   UNL     1      -3.049  -0.576  -1.001  1.00  0.00     0.016 A 
ATOM     27  C   UNL     1      -3.424  -2.470   0.425  1.00  0.00     0.016 A 
ATOM     28  C   UNL     1      -2.074  -1.267  -1.724  1.00  0.00     0.010 A 
ATOM     29  C   UNL     1      -2.487  -3.198  -0.345  1.00  0.00     0.010 A 
ATOM     30  C   UNL     1      -1.792  -2.599  -1.415  1.00  0.00    -0.014 A 
BRANCH  30  31
ATOM     31  C   UNL     1      -0.803  -3.350  -2.242  1.00  0.00     0.031 A 
ATOM     32  C   UNL     1      -1.263  -4.196  -3.385  1.00  0.00     0.074 A 
ATOM     33  C   UNL     1       0.519  -3.251  -2.003  1.00  0.00     0.049 A 
ATOM     34  N   UNL     1      -0.562  -4.993  -4.148  1.00  0.00    -0.248 NA
ATOM     35  C   UNL     1      -2.695  -4.147  -3.708  1.00  0.00     0.031 C 
ATOM     36  C   UNL     1       1.088  -2.427  -0.952  1.00  0.00     0.029 A 
ATOM     37  N   UNL     1       1.616  -3.829  -2.599  1.00  0.00    -0.354 N 
ATOM     38  C   UNL     1      -1.474  -5.599  -4.997  1.00  0.00     0.074 A 
ATOM     39  C   UNL     1      -2.775  -5.041  -4.684  1.00  0.00     0.031 C 
ATOM     40  C   UNL     1       2.426  -2.523  -0.980  1.00  0.00     0.029 A 
ATOM     41  C   UNL     1       2.811  -3.495  -1.996  1.00  0.00     0.049 A 
ATOM     42  H   UNL     1       1.554  -4.424  -3.381  1.00  0.00     0.167 HD
ATOM     43  C   UNL     1      -1.248  -6.555  -5.928  1.00  0.00     0.034 A 
ATOM     44  C   UNL     1       4.064  -3.958  -2.192  1.00  0.00     0.034 A 
ATOM     45  C   UNL     1       0.048  -7.103  -6.237  1.00  0.00     0.049 A 
ATOM     46  C   UNL     1       4.278  -5.045  -3.212  1.00  0.00     0.074 A 
ATOM     47  C   UNL     1       0.366  -8.074  -7.170  1.00  0.00     0.029 A 
ATOM     48  N   UNL     1       1.234  -6.750  -5.611  1.00  0.00    -0.354 N 
ATOM     49  N   UNL     1       3.411  -5.583  -4.035  1.00  0.00    -0.248 NA
ATOM     50  C   UNL     1       5.635  -5.601  -3.325  1.00  0.00     0.031 C 
ATOM     51  C   UNL     1       1.736  -8.339  -7.079  1.00  0.00     0.029 A 
ATOM     52  C   UNL     1       2.282  -7.499  -6.122  1.00  0.00     0.049 A 
ATOM     53  H   UNL     1       1.319  -6.067  -4.907  1.00  0.00     0.167 HD
ATOM     54  C   UNL     1       4.115  -6.535  -4.763  1.00  0.00     0.074 A 
ATOM     55  C   UNL     1       5.491  -6.469  -4.316  1.00  0.00     0.031 C 
ATOM     56  C   UNL     1       3.656  -7.403  -5.697  1.00  0.00     0.034 A 
BRANCH  43  57
ATOM     57  C   UNL     1      -2.445  -7.111  -6.647  1.00  0.00     0.023 A 
ATOM     58  C   UNL     1      -3.103  -6.348  -7.632  1.00  0.00     0.012 A 
ATOM     59  C   UNL     1      -2.893  -8.416  -6.363  1.00  0.00     0.148 A 
ATOM     60  C   UNL     1      -4.212  -6.866  -8.300  1.00  0.00     0.002 A 
ATOM     61  C   UNL     1      -3.969  -8.941  -7.066  1.00  0.00     0.091 A 
ATOM     62  F   UNL     1      -2.265  -9.113  -5.406  1.00  0.00    -0.205 F 
ATOM     63  C   UNL     1      -4.638  -8.164  -8.025  1.00  0.00     0.022 A 
BRANCH  61  64
ATOM     64  S   UNL     1      -4.545 -10.626  -6.836  1.00  0.00     0.127 S 
ATOM     65  O   UNL     1      -5.866 -10.409  -6.247  1.00  0.00    -0.237 OA
ATOM     66  O   UNL     1      -4.565 -11.131  -8.209  1.00  0.00    -0.237 OA
ATOM     67  O   UNL     1      -3.575 -11.271  -5.962  1.00  0.00    -0.744 OA
ENDBRANCH  61  64
ENDBRANCH  43  57
BRANCH  44  68
ATOM     68  C   UNL     1       5.209  -3.449  -1.374  1.00  0.00     0.023 A 
ATOM     69  C   UNL     1       6.281  -2.783  -2.002  1.00  0.00     0.012 A 
ATOM     70  C   UNL     1       5.254  -3.636   0.023  1.00  0.00     0.148 A 
ATOM     71  C   UNL     1       7.382  -2.343  -1.263  1.00  0.00     0.002 A 
ATOM     72  C   UNL     1       6.319  -3.133   0.762  1.00  0.00     0.091 A 
ATOM     73  F   UNL     1       4.250  -4.305   0.607  1.00  0.00    -0.205 F 
ATOM     74  C   UNL     1       7.395  -2.505   0.119  1.00  0.00     0.022 A 
BRANCH  72  75
ATOM     75  S   UNL     1       6.346  -3.178   2.558  1.00  0.00     0.127 S 
ATOM     76  O   UNL     1       7.387  -4.168   2.818  1.00  0.00    -0.237 OA
ATOM     77  O   UNL     1       6.710  -1.800   2.892  1.00  0.00    -0.237 OA
ATOM     78  O   UNL     1       4.998  -3.554   2.964  1.00  0.00    -0.744 OA
ENDBRANCH  72  75
ENDBRANCH  44  68
BRANCH  56  79
ATOM     79  C   UNL     1       4.653  -8.344  -6.323  1.00  0.00     0.023 A 
ATOM     80  C   UNL     1       5.178  -9.415  -5.573  1.00  0.00     0.012 A 
ATOM     81  C   UNL     1       5.016  -8.207  -7.678  1.00  0.00     0.148 A 
ATOM     82  C   UNL     1       6.072 -10.316  -6.151  1.00  0.00     0.002 A 
ATOM     83  C   UNL     1       5.865  -9.138  -8.262  1.00  0.00     0.091 A 
ATOM     84  F   UNL     1       4.519  -7.171  -8.370  1.00  0.00    -0.205 F 
ATOM     85  C   UNL     1       6.405 -10.185  -7.497  1.00  0.00     0.022 A 
BRANCH  83  86
ATOM     86  S   UNL     1       6.277  -9.108 -10.010  1.00  0.00     0.127 S 
ATOM     87  O   UNL     1       7.699  -8.768  -9.976  1.00  0.00    -0.237 OA
ATOM     88  O   UNL     1       5.988 -10.483 -10.418  1.00  0.00    -0.237 OA
ATOM     89  O   UNL     1       5.413  -8.101 -10.612  1.00  0.00    -0.744 OA
ENDBRANCH  83  86
ENDBRANCH  56  79
ENDBRANCH  30  31
ENDBRANCH  23  25
ENDBRANCH  22  23
ENDBRANCH  21  22
ENDBRANCH   1  21
TORSDOF 17
