REMARK SMILES CC1=C(C)C[C@H](C(=O)OCCOC(=O)c2ccc(-c3c4nc(c(-c5cccc(S(=O)(=O)[O-])c5F)c5ccc([nH]5)c(-c5cccc(S(=O)(=O)[O-])c5F)c5nc(c(-c6cccc(S(=O)(=O)[O-])c6F)c6ccc3[nH]6)C=C5)C=C4)cc2)[C@@H](C(=O)N[C@@H](C)CCc2ccccc2)C1
REMARK SMILES IDX 10 1 9 2 7 3 8 4 6 5 1 6 2 7 3 8 92 9 4 10 5 11 78 12 79 13
REMARK SMILES IDX 80 14 81 15 82 17 83 18 84 19 85 20 86 21 87 22 91 23 88 24
REMARK SMILES IDX 90 25 89 26 11 27 12 28 13 29 14 30 15 31 16 32 77 33 17 34
REMARK SMILES IDX 76 35 18 36 19 37 20 38 70 39 21 40 75 41 69 42 71 43 22 44
REMARK SMILES IDX 74 45 68 46 67 47 23 49 55 50 35 51 54 52 36 53 39 54 53 55
REMARK SMILES IDX 72 56 37 57 38 58 52 60 73 61 40 62 24 63 25 64 33 65 26 66
REMARK SMILES IDX 28 67 34 68 27 69 29 70 30 71 31 72 32 73 56 74 57 75 65 76
REMARK SMILES IDX 58 77 60 78 66 79 59 80 61 81 62 82 63 83 64 84 41 85 42 86
REMARK SMILES IDX 50 87 43 88 45 89 51 90 44 91 46 92 47 93 48 94 49 95
REMARK H PARENT 81 16 71 48 39 59
REMARK Flexibility Score: inf
ROOT
ATOM      1  C   UNL     1       2.839   2.625  -5.351  1.00  0.00     0.274 C 
ENDROOT
BRANCH   1   2
ATOM      2  O   UNL     1       1.979   2.228  -4.265  1.00  0.00    -0.462 OA
BRANCH   2   3
ATOM      3  C   UNL     1       0.662   2.542  -4.417  1.00  0.00     0.310 C 
ATOM      4  O   UNL     1       0.188   3.083  -5.408  1.00  0.00    -0.252 OA
BRANCH   3   5
ATOM      5  C   UNL     1      -0.176   2.166  -3.208  1.00  0.00     0.116 C 
ATOM      6  C   UNL     1       0.817  -0.066   0.547  1.00  0.00     0.039 C 
ATOM      7  C   UNL     1       0.430   0.591  -0.755  1.00  0.00    -0.074 C 
ATOM      8  C   UNL     1       0.078  -0.071  -1.871  1.00  0.00    -0.073 C 
ATOM      9  C   UNL     1       0.420   2.097  -0.674  1.00  0.00     0.045 C 
ATOM     10  C   UNL     1      -0.016  -1.574  -2.012  1.00  0.00     0.039 C 
ATOM     11  C   UNL     1      -0.283   0.640  -3.142  1.00  0.00     0.046 C 
ATOM     12  C   UNL     1       0.334   2.920  -1.974  1.00  0.00     0.097 C 
BRANCH  12  13
ATOM     13  C   UNL     1      -0.579   4.133  -1.751  1.00  0.00     0.224 C 
ATOM     14  O   UNL     1      -1.551   4.094  -0.993  1.00  0.00    -0.275 OA
ATOM     15  N   UNL     1      -0.387   5.296  -2.432  1.00  0.00    -0.353 N 
ATOM     16  H   UNL     1      -1.088   5.970  -2.280  1.00  0.00     0.163 HD
BRANCH  15  17
ATOM     17  C   UNL     1       0.666   5.729  -3.347  1.00  0.00     0.079 C 
ATOM     18  C   UNL     1       0.034   6.191  -4.662  1.00  0.00     0.031 C 
BRANCH  17  19
ATOM     19  C   UNL     1       1.479   6.888  -2.740  1.00  0.00     0.029 C 
BRANCH  19  20
ATOM     20  C   UNL     1       2.206   6.555  -1.430  1.00  0.00     0.037 C 
BRANCH  20  21
ATOM     21  C   UNL     1       3.238   5.454  -1.500  1.00  0.00    -0.048 A 
ATOM     22  C   UNL     1       3.296   4.501  -0.473  1.00  0.00     0.004 A 
ATOM     23  C   UNL     1       4.170   5.371  -2.542  1.00  0.00     0.004 A 
ATOM     24  C   UNL     1       4.216   3.453  -0.520  1.00  0.00     0.000 A 
ATOM     25  C   UNL     1       5.100   4.328  -2.582  1.00  0.00     0.000 A 
ATOM     26  C   UNL     1       5.114   3.362  -1.579  1.00  0.00     0.000 A 
ENDBRANCH  20  21
ENDBRANCH  19  20
ENDBRANCH  17  19
ENDBRANCH  15  17
ENDBRANCH  12  13
ENDBRANCH   3   5
ENDBRANCH   2   3
ENDBRANCH   1   2
BRANCH   1  27
ATOM     27  C   UNL     1       3.131   1.452  -6.280  1.00  0.00     0.275 C 
BRANCH  27  28
ATOM     28  O   UNL     1       1.898   0.924  -6.788  1.00  0.00    -0.458 OA
BRANCH  28  29
ATOM     29  C   UNL     1       1.692  -0.391  -6.573  1.00  0.00     0.338 C 
ATOM     30  O   UNL     1       2.479  -1.193  -6.075  1.00  0.00    -0.246 OA
BRANCH  29  31
ATOM     31  C   UNL     1       0.344  -0.767  -7.014  1.00  0.00     0.060 A 
ATOM     32  C   UNL     1      -0.775  -0.100  -6.512  1.00  0.00     0.016 A 
ATOM     33  C   UNL     1       0.188  -1.874  -7.845  1.00  0.00     0.016 A 
ATOM     34  C   UNL     1      -2.051  -0.594  -6.754  1.00  0.00     0.010 A 
ATOM     35  C   UNL     1      -1.097  -2.307  -8.172  1.00  0.00     0.010 A 
ATOM     36  C   UNL     1      -2.226  -1.696  -7.598  1.00  0.00    -0.014 A 
BRANCH  36  37
ATOM     37  C   UNL     1      -3.581  -2.230  -7.877  1.00  0.00     0.031 A 
ATOM     38  C   UNL     1      -3.906  -3.654  -7.524  1.00  0.00     0.074 A 
ATOM     39  C   UNL     1      -4.494  -1.457  -8.495  1.00  0.00     0.049 A 
ATOM     40  N   UNL     1      -4.933  -4.378  -7.882  1.00  0.00    -0.248 NA
ATOM     41  C   UNL     1      -2.934  -4.366  -6.676  1.00  0.00     0.031 C 
ATOM     42  C   UNL     1      -4.296  -0.058  -8.878  1.00  0.00     0.029 A 
ATOM     43  N   UNL     1      -5.760  -1.748  -8.937  1.00  0.00    -0.354 N 
ATOM     44  C   UNL     1      -4.692  -5.650  -7.378  1.00  0.00     0.074 A 
ATOM     45  C   UNL     1      -3.432  -5.595  -6.670  1.00  0.00     0.031 C 
ATOM     46  C   UNL     1      -5.395   0.386  -9.505  1.00  0.00     0.029 A 
ATOM     47  C   UNL     1      -6.344  -0.714  -9.632  1.00  0.00     0.049 A 
ATOM     48  H   UNL     1      -6.206  -2.610  -8.774  1.00  0.00     0.167 HD
ATOM     49  C   UNL     1      -5.456  -6.760  -7.495  1.00  0.00     0.034 A 
ATOM     50  C   UNL     1      -7.491  -0.669 -10.336  1.00  0.00     0.034 A 
ATOM     51  C   UNL     1      -6.748  -6.781  -8.125  1.00  0.00     0.049 A 
ATOM     52  C   UNL     1      -8.344  -1.902 -10.412  1.00  0.00     0.074 A 
ATOM     53  C   UNL     1      -7.637  -7.835  -8.231  1.00  0.00     0.029 A 
ATOM     54  N   UNL     1      -7.341  -5.691  -8.744  1.00  0.00    -0.354 N 
ATOM     55  N   UNL     1      -8.136  -3.080  -9.873  1.00  0.00    -0.248 NA
ATOM     56  C   UNL     1      -9.593  -1.802 -11.178  1.00  0.00     0.031 C 
ATOM     57  C   UNL     1      -8.770  -7.380  -8.916  1.00  0.00     0.029 A 
ATOM     58  C   UNL     1      -8.584  -6.045  -9.237  1.00  0.00     0.049 A 
ATOM     59  H   UNL     1      -6.936  -4.796  -8.821  1.00  0.00     0.167 HD
ATOM     60  C   UNL     1      -9.229  -3.860 -10.228  1.00  0.00     0.074 A 
ATOM     61  C   UNL     1     -10.113  -3.011 -11.002  1.00  0.00     0.031 C 
ATOM     62  C   UNL     1      -9.468  -5.167  -9.961  1.00  0.00     0.034 A 
BRANCH  49  63
ATOM     63  C   UNL     1      -4.927  -8.037  -6.902  1.00  0.00     0.023 A 
ATOM     64  C   UNL     1      -4.993  -8.240  -5.510  1.00  0.00     0.012 A 
ATOM     65  C   UNL     1      -4.401  -9.051  -7.725  1.00  0.00     0.148 A 
ATOM     66  C   UNL     1      -4.520  -9.424  -4.943  1.00  0.00     0.002 A 
ATOM     67  C   UNL     1      -3.962 -10.242  -7.157  1.00  0.00     0.091 A 
ATOM     68  F   UNL     1      -4.315  -8.827  -9.045  1.00  0.00    -0.205 F 
ATOM     69  C   UNL     1      -4.015 -10.428  -5.767  1.00  0.00     0.022 A 
BRANCH  67  70
ATOM     70  S   UNL     1      -3.357 -11.604  -8.160  1.00  0.00     0.127 S 
ATOM     71  O   UNL     1      -1.911 -11.403  -8.095  1.00  0.00    -0.237 OA
ATOM     72  O   UNL     1      -3.841 -12.777  -7.429  1.00  0.00    -0.237 OA
ATOM     73  O   UNL     1      -3.968 -11.423  -9.470  1.00  0.00    -0.744 OA
ENDBRANCH  67  70
ENDBRANCH  49  63
BRANCH  50  74
ATOM     74  C   UNL     1      -7.885   0.603 -11.003  1.00  0.00     0.023 A 
ATOM     75  C   UNL     1      -8.951   1.356 -10.479  1.00  0.00     0.012 A 
ATOM     76  C   UNL     1      -7.149   1.118 -12.090  1.00  0.00     0.148 A 
ATOM     77  C   UNL     1      -9.281   2.596 -11.026  1.00  0.00     0.002 A 
ATOM     78  C   UNL     1      -7.444   2.380 -12.592  1.00  0.00     0.091 A 
ATOM     79  F   UNL     1      -6.152   0.376 -12.593  1.00  0.00    -0.205 F 
ATOM     80  C   UNL     1      -8.518   3.116 -12.069  1.00  0.00     0.022 A 
BRANCH  78  81
ATOM     81  S   UNL     1      -6.405   3.178 -13.822  1.00  0.00     0.127 S 
ATOM     82  O   UNL     1      -7.172   2.969 -15.046  1.00  0.00    -0.237 OA
ATOM     83  O   UNL     1      -6.369   4.563 -13.347  1.00  0.00    -0.237 OA
ATOM     84  O   UNL     1      -5.122   2.492 -13.743  1.00  0.00    -0.744 OA
ENDBRANCH  78  81
ENDBRANCH  50  74
BRANCH  62  85
ATOM     85  C   UNL     1     -10.734  -5.764 -10.509  1.00  0.00     0.023 A 
ATOM     86  C   UNL     1     -10.790  -6.122 -11.870  1.00  0.00     0.012 A 
ATOM     87  C   UNL     1     -11.826  -6.047  -9.669  1.00  0.00     0.148 A 
ATOM     88  C   UNL     1     -11.925  -6.741 -12.391  1.00  0.00     0.002 A 
ATOM     89  C   UNL     1     -12.941  -6.696 -10.188  1.00  0.00     0.091 A 
ATOM     90  F   UNL     1     -11.761  -5.675  -8.382  1.00  0.00    -0.205 F 
ATOM     91  C   UNL     1     -12.994  -7.039 -11.549  1.00  0.00     0.022 A 
BRANCH  89  92
ATOM     92  S   UNL     1     -14.322  -7.188  -9.150  1.00  0.00     0.127 S 
ATOM     93  O   UNL     1     -15.289  -6.125  -9.416  1.00  0.00    -0.237 OA
ATOM     94  O   UNL     1     -14.684  -8.494  -9.701  1.00  0.00    -0.237 OA
ATOM     95  O   UNL     1     -13.795  -7.238  -7.792  1.00  0.00    -0.744 OA
ENDBRANCH  89  92
ENDBRANCH  62  85
ENDBRANCH  36  37
ENDBRANCH  29  31
ENDBRANCH  28  29
ENDBRANCH  27  28
ENDBRANCH   1  27
TORSDOF 19
