REMARK SMILES C=CCN(CC(=O)OCCOC(=O)c1ccc(-c2c3nc(c(-c4cccc(S(=O)(=O)[O-])c4F)c4ccc([nH]4)c(-c4cccc(S(=O)(=O)[O-])c4F)c4nc(c(-c5cccc(S(=O)(=O)[O-])c5F)c5ccc2[nH]5)C=C4)C=C3)cc1)S(=O)(=O)c1ccccc1OC
REMARK SMILES IDX 9 1 8 2 6 3 7 4 5 5 4 6 3 7 2 8 1 9 77 10 78 11 79 12 80 13
REMARK SMILES IDX 81 14 85 15 82 16 84 17 83 18 86 19 87 20 10 21 11 22 12 23
REMARK SMILES IDX 13 24 14 25 15 26 76 27 16 28 75 29 17 30 18 31 19 32 69 33
REMARK SMILES IDX 20 34 74 35 68 36 70 37 21 38 73 39 67 40 66 41 22 43 54 44
REMARK SMILES IDX 34 45 53 46 35 47 38 48 52 49 71 50 36 51 37 52 51 54 72 55
REMARK SMILES IDX 39 56 23 57 24 58 32 59 25 60 27 61 33 62 26 63 28 64 29 65
REMARK SMILES IDX 30 66 31 67 55 68 56 69 64 70 57 71 59 72 65 73 58 74 60 75
REMARK SMILES IDX 61 76 62 77 63 78 40 79 41 80 49 81 42 82 44 83 50 84 43 85
REMARK SMILES IDX 45 86 46 87 47 88 48 89
REMARK H PARENT 70 42 38 53
REMARK Flexibility Score: inf
ROOT
ATOM      1  C   UNL     1      -4.176   1.045  -1.157  1.00  0.00     0.274 C 
ENDROOT
BRANCH   1   2
ATOM      2  O   UNL     1      -3.157   0.221  -0.539  1.00  0.00    -0.461 OA
BRANCH   2   3
ATOM      3  C   UNL     1      -3.583  -0.861   0.171  1.00  0.00     0.321 C 
ATOM      4  O   UNL     1      -4.729  -0.986   0.597  1.00  0.00    -0.251 OA
BRANCH   3   5
ATOM      5  C   UNL     1      -2.533  -1.949   0.345  1.00  0.00     0.225 C 
BRANCH   5   6
ATOM      6  N   UNL     1      -1.068  -1.745   0.128  1.00  0.00    -0.183 NA
BRANCH   6   7
ATOM      7  C   UNL     1      -0.614  -0.415   0.572  1.00  0.00     0.130 C 
BRANCH   7   8
ATOM      8  C   UNL     1       0.783  -0.499   1.097  1.00  0.00    -0.018 C 
ATOM      9  C   UNL     1       1.790   0.249   0.625  1.00  0.00     0.005 C 
ENDBRANCH   7   8
ENDBRANCH   6   7
BRANCH   6  10
ATOM     10  S   UNL     1      -0.393  -2.277  -1.356  1.00  0.00     0.247 S 
ATOM     11  O   UNL     1      -0.976  -1.511  -2.438  1.00  0.00    -0.207 OA
ATOM     12  O   UNL     1       1.051  -2.266  -1.248  1.00  0.00    -0.207 OA
BRANCH  10  13
ATOM     13  C   UNL     1      -0.879  -3.986  -1.509  1.00  0.00     0.124 A 
ATOM     14  C   UNL     1      -1.793  -4.359  -2.503  1.00  0.00     0.026 A 
ATOM     15  C   UNL     1      -0.293  -4.975  -0.712  1.00  0.00     0.138 A 
ATOM     16  C   UNL     1      -2.137  -5.703  -2.672  1.00  0.00     0.002 A 
ATOM     17  C   UNL     1      -0.627  -6.323  -0.901  1.00  0.00     0.048 A 
ATOM     18  C   UNL     1      -1.546  -6.686  -1.884  1.00  0.00     0.004 A 
BRANCH  15  19
ATOM     19  O   UNL     1       0.528  -4.670   0.338  1.00  0.00    -0.495 OA
ATOM     20  C   UNL     1       1.905  -4.738  -0.042  1.00  0.00     0.278 C 
ENDBRANCH  15  19
ENDBRANCH  10  13
ENDBRANCH   6  10
ENDBRANCH   5   6
ENDBRANCH   3   5
ENDBRANCH   2   3
ENDBRANCH   1   2
BRANCH   1  21
ATOM     21  C   UNL     1      -3.996   1.065  -2.692  1.00  0.00     0.275 C 
BRANCH  21  22
ATOM     22  O   UNL     1      -4.749   0.046  -3.398  1.00  0.00    -0.458 OA
BRANCH  22  23
ATOM     23  C   UNL     1      -4.349  -1.204  -3.124  1.00  0.00     0.338 C 
ATOM     24  O   UNL     1      -3.502  -1.533  -2.304  1.00  0.00    -0.246 OA
BRANCH  23  25
ATOM     25  C   UNL     1      -5.017  -2.299  -3.802  1.00  0.00     0.060 A 
ATOM     26  C   UNL     1      -5.367  -3.359  -2.956  1.00  0.00     0.016 A 
ATOM     27  C   UNL     1      -4.943  -2.463  -5.184  1.00  0.00     0.016 A 
ATOM     28  C   UNL     1      -5.560  -4.617  -3.487  1.00  0.00     0.010 A 
ATOM     29  C   UNL     1      -5.217  -3.723  -5.722  1.00  0.00     0.010 A 
ATOM     30  C   UNL     1      -5.500  -4.810  -4.875  1.00  0.00    -0.014 A 
BRANCH  30  31
ATOM     31  C   UNL     1      -5.809  -6.153  -5.411  1.00  0.00     0.031 A 
ATOM     32  C   UNL     1      -4.772  -6.981  -6.110  1.00  0.00     0.074 A 
ATOM     33  C   UNL     1      -7.053  -6.627  -5.211  1.00  0.00     0.049 A 
ATOM     34  N   UNL     1      -4.904  -8.163  -6.653  1.00  0.00    -0.248 NA
ATOM     35  C   UNL     1      -3.407  -6.435  -6.193  1.00  0.00     0.031 C 
ATOM     36  C   UNL     1      -8.119  -5.909  -4.505  1.00  0.00     0.029 A 
ATOM     37  N   UNL     1      -7.638  -7.807  -5.585  1.00  0.00    -0.354 N 
ATOM     38  C   UNL     1      -3.652  -8.499  -7.150  1.00  0.00     0.074 A 
ATOM     39  C   UNL     1      -2.763  -7.404  -6.834  1.00  0.00     0.031 C 
ATOM     40  C   UNL     1      -9.226  -6.660  -4.497  1.00  0.00     0.029 A 
ATOM     41  C   UNL     1      -8.976  -7.864  -5.276  1.00  0.00     0.049 A 
ATOM     42  H   UNL     1      -7.151  -8.539  -6.028  1.00  0.00     0.167 HD
ATOM     43  C   UNL     1      -3.287  -9.624  -7.808  1.00  0.00     0.034 A 
ATOM     44  C   UNL     1      -9.921  -8.751  -5.639  1.00  0.00     0.034 A 
ATOM     45  C   UNL     1      -4.193 -10.693  -8.135  1.00  0.00     0.049 A 
ATOM     46  C   UNL     1      -9.513  -9.925  -6.473  1.00  0.00     0.074 A 
ATOM     47  C   UNL     1      -3.925 -11.872  -8.807  1.00  0.00     0.029 A 
ATOM     48  N   UNL     1      -5.547 -10.702  -7.835  1.00  0.00    -0.354 N 
ATOM     49  N   UNL     1      -8.313 -10.259  -6.882  1.00  0.00    -0.248 NA
ATOM     50  C   UNL     1     -10.576 -10.845  -6.889  1.00  0.00     0.031 C 
ATOM     51  C   UNL     1      -5.123 -12.583  -8.935  1.00  0.00     0.029 A 
ATOM     52  C   UNL     1      -6.133 -11.855  -8.326  1.00  0.00     0.049 A 
ATOM     53  H   UNL     1      -6.021  -9.993  -7.344  1.00  0.00     0.167 HD
ATOM     54  C   UNL     1      -8.470 -11.443  -7.588  1.00  0.00     0.074 A 
ATOM     55  C   UNL     1      -9.882 -11.772  -7.538  1.00  0.00     0.031 C 
ATOM     56  C   UNL     1      -7.533 -12.181  -8.229  1.00  0.00     0.034 A 
BRANCH  43  57
ATOM     57  C   UNL     1      -1.846  -9.772  -8.215  1.00  0.00     0.023 A 
ATOM     58  C   UNL     1      -0.900 -10.198  -7.263  1.00  0.00     0.012 A 
ATOM     59  C   UNL     1      -1.447  -9.581  -9.552  1.00  0.00     0.148 A 
ATOM     60  C   UNL     1       0.425 -10.429  -7.635  1.00  0.00     0.002 A 
ATOM     61  C   UNL     1      -0.131  -9.839  -9.921  1.00  0.00     0.091 A 
ATOM     62  F   UNL     1      -2.358  -9.147 -10.435  1.00  0.00    -0.205 F 
ATOM     63  C   UNL     1       0.806 -10.261  -8.964  1.00  0.00     0.022 A 
BRANCH  61  64
ATOM     64  S   UNL     1       0.434  -9.706 -11.622  1.00  0.00     0.127 S 
ATOM     65  O   UNL     1       1.184  -8.451 -11.586  1.00  0.00    -0.237 OA
ATOM     66  O   UNL     1       1.259 -10.905 -11.772  1.00  0.00    -0.237 OA
ATOM     67  O   UNL     1      -0.770  -9.696 -12.440  1.00  0.00    -0.744 OA
ENDBRANCH  61  64
ENDBRANCH  43  57
BRANCH  44  68
ATOM     68  C   UNL     1     -11.327  -8.517  -5.215  1.00  0.00     0.023 A 
ATOM     69  C   UNL     1     -11.913  -9.349  -4.246  1.00  0.00     0.012 A 
ATOM     70  C   UNL     1     -12.041  -7.393  -5.681  1.00  0.00     0.148 A 
ATOM     71  C   UNL     1     -13.185  -9.062  -3.745  1.00  0.00     0.002 A 
ATOM     72  C   UNL     1     -13.273  -7.074  -5.126  1.00  0.00     0.091 A 
ATOM     73  F   UNL     1     -11.479  -6.625  -6.627  1.00  0.00    -0.205 F 
ATOM     74  C   UNL     1     -13.854  -7.915  -4.167  1.00  0.00     0.022 A 
BRANCH  72  75
ATOM     75  S   UNL     1     -14.084  -5.512  -5.492  1.00  0.00     0.127 S 
ATOM     76  O   UNL     1     -15.026  -5.898  -6.538  1.00  0.00    -0.237 OA
ATOM     77  O   UNL     1     -14.697  -5.168  -4.207  1.00  0.00    -0.237 OA
ATOM     78  O   UNL     1     -13.009  -4.613  -5.891  1.00  0.00    -0.744 OA
ENDBRANCH  72  75
ENDBRANCH  44  68
BRANCH  56  79
ATOM     79  C   UNL     1      -7.999 -13.434  -8.913  1.00  0.00     0.023 A 
ATOM     80  C   UNL     1      -8.658 -13.343 -10.154  1.00  0.00     0.012 A 
ATOM     81  C   UNL     1      -7.715 -14.698  -8.364  1.00  0.00     0.148 A 
ATOM     82  C   UNL     1      -9.045 -14.497 -10.832  1.00  0.00     0.002 A 
ATOM     83  C   UNL     1      -8.068 -15.844  -9.065  1.00  0.00     0.091 A 
ATOM     84  F   UNL     1      -7.109 -14.756  -7.170  1.00  0.00    -0.205 F 
ATOM     85  C   UNL     1      -8.739 -15.746 -10.294  1.00  0.00     0.022 A 
BRANCH  83  86
ATOM     86  S   UNL     1      -7.639 -17.489  -8.485  1.00  0.00     0.127 S 
ATOM     87  O   UNL     1      -8.927 -17.977  -7.996  1.00  0.00    -0.237 OA
ATOM     88  O   UNL     1      -7.164 -18.137  -9.708  1.00  0.00    -0.237 OA
ATOM     89  O   UNL     1      -6.613 -17.297  -7.468  1.00  0.00    -0.744 OA
ENDBRANCH  83  86
ENDBRANCH  56  79
ENDBRANCH  30  31
ENDBRANCH  23  25
ENDBRANCH  22  23
ENDBRANCH  21  22
ENDBRANCH   1  21
TORSDOF 20
