REMARK SMILES CN1C(=O)N(CC(=O)OCCOC(=O)c2ccc(-c3c4nc(c(-c5cccc(S(=O)(=O)[O-])c5F)c5ccc([nH]5)c(-c5cccc(S(=O)(=O)[O-])c5F)c5nc(c(-c6cccc(S(=O)(=O)[O-])c6F)c6ccc3[nH]6)C=C5)C=C4)cc2)C(=O)C12CCCCC2
REMARK SMILES IDX 11 1 10 2 9 3 7 4 8 5 6 6 5 7 1 8 2 9 3 10 80 11 4 12 78 13
REMARK SMILES IDX 81 14 85 15 79 16 82 17 84 18 83 19 12 20 13 21 14 22 15 23
REMARK SMILES IDX 16 24 77 25 17 26 76 27 18 28 19 29 20 30 70 31 21 32 75 33
REMARK SMILES IDX 69 34 71 35 22 36 74 37 68 38 67 39 23 41 55 42 35 43 54 44
REMARK SMILES IDX 36 45 39 46 53 47 72 48 37 49 38 50 52 52 73 53 40 54 24 55
REMARK SMILES IDX 25 56 33 57 26 58 28 59 34 60 27 61 29 62 30 63 31 64 32 65
REMARK SMILES IDX 56 66 57 67 65 68 58 69 60 70 66 71 59 72 61 73 62 74 63 75
REMARK SMILES IDX 64 76 41 77 42 78 50 79 43 80 45 81 51 82 44 83 46 84 47 85
REMARK SMILES IDX 48 86 49 87
REMARK H PARENT 71 40 39 51
REMARK Flexibility Score: inf
ROOT
ATOM      1  C   UNL     1       4.426   2.212   3.446  1.00  0.00     0.275 C 
ENDROOT
BRANCH   1   2
ATOM      2  C   UNL     1       4.133   1.110   4.461  1.00  0.00     0.274 C 
BRANCH   2   3
ATOM      3  O   UNL     1       2.742   0.733   4.389  1.00  0.00    -0.461 OA
BRANCH   3   4
ATOM      4  C   UNL     1       1.926   1.218   5.372  1.00  0.00     0.326 C 
ATOM      5  O   UNL     1       2.321   1.800   6.376  1.00  0.00    -0.250 OA
BRANCH   4   6
ATOM      6  C   UNL     1       0.439   0.990   5.091  1.00  0.00     0.253 C 
BRANCH   6   7
ATOM      7  N   UNL     1       0.237   0.293   3.844  1.00  0.00    -0.251 N 
ATOM      8  C   UNL     1       0.625   0.140   0.272  1.00  0.00     0.150 C 
ATOM      9  N   UNL     1       0.316  -0.122   1.661  1.00  0.00    -0.313 N 
ATOM     10  C   UNL     1       0.313   0.878   2.619  1.00  0.00     0.327 C 
ATOM     11  C   UNL     1       0.250  -1.459   2.256  1.00  0.00     0.124 C 
ATOM     12  O   UNL     1       0.408   2.075   2.408  1.00  0.00    -0.248 OA
ATOM     13  C   UNL     1       0.098  -1.053   3.738  1.00  0.00     0.257 C 
ATOM     14  C   UNL     1      -0.960  -2.251   1.753  1.00  0.00     0.039 C 
ATOM     15  C   UNL     1       1.564  -2.239   2.100  1.00  0.00     0.039 C 
ATOM     16  O   UNL     1      -0.054  -1.816   4.684  1.00  0.00    -0.272 OA
ATOM     17  C   UNL     1      -1.037  -3.658   2.341  1.00  0.00     0.003 C 
ATOM     18  C   UNL     1       1.484  -3.638   2.715  1.00  0.00     0.003 C 
ATOM     19  C   UNL     1       0.278  -4.422   2.206  1.00  0.00     0.000 C 
ENDBRANCH   6   7
ENDBRANCH   4   6
ENDBRANCH   3   4
ENDBRANCH   2   3
ENDBRANCH   1   2
BRANCH   1  20
ATOM     20  O   UNL     1       3.542   3.313   3.700  1.00  0.00    -0.458 OA
BRANCH  20  21
ATOM     21  C   UNL     1       2.968   3.874   2.608  1.00  0.00     0.338 C 
ATOM     22  O   UNL     1       3.216   3.622   1.440  1.00  0.00    -0.246 OA
BRANCH  21  23
ATOM     23  C   UNL     1       2.019   4.914   3.057  1.00  0.00     0.060 A 
ATOM     24  C   UNL     1       1.124   4.667   4.101  1.00  0.00     0.016 A 
ATOM     25  C   UNL     1       1.998   6.141   2.399  1.00  0.00     0.016 A 
ATOM     26  C   UNL     1       0.167   5.615   4.452  1.00  0.00     0.010 A 
ATOM     27  C   UNL     1       1.097   7.126   2.811  1.00  0.00     0.010 A 
ATOM     28  C   UNL     1       0.156   6.865   3.824  1.00  0.00    -0.014 A 
BRANCH  28  29
ATOM     29  C   UNL     1      -0.831   7.908   4.211  1.00  0.00     0.031 A 
ATOM     30  C   UNL     1      -1.797   8.445   3.189  1.00  0.00     0.074 A 
ATOM     31  C   UNL     1      -0.818   8.416   5.459  1.00  0.00     0.049 A 
ATOM     32  N   UNL     1      -2.606   9.469   3.276  1.00  0.00    -0.248 NA
ATOM     33  C   UNL     1      -1.845   7.750   1.892  1.00  0.00     0.031 C 
ATOM     34  C   UNL     1       0.070   7.986   6.541  1.00  0.00     0.029 A 
ATOM     35  N   UNL     1      -1.554   9.431   6.019  1.00  0.00    -0.354 N 
ATOM     36  C   UNL     1      -3.211   9.582   2.029  1.00  0.00     0.074 A 
ATOM     37  C   UNL     1      -2.676   8.521   1.203  1.00  0.00     0.031 C 
ATOM     38  C   UNL     1      -0.165   8.735   7.628  1.00  0.00     0.029 A 
ATOM     39  C   UNL     1      -1.173   9.738   7.305  1.00  0.00     0.049 A 
ATOM     40  H   UNL     1      -2.283   9.895   5.547  1.00  0.00     0.167 HD
ATOM     41  C   UNL     1      -4.136  10.480   1.615  1.00  0.00     0.034 A 
ATOM     42  C   UNL     1      -1.560  10.738   8.121  1.00  0.00     0.034 A 
ATOM     43  C   UNL     1      -4.707  11.496   2.458  1.00  0.00     0.049 A 
ATOM     44  C   UNL     1      -2.594  11.716   7.638  1.00  0.00     0.074 A 
ATOM     45  C   UNL     1      -5.697  12.413   2.150  1.00  0.00     0.029 A 
ATOM     46  N   UNL     1      -4.343  11.730   3.775  1.00  0.00    -0.354 N 
ATOM     47  N   UNL     1      -3.222  11.753   6.488  1.00  0.00    -0.248 NA
ATOM     48  C   UNL     1      -2.991  12.779   8.573  1.00  0.00     0.031 C 
ATOM     49  C   UNL     1      -5.918  13.214   3.275  1.00  0.00     0.029 A 
ATOM     50  C   UNL     1      -5.083  12.781   4.292  1.00  0.00     0.049 A 
ATOM     51  H   UNL     1      -3.660  11.224   4.271  1.00  0.00     0.167 HD
ATOM     52  C   UNL     1      -4.106  12.822   6.570  1.00  0.00     0.074 A 
ATOM     53  C   UNL     1      -3.951  13.391   7.894  1.00  0.00     0.031 C 
ATOM     54  C   UNL     1      -4.956  13.302   5.629  1.00  0.00     0.034 A 
BRANCH  41  55
ATOM     55  C   UNL     1      -4.617  10.387   0.190  1.00  0.00     0.023 A 
ATOM     56  C   UNL     1      -5.479   9.338  -0.190  1.00  0.00     0.012 A 
ATOM     57  C   UNL     1      -4.267  11.370  -0.756  1.00  0.00     0.148 A 
ATOM     58  C   UNL     1      -5.960   9.252  -1.496  1.00  0.00     0.002 A 
ATOM     59  C   UNL     1      -4.785  11.302  -2.045  1.00  0.00     0.091 A 
ATOM     60  F   UNL     1      -3.429  12.348  -0.384  1.00  0.00    -0.205 F 
ATOM     61  C   UNL     1      -5.622  10.238  -2.419  1.00  0.00     0.022 A 
BRANCH  59  62
ATOM     62  S   UNL     1      -4.472  12.566  -3.283  1.00  0.00     0.127 S 
ATOM     63  O   UNL     1      -3.564  11.869  -4.194  1.00  0.00    -0.237 OA
ATOM     64  O   UNL     1      -5.810  12.806  -3.825  1.00  0.00    -0.237 OA
ATOM     65  O   UNL     1      -3.896  13.695  -2.567  1.00  0.00    -0.744 OA
ENDBRANCH  59  62
ENDBRANCH  41  55
BRANCH  42  66
ATOM     66  C   UNL     1      -0.983  10.843   9.492  1.00  0.00     0.023 A 
ATOM     67  C   UNL     1      -1.800  10.573  10.606  1.00  0.00     0.012 A 
ATOM     68  C   UNL     1       0.372  11.170   9.696  1.00  0.00     0.148 A 
ATOM     69  C   UNL     1      -1.284  10.651  11.900  1.00  0.00     0.002 A 
ATOM     70  C   UNL     1       0.893  11.189  10.984  1.00  0.00     0.091 A 
ATOM     71  F   UNL     1       1.129  11.442   8.623  1.00  0.00    -0.205 F 
ATOM     72  C   UNL     1       0.063  10.946  12.089  1.00  0.00     0.022 A 
BRANCH  70  73
ATOM     73  S   UNL     1       2.644  11.425  11.309  1.00  0.00     0.127 S 
ATOM     74  O   UNL     1       2.667  12.776  11.862  1.00  0.00    -0.237 OA
ATOM     75  O   UNL     1       2.921  10.360  12.274  1.00  0.00    -0.237 OA
ATOM     76  O   UNL     1       3.308  11.253  10.024  1.00  0.00    -0.744 OA
ENDBRANCH  70  73
ENDBRANCH  42  66
BRANCH  54  77
ATOM     77  C   UNL     1      -5.811  14.484   6.003  1.00  0.00     0.023 A 
ATOM     78  C   UNL     1      -5.228  15.762   6.112  1.00  0.00     0.012 A 
ATOM     79  C   UNL     1      -7.201  14.340   6.182  1.00  0.00     0.148 A 
ATOM     80  C   UNL     1      -6.009  16.873   6.425  1.00  0.00     0.002 A 
ATOM     81  C   UNL     1      -7.981  15.460   6.448  1.00  0.00     0.091 A 
ATOM     82  F   UNL     1      -7.735  13.113   6.095  1.00  0.00    -0.205 F 
ATOM     83  C   UNL     1      -7.385  16.724   6.582  1.00  0.00     0.022 A 
BRANCH  81  84
ATOM     84  S   UNL     1      -9.771  15.376   6.573  1.00  0.00     0.127 S 
ATOM     85  O   UNL     1      -9.977  15.513   8.013  1.00  0.00    -0.237 OA
ATOM     86  O   UNL     1     -10.194  16.533   5.783  1.00  0.00    -0.237 OA
ATOM     87  O   UNL     1     -10.152  14.089   6.005  1.00  0.00    -0.744 OA
ENDBRANCH  81  84
ENDBRANCH  54  77
ENDBRANCH  28  29
ENDBRANCH  21  23
ENDBRANCH  20  21
ENDBRANCH   1  20
TORSDOF 15
