REMARK SMILES CC(C)[C@H](C)n1c(SCC(=O)OCCOC(=O)c2ccc(-c3c4nc(c(-c5cccc(S(=O)(=O)[O-])c5F)c5ccc([nH]5)c(-c5cccc(S(=O)(=O)[O-])c5F)c5nc(c(-c6cccc(S(=O)(=O)[O-])c6F)c6ccc3[nH]6)C=C5)C=C4)cc2)nc2cc(Br)cnc21
REMARK SMILES IDX 13 1 12 2 10 3 11 4 9 5 8 6 7 7 6 8 88 9 81 10 82 11 87 12
REMARK SMILES IDX 83 13 86 14 84 15 85 16 4 17 5 18 2 19 1 20 3 21 14 22 15 23
REMARK SMILES IDX 16 24 17 25 18 26 19 27 80 28 20 29 79 30 21 31 22 32 23 33
REMARK SMILES IDX 73 34 24 35 78 36 72 37 74 38 25 39 77 40 71 41 70 42 26 44
REMARK SMILES IDX 58 45 38 46 57 47 39 48 42 49 56 50 75 51 40 52 41 53 55 55
REMARK SMILES IDX 76 56 43 57 27 58 28 59 36 60 29 61 31 62 37 63 30 64 32 65
REMARK SMILES IDX 33 66 34 67 35 68 59 69 60 70 68 71 61 72 63 73 69 74 62 75
REMARK SMILES IDX 64 76 65 77 66 78 67 79 44 80 45 81 53 82 46 83 48 84 54 85
REMARK SMILES IDX 47 86 49 87 50 88 51 89 52 90
REMARK H PARENT 74 43 42 54
REMARK Flexibility Score: inf
ROOT
ATOM      1  C   UNL     1      -5.103  -1.267  -0.511  1.00  0.00     0.274 C 
ENDROOT
BRANCH   1   2
ATOM      2  O   UNL     1      -4.546  -1.812   0.713  1.00  0.00    -0.461 OA
BRANCH   2   3
ATOM      3  C   UNL     1      -3.395  -2.519   0.565  1.00  0.00     0.316 C 
ATOM      4  O   UNL     1      -2.822  -2.676  -0.515  1.00  0.00    -0.251 OA
BRANCH   3   5
ATOM      5  C   UNL     1      -3.001  -3.350   1.753  1.00  0.00     0.200 C 
BRANCH   5   6
ATOM      6  S   UNL     1      -2.744  -2.781   3.418  1.00  0.00    -0.076 SA
BRANCH   6   7
ATOM      7  C   UNL     1      -2.412  -1.106   3.677  1.00  0.00     0.171 A 
ATOM      8  N   UNL     1      -1.355  -0.293   3.292  1.00  0.00    -0.301 N 
ATOM      9  C   UNL     1      -1.621   0.952   3.870  1.00  0.00     0.161 A 
ATOM     10  N   UNL     1      -3.115  -0.535   4.646  1.00  0.00    -0.221 NA
ATOM     11  C   UNL     1      -2.647   0.736   4.770  1.00  0.00     0.110 A 
ATOM     12  N   UNL     1      -0.981   2.121   3.644  1.00  0.00    -0.235 NA
ATOM     13  C   UNL     1      -3.043   1.789   5.603  1.00  0.00     0.049 A 
ATOM     14  C   UNL     1      -1.437   3.137   4.422  1.00  0.00     0.129 A 
ATOM     15  C   UNL     1      -2.427   3.022   5.391  1.00  0.00     0.038 A 
ATOM     16  Br  UNL     1      -2.984   4.525   6.385  1.00  0.00    -0.049 Br
BRANCH   8  17
ATOM     17  C   UNL     1      -0.200  -0.429   2.393  1.00  0.00     0.091 C 
ATOM     18  C   UNL     1       1.151  -0.019   3.023  1.00  0.00     0.032 C 
BRANCH  17  19
ATOM     19  C   UNL     1      -0.054  -1.719   1.554  1.00  0.00     0.006 C 
ATOM     20  C   UNL     1       0.624  -1.499   0.196  1.00  0.00     0.009 C 
ATOM     21  C   UNL     1       0.641  -2.863   2.288  1.00  0.00     0.009 C 
ENDBRANCH  17  19
ENDBRANCH   8  17
ENDBRANCH   6   7
ENDBRANCH   5   6
ENDBRANCH   3   5
ENDBRANCH   2   3
ENDBRANCH   1   2
BRANCH   1  22
ATOM     22  C   UNL     1      -5.114   0.261  -0.518  1.00  0.00     0.275 C 
BRANCH  22  23
ATOM     23  O   UNL     1      -3.996   0.871  -1.185  1.00  0.00    -0.458 OA
BRANCH  23  24
ATOM     24  C   UNL     1      -2.853   0.853  -0.470  1.00  0.00     0.338 C 
ATOM     25  O   UNL     1      -2.529   0.017   0.356  1.00  0.00    -0.246 OA
BRANCH  24  26
ATOM     26  C   UNL     1      -2.125   2.126  -0.577  1.00  0.00     0.060 A 
ATOM     27  C   UNL     1      -0.811   2.120  -0.118  1.00  0.00     0.016 A 
ATOM     28  C   UNL     1      -2.821   3.325  -0.720  1.00  0.00     0.016 A 
ATOM     29  C   UNL     1      -0.309   3.243   0.502  1.00  0.00     0.010 A 
ATOM     30  C   UNL     1      -2.254   4.488  -0.221  1.00  0.00     0.010 A 
ATOM     31  C   UNL     1      -1.062   4.418   0.511  1.00  0.00    -0.014 A 
BRANCH  31  32
ATOM     32  C   UNL     1      -0.512   5.557   1.258  1.00  0.00     0.031 A 
ATOM     33  C   UNL     1       0.921   5.885   0.972  1.00  0.00     0.074 A 
ATOM     34  C   UNL     1      -1.276   6.332   2.058  1.00  0.00     0.049 A 
ATOM     35  N   UNL     1       1.872   6.174   1.807  1.00  0.00    -0.248 NA
ATOM     36  C   UNL     1       1.371   5.761  -0.427  1.00  0.00     0.031 C 
ATOM     37  C   UNL     1      -2.726   6.239   2.257  1.00  0.00     0.029 A 
ATOM     38  N   UNL     1      -0.952   7.506   2.685  1.00  0.00    -0.354 N 
ATOM     39  C   UNL     1       2.988   6.451   1.015  1.00  0.00     0.074 A 
ATOM     40  C   UNL     1       2.670   6.019  -0.319  1.00  0.00     0.031 C 
ATOM     41  C   UNL     1      -3.191   7.454   2.607  1.00  0.00     0.029 A 
ATOM     42  C   UNL     1      -2.060   8.347   2.776  1.00  0.00     0.049 A 
ATOM     43  H   UNL     1      -0.055   7.727   3.026  1.00  0.00     0.167 HD
ATOM     44  C   UNL     1       4.027   7.219   1.438  1.00  0.00     0.034 A 
ATOM     45  C   UNL     1      -2.052   9.701   2.797  1.00  0.00     0.034 A 
ATOM     46  C   UNL     1       4.112   7.304   2.866  1.00  0.00     0.049 A 
ATOM     47  C   UNL     1      -0.705  10.151   3.212  1.00  0.00     0.074 A 
ATOM     48  C   UNL     1       4.266   6.398   3.894  1.00  0.00     0.029 A 
ATOM     49  N   UNL     1       3.765   8.492   3.460  1.00  0.00    -0.354 N 
ATOM     50  N   UNL     1      -0.205   9.972   4.403  1.00  0.00    -0.248 NA
ATOM     51  C   UNL     1       0.255  10.482   2.172  1.00  0.00     0.031 C 
ATOM     52  C   UNL     1       3.557   6.960   4.992  1.00  0.00     0.029 A 
ATOM     53  C   UNL     1       3.024   8.177   4.565  1.00  0.00     0.049 A 
ATOM     54  H   UNL     1       4.004   9.395   3.150  1.00  0.00     0.167 HD
ATOM     55  C   UNL     1       1.146   9.740   4.183  1.00  0.00     0.074 A 
ATOM     56  C   UNL     1       1.387  10.186   2.813  1.00  0.00     0.031 C 
ATOM     57  C   UNL     1       1.881   8.942   5.014  1.00  0.00     0.034 A 
BRANCH  44  58
ATOM     58  C   UNL     1       4.789   8.162   0.538  1.00  0.00     0.023 A 
ATOM     59  C   UNL     1       5.969   8.751   1.042  1.00  0.00     0.012 A 
ATOM     60  C   UNL     1       4.268   8.700  -0.661  1.00  0.00     0.148 A 
ATOM     61  C   UNL     1       6.572   9.843   0.408  1.00  0.00     0.002 A 
ATOM     62  C   UNL     1       4.923   9.722  -1.337  1.00  0.00     0.091 A 
ATOM     63  F   UNL     1       3.058   8.332  -1.095  1.00  0.00    -0.205 F 
ATOM     64  C   UNL     1       6.057  10.321  -0.791  1.00  0.00     0.022 A 
BRANCH  62  65
ATOM     65  S   UNL     1       4.323  10.298  -2.929  1.00  0.00     0.127 S 
ATOM     66  O   UNL     1       3.539  11.467  -2.544  1.00  0.00    -0.237 OA
ATOM     67  O   UNL     1       5.569  10.592  -3.639  1.00  0.00    -0.237 OA
ATOM     68  O   UNL     1       3.582   9.170  -3.481  1.00  0.00    -0.744 OA
ENDBRANCH  62  65
ENDBRANCH  44  58
BRANCH  45  69
ATOM     69  C   UNL     1      -3.047  10.600   2.164  1.00  0.00     0.023 A 
ATOM     70  C   UNL     1      -3.189  11.923   2.617  1.00  0.00     0.012 A 
ATOM     71  C   UNL     1      -3.731  10.229   0.980  1.00  0.00     0.148 A 
ATOM     72  C   UNL     1      -3.994  12.839   1.925  1.00  0.00     0.002 A 
ATOM     73  C   UNL     1      -4.562  11.127   0.320  1.00  0.00     0.091 A 
ATOM     74  F   UNL     1      -3.497   9.024   0.442  1.00  0.00    -0.205 F 
ATOM     75  C   UNL     1      -4.689  12.439   0.785  1.00  0.00     0.022 A 
BRANCH  73  76
ATOM     76  S   UNL     1      -5.517  10.640  -1.125  1.00  0.00     0.127 S 
ATOM     77  O   UNL     1      -6.806  11.287  -0.875  1.00  0.00    -0.237 OA
ATOM     78  O   UNL     1      -4.742  11.222  -2.215  1.00  0.00    -0.237 OA
ATOM     79  O   UNL     1      -5.570   9.183  -1.083  1.00  0.00    -0.744 OA
ENDBRANCH  73  76
ENDBRANCH  45  69
BRANCH  57  80
ATOM     80  C   UNL     1       1.312   8.530   6.350  1.00  0.00     0.023 A 
ATOM     81  C   UNL     1       0.103   7.814   6.450  1.00  0.00     0.012 A 
ATOM     82  C   UNL     1       2.125   8.652   7.495  1.00  0.00     0.148 A 
ATOM     83  C   UNL     1      -0.294   7.248   7.663  1.00  0.00     0.002 A 
ATOM     84  C   UNL     1       1.753   8.036   8.684  1.00  0.00     0.091 A 
ATOM     85  F   UNL     1       3.279   9.329   7.384  1.00  0.00    -0.205 F 
ATOM     86  C   UNL     1       0.538   7.341   8.774  1.00  0.00     0.022 A 
BRANCH  84  87
ATOM     87  S   UNL     1       2.837   7.986  10.115  1.00  0.00     0.127 S 
ATOM     88  O   UNL     1       2.128   8.842  11.065  1.00  0.00    -0.237 OA
ATOM     89  O   UNL     1       2.835   6.563  10.457  1.00  0.00    -0.237 OA
ATOM     90  O   UNL     1       4.127   8.492   9.665  1.00  0.00    -0.744 OA
ENDBRANCH  84  87
ENDBRANCH  57  80
ENDBRANCH  31  32
ENDBRANCH  24  26
ENDBRANCH  23  24
ENDBRANCH  22  23
ENDBRANCH   1  22
TORSDOF 18
