REMARK SMILES O=C(OCCOC(=O)[C@@H]1CC[C@@H](CS(=O)(=O)c2cccc(F)c2)O1)c1ccc(-c2c3nc(c(-c4cccc(S(=O)(=O)[O-])c4F)c4ccc([nH]4)c(-c4cccc(S(=O)(=O)[O-])c4F)c4nc(c(-c5cccc(S(=O)(=O)[O-])c5F)c5ccc2[nH]5)C=C4)C=C3)cc1
REMARK SMILES IDX 4 1 3 2 2 3 1 4 25 5 26 6 87 7 27 8 86 9 28 10 29 11 30 12
REMARK SMILES IDX 80 13 31 14 85 15 79 16 81 17 32 18 84 19 78 20 77 21 33 23
REMARK SMILES IDX 65 24 45 25 64 26 46 27 49 28 63 29 82 30 47 31 48 32 62 34
REMARK SMILES IDX 83 35 50 36 34 37 35 38 43 39 36 40 38 41 44 42 37 43 39 44
REMARK SMILES IDX 40 45 41 46 42 47 66 48 67 49 75 50 68 51 70 52 76 53 69 54
REMARK SMILES IDX 71 55 72 56 73 57 74 58 51 59 52 60 60 61 53 62 55 63 61 64
REMARK SMILES IDX 54 65 56 66 57 67 58 68 59 69 5 70 6 71 7 72 8 73 9 74 10 75
REMARK SMILES IDX 24 76 11 77 12 78 13 79 14 80 15 81 16 82 17 83 18 84 23 85
REMARK SMILES IDX 19 86 21 87 20 88 22 89
REMARK H PARENT 81 22 49 33
REMARK Flexibility Score: inf
ROOT
ATOM      1  C   UNL     1       4.086   1.231  -1.205  1.00  0.00     0.275 C 
ENDROOT
BRANCH   1   2
ATOM      2  O   UNL     1       3.099   0.207  -0.986  1.00  0.00    -0.458 OA
BRANCH   2   3
ATOM      3  C   UNL     1       3.436  -1.086  -0.725  1.00  0.00     0.338 C 
ATOM      4  O   UNL     1       2.931  -2.012  -1.350  1.00  0.00    -0.246 OA
BRANCH   3   5
ATOM      5  C   UNL     1       4.095  -1.357   0.586  1.00  0.00     0.060 A 
ATOM      6  C   UNL     1       5.276  -0.746   1.016  1.00  0.00     0.016 A 
ATOM      7  C   UNL     1       3.443  -2.253   1.453  1.00  0.00     0.016 A 
ATOM      8  C   UNL     1       5.754  -0.956   2.313  1.00  0.00     0.010 A 
ATOM      9  C   UNL     1       3.901  -2.433   2.766  1.00  0.00     0.010 A 
ATOM     10  C   UNL     1       5.064  -1.784   3.206  1.00  0.00    -0.014 A 
BRANCH  10  11
ATOM     11  C   UNL     1       5.654  -2.057   4.539  1.00  0.00     0.031 A 
ATOM     12  C   UNL     1       6.254  -3.410   4.787  1.00  0.00     0.074 A 
ATOM     13  C   UNL     1       5.716  -1.102   5.490  1.00  0.00     0.049 A 
ATOM     14  N   UNL     1       6.966  -3.822   5.799  1.00  0.00    -0.248 NA
ATOM     15  C   UNL     1       6.015  -4.439   3.760  1.00  0.00     0.031 C 
ATOM     16  C   UNL     1       5.124   0.232   5.393  1.00  0.00     0.029 A 
ATOM     17  N   UNL     1       6.316  -1.107   6.727  1.00  0.00    -0.354 N 
ATOM     18  C   UNL     1       7.245  -5.157   5.539  1.00  0.00     0.074 A 
ATOM     19  C   UNL     1       6.583  -5.502   4.303  1.00  0.00     0.031 C 
ATOM     20  C   UNL     1       5.407   0.924   6.511  1.00  0.00     0.029 A 
ATOM     21  C   UNL     1       6.205   0.088   7.404  1.00  0.00     0.049 A 
ATOM     22  H   UNL     1       6.782  -1.892   7.095  1.00  0.00     0.167 HD
ATOM     23  C   UNL     1       8.022  -6.012   6.239  1.00  0.00     0.034 A 
ATOM     24  C   UNL     1       6.715   0.470   8.595  1.00  0.00     0.034 A 
ATOM     25  C   UNL     1       8.707  -5.660   7.445  1.00  0.00     0.049 A 
ATOM     26  C   UNL     1       7.599  -0.494   9.351  1.00  0.00     0.074 A 
ATOM     27  C   UNL     1       9.563  -6.435   8.203  1.00  0.00     0.029 A 
ATOM     28  N   UNL     1       8.604  -4.429   8.075  1.00  0.00    -0.354 N 
ATOM     29  N   UNL     1       7.994  -1.696   9.003  1.00  0.00    -0.248 NA
ATOM     30  C   UNL     1       8.141  -0.039  10.642  1.00  0.00     0.031 C 
ATOM     31  C   UNL     1       9.963  -5.678   9.307  1.00  0.00     0.029 A 
ATOM     32  C   UNL     1       9.373  -4.424   9.222  1.00  0.00     0.049 A 
ATOM     33  H   UNL     1       8.063  -3.672   7.753  1.00  0.00     0.167 HD
ATOM     34  C   UNL     1       8.848  -2.128  10.013  1.00  0.00     0.074 A 
ATOM     35  C   UNL     1       8.931  -1.052  10.979  1.00  0.00     0.031 C 
ATOM     36  C   UNL     1       9.493  -3.315  10.137  1.00  0.00     0.034 A 
BRANCH  23  37
ATOM     37  C   UNL     1       8.188  -7.394   5.673  1.00  0.00     0.023 A 
ATOM     38  C   UNL     1       8.976  -7.580   4.518  1.00  0.00     0.012 A 
ATOM     39  C   UNL     1       7.547  -8.497   6.263  1.00  0.00     0.148 A 
ATOM     40  C   UNL     1       9.084  -8.838   3.930  1.00  0.00     0.002 A 
ATOM     41  C   UNL     1       7.694  -9.756   5.695  1.00  0.00     0.091 A 
ATOM     42  F   UNL     1       6.778  -8.290   7.342  1.00  0.00    -0.205 F 
ATOM     43  C   UNL     1       8.449  -9.926   4.522  1.00  0.00     0.022 A 
BRANCH  41  44
ATOM     44  S   UNL     1       6.958 -11.228   6.411  1.00  0.00     0.127 S 
ATOM     45  O   UNL     1       5.890 -11.517   5.454  1.00  0.00    -0.237 OA
ATOM     46  O   UNL     1       8.074 -12.174   6.383  1.00  0.00    -0.237 OA
ATOM     47  O   UNL     1       6.516 -10.848   7.745  1.00  0.00    -0.744 OA
ENDBRANCH  41  44
ENDBRANCH  23  37
BRANCH  24  48
ATOM     48  C   UNL     1       6.496   1.861   9.095  1.00  0.00     0.023 A 
ATOM     49  C   UNL     1       7.576   2.767   9.108  1.00  0.00     0.012 A 
ATOM     50  C   UNL     1       5.230   2.302   9.531  1.00  0.00     0.148 A 
ATOM     51  C   UNL     1       7.407   4.077   9.560  1.00  0.00     0.002 A 
ATOM     52  C   UNL     1       5.059   3.621   9.942  1.00  0.00     0.091 A 
ATOM     53  F   UNL     1       4.216   1.425   9.518  1.00  0.00    -0.205 F 
ATOM     54  C   UNL     1       6.149   4.506   9.970  1.00  0.00     0.022 A 
BRANCH  52  55
ATOM     55  S   UNL     1       3.466   4.304  10.418  1.00  0.00     0.127 S 
ATOM     56  O   UNL     1       3.731   4.762  11.781  1.00  0.00    -0.237 OA
ATOM     57  O   UNL     1       3.299   5.374   9.434  1.00  0.00    -0.237 OA
ATOM     58  O   UNL     1       2.516   3.207  10.310  1.00  0.00    -0.744 OA
ENDBRANCH  52  55
ENDBRANCH  24  48
BRANCH  36  59
ATOM     59  C   UNL     1      10.369  -3.541  11.340  1.00  0.00     0.023 A 
ATOM     60  C   UNL     1       9.775  -3.827  12.584  1.00  0.00     0.012 A 
ATOM     61  C   UNL     1      11.765  -3.664  11.191  1.00  0.00     0.148 A 
ATOM     62  C   UNL     1      10.559  -4.236  13.662  1.00  0.00     0.002 A 
ATOM     63  C   UNL     1      12.533  -4.123  12.254  1.00  0.00     0.091 A 
ATOM     64  F   UNL     1      12.308  -3.371   9.999  1.00  0.00    -0.205 F 
ATOM     65  C   UNL     1      11.932  -4.403  13.492  1.00  0.00     0.022 A 
BRANCH  63  66
ATOM     66  S   UNL     1      14.284  -4.493  12.089  1.00  0.00     0.127 S 
ATOM     67  O   UNL     1      14.890  -3.430  12.889  1.00  0.00    -0.237 OA
ATOM     68  O   UNL     1      14.376  -5.829  12.678  1.00  0.00    -0.237 OA
ATOM     69  O   UNL     1      14.574  -4.441  10.662  1.00  0.00    -0.744 OA
ENDBRANCH  63  66
ENDBRANCH  36  59
ENDBRANCH  10  11
ENDBRANCH   3   5
ENDBRANCH   2   3
ENDBRANCH   1   2
BRANCH   1  70
ATOM     70  C   UNL     1       3.802   2.481  -0.357  1.00  0.00     0.274 C 
BRANCH  70  71
ATOM     71  O   UNL     1       3.411   2.140   0.984  1.00  0.00    -0.460 OA
BRANCH  71  72
ATOM     72  C   UNL     1       2.157   2.536   1.408  1.00  0.00     0.335 C 
ATOM     73  O   UNL     1       1.413   3.280   0.785  1.00  0.00    -0.249 OA
BRANCH  72  74
ATOM     74  C   UNL     1       1.823   1.815   2.741  1.00  0.00     0.228 C 
ATOM     75  C   UNL     1       2.007   0.351   2.433  1.00  0.00     0.047 C 
ATOM     76  O   UNL     1       0.541   1.906   3.370  1.00  0.00    -0.362 OA
ATOM     77  C   UNL     1       1.196  -0.386   3.438  1.00  0.00     0.036 C 
ATOM     78  C   UNL     1       0.074   0.580   3.717  1.00  0.00     0.135 C 
BRANCH  78  79
ATOM     79  C   UNL     1      -0.584   0.475   5.090  1.00  0.00     0.174 C 
BRANCH  79  80
ATOM     80  S   UNL     1       0.466   0.284   6.506  1.00  0.00     0.181 S 
ATOM     81  O   UNL     1       1.704   0.986   6.239  1.00  0.00    -0.224 OA
ATOM     82  O   UNL     1      -0.372   0.596   7.650  1.00  0.00    -0.224 OA
BRANCH  80  83
ATOM     83  C   UNL     1       0.904  -1.440   6.731  1.00  0.00     0.070 A 
ATOM     84  C   UNL     1       0.568  -2.452   5.823  1.00  0.00     0.020 A 
ATOM     85  C   UNL     1       1.629  -1.755   7.887  1.00  0.00     0.059 A 
ATOM     86  C   UNL     1       1.028  -3.759   6.030  1.00  0.00     0.004 A 
ATOM     87  C   UNL     1       2.040  -3.067   8.100  1.00  0.00     0.124 A 
ATOM     88  C   UNL     1       1.766  -4.066   7.172  1.00  0.00     0.039 A 
ATOM     89  F   UNL     1       2.700  -3.382   9.221  1.00  0.00    -0.207 F 
ENDBRANCH  80  83
ENDBRANCH  79  80
ENDBRANCH  78  79
ENDBRANCH  72  74
ENDBRANCH  71  72
ENDBRANCH  70  71
ENDBRANCH   1  70
TORSDOF 17
