REMARK SMILES Cc1cccc(C(=O)OCCOC(=O)c2ccc(-c3c4nc(c(-c5cccc(S(=O)(=O)[O-])c5F)c5ccc([nH]5)c(-c5cccc(S(=O)(=O)[O-])c5F)c5nc(c(-c6cccc(S(=O)(=O)[O-])c6F)c6ccc3[nH]6)C=C5)C=C4)cc2)c1OC[C@@H]1C[C@H]2CC[C@@H]1C2
REMARK SMILES IDX 10 1 9 2 7 3 8 4 6 5 1 6 2 7 3 8 78 9 4 10 5 11 79 12 80 13
REMARK SMILES IDX 81 14 82 15 86 16 83 17 85 18 87 19 84 20 11 21 12 22 13 23
REMARK SMILES IDX 14 24 15 25 16 26 77 27 17 28 76 29 18 30 19 31 20 32 70 33
REMARK SMILES IDX 21 34 75 35 69 36 71 37 22 38 74 39 68 40 67 41 23 43 55 44
REMARK SMILES IDX 35 45 54 46 36 47 39 48 53 49 72 50 37 51 38 52 52 54 73 55
REMARK SMILES IDX 40 56 24 57 25 58 33 59 26 60 28 61 34 62 27 63 29 64 30 65
REMARK SMILES IDX 31 66 32 67 56 68 57 69 65 70 58 71 60 72 66 73 59 74 61 75
REMARK SMILES IDX 62 76 63 77 64 78 41 79 42 80 50 81 43 82 45 83 51 84 44 85
REMARK SMILES IDX 46 86 47 87 48 88 49 89
REMARK H PARENT 71 42 39 53
REMARK Flexibility Score: inf
ROOT
ATOM      1  C   UNL     1      -1.101   4.835  -1.432  1.00  0.00     0.275 C 
ENDROOT
BRANCH   1   2
ATOM      2  O   UNL     1      -0.782   3.510  -0.997  1.00  0.00    -0.458 OA
BRANCH   2   3
ATOM      3  C   UNL     1      -0.713   2.543  -1.929  1.00  0.00     0.342 C 
ATOM      4  O   UNL     1      -1.025   2.653  -3.104  1.00  0.00    -0.246 OA
BRANCH   3   5
ATOM      5  C   UNL     1      -0.280   1.269  -1.321  1.00  0.00     0.102 A 
ATOM      6  C   UNL     1       2.720  -0.861  -1.542  1.00  0.00     0.048 C 
ATOM      7  C   UNL     1       1.442  -0.331  -0.950  1.00  0.00    -0.008 A 
ATOM      8  C   UNL     1       0.459  -1.311  -0.690  1.00  0.00     0.007 A 
ATOM      9  C   UNL     1       1.076   1.014  -1.036  1.00  0.00     0.136 A 
ATOM     10  C   UNL     1      -0.889  -1.010  -0.810  1.00  0.00     0.001 A 
ATOM     11  C   UNL     1      -1.243   0.252  -1.256  1.00  0.00     0.019 A 
BRANCH   9  12
ATOM     12  O   UNL     1       1.906   2.090  -0.995  1.00  0.00    -0.492 OA
BRANCH  12  13
ATOM     13  C   UNL     1       3.172   2.163  -0.305  1.00  0.00     0.233 C 
BRANCH  13  14
ATOM     14  C   UNL     1       3.334   1.638   1.145  1.00  0.00     0.030 C 
ATOM     15  C   UNL     1       4.376   2.489   1.947  1.00  0.00     0.011 C 
ATOM     16  C   UNL     1       4.000   0.240   1.275  1.00  0.00    -0.004 C 
ATOM     17  C   UNL     1       5.362   1.455   2.522  1.00  0.00    -0.010 C 
ATOM     18  C   UNL     1       3.743  -0.312   2.684  1.00  0.00     0.004 C 
ATOM     19  C   UNL     1       5.502   0.528   1.327  1.00  0.00     0.007 C 
ATOM     20  C   UNL     1       4.659   0.553   3.552  1.00  0.00     0.004 C 
ENDBRANCH  13  14
ENDBRANCH  12  13
ENDBRANCH   9  12
ENDBRANCH   3   5
ENDBRANCH   2   3
ENDBRANCH   1   2
BRANCH   1  21
ATOM     21  C   UNL     1      -2.312   5.097  -2.364  1.00  0.00     0.275 C 
BRANCH  21  22
ATOM     22  O   UNL     1      -3.608   4.418  -2.347  1.00  0.00    -0.458 OA
BRANCH  22  23
ATOM     23  C   UNL     1      -4.094   3.409  -1.593  1.00  0.00     0.338 C 
ATOM     24  O   UNL     1      -4.956   2.634  -1.991  1.00  0.00    -0.246 OA
BRANCH  23  25
ATOM     25  C   UNL     1      -3.627   3.376  -0.217  1.00  0.00     0.060 A 
ATOM     26  C   UNL     1      -3.332   2.153   0.404  1.00  0.00     0.016 A 
ATOM     27  C   UNL     1      -3.409   4.598   0.405  1.00  0.00     0.016 A 
ATOM     28  C   UNL     1      -2.689   2.147   1.628  1.00  0.00     0.010 A 
ATOM     29  C   UNL     1      -2.664   4.601   1.545  1.00  0.00     0.010 A 
ATOM     30  C   UNL     1      -2.389   3.378   2.185  1.00  0.00    -0.014 A 
BRANCH  30  31
ATOM     31  C   UNL     1      -2.156   3.573   3.596  1.00  0.00     0.031 A 
ATOM     32  C   UNL     1      -0.806   3.582   4.145  1.00  0.00     0.074 A 
ATOM     33  C   UNL     1      -3.260   4.122   4.148  1.00  0.00     0.049 A 
ATOM     34  N   UNL     1      -0.558   3.894   5.362  1.00  0.00    -0.248 NA
ATOM     35  C   UNL     1       0.388   3.228   3.382  1.00  0.00     0.031 C 
ATOM     36  C   UNL     1      -3.437   5.080   5.219  1.00  0.00     0.029 A 
ATOM     37  N   UNL     1      -4.566   3.849   3.750  1.00  0.00    -0.354 N 
ATOM     38  C   UNL     1       0.801   4.082   5.470  1.00  0.00     0.074 A 
ATOM     39  C   UNL     1       1.349   3.523   4.267  1.00  0.00     0.031 C 
ATOM     40  C   UNL     1      -4.743   5.093   5.567  1.00  0.00     0.029 A 
ATOM     41  C   UNL     1      -5.393   3.997   4.849  1.00  0.00     0.049 A 
ATOM     42  H   UNL     1      -4.852   3.595   2.843  1.00  0.00     0.167 HD
ATOM     43  C   UNL     1       1.244   4.836   6.512  1.00  0.00     0.034 A 
ATOM     44  C   UNL     1      -5.832   2.826   5.418  1.00  0.00     0.034 A 
ATOM     45  C   UNL     1       0.124   5.059   7.441  1.00  0.00     0.049 A 
ATOM     46  C   UNL     1      -5.165   2.610   6.764  1.00  0.00     0.074 A 
ATOM     47  C   UNL     1      -0.781   6.098   7.574  1.00  0.00     0.029 A 
ATOM     48  N   UNL     1      -0.440   3.959   8.086  1.00  0.00    -0.354 N 
ATOM     49  N   UNL     1      -3.999   3.092   7.105  1.00  0.00    -0.248 NA
ATOM     50  C   UNL     1      -5.828   1.922   7.863  1.00  0.00     0.031 C 
ATOM     51  C   UNL     1      -1.962   5.561   8.172  1.00  0.00     0.029 A 
ATOM     52  C   UNL     1      -1.760   4.213   8.432  1.00  0.00     0.049 A 
ATOM     53  H   UNL     1       0.034   3.116   8.270  1.00  0.00     0.167 HD
ATOM     54  C   UNL     1      -3.741   2.812   8.415  1.00  0.00     0.074 A 
ATOM     55  C   UNL     1      -4.934   2.097   8.851  1.00  0.00     0.031 C 
ATOM     56  C   UNL     1      -2.579   3.169   9.048  1.00  0.00     0.034 A 
BRANCH  43  57
ATOM     57  C   UNL     1       2.572   5.569   6.628  1.00  0.00     0.023 A 
ATOM     58  C   UNL     1       2.726   6.398   7.766  1.00  0.00     0.012 A 
ATOM     59  C   UNL     1       3.634   5.611   5.689  1.00  0.00     0.148 A 
ATOM     60  C   UNL     1       3.834   7.234   7.952  1.00  0.00     0.002 A 
ATOM     61  C   UNL     1       4.763   6.418   5.894  1.00  0.00     0.091 A 
ATOM     62  F   UNL     1       3.553   4.918   4.552  1.00  0.00    -0.205 F 
ATOM     63  C   UNL     1       4.857   7.241   7.018  1.00  0.00     0.022 A 
BRANCH  61  64
ATOM     64  S   UNL     1       6.161   6.468   4.750  1.00  0.00     0.127 S 
ATOM     65  O   UNL     1       6.089   7.836   4.236  1.00  0.00    -0.237 OA
ATOM     66  O   UNL     1       7.298   6.212   5.634  1.00  0.00    -0.237 OA
ATOM     67  O   UNL     1       5.921   5.426   3.759  1.00  0.00    -0.744 OA
ENDBRANCH  61  64
ENDBRANCH  43  57
BRANCH  44  68
ATOM     68  C   UNL     1      -6.103   1.746   4.385  1.00  0.00     0.023 A 
ATOM     69  C   UNL     1      -6.972   2.089   3.311  1.00  0.00     0.012 A 
ATOM     70  C   UNL     1      -5.276   0.617   4.223  1.00  0.00     0.148 A 
ATOM     71  C   UNL     1      -6.894   1.446   2.071  1.00  0.00     0.002 A 
ATOM     72  C   UNL     1      -5.225  -0.041   2.986  1.00  0.00     0.091 A 
ATOM     73  F   UNL     1      -4.521   0.214   5.254  1.00  0.00    -0.205 F 
ATOM     74  C   UNL     1      -6.000   0.399   1.901  1.00  0.00     0.022 A 
BRANCH  72  75
ATOM     75  S   UNL     1      -4.055  -1.379   2.681  1.00  0.00     0.127 S 
ATOM     76  O   UNL     1      -4.820  -2.548   3.106  1.00  0.00    -0.237 OA
ATOM     77  O   UNL     1      -3.824  -1.296   1.236  1.00  0.00    -0.237 OA
ATOM     78  O   UNL     1      -2.888  -1.040   3.482  1.00  0.00    -0.744 OA
ENDBRANCH  72  75
ENDBRANCH  44  68
BRANCH  56  79
ATOM     79  C   UNL     1      -2.122   2.552  10.353  1.00  0.00     0.023 A 
ATOM     80  C   UNL     1      -2.623   1.312  10.797  1.00  0.00     0.012 A 
ATOM     81  C   UNL     1      -1.051   3.107  11.097  1.00  0.00     0.148 A 
ATOM     82  C   UNL     1      -2.177   0.709  11.973  1.00  0.00     0.002 A 
ATOM     83  C   UNL     1      -0.511   2.428  12.183  1.00  0.00     0.091 A 
ATOM     84  F   UNL     1      -0.550   4.306  10.767  1.00  0.00    -0.205 F 
ATOM     85  C   UNL     1      -1.103   1.256  12.656  1.00  0.00     0.022 A 
BRANCH  83  86
ATOM     86  S   UNL     1       1.058   2.926  12.904  1.00  0.00     0.127 S 
ATOM     87  O   UNL     1       0.625   3.690  14.071  1.00  0.00    -0.237 OA
ATOM     88  O   UNL     1       1.679   1.636  13.214  1.00  0.00    -0.237 OA
ATOM     89  O   UNL     1       1.742   3.679  11.861  1.00  0.00    -0.744 OA
ENDBRANCH  83  86
ENDBRANCH  56  79
ENDBRANCH  30  31
ENDBRANCH  23  25
ENDBRANCH  22  23
ENDBRANCH  21  22
ENDBRANCH   1  21
TORSDOF 17
