REMARK SMILES COc1cc(/C=C2\SC(=S)N([C@H](C)C(=O)Nc3ccc(C(=O)OCCOC(=O)c4ccc(-c5c6nc(c(-c7cccc(S(=O)(=O)[O-])c7F)c7ccc([nH]7)c(-c7cccc(S(=O)(=O)[O-])c7F)c7nc(c(-c8cccc(S(=O)(=O)[O-])c8F)c8ccc5[nH]8)C=C7)C=C6)cc4)cc3)C2=O)ccc1O
REMARK SMILES IDX 24 1 23 2 21 3 22 4 20 5 17 6 18 7 93 8 19 9 92 10 16 11
REMARK SMILES IDX 14 12 15 13 12 15 13 16 11 17 6 18 7 19 8 20 94 21 9 22
REMARK SMILES IDX 95 23 10 24 5 25 3 26 4 27 98 28 97 29 96 30 2 31 1 32 99 33
REMARK SMILES IDX 25 35 26 36 27 37 28 38 29 39 30 40 91 41 31 42 90 43 32 44
REMARK SMILES IDX 33 45 34 46 84 47 35 48 89 49 83 50 85 51 36 52 88 53 82 54
REMARK SMILES IDX 81 55 37 57 69 58 49 59 68 60 50 61 53 62 67 63 86 64 51 65
REMARK SMILES IDX 52 66 66 68 87 69 54 70 38 71 39 72 47 73 40 74 42 75 48 76
REMARK SMILES IDX 41 77 43 78 44 79 45 80 46 81 70 82 71 83 79 84 72 85 74 86
REMARK SMILES IDX 80 87 73 88 75 89 76 90 77 91 78 92 55 93 56 94 64 95 57 96
REMARK SMILES IDX 59 97 65 98 58 99 60 100 61 101 62 102 63 103
REMARK H PARENT 16 14 99 34 85 56 53 67
REMARK Flexibility Score: inf
ROOT
ATOM      1  C   UNL     1      -2.593  -4.458  -2.425  1.00  0.00     0.275 C 
ENDROOT
BRANCH   1   2
ATOM      2  O   UNL     1      -1.676  -5.454  -1.934  1.00  0.00    -0.458 OA
BRANCH   2   3
ATOM      3  C   UNL     1      -2.126  -6.731  -1.973  1.00  0.00     0.338 C 
ATOM      4  O   UNL     1      -3.240  -7.105  -2.290  1.00  0.00    -0.246 OA
BRANCH   3   5
ATOM      5  C   UNL     1      -1.047  -7.677  -1.611  1.00  0.00     0.060 A 
ATOM      6  C   UNL     1       0.664  -9.662  -0.702  1.00  0.00     0.041 A 
ATOM      7  C   UNL     1      -0.111  -9.904  -1.826  1.00  0.00     0.027 A 
ATOM      8  C   UNL     1       0.732  -8.382  -0.154  1.00  0.00     0.027 A 
ATOM      9  C   UNL     1      -1.024  -8.937  -2.222  1.00  0.00     0.018 A 
ATOM     10  C   UNL     1      -0.120  -7.378  -0.614  1.00  0.00     0.018 A 
BRANCH   6  11
ATOM     11  N   UNL     1       1.290 -10.754  -0.102  1.00  0.00    -0.324 N 
ATOM     12  C   UNL     1       0.928 -11.369   1.071  1.00  0.00     0.247 C 
ATOM     13  O   UNL     1       1.589 -12.359   1.417  1.00  0.00    -0.272 OA
ATOM     14  H   UNL     1       2.074 -11.123  -0.569  1.00  0.00     0.170 HD
BRANCH  12  15
ATOM     15  C   UNL     1      -0.195 -10.845   2.019  1.00  0.00     0.178 C 
ATOM     16  C   UNL     1       0.323  -9.563   2.700  1.00  0.00     0.042 C 
BRANCH  15  17
ATOM     17  N   UNL     1      -1.600 -10.717   1.527  1.00  0.00    -0.280 N 
ATOM     18  C   UNL     1      -3.957 -11.215  -1.192  1.00  0.00     0.029 C 
ATOM     19  C   UNL     1      -3.411 -10.979   0.012  1.00  0.00     0.081 C 
ATOM     20  S   UNL     1      -4.164 -10.328   1.403  1.00  0.00    -0.054 SA
ATOM     21  C   UNL     1      -1.996 -11.321   0.343  1.00  0.00     0.266 C 
ATOM     22  C   UNL     1      -2.669 -10.348   2.330  1.00  0.00     0.149 C 
ATOM     23  O   UNL     1      -1.346 -12.119  -0.318  1.00  0.00    -0.268 OA
ATOM     24  S   UNL     1      -2.704  -9.991   3.963  1.00  0.00    -0.052 S 
BRANCH  18  25
ATOM     25  C   UNL     1      -5.373 -11.033  -1.562  1.00  0.00    -0.020 A 
ATOM     26  C   UNL     1      -7.450 -12.071  -2.348  1.00  0.00     0.161 A 
ATOM     27  C   UNL     1      -6.074 -12.135  -2.081  1.00  0.00     0.058 A 
ATOM     28  C   UNL     1      -8.127 -10.880  -2.079  1.00  0.00     0.157 A 
ATOM     29  C   UNL     1      -7.429  -9.755  -1.641  1.00  0.00     0.051 A 
ATOM     30  C   UNL     1      -6.055  -9.825  -1.392  1.00  0.00     0.012 A 
BRANCH  26  31
ATOM     31  O   UNL     1      -8.007 -13.259  -2.735  1.00  0.00    -0.493 OA
ATOM     32  C   UNL     1      -9.012 -13.222  -3.750  1.00  0.00     0.278 C 
ENDBRANCH  26  31
BRANCH  28  33
ATOM     33  O   UNL     1      -9.484 -10.737  -2.140  1.00  0.00    -0.504 OA
ATOM     34  H   UNL     1     -10.018 -11.452  -2.425  1.00  0.00     0.293 HD
ENDBRANCH  28  33
ENDBRANCH  18  25
ENDBRANCH  15  17
ENDBRANCH  12  15
ENDBRANCH   6  11
ENDBRANCH   3   5
ENDBRANCH   2   3
ENDBRANCH   1   2
BRANCH   1  35
ATOM     35  C   UNL     1      -2.177  -3.988  -3.819  1.00  0.00     0.275 C 
BRANCH  35  36
ATOM     36  O   UNL     1      -2.379  -5.032  -4.790  1.00  0.00    -0.458 OA
BRANCH  36  37
ATOM     37  C   UNL     1      -1.259  -5.693  -5.162  1.00  0.00     0.338 C 
ATOM     38  O   UNL     1      -0.116  -5.476  -4.793  1.00  0.00    -0.246 OA
BRANCH  37  39
ATOM     39  C   UNL     1      -1.596  -6.834  -6.024  1.00  0.00     0.060 A 
ATOM     40  C   UNL     1      -2.057  -7.990  -5.410  1.00  0.00     0.016 A 
ATOM     41  C   UNL     1      -1.260  -6.853  -7.373  1.00  0.00     0.016 A 
ATOM     42  C   UNL     1      -2.016  -9.207  -6.081  1.00  0.00     0.010 A 
ATOM     43  C   UNL     1      -1.377  -8.051  -8.092  1.00  0.00     0.010 A 
ATOM     44  C   UNL     1      -1.699  -9.260  -7.444  1.00  0.00    -0.014 A 
BRANCH  44  45
ATOM     45  C   UNL     1      -1.696 -10.570  -8.169  1.00  0.00     0.031 A 
ATOM     46  C   UNL     1      -0.493 -11.001  -8.978  1.00  0.00     0.074 A 
ATOM     47  C   UNL     1      -2.772 -11.385  -8.105  1.00  0.00     0.049 A 
ATOM     48  N   UNL     1      -0.369 -12.011  -9.801  1.00  0.00    -0.248 NA
ATOM     49  C   UNL     1       0.724 -10.180  -8.862  1.00  0.00     0.031 C 
ATOM     50  C   UNL     1      -3.999 -11.117  -7.351  1.00  0.00     0.029 A 
ATOM     51  N   UNL     1      -3.013 -12.607  -8.690  1.00  0.00    -0.354 N 
ATOM     52  C   UNL     1       0.901 -11.901 -10.359  1.00  0.00     0.074 A 
ATOM     53  C   UNL     1       1.512 -10.726  -9.777  1.00  0.00     0.031 C 
ATOM     54  C   UNL     1      -4.841 -12.152  -7.483  1.00  0.00     0.029 A 
ATOM     55  C   UNL     1      -4.268 -13.106  -8.421  1.00  0.00     0.049 A 
ATOM     56  H   UNL     1      -2.352 -13.078  -9.247  1.00  0.00     0.167 HD
ATOM     57  C   UNL     1       1.508 -12.706 -11.266  1.00  0.00     0.034 A 
ATOM     58  C   UNL     1      -4.919 -14.180  -8.911  1.00  0.00     0.034 A 
ATOM     59  C   UNL     1       0.924 -13.914 -11.790  1.00  0.00     0.049 A 
ATOM     60  C   UNL     1      -4.229 -15.046  -9.926  1.00  0.00     0.074 A 
ATOM     61  C   UNL     1       1.477 -14.820 -12.679  1.00  0.00     0.029 A 
ATOM     62  N   UNL     1      -0.338 -14.390 -11.469  1.00  0.00    -0.354 N 
ATOM     63  N   UNL     1      -3.016 -14.943 -10.411  1.00  0.00    -0.248 NA
ATOM     64  C   UNL     1      -4.994 -16.184 -10.454  1.00  0.00     0.031 C 
ATOM     65  C   UNL     1       0.537 -15.828 -12.918  1.00  0.00     0.029 A 
ATOM     66  C   UNL     1      -0.585 -15.571 -12.149  1.00  0.00     0.049 A 
ATOM     67  H   UNL     1      -0.965 -13.953 -10.850  1.00  0.00     0.167 HD
ATOM     68  C   UNL     1      -2.860 -16.019 -11.275  1.00  0.00     0.074 A 
ATOM     69  C   UNL     1      -4.094 -16.776 -11.227  1.00  0.00     0.031 C 
ATOM     70  C   UNL     1      -1.798 -16.343 -12.052  1.00  0.00     0.034 A 
BRANCH  57  71
ATOM     71  C   UNL     1       2.885 -12.320 -11.750  1.00  0.00     0.023 A 
ATOM     72  C   UNL     1       3.997 -12.445 -10.893  1.00  0.00     0.012 A 
ATOM     73  C   UNL     1       3.086 -11.897 -13.080  1.00  0.00     0.148 A 
ATOM     74  C   UNL     1       5.279 -12.120 -11.339  1.00  0.00     0.002 A 
ATOM     75  C   UNL     1       4.372 -11.621 -13.532  1.00  0.00     0.091 A 
ATOM     76  F   UNL     1       2.016 -11.771 -13.879  1.00  0.00    -0.205 F 
ATOM     77  C   UNL     1       5.467 -11.719 -12.659  1.00  0.00     0.022 A 
BRANCH  75  78
ATOM     78  S   UNL     1       4.729 -11.178 -15.236  1.00  0.00     0.127 S 
ATOM     79  O   UNL     1       5.129  -9.778 -15.099  1.00  0.00    -0.237 OA
ATOM     80  O   UNL     1       5.822 -12.093 -15.569  1.00  0.00    -0.237 OA
ATOM     81  O   UNL     1       3.498 -11.405 -15.979  1.00  0.00    -0.744 OA
ENDBRANCH  75  78
ENDBRANCH  57  71
BRANCH  58  82
ATOM     82  C   UNL     1      -6.303 -14.493  -8.450  1.00  0.00     0.023 A 
ATOM     83  C   UNL     1      -6.537 -15.666  -7.706  1.00  0.00     0.012 A 
ATOM     84  C   UNL     1      -7.383 -13.628  -8.720  1.00  0.00     0.148 A 
ATOM     85  C   UNL     1      -7.822 -15.990  -7.271  1.00  0.00     0.002 A 
ATOM     86  C   UNL     1      -8.646 -13.919  -8.220  1.00  0.00     0.091 A 
ATOM     87  F   UNL     1      -7.150 -12.524  -9.444  1.00  0.00    -0.205 F 
ATOM     88  C   UNL     1      -8.874 -15.112  -7.518  1.00  0.00     0.022 A 
BRANCH  86  89
ATOM     89  S   UNL     1     -10.017 -12.765  -8.326  1.00  0.00     0.127 S 
ATOM     90  O   UNL     1     -10.902 -13.437  -9.273  1.00  0.00    -0.237 OA
ATOM     91  O   UNL     1     -10.493 -12.745  -6.941  1.00  0.00    -0.237 OA
ATOM     92  O   UNL     1      -9.438 -11.508  -8.780  1.00  0.00    -0.744 OA
ENDBRANCH  86  89
ENDBRANCH  58  82
BRANCH  70  93
ATOM     93  C   UNL     1      -1.899 -17.598 -12.877  1.00  0.00     0.023 A 
ATOM     94  C   UNL     1      -2.747 -17.637 -14.002  1.00  0.00     0.012 A 
ATOM     95  C   UNL     1      -1.109 -18.723 -12.566  1.00  0.00     0.148 A 
ATOM     96  C   UNL     1      -2.835 -18.789 -14.783  1.00  0.00     0.002 A 
ATOM     97  C   UNL     1      -1.162 -19.848 -13.380  1.00  0.00     0.091 A 
ATOM     98  F   UNL     1      -0.324 -18.672 -11.481  1.00  0.00    -0.205 F 
ATOM     99  C   UNL     1      -2.035 -19.889 -14.479  1.00  0.00     0.022 A 
BRANCH  97 100
ATOM    100  S   UNL     1      -0.099 -21.272 -13.123  1.00  0.00     0.127 S 
ATOM    101  O   UNL     1      -1.055 -22.276 -12.658  1.00  0.00    -0.237 OA
ATOM    102  O   UNL     1       0.428 -21.508 -14.468  1.00  0.00    -0.237 OA
ATOM    103  O   UNL     1       0.898 -20.860 -12.145  1.00  0.00    -0.744 OA
ENDBRANCH  97 100
ENDBRANCH  70  93
ENDBRANCH  44  45
ENDBRANCH  37  39
ENDBRANCH  36  37
ENDBRANCH  35  36
ENDBRANCH   1  35
TORSDOF 20
