REMARK SMILES CCOc1ccc(C(=O)N2CCC(C(=O)OCCOC(=O)c3ccc(-c4c5nc(c(-c6cccc(S(=O)(=O)[O-])c6F)c6ccc([nH]6)c(-c6cccc(S(=O)(=O)[O-])c6F)c6nc(c(-c7cccc(S(=O)(=O)[O-])c7F)c7ccc4[nH]7)C=C6)C=C5)cc3)(c3ccccc3)CC2)cc1OC
REMARK SMILES IDX 17 1 16 2 14 3 15 4 13 5 8 6 9 7 10 8 11 9 92 10 12 11 91 12
REMARK SMILES IDX 7 13 4 14 5 15 94 16 6 17 93 18 3 19 2 20 1 21 95 22 96 23
REMARK SMILES IDX 85 24 86 25 90 26 87 27 89 28 88 29 18 30 19 31 20 32 21 33
REMARK SMILES IDX 22 34 23 35 84 36 24 37 83 38 25 39 26 40 27 41 77 42 28 43
REMARK SMILES IDX 82 44 76 45 78 46 29 47 81 48 75 49 74 50 30 52 62 53 42 54
REMARK SMILES IDX 61 55 43 56 46 57 60 58 79 59 44 60 45 61 59 63 80 64 47 65
REMARK SMILES IDX 31 66 32 67 40 68 33 69 35 70 41 71 34 72 36 73 37 74 38 75
REMARK SMILES IDX 39 76 63 77 64 78 72 79 65 80 67 81 73 82 66 83 68 84 69 85
REMARK SMILES IDX 70 86 71 87 48 88 49 89 57 90 50 91 52 92 58 93 51 94 53 95
REMARK SMILES IDX 54 96 55 97 56 98
REMARK H PARENT 78 51 46 62
REMARK Flexibility Score: inf
ROOT
ATOM      1  C   UNL     1      12.615  -4.863   1.157  1.00  0.00     0.274 C 
ENDROOT
BRANCH   1   2
ATOM      2  O   UNL     1      11.495  -4.080   0.698  1.00  0.00    -0.461 OA
BRANCH   2   3
ATOM      3  C   UNL     1      10.721  -3.484   1.651  1.00  0.00     0.316 C 
ATOM      4  O   UNL     1      10.914  -3.648   2.850  1.00  0.00    -0.251 OA
BRANCH   3   5
ATOM      5  C   UNL     1       9.512  -2.696   1.042  1.00  0.00     0.096 C 
ATOM      6  C   UNL     1       6.349  -2.766  -1.983  1.00  0.00     0.253 C 
ATOM      7  O   UNL     1       6.619  -2.828  -3.183  1.00  0.00    -0.269 OA
ATOM      8  N   UNL     1       7.338  -2.782  -0.990  1.00  0.00    -0.339 N 
ATOM      9  C   UNL     1       8.572  -2.094  -1.335  1.00  0.00     0.121 C 
ATOM     10  C   UNL     1       7.094  -3.129   0.409  1.00  0.00     0.121 C 
ATOM     11  C   UNL     1       9.786  -2.405  -0.464  1.00  0.00     0.045 C 
ATOM     12  C   UNL     1       8.328  -3.691   1.098  1.00  0.00     0.045 C 
BRANCH   6  13
ATOM     13  C   UNL     1       4.921  -2.554  -1.618  1.00  0.00     0.043 A 
ATOM     14  C   UNL     1       2.233  -1.925  -1.126  1.00  0.00     0.161 A 
ATOM     15  C   UNL     1       2.579  -2.766  -2.193  1.00  0.00     0.051 A 
ATOM     16  C   UNL     1       3.223  -1.425  -0.277  1.00  0.00     0.161 A 
ATOM     17  C   UNL     1       3.919  -3.081  -2.438  1.00  0.00     0.018 A 
ATOM     18  C   UNL     1       4.561  -1.694  -0.575  1.00  0.00     0.064 A 
BRANCH  14  19
ATOM     19  O   UNL     1       0.917  -1.604  -0.934  1.00  0.00    -0.490 OA
BRANCH  19  20
ATOM     20  C   UNL     1       0.427  -0.720  -1.951  1.00  0.00     0.226 C 
ATOM     21  C   UNL     1      -0.199   0.489  -1.279  1.00  0.00     0.049 C 
ENDBRANCH  19  20
ENDBRANCH  14  19
BRANCH  16  22
ATOM     22  O   UNL     1       3.072  -0.619   0.815  1.00  0.00    -0.493 OA
ATOM     23  C   UNL     1       1.843  -0.678   1.522  1.00  0.00     0.278 C 
ENDBRANCH  16  22
ENDBRANCH   6  13
BRANCH   5  24
ATOM     24  C   UNL     1       9.171  -1.429   1.893  1.00  0.00    -0.031 A 
ATOM     25  C   UNL     1       9.036  -1.515   3.296  1.00  0.00     0.005 A 
ATOM     26  C   UNL     1       8.950  -0.158   1.330  1.00  0.00     0.005 A 
ATOM     27  C   UNL     1       8.732  -0.398   4.086  1.00  0.00     0.000 A 
ATOM     28  C   UNL     1       8.598   0.951   2.113  1.00  0.00     0.000 A 
ATOM     29  C   UNL     1       8.500   0.835   3.492  1.00  0.00     0.000 A 
ENDBRANCH   5  24
ENDBRANCH   3   5
ENDBRANCH   2   3
ENDBRANCH   1   2
BRANCH   1  30
ATOM     30  C   UNL     1      13.916  -4.116   0.884  1.00  0.00     0.275 C 
BRANCH  30  31
ATOM     31  O   UNL     1      13.921  -2.894   1.639  1.00  0.00    -0.458 OA
BRANCH  31  32
ATOM     32  C   UNL     1      14.101  -1.757   0.931  1.00  0.00     0.338 C 
ATOM     33  O   UNL     1      14.342  -1.651  -0.262  1.00  0.00    -0.246 OA
BRANCH  32  34
ATOM     34  C   UNL     1      13.919  -0.607   1.827  1.00  0.00     0.060 A 
ATOM     35  C   UNL     1      12.653  -0.356   2.354  1.00  0.00     0.016 A 
ATOM     36  C   UNL     1      14.970   0.274   2.072  1.00  0.00     0.016 A 
ATOM     37  C   UNL     1      12.420   0.803   3.089  1.00  0.00     0.010 A 
ATOM     38  C   UNL     1      14.747   1.407   2.864  1.00  0.00     0.010 A 
ATOM     39  C   UNL     1      13.461   1.699   3.356  1.00  0.00    -0.014 A 
BRANCH  39  40
ATOM     40  C   UNL     1      13.187   2.965   4.090  1.00  0.00     0.031 A 
ATOM     41  C   UNL     1      13.398   4.288   3.401  1.00  0.00     0.074 A 
ATOM     42  C   UNL     1      12.739   2.943   5.361  1.00  0.00     0.049 A 
ATOM     43  N   UNL     1      13.359   5.495   3.903  1.00  0.00    -0.248 NA
ATOM     44  C   UNL     1      13.697   4.249   1.960  1.00  0.00     0.031 C 
ATOM     45  C   UNL     1      12.454   1.736   6.139  1.00  0.00     0.029 A 
ATOM     46  N   UNL     1      12.453   3.970   6.229  1.00  0.00    -0.354 N 
ATOM     47  C   UNL     1      13.708   6.349   2.865  1.00  0.00     0.074 A 
ATOM     48  C   UNL     1      13.926   5.527   1.694  1.00  0.00     0.031 C 
ATOM     49  C   UNL     1      12.024   2.091   7.361  1.00  0.00     0.029 A 
ATOM     50  C   UNL     1      12.063   3.546   7.479  1.00  0.00     0.049 A 
ATOM     51  H   UNL     1      12.519   4.920   5.979  1.00  0.00     0.167 HD
ATOM     52  C   UNL     1      13.832   7.697   2.882  1.00  0.00     0.034 A 
ATOM     53  C   UNL     1      11.802   4.244   8.602  1.00  0.00     0.034 A 
ATOM     54  C   UNL     1      13.536   8.526   4.018  1.00  0.00     0.049 A 
ATOM     55  C   UNL     1      11.928   5.744   8.584  1.00  0.00     0.074 A 
ATOM     56  C   UNL     1      13.608   9.905   4.116  1.00  0.00     0.029 A 
ATOM     57  N   UNL     1      13.097   8.060   5.245  1.00  0.00    -0.354 N 
ATOM     58  N   UNL     1      12.212   6.537   7.580  1.00  0.00    -0.248 NA
ATOM     59  C   UNL     1      11.693   6.447   9.855  1.00  0.00     0.031 C 
ATOM     60  C   UNL     1      13.214  10.273   5.406  1.00  0.00     0.029 A 
ATOM     61  C   UNL     1      12.892   9.123   6.108  1.00  0.00     0.049 A 
ATOM     62  H   UNL     1      12.952   7.112   5.471  1.00  0.00     0.167 HD
ATOM     63  C   UNL     1      12.175   7.829   8.092  1.00  0.00     0.074 A 
ATOM     64  C   UNL     1      11.804   7.717   9.487  1.00  0.00     0.031 C 
ATOM     65  C   UNL     1      12.456   9.001   7.473  1.00  0.00     0.034 A 
BRANCH  52  66
ATOM     66  C   UNL     1      14.298   8.376   1.625  1.00  0.00     0.023 A 
ATOM     67  C   UNL     1      13.388   8.609   0.577  1.00  0.00     0.012 A 
ATOM     68  C   UNL     1      15.619   8.855   1.521  1.00  0.00     0.148 A 
ATOM     69  C   UNL     1      13.790   9.299  -0.566  1.00  0.00     0.002 A 
ATOM     70  C   UNL     1      16.003   9.571   0.394  1.00  0.00     0.091 A 
ATOM     71  F   UNL     1      16.472   8.600   2.523  1.00  0.00    -0.205 F 
ATOM     72  C   UNL     1      15.091   9.790  -0.652  1.00  0.00     0.022 A 
BRANCH  70  73
ATOM     73  S   UNL     1      17.636  10.299   0.220  1.00  0.00     0.127 S 
ATOM     74  O   UNL     1      18.227   9.453  -0.815  1.00  0.00    -0.237 OA
ATOM     75  O   UNL     1      17.322  11.662  -0.212  1.00  0.00    -0.237 OA
ATOM     76  O   UNL     1      18.259  10.208   1.533  1.00  0.00    -0.744 OA
ENDBRANCH  70  73
ENDBRANCH  52  66
BRANCH  53  77
ATOM     77  C   UNL     1      11.380   3.535   9.845  1.00  0.00     0.023 A 
ATOM     78  C   UNL     1      10.075   3.722  10.340  1.00  0.00     0.012 A 
ATOM     79  C   UNL     1      12.254   2.674  10.536  1.00  0.00     0.148 A 
ATOM     80  C   UNL     1       9.658   3.086  11.511  1.00  0.00     0.002 A 
ATOM     81  C   UNL     1      11.812   1.994  11.666  1.00  0.00     0.091 A 
ATOM     82  F   UNL     1      13.507   2.530  10.079  1.00  0.00    -0.205 F 
ATOM     83  C   UNL     1      10.521   2.211  12.166  1.00  0.00     0.022 A 
BRANCH  81  84
ATOM     84  S   UNL     1      12.834   0.744  12.453  1.00  0.00     0.127 S 
ATOM     85  O   UNL     1      13.540   1.522  13.465  1.00  0.00    -0.237 OA
ATOM     86  O   UNL     1      11.841  -0.194  12.979  1.00  0.00    -0.237 OA
ATOM     87  O   UNL     1      13.645   0.198  11.371  1.00  0.00    -0.744 OA
ENDBRANCH  81  84
ENDBRANCH  53  77
BRANCH  65  88
ATOM     88  C   UNL     1      12.359  10.264   8.286  1.00  0.00     0.023 A 
ATOM     89  C   UNL     1      13.379  10.571   9.208  1.00  0.00     0.012 A 
ATOM     90  C   UNL     1      11.313  11.183   8.079  1.00  0.00     0.148 A 
ATOM     91  C   UNL     1      13.348  11.764   9.927  1.00  0.00     0.002 A 
ATOM     92  C   UNL     1      11.309  12.389   8.771  1.00  0.00     0.091 A 
ATOM     93  F   UNL     1      10.339  10.863   7.213  1.00  0.00    -0.205 F 
ATOM     94  C   UNL     1      12.322  12.678   9.700  1.00  0.00     0.022 A 
BRANCH  92  95
ATOM     95  S   UNL     1      10.071  13.656   8.471  1.00  0.00     0.127 S 
ATOM     96  O   UNL     1       9.169  13.467   9.606  1.00  0.00    -0.237 OA
ATOM     97  O   UNL     1      10.860  14.888   8.519  1.00  0.00    -0.237 OA
ATOM     98  O   UNL     1       9.509  13.356   7.161  1.00  0.00    -0.744 OA
ENDBRANCH  92  95
ENDBRANCH  65  88
ENDBRANCH  39  40
ENDBRANCH  32  34
ENDBRANCH  31  32
ENDBRANCH  30  31
ENDBRANCH   1  30
TORSDOF 19
