REMARK SMILES O=C(OCCOC(=O)c1cc(SCC(=O)N2CCOCC2)ccn1)c1ccc(-c2c3nc(c(-c4cccc(S(=O)(=O)[O-])c4F)c4ccc([nH]4)c(-c4cccc(S(=O)(=O)[O-])c4F)c4nc(c(-c5cccc(S(=O)(=O)[O-])c5F)c5ccc2[nH]5)C=C4)C=C3)cc1
REMARK SMILES IDX 4 1 3 2 2 3 1 4 25 5 26 6 87 7 27 8 86 9 28 10 29 11 30 12
REMARK SMILES IDX 80 13 31 14 85 15 79 16 81 17 32 18 84 19 78 20 77 21 33 23
REMARK SMILES IDX 65 24 45 25 64 26 46 27 49 28 63 29 82 30 47 31 48 32 62 34
REMARK SMILES IDX 83 35 50 36 34 37 35 38 43 39 36 40 38 41 44 42 37 43 39 44
REMARK SMILES IDX 40 45 41 46 42 47 66 48 67 49 75 50 68 51 70 52 76 53 69 54
REMARK SMILES IDX 71 55 72 56 73 57 74 58 51 59 52 60 60 61 53 62 55 63 61 64
REMARK SMILES IDX 54 65 56 66 57 67 58 68 59 69 5 70 6 71 7 72 8 73 9 74 10 75
REMARK SMILES IDX 24 76 11 77 23 78 22 79 12 80 13 81 14 82 15 83 16 84 17 85
REMARK SMILES IDX 21 86 18 87 20 88 19 89
REMARK H PARENT 81 22 49 33
REMARK Flexibility Score: inf
ROOT
ATOM      1  C   UNL     1       4.040   1.444  -0.916  1.00  0.00     0.275 C 
ENDROOT
BRANCH   1   2
ATOM      2  O   UNL     1       2.824   0.725  -1.205  1.00  0.00    -0.458 OA
BRANCH   2   3
ATOM      3  C   UNL     1       2.460  -0.561  -0.973  1.00  0.00     0.338 C 
ATOM      4  O   UNL     1       1.457  -0.984  -1.551  1.00  0.00    -0.246 OA
BRANCH   3   5
ATOM      5  C   UNL     1       3.168  -1.508  -0.044  1.00  0.00     0.060 A 
ATOM      6  C   UNL     1       4.407  -1.290   0.545  1.00  0.00     0.016 A 
ATOM      7  C   UNL     1       2.518  -2.730   0.257  1.00  0.00     0.016 A 
ATOM      8  C   UNL     1       4.967  -2.235   1.397  1.00  0.00     0.010 A 
ATOM      9  C   UNL     1       3.075  -3.683   1.127  1.00  0.00     0.010 A 
ATOM     10  C   UNL     1       4.306  -3.427   1.711  1.00  0.00    -0.014 A 
BRANCH  10  11
ATOM     11  C   UNL     1       5.043  -4.330   2.590  1.00  0.00     0.031 A 
ATOM     12  C   UNL     1       5.971  -5.434   2.066  1.00  0.00     0.074 A 
ATOM     13  C   UNL     1       5.225  -3.924   3.860  1.00  0.00     0.049 A 
ATOM     14  N   UNL     1       6.857  -6.156   2.720  1.00  0.00    -0.248 NA
ATOM     15  C   UNL     1       5.816  -5.846   0.673  1.00  0.00     0.031 C 
ATOM     16  C   UNL     1       4.129  -3.185   5.217  1.00  0.00     0.029 A 
ATOM     17  N   UNL     1       6.702  -4.371   4.697  1.00  0.00    -0.354 N 
ATOM     18  C   UNL     1       7.350  -7.136   1.871  1.00  0.00     0.074 A 
ATOM     19  C   UNL     1       6.638  -6.894   0.612  1.00  0.00     0.031 C 
ATOM     20  C   UNL     1       4.895  -3.111   6.696  1.00  0.00     0.029 A 
ATOM     21  C   UNL     1       6.682  -3.917   6.596  1.00  0.00     0.049 A 
ATOM     22  H   UNL     1       7.464  -4.807   4.254  1.00  0.00     0.167 HD
ATOM     23  C   UNL     1       8.259  -8.146   2.077  1.00  0.00     0.034 A 
ATOM     24  C   UNL     1       7.374  -4.226   7.774  1.00  0.00     0.034 A 
ATOM     25  C   UNL     1       9.030  -8.519   3.285  1.00  0.00     0.049 A 
ATOM     26  C   UNL     1       8.442  -5.335   7.982  1.00  0.00     0.074 A 
ATOM     27  C   UNL     1       9.927  -9.576   3.424  1.00  0.00     0.029 A 
ATOM     28  N   UNL     1       9.057  -7.905   4.541  1.00  0.00    -0.354 N 
ATOM     29  N   UNL     1       8.724  -6.273   7.132  1.00  0.00    -0.248 NA
ATOM     30  C   UNL     1       9.229  -5.519   9.209  1.00  0.00     0.031 C 
ATOM     31  C   UNL     1      10.444  -9.595   4.739  1.00  0.00     0.029 A 
ATOM     32  C   UNL     1       9.916  -8.533   5.458  1.00  0.00     0.049 A 
ATOM     33  H   UNL     1       8.524  -7.107   4.761  1.00  0.00     0.167 HD
ATOM     34  C   UNL     1       9.700  -7.091   7.564  1.00  0.00     0.074 A 
ATOM     35  C   UNL     1       9.980  -6.592   8.903  1.00  0.00     0.031 C 
ATOM     36  C   UNL     1      10.226  -8.125   6.851  1.00  0.00     0.034 A 
BRANCH  23  37
ATOM     37  C   UNL     1       8.480  -9.021   0.847  1.00  0.00     0.023 A 
ATOM     38  C   UNL     1       9.211  -8.519  -0.252  1.00  0.00     0.012 A 
ATOM     39  C   UNL     1       7.936 -10.322   0.771  1.00  0.00     0.148 A 
ATOM     40  C   UNL     1       9.349  -9.270  -1.421  1.00  0.00     0.002 A 
ATOM     41  C   UNL     1       8.119 -11.082  -0.381  1.00  0.00     0.091 A 
ATOM     42  F   UNL     1       7.232 -10.781   1.815  1.00  0.00    -0.205 F 
ATOM     43  C   UNL     1       8.808 -10.551  -1.484  1.00  0.00     0.022 A 
BRANCH  41  44
ATOM     44  S   UNL     1       7.515 -12.767  -0.549  1.00  0.00     0.127 S 
ATOM     45  O   UNL     1       6.521 -12.621  -1.613  1.00  0.00    -0.237 OA
ATOM     46  O   UNL     1       8.726 -13.488  -0.943  1.00  0.00    -0.237 OA
ATOM     47  O   UNL     1       6.978 -13.136   0.753  1.00  0.00    -0.744 OA
ENDBRANCH  41  44
ENDBRANCH  23  37
BRANCH  24  48
ATOM     48  C   UNL     1       7.102  -3.356   8.960  1.00  0.00     0.023 A 
ATOM     49  C   UNL     1       8.100  -2.442   9.365  1.00  0.00     0.012 A 
ATOM     50  C   UNL     1       5.892  -3.377   9.667  1.00  0.00     0.148 A 
ATOM     51  C   UNL     1       7.889  -1.567  10.433  1.00  0.00     0.002 A 
ATOM     52  C   UNL     1       5.643  -2.423  10.652  1.00  0.00     0.091 A 
ATOM     53  F   UNL     1       4.986  -4.316   9.359  1.00  0.00    -0.205 F 
ATOM     54  C   UNL     1       6.646  -1.532  11.055  1.00  0.00     0.022 A 
BRANCH  52  55
ATOM     55  S   UNL     1       3.979  -2.172  11.285  1.00  0.00     0.127 S 
ATOM     56  O   UNL     1       3.989  -2.986  12.495  1.00  0.00    -0.237 OA
ATOM     57  O   UNL     1       3.942  -0.727  11.511  1.00  0.00    -0.237 OA
ATOM     58  O   UNL     1       3.113  -2.627  10.203  1.00  0.00    -0.744 OA
ENDBRANCH  52  55
ENDBRANCH  24  48
BRANCH  36  59
ATOM     59  C   UNL     1      11.230  -8.924   7.617  1.00  0.00     0.023 A 
ATOM     60  C   UNL     1      10.796  -9.746   8.676  1.00  0.00     0.012 A 
ATOM     61  C   UNL     1      12.594  -8.865   7.291  1.00  0.00     0.148 A 
ATOM     62  C   UNL     1      11.716 -10.472   9.427  1.00  0.00     0.002 A 
ATOM     63  C   UNL     1      13.501  -9.625   8.015  1.00  0.00     0.091 A 
ATOM     64  F   UNL     1      12.983  -8.048   6.301  1.00  0.00    -0.205 F 
ATOM     65  C   UNL     1      13.066 -10.418   9.091  1.00  0.00     0.022 A 
BRANCH  63  66
ATOM     66  S   UNL     1      15.245  -9.671   7.601  1.00  0.00     0.127 S 
ATOM     67  O   UNL     1      15.820  -8.829   8.649  1.00  0.00    -0.237 OA
ATOM     68  O   UNL     1      15.556 -11.095   7.722  1.00  0.00    -0.237 OA
ATOM     69  O   UNL     1      15.346  -9.145   6.246  1.00  0.00    -0.744 OA
ENDBRANCH  63  66
ENDBRANCH  36  59
ENDBRANCH  10  11
ENDBRANCH   3   5
ENDBRANCH   2   3
ENDBRANCH   1   2
BRANCH   1  70
ATOM     70  C   UNL     1       4.000   2.216   0.405  1.00  0.00     0.275 C 
BRANCH  70  71
ATOM     71  O   UNL     1       3.542   1.421   1.498  1.00  0.00    -0.457 OA
BRANCH  71  72
ATOM     72  C   UNL     1       2.199   1.435   1.719  1.00  0.00     0.357 C 
ATOM     73  O   UNL     1       1.368   2.095   1.121  1.00  0.00    -0.244 OA
BRANCH  72  74
ATOM     74  C   UNL     1       1.928   0.466   2.805  1.00  0.00     0.149 A 
ATOM     75  C   UNL     1       2.695   0.533   3.961  1.00  0.00     0.051 A 
ATOM     76  N   UNL     1       0.938  -0.438   2.581  1.00  0.00    -0.249 NA
ATOM     77  C   UNL     1       2.432  -0.383   4.959  1.00  0.00     0.012 A 
ATOM     78  C   UNL     1       0.696  -1.309   3.576  1.00  0.00     0.113 A 
ATOM     79  C   UNL     1       1.376  -1.288   4.783  1.00  0.00     0.035 A 
BRANCH  77  80
ATOM     80  S   UNL     1       3.340  -0.384   6.483  1.00  0.00    -0.116 SA
BRANCH  80  81
ATOM     81  C   UNL     1       5.125  -0.418   6.029  1.00  0.00     0.175 C 
BRANCH  81  82
ATOM     82  C   UNL     1       5.722  -1.367   4.946  1.00  0.00     0.233 C 
ATOM     83  O   UNL     1       6.173  -0.805   3.927  1.00  0.00    -0.274 OA
ATOM     84  N   UNL     1       6.138  -2.786   5.237  1.00  0.00    -0.337 N 
ATOM     85  C   UNL     1       5.306  -4.759   5.692  1.00  0.00     0.148 C 
ATOM     86  C   UNL     1       7.901  -2.723   4.894  1.00  0.00     0.148 C 
ATOM     87  C   UNL     1       6.605  -6.139   5.682  1.00  0.00     0.181 C 
ATOM     88  C   UNL     1       8.835  -4.204   5.163  1.00  0.00     0.181 C 
ATOM     89  O   UNL     1       8.161  -5.687   5.062  1.00  0.00    -0.378 OA
ENDBRANCH  81  82
ENDBRANCH  80  81
ENDBRANCH  77  80
ENDBRANCH  72  74
ENDBRANCH  71  72
ENDBRANCH  70  71
ENDBRANCH   1  70
TORSDOF 17
