REMARK SMILES COc1ccc2c(c1)c(CC(=O)OCCOC(=O)c1ccc(-c3c4nc(c(-c5cccc(S(=O)(=O)[O-])c5F)c5ccc([nH]5)c(-c5cccc(S(=O)(=O)[O-])c5F)c5nc(c(-c6cccc(S(=O)(=O)[O-])c6F)c6ccc3[nH]6)C=C5)C=C4)cc1)c(C)n2Cc1ccc(Br)cc1
REMARK SMILES IDX 14 1 13 2 11 3 12 4 10 5 9 6 3 7 4 8 8 9 5 10 7 11 6 12
REMARK SMILES IDX 84 13 82 14 83 15 2 16 1 17 85 18 86 19 87 20 92 21 88 22
REMARK SMILES IDX 91 23 89 24 90 25 15 26 16 27 17 28 18 29 19 30 20 31 81 32
REMARK SMILES IDX 21 33 80 34 22 35 23 36 24 37 74 38 25 39 79 40 73 41 75 42
REMARK SMILES IDX 26 43 78 44 72 45 71 46 27 48 59 49 39 50 58 51 40 52 43 53
REMARK SMILES IDX 57 54 76 55 41 56 42 57 56 59 77 60 44 61 28 62 29 63 37 64
REMARK SMILES IDX 30 65 32 66 38 67 31 68 33 69 34 70 35 71 36 72 60 73 61 74
REMARK SMILES IDX 69 75 62 76 64 77 70 78 63 79 65 80 66 81 67 82 68 83 45 84
REMARK SMILES IDX 46 85 54 86 47 87 49 88 55 89 48 90 50 91 51 92 52 93 53 94
REMARK H PARENT 75 47 43 58
REMARK Flexibility Score: inf
ROOT
ATOM      1  C   UNL     1      -1.271   6.954  -0.642  1.00  0.00     0.274 C 
ENDROOT
BRANCH   1   2
ATOM      2  O   UNL     1      -0.728   6.479   0.609  1.00  0.00    -0.462 OA
BRANCH   2   3
ATOM      3  C   UNL     1      -1.593   6.497   1.652  1.00  0.00     0.310 C 
ATOM      4  O   UNL     1      -2.757   6.885   1.563  1.00  0.00    -0.252 OA
BRANCH   3   5
ATOM      5  C   UNL     1      -1.012   6.127   2.983  1.00  0.00     0.160 C 
BRANCH   5   6
ATOM      6  C   UNL     1       0.337   5.493   3.140  1.00  0.00    -0.008 A 
ATOM      7  C   UNL     1       1.573   2.452   1.106  1.00  0.00     0.119 A 
ATOM      8  C   UNL     1       2.804   2.344   1.737  1.00  0.00     0.048 A 
ATOM      9  C   UNL     1       0.731   3.538   1.399  1.00  0.00     0.057 A 
ATOM     10  C   UNL     1       3.192   3.278   2.703  1.00  0.00     0.031 A 
ATOM     11  C   UNL     1       1.028   4.428   2.458  1.00  0.00     0.007 A 
ATOM     12  C   UNL     1       2.275   4.275   3.084  1.00  0.00     0.049 A 
ATOM     13  N   UNL     1       2.353   5.266   4.042  1.00  0.00    -0.340 N 
ATOM     14  C   UNL     1       1.088   5.740   4.286  1.00  0.00     0.020 A 
ATOM     15  C   UNL     1       0.656   6.430   5.542  1.00  0.00     0.065 C 
BRANCH   7  16
ATOM     16  O   UNL     1       1.114   1.573   0.158  1.00  0.00    -0.497 OA
ATOM     17  C   UNL     1       1.504   0.211   0.334  1.00  0.00     0.278 C 
ENDBRANCH   7  16
BRANCH  13  18
ATOM     18  C   UNL     1       3.574   5.764   4.669  1.00  0.00     0.157 C 
BRANCH  18  19
ATOM     19  C   UNL     1       3.959   7.104   4.068  1.00  0.00    -0.028 A 
ATOM     20  C   UNL     1       3.292   8.281   4.449  1.00  0.00     0.007 A 
ATOM     21  C   UNL     1       4.933   7.187   3.063  1.00  0.00     0.007 A 
ATOM     22  C   UNL     1       3.543   9.496   3.810  1.00  0.00     0.016 A 
ATOM     23  C   UNL     1       5.214   8.411   2.445  1.00  0.00     0.016 A 
ATOM     24  C   UNL     1       4.506   9.555   2.810  1.00  0.00     0.017 A 
ATOM     25  Br  UNL     1       4.849  11.197   1.938  1.00  0.00    -0.051 Br
ENDBRANCH  18  19
ENDBRANCH  13  18
ENDBRANCH   5   6
ENDBRANCH   3   5
ENDBRANCH   2   3
ENDBRANCH   1   2
BRANCH   1  26
ATOM     26  C   UNL     1      -1.670   5.782  -1.543  1.00  0.00     0.275 C 
BRANCH  26  27
ATOM     27  O   UNL     1      -2.828   5.141  -0.989  1.00  0.00    -0.458 OA
BRANCH  27  28
ATOM     28  C   UNL     1      -2.684   3.855  -0.580  1.00  0.00     0.338 C 
ATOM     29  O   UNL     1      -1.860   3.045  -0.963  1.00  0.00    -0.246 OA
BRANCH  28  30
ATOM     30  C   UNL     1      -3.495   3.744   0.646  1.00  0.00     0.060 A 
ATOM     31  C   UNL     1      -4.790   4.263   0.679  1.00  0.00     0.016 A 
ATOM     32  C   UNL     1      -2.843   3.361   1.823  1.00  0.00     0.016 A 
ATOM     33  C   UNL     1      -5.369   4.540   1.908  1.00  0.00     0.010 A 
ATOM     34  C   UNL     1      -3.405   3.680   3.047  1.00  0.00     0.010 A 
ATOM     35  C   UNL     1      -4.637   4.326   3.084  1.00  0.00    -0.014 A 
BRANCH  35  36
ATOM     36  C   UNL     1      -5.281   4.575   4.360  1.00  0.00     0.031 A 
ATOM     37  C   UNL     1      -6.094   3.430   4.821  1.00  0.00     0.074 A 
ATOM     38  C   UNL     1      -5.143   5.641   5.168  1.00  0.00     0.049 A 
ATOM     39  N   UNL     1      -7.371   3.291   4.691  1.00  0.00    -0.248 NA
ATOM     40  C   UNL     1      -5.394   2.257   5.356  1.00  0.00     0.031 C 
ATOM     41  C   UNL     1      -4.170   6.729   5.134  1.00  0.00     0.029 A 
ATOM     42  N   UNL     1      -5.862   5.903   6.295  1.00  0.00    -0.354 N 
ATOM     43  C   UNL     1      -7.668   2.083   5.301  1.00  0.00     0.074 A 
ATOM     44  C   UNL     1      -6.411   1.414   5.539  1.00  0.00     0.031 C 
ATOM     45  C   UNL     1      -4.223   7.407   6.309  1.00  0.00     0.029 A 
ATOM     46  C   UNL     1      -5.342   6.909   7.094  1.00  0.00     0.049 A 
ATOM     47  H   UNL     1      -6.686   5.415   6.525  1.00  0.00     0.167 HD
ATOM     48  C   UNL     1      -8.910   1.790   5.765  1.00  0.00     0.034 A 
ATOM     49  C   UNL     1      -5.803   7.245   8.323  1.00  0.00     0.034 A 
ATOM     50  C   UNL     1      -9.897   2.756   5.375  1.00  0.00     0.049 A 
ATOM     51  C   UNL     1      -7.212   6.779   8.397  1.00  0.00     0.074 A 
ATOM     52  C   UNL     1     -10.383   3.227   4.172  1.00  0.00     0.029 A 
ATOM     53  N   UNL     1     -10.246   3.692   6.319  1.00  0.00    -0.354 N 
ATOM     54  N   UNL     1      -8.188   7.278   7.691  1.00  0.00    -0.248 NA
ATOM     55  C   UNL     1      -7.492   5.503   9.036  1.00  0.00     0.031 C 
ATOM     56  C   UNL     1     -10.590   4.623   4.377  1.00  0.00     0.029 A 
ATOM     57  C   UNL     1     -10.242   4.915   5.698  1.00  0.00     0.049 A 
ATOM     58  H   UNL     1     -10.459   3.518   7.264  1.00  0.00     0.167 HD
ATOM     59  C   UNL     1      -9.034   6.203   7.452  1.00  0.00     0.074 A 
ATOM     60  C   UNL     1      -8.620   5.178   8.403  1.00  0.00     0.031 C 
ATOM     61  C   UNL     1      -9.804   6.144   6.327  1.00  0.00     0.034 A 
BRANCH  48  62
ATOM     62  C   UNL     1      -9.156   0.789   6.844  1.00  0.00     0.023 A 
ATOM     63  C   UNL     1     -10.400   0.136   6.892  1.00  0.00     0.012 A 
ATOM     64  C   UNL     1      -8.270   0.609   7.928  1.00  0.00     0.148 A 
ATOM     65  C   UNL     1     -10.735  -0.691   7.968  1.00  0.00     0.002 A 
ATOM     66  C   UNL     1      -8.571  -0.278   8.950  1.00  0.00     0.091 A 
ATOM     67  F   UNL     1      -7.181   1.385   8.022  1.00  0.00    -0.205 F 
ATOM     68  C   UNL     1      -9.812  -0.919   8.985  1.00  0.00     0.022 A 
BRANCH  66  69
ATOM     69  S   UNL     1      -7.373  -0.659  10.229  1.00  0.00     0.127 S 
ATOM     70  O   UNL     1      -7.861   0.152  11.340  1.00  0.00    -0.237 OA
ATOM     71  O   UNL     1      -7.550  -2.103  10.390  1.00  0.00    -0.237 OA
ATOM     72  O   UNL     1      -6.085  -0.278   9.664  1.00  0.00    -0.744 OA
ENDBRANCH  66  69
ENDBRANCH  48  62
BRANCH  49  73
ATOM     73  C   UNL     1      -5.099   7.736   9.533  1.00  0.00     0.023 A 
ATOM     74  C   UNL     1      -5.867   8.251  10.601  1.00  0.00     0.012 A 
ATOM     75  C   UNL     1      -3.750   7.409   9.785  1.00  0.00     0.148 A 
ATOM     76  C   UNL     1      -5.337   8.360  11.891  1.00  0.00     0.002 A 
ATOM     77  C   UNL     1      -3.223   7.530  11.071  1.00  0.00     0.091 A 
ATOM     78  F   UNL     1      -3.012   6.885   8.797  1.00  0.00    -0.205 F 
ATOM     79  C   UNL     1      -4.019   7.984  12.130  1.00  0.00     0.022 A 
BRANCH  77  80
ATOM     80  S   UNL     1      -1.528   7.060  11.445  1.00  0.00     0.127 S 
ATOM     81  O   UNL     1      -1.117   8.099  12.391  1.00  0.00    -0.237 OA
ATOM     82  O   UNL     1      -1.700   5.734  12.031  1.00  0.00    -0.237 OA
ATOM     83  O   UNL     1      -0.820   7.108  10.171  1.00  0.00    -0.744 OA
ENDBRANCH  77  80
ENDBRANCH  49  73
BRANCH  61  84
ATOM     84  C   UNL     1      -9.973   7.403   5.517  1.00  0.00     0.023 A 
ATOM     85  C   UNL     1      -8.895   8.013   4.844  1.00  0.00     0.012 A 
ATOM     86  C   UNL     1     -11.277   7.879   5.291  1.00  0.00     0.148 A 
ATOM     87  C   UNL     1      -9.112   9.086   3.975  1.00  0.00     0.002 A 
ATOM     88  C   UNL     1     -11.493   8.921   4.397  1.00  0.00     0.091 A 
ATOM     89  F   UNL     1     -12.290   7.281   5.936  1.00  0.00    -0.205 F 
ATOM     90  C   UNL     1     -10.411   9.531   3.741  1.00  0.00     0.022 A 
BRANCH  88  91
ATOM     91  S   UNL     1     -13.146   9.470   3.963  1.00  0.00     0.127 S 
ATOM     92  O   UNL     1     -13.210  10.783   4.602  1.00  0.00    -0.237 OA
ATOM     93  O   UNL     1     -13.090   9.505   2.500  1.00  0.00    -0.237 OA
ATOM     94  O   UNL     1     -14.059   8.470   4.501  1.00  0.00    -0.744 OA
ENDBRANCH  88  91
ENDBRANCH  61  84
ENDBRANCH  35  36
ENDBRANCH  28  30
ENDBRANCH  27  28
ENDBRANCH  26  27
ENDBRANCH   1  26
TORSDOF 18
