REMARK SMILES Cc1ccc(NC(=O)[C@H]2CC=CC[C@H]2C(=O)OCCOC(=O)c2ccc(-c3c4nc(c(-c5cccc(S(=O)(=O)[O-])c5F)c5ccc([nH]5)c(-c5cccc(S(=O)(=O)[O-])c5F)c5nc(c(-c6cccc(S(=O)(=O)[O-])c6F)c6ccc3[nH]6)C=C5)C=C4)cc2)cc1F
REMARK SMILES IDX 19 1 18 2 17 3 15 4 16 5 14 6 9 7 10 8 11 9 13 10 12 11 7 12
REMARK SMILES IDX 6 13 8 15 5 16 1 17 2 18 3 19 87 20 4 21 86 22 88 23 20 24
REMARK SMILES IDX 21 25 22 26 23 27 24 28 85 29 25 30 84 31 26 32 27 33 28 34
REMARK SMILES IDX 78 35 29 36 83 37 77 38 79 39 30 40 82 41 76 42 75 43 31 45
REMARK SMILES IDX 63 46 43 47 62 48 44 49 47 50 61 51 80 52 45 53 46 54 60 56
REMARK SMILES IDX 81 57 48 58 32 59 33 60 41 61 34 62 36 63 42 64 35 65 37 66
REMARK SMILES IDX 38 67 39 68 40 69 64 70 65 71 73 72 66 73 68 74 74 75 67 76
REMARK SMILES IDX 69 77 70 78 71 79 72 80 49 81 50 82 58 83 51 84 53 85 59 86
REMARK SMILES IDX 52 87 54 88 55 89 56 90 57 91
REMARK H PARENT 6 14 79 44 47 55
REMARK Flexibility Score: inf
ROOT
ATOM      1  C   UNL     1      -1.818   0.464  -3.254  1.00  0.00     0.275 C 
ENDROOT
BRANCH   1   2
ATOM      2  C   UNL     1      -2.482  -0.821  -3.717  1.00  0.00     0.274 C 
BRANCH   2   3
ATOM      3  O   UNL     1      -2.232  -1.847  -2.756  1.00  0.00    -0.462 OA
BRANCH   3   4
ATOM      4  C   UNL     1      -2.290  -3.109  -3.252  1.00  0.00     0.310 C 
ATOM      5  O   UNL     1      -2.700  -3.393  -4.372  1.00  0.00    -0.252 OA
BRANCH   4   6
ATOM      6  C   UNL     1      -1.648  -4.098  -2.295  1.00  0.00     0.116 C 
ATOM      7  C   UNL     1      -1.828  -3.759  -0.799  1.00  0.00     0.097 C 
ATOM      8  C   UNL     1      -1.443  -4.922   0.144  1.00  0.00     0.041 C 
ATOM      9  C   UNL     1      -1.397  -6.298  -0.450  1.00  0.00    -0.030 C 
ATOM     10  C   UNL     1      -2.092  -5.508  -2.696  1.00  0.00     0.043 C 
ATOM     11  C   UNL     1      -1.694  -6.567  -1.725  1.00  0.00    -0.030 C 
BRANCH   7  12
ATOM     12  C   UNL     1      -3.226  -3.243  -0.447  1.00  0.00     0.228 C 
ATOM     13  N   UNL     1      -3.494  -1.976  -0.002  1.00  0.00    -0.326 N 
ATOM     14  H   UNL     1      -4.457  -1.836   0.149  1.00  0.00     0.169 HD
ATOM     15  O   UNL     1      -4.194  -3.989  -0.650  1.00  0.00    -0.274 OA
BRANCH  13  16
ATOM     16  C   UNL     1      -2.741  -0.821   0.293  1.00  0.00     0.044 A 
ATOM     17  C   UNL     1      -0.529   2.870   0.927  1.00  0.00     0.047 C 
ATOM     18  C   UNL     1      -1.362   1.637   0.749  1.00  0.00    -0.015 A 
ATOM     19  C   UNL     1      -2.737   1.637   0.578  1.00  0.00     0.008 A 
ATOM     20  C   UNL     1      -0.742   0.400   0.733  1.00  0.00     0.128 A 
ATOM     21  C   UNL     1      -3.417   0.416   0.369  1.00  0.00     0.026 A 
ATOM     22  C   UNL     1      -1.389  -0.809   0.533  1.00  0.00     0.065 A 
ATOM     23  F   UNL     1       0.564   0.344   0.905  1.00  0.00    -0.207 F 
ENDBRANCH  13  16
ENDBRANCH   7  12
ENDBRANCH   4   6
ENDBRANCH   3   4
ENDBRANCH   2   3
ENDBRANCH   1   2
BRANCH   1  24
ATOM     24  O   UNL     1      -0.407   0.435  -2.954  1.00  0.00    -0.458 OA
BRANCH  24  25
ATOM     25  C   UNL     1       0.411  -0.633  -3.079  1.00  0.00     0.338 C 
ATOM     26  O   UNL     1       0.271  -1.637  -3.755  1.00  0.00    -0.246 OA
BRANCH  25  27
ATOM     27  C   UNL     1       1.483  -0.433  -2.078  1.00  0.00     0.060 A 
ATOM     28  C   UNL     1       1.906  -1.504  -1.269  1.00  0.00     0.016 A 
ATOM     29  C   UNL     1       1.917   0.868  -1.821  1.00  0.00     0.016 A 
ATOM     30  C   UNL     1       2.670  -1.252  -0.120  1.00  0.00     0.010 A 
ATOM     31  C   UNL     1       2.656   1.115  -0.682  1.00  0.00     0.010 A 
ATOM     32  C   UNL     1       2.997   0.068   0.198  1.00  0.00    -0.014 A 
BRANCH  32  33
ATOM     33  C   UNL     1       3.609   0.524   1.449  1.00  0.00     0.031 A 
ATOM     34  C   UNL     1       5.016   0.981   1.422  1.00  0.00     0.074 A 
ATOM     35  C   UNL     1       2.856   0.841   2.533  1.00  0.00     0.049 A 
ATOM     36  N   UNL     1       5.726   1.192   2.479  1.00  0.00    -0.248 NA
ATOM     37  C   UNL     1       5.773   1.173   0.185  1.00  0.00     0.031 C 
ATOM     38  C   UNL     1       3.170   1.874   3.520  1.00  0.00     0.029 A 
ATOM     39  N   UNL     1       1.682   0.284   3.027  1.00  0.00    -0.354 N 
ATOM     40  C   UNL     1       6.818   1.924   2.081  1.00  0.00     0.074 A 
ATOM     41  C   UNL     1       6.908   1.697   0.659  1.00  0.00     0.031 C 
ATOM     42  C   UNL     1       2.367   1.732   4.583  1.00  0.00     0.029 A 
ATOM     43  C   UNL     1       1.600   0.515   4.401  1.00  0.00     0.049 A 
ATOM     44  H   UNL     1       1.013  -0.199   2.491  1.00  0.00     0.167 HD
ATOM     45  C   UNL     1       7.393   2.796   2.960  1.00  0.00     0.034 A 
ATOM     46  C   UNL     1       1.403  -0.444   5.349  1.00  0.00     0.034 A 
ATOM     47  C   UNL     1       6.850   2.637   4.311  1.00  0.00     0.049 A 
ATOM     48  C   UNL     1       2.597  -0.577   6.267  1.00  0.00     0.074 A 
ATOM     49  C   UNL     1       6.073   3.443   5.125  1.00  0.00     0.029 A 
ATOM     50  N   UNL     1       6.899   1.390   4.931  1.00  0.00    -0.354 N 
ATOM     51  N   UNL     1       3.681   0.130   6.118  1.00  0.00    -0.248 NA
ATOM     52  C   UNL     1       2.725  -1.553   7.346  1.00  0.00     0.031 C 
ATOM     53  C   UNL     1       5.579   2.640   6.190  1.00  0.00     0.029 A 
ATOM     54  C   UNL     1       6.092   1.361   6.051  1.00  0.00     0.049 A 
ATOM     55  H   UNL     1       7.439   0.631   4.613  1.00  0.00     0.167 HD
ATOM     56  C   UNL     1       4.663  -0.337   6.942  1.00  0.00     0.074 A 
ATOM     57  C   UNL     1       3.997  -1.350   7.738  1.00  0.00     0.031 C 
ATOM     58  C   UNL     1       5.942   0.130   6.832  1.00  0.00     0.034 A 
BRANCH  45  59
ATOM     59  C   UNL     1       8.282   3.966   2.553  1.00  0.00     0.023 A 
ATOM     60  C   UNL     1       8.511   4.325   1.204  1.00  0.00     0.012 A 
ATOM     61  C   UNL     1       8.846   4.834   3.517  1.00  0.00     0.148 A 
ATOM     62  C   UNL     1       9.285   5.427   0.822  1.00  0.00     0.002 A 
ATOM     63  C   UNL     1       9.567   5.973   3.134  1.00  0.00     0.091 A 
ATOM     64  F   UNL     1       8.680   4.583   4.823  1.00  0.00    -0.205 F 
ATOM     65  C   UNL     1       9.809   6.261   1.790  1.00  0.00     0.022 A 
BRANCH  63  66
ATOM     66  S   UNL     1      10.132   7.130   4.386  1.00  0.00     0.127 S 
ATOM     67  O   UNL     1       8.881   7.642   4.935  1.00  0.00    -0.237 OA
ATOM     68  O   UNL     1      10.951   6.301   5.263  1.00  0.00    -0.237 OA
ATOM     69  O   UNL     1      10.893   8.114   3.613  1.00  0.00    -0.744 OA
ENDBRANCH  63  66
ENDBRANCH  45  59
BRANCH  46  70
ATOM     70  C   UNL     1       0.487  -1.536   4.951  1.00  0.00     0.023 A 
ATOM     71  C   UNL     1       0.939  -2.588   4.136  1.00  0.00     0.012 A 
ATOM     72  C   UNL     1      -0.897  -1.287   5.051  1.00  0.00     0.148 A 
ATOM     73  C   UNL     1       0.031  -3.301   3.347  1.00  0.00     0.002 A 
ATOM     74  C   UNL     1      -1.792  -1.985   4.249  1.00  0.00     0.091 A 
ATOM     75  F   UNL     1      -1.320  -0.323   5.883  1.00  0.00    -0.205 F 
ATOM     76  C   UNL     1      -1.329  -2.982   3.383  1.00  0.00     0.022 A 
BRANCH  74  77
ATOM     77  S   UNL     1      -3.520  -1.484   4.201  1.00  0.00     0.127 S 
ATOM     78  O   UNL     1      -4.039  -2.017   5.456  1.00  0.00    -0.237 OA
ATOM     79  O   UNL     1      -3.459  -0.030   4.088  1.00  0.00    -0.237 OA
ATOM     80  O   UNL     1      -4.037  -2.148   3.003  1.00  0.00    -0.744 OA
ENDBRANCH  74  77
ENDBRANCH  46  70
BRANCH  58  81
ATOM     81  C   UNL     1       7.152  -0.463   7.513  1.00  0.00     0.023 A 
ATOM     82  C   UNL     1       8.317   0.337   7.622  1.00  0.00     0.012 A 
ATOM     83  C   UNL     1       7.246  -1.775   8.000  1.00  0.00     0.148 A 
ATOM     84  C   UNL     1       9.495  -0.132   8.210  1.00  0.00     0.002 A 
ATOM     85  C   UNL     1       8.379  -2.199   8.694  1.00  0.00     0.091 A 
ATOM     86  F   UNL     1       6.274  -2.663   7.751  1.00  0.00    -0.205 F 
ATOM     87  C   UNL     1       9.517  -1.394   8.783  1.00  0.00     0.022 A 
BRANCH  85  88
ATOM     88  S   UNL     1       8.290  -3.737   9.613  1.00  0.00     0.127 S 
ATOM     89  O   UNL     1       7.134  -3.522  10.481  1.00  0.00    -0.237 OA
ATOM     90  O   UNL     1       8.137  -4.746   8.570  1.00  0.00    -0.237 OA
ATOM     91  O   UNL     1       9.570  -3.787  10.320  1.00  0.00    -0.744 OA
ENDBRANCH  85  88
ENDBRANCH  58  81
ENDBRANCH  32  33
ENDBRANCH  25  27
ENDBRANCH  24  25
ENDBRANCH   1  24
TORSDOF 16
