REMARK SMILES O=C(OCCOC(=O)[C@@H]1[C@H](C(=O)Nc2ccccc2OC(F)F)[C@@H]2C=C[C@H]1C2)c1ccc(-c2c3nc(c(-c4cccc(S(=O)(=O)[O-])c4F)c4ccc([nH]4)c(-c4cccc(S(=O)(=O)[O-])c4F)c4nc(c(-c5cccc(S(=O)(=O)[O-])c5F)c5ccc2[nH]5)C=C4)C=C3)cc1
REMARK SMILES IDX 5 1 4 2 3 3 2 4 1 5 29 6 30 7 91 8 31 9 90 10 32 11 33 12
REMARK SMILES IDX 34 13 84 14 35 15 89 16 83 17 85 18 36 19 88 20 82 21 81 22
REMARK SMILES IDX 37 24 69 25 49 26 68 27 50 28 53 29 67 30 86 31 51 32 52 33
REMARK SMILES IDX 66 35 87 36 54 37 38 38 39 39 47 40 40 41 42 42 48 43 41 44
REMARK SMILES IDX 43 45 44 46 45 47 46 48 70 49 71 50 79 51 72 52 74 53 80 54
REMARK SMILES IDX 73 55 75 56 76 57 77 58 78 59 55 60 56 61 64 62 57 63 59 64
REMARK SMILES IDX 65 65 58 66 60 67 61 68 62 69 63 70 6 71 7 72 8 73 9 74
REMARK SMILES IDX 10 75 27 76 24 77 26 78 28 79 25 80 11 81 12 82 13 83 14 85
REMARK SMILES IDX 15 86 19 87 16 88 18 89 17 90 20 91 21 92 22 93 23 94
REMARK H PARENT 85 23 53 34 13 84
REMARK Flexibility Score: inf
ROOT
ATOM      1  C   UNL     1       4.628   1.519   1.202  1.00  0.00     0.274 C 
ENDROOT
BRANCH   1   2
ATOM      2  C   UNL     1       5.540   1.351  -0.015  1.00  0.00     0.275 C 
BRANCH   2   3
ATOM      3  O   UNL     1       4.921   0.792  -1.194  1.00  0.00    -0.458 OA
BRANCH   3   4
ATOM      4  C   UNL     1       4.919  -0.525  -1.537  1.00  0.00     0.338 C 
ATOM      5  O   UNL     1       4.574  -0.896  -2.653  1.00  0.00    -0.246 OA
BRANCH   4   6
ATOM      6  C   UNL     1       5.189  -1.495  -0.468  1.00  0.00     0.060 A 
ATOM      7  C   UNL     1       6.453  -1.566   0.114  1.00  0.00     0.016 A 
ATOM      8  C   UNL     1       4.140  -2.306  -0.014  1.00  0.00     0.016 A 
ATOM      9  C   UNL     1       6.628  -2.338   1.249  1.00  0.00     0.010 A 
ATOM     10  C   UNL     1       4.321  -3.096   1.117  1.00  0.00     0.010 A 
ATOM     11  C   UNL     1       5.565  -3.101   1.754  1.00  0.00    -0.014 A 
BRANCH  11  12
ATOM     12  C   UNL     1       5.905  -4.047   2.828  1.00  0.00     0.031 A 
ATOM     13  C   UNL     1       6.382  -5.394   2.400  1.00  0.00     0.074 A 
ATOM     14  C   UNL     1       6.030  -3.619   4.095  1.00  0.00     0.049 A 
ATOM     15  N   UNL     1       7.257  -6.164   2.980  1.00  0.00    -0.248 NA
ATOM     16  C   UNL     1       5.871  -5.901   1.115  1.00  0.00     0.031 C 
ATOM     17  C   UNL     1       5.574  -2.329   4.612  1.00  0.00     0.029 A 
ATOM     18  N   UNL     1       6.629  -4.220   5.170  1.00  0.00    -0.354 N 
ATOM     19  C   UNL     1       7.475  -7.199   2.085  1.00  0.00     0.074 A 
ATOM     20  C   UNL     1       6.586  -7.005   0.964  1.00  0.00     0.031 C 
ATOM     21  C   UNL     1       5.902  -2.239   5.913  1.00  0.00     0.029 A 
ATOM     22  C   UNL     1       6.646  -3.435   6.297  1.00  0.00     0.049 A 
ATOM     23  H   UNL     1       7.010  -5.128   5.138  1.00  0.00     0.167 HD
ATOM     24  C   UNL     1       8.387  -8.190   2.175  1.00  0.00     0.034 A 
ATOM     25  C   UNL     1       7.253  -3.644   7.481  1.00  0.00     0.034 A 
ATOM     26  C   UNL     1       9.196  -8.405   3.337  1.00  0.00     0.049 A 
ATOM     27  C   UNL     1       8.190  -4.820   7.600  1.00  0.00     0.074 A 
ATOM     28  C   UNL     1      10.114  -9.407   3.580  1.00  0.00     0.029 A 
ATOM     29  N   UNL     1       9.142  -7.616   4.478  1.00  0.00    -0.354 N 
ATOM     30  N   UNL     1       8.550  -5.685   6.679  1.00  0.00    -0.248 NA
ATOM     31  C   UNL     1       8.860  -5.007   8.893  1.00  0.00     0.031 C 
ATOM     32  C   UNL     1      10.595  -9.239   4.884  1.00  0.00     0.029 A 
ATOM     33  C   UNL     1       9.994  -8.119   5.441  1.00  0.00     0.049 A 
ATOM     34  H   UNL     1       8.580  -6.815   4.585  1.00  0.00     0.167 HD
ATOM     35  C   UNL     1       9.514  -6.494   7.269  1.00  0.00     0.074 A 
ATOM     36  C   UNL     1       9.700  -5.996   8.619  1.00  0.00     0.031 C 
ATOM     37  C   UNL     1      10.178  -7.562   6.758  1.00  0.00     0.034 A 
BRANCH  24  38
ATOM     38  C   UNL     1       8.552  -9.062   0.967  1.00  0.00     0.023 A 
ATOM     39  C   UNL     1       9.241  -8.551  -0.154  1.00  0.00     0.012 A 
ATOM     40  C   UNL     1       8.010 -10.357   0.918  1.00  0.00     0.148 A 
ATOM     41  C   UNL     1       9.366  -9.309  -1.316  1.00  0.00     0.002 A 
ATOM     42  C   UNL     1       8.162 -11.117  -0.235  1.00  0.00     0.091 A 
ATOM     43  F   UNL     1       7.332 -10.805   1.984  1.00  0.00    -0.205 F 
ATOM     44  C   UNL     1       8.831 -10.593  -1.355  1.00  0.00     0.022 A 
BRANCH  42  45
ATOM     45  S   UNL     1       7.533 -12.792  -0.383  1.00  0.00     0.127 S 
ATOM     46  O   UNL     1       6.521 -12.636  -1.427  1.00  0.00    -0.237 OA
ATOM     47  O   UNL     1       8.727 -13.529  -0.793  1.00  0.00    -0.237 OA
ATOM     48  O   UNL     1       7.015 -13.146   0.932  1.00  0.00    -0.744 OA
ENDBRANCH  42  45
ENDBRANCH  24  38
BRANCH  25  49
ATOM     49  C   UNL     1       7.067  -2.682   8.605  1.00  0.00     0.023 A 
ATOM     50  C   UNL     1       8.143  -1.895   9.059  1.00  0.00     0.012 A 
ATOM     51  C   UNL     1       5.815  -2.558   9.239  1.00  0.00     0.148 A 
ATOM     52  C   UNL     1       7.987  -1.036  10.149  1.00  0.00     0.002 A 
ATOM     53  C   UNL     1       5.654  -1.668  10.295  1.00  0.00     0.091 A 
ATOM     54  F   UNL     1       4.805  -3.327   8.809  1.00  0.00    -0.205 F 
ATOM     55  C   UNL     1       6.742  -0.917  10.763  1.00  0.00     0.022 A 
BRANCH  53  56
ATOM     56  S   UNL     1       4.054  -1.387  11.061  1.00  0.00     0.127 S 
ATOM     57  O   UNL     1       4.154  -2.200  12.270  1.00  0.00    -0.237 OA
ATOM     58  O   UNL     1       4.068   0.059  11.288  1.00  0.00    -0.237 OA
ATOM     59  O   UNL     1       3.076  -1.824  10.072  1.00  0.00    -0.744 OA
ENDBRANCH  53  56
ENDBRANCH  25  49
BRANCH  37  60
ATOM     60  C   UNL     1      11.163  -8.258   7.657  1.00  0.00     0.023 A 
ATOM     61  C   UNL     1      10.689  -9.053   8.720  1.00  0.00     0.012 A 
ATOM     62  C   UNL     1      12.544  -8.202   7.393  1.00  0.00     0.148 A 
ATOM     63  C   UNL     1      11.580  -9.759   9.525  1.00  0.00     0.002 A 
ATOM     64  C   UNL     1      13.422  -8.950   8.167  1.00  0.00     0.091 A 
ATOM     65  F   UNL     1      12.976  -7.423   6.390  1.00  0.00    -0.205 F 
ATOM     66  C   UNL     1      12.943  -9.719   9.240  1.00  0.00     0.022 A 
BRANCH  64  67
ATOM     67  S   UNL     1      15.177  -9.040   7.796  1.00  0.00     0.127 S 
ATOM     68  O   UNL     1      15.738  -8.127   8.789  1.00  0.00    -0.237 OA
ATOM     69  O   UNL     1      15.476 -10.454   8.029  1.00  0.00    -0.237 OA
ATOM     70  O   UNL     1      15.308  -8.621   6.407  1.00  0.00    -0.744 OA
ENDBRANCH  64  67
ENDBRANCH  37  60
ENDBRANCH  11  12
ENDBRANCH   4   6
ENDBRANCH   3   4
ENDBRANCH   2   3
ENDBRANCH   1   2
BRANCH   1  71
ATOM     71  O   UNL     1       3.818   0.377   1.538  1.00  0.00    -0.462 OA
BRANCH  71  72
ATOM     72  C   UNL     1       2.869   0.682   2.485  1.00  0.00     0.310 C 
ATOM     73  O   UNL     1       2.758   1.802   2.977  1.00  0.00    -0.252 OA
BRANCH  72  74
ATOM     74  C   UNL     1       2.125  -0.535   2.986  1.00  0.00     0.119 C 
ATOM     75  C   UNL     1       1.018  -1.365   2.268  1.00  0.00     0.100 C 
ATOM     76  C   UNL     1       1.470  -0.246   4.373  1.00  0.00     0.027 C 
ATOM     77  C   UNL     1      -0.072  -1.515   3.384  1.00  0.00     0.025 C 
ATOM     78  C   UNL     1       0.229   0.603   4.194  1.00  0.00    -0.027 C 
ATOM     79  C   UNL     1       0.786  -1.588   4.651  1.00  0.00     0.017 C 
ATOM     80  C   UNL     1      -0.707  -0.171   3.630  1.00  0.00    -0.027 C 
BRANCH  75  81
ATOM     81  C   UNL     1       0.331  -1.293   0.896  1.00  0.00     0.229 C 
ATOM     82  O   UNL     1       0.285  -2.345   0.233  1.00  0.00    -0.274 OA
ATOM     83  N   UNL     1      -0.487  -0.306   0.440  1.00  0.00    -0.323 N 
ATOM     84  H   UNL     1      -1.230  -0.641  -0.113  1.00  0.00     0.170 HD
BRANCH  83  85
ATOM     85  C   UNL     1      -0.495   1.083   0.592  1.00  0.00     0.084 A 
ATOM     86  C   UNL     1      -1.729   1.739   0.610  1.00  0.00     0.030 A 
ATOM     87  C   UNL     1       0.653   1.865   0.555  1.00  0.00     0.149 A 
ATOM     88  C   UNL     1      -1.795   3.119   0.832  1.00  0.00     0.002 A 
ATOM     89  C   UNL     1       0.604   3.217   0.898  1.00  0.00     0.049 A 
ATOM     90  C   UNL     1      -0.627   3.846   1.048  1.00  0.00     0.004 A 
BRANCH  87  91
ATOM     91  O   UNL     1       1.845   1.429   0.061  1.00  0.00    -0.433 OA
BRANCH  91  92
ATOM     92  C   UNL     1       1.802   0.838  -1.241  1.00  0.00     0.542 C 
ATOM     93  F   UNL     1       1.969  -0.492  -1.098  1.00  0.00    -0.167 F 
ATOM     94  F   UNL     1       0.621   1.050  -1.872  1.00  0.00    -0.167 F 
ENDBRANCH  91  92
ENDBRANCH  87  91
ENDBRANCH  83  85
ENDBRANCH  75  81
ENDBRANCH  72  74
ENDBRANCH  71  72
ENDBRANCH   1  71
TORSDOF 18
