REMARK SMILES CCn1c(N2CCC(C(=O)OCCOC(=O)c3ccc(-c4c5nc(c(-c6cccc(S(=O)(=O)[O-])c6F)c6ccc([nH]6)c(-c6cccc(S(=O)(=O)[O-])c6F)c6nc(c(-c7cccc(S(=O)(=O)[O-])c7F)c7ccc4[nH]7)C=C6)C=C5)cc3)CC2)nc2cc(C)ccc21
REMARK SMILES IDX 13 1 12 2 11 3 9 4 10 5 8 6 5 7 6 8 81 9 7 10 80 11 4 12
REMARK SMILES IDX 3 13 89 14 82 15 83 16 88 17 84 18 87 19 85 20 86 21 2 22
REMARK SMILES IDX 1 23 14 24 15 25 16 26 17 27 18 28 79 29 19 30 78 31 20 32
REMARK SMILES IDX 21 33 22 34 72 35 23 36 77 37 71 38 73 39 24 40 76 41 70 42
REMARK SMILES IDX 69 43 25 45 57 46 37 47 56 48 38 49 41 50 55 51 74 52 39 53
REMARK SMILES IDX 40 54 54 56 75 57 42 58 26 59 27 60 35 61 28 62 30 63 36 64
REMARK SMILES IDX 29 65 31 66 32 67 33 68 34 69 58 70 59 71 67 72 60 73 62 74
REMARK SMILES IDX 68 75 61 76 63 77 64 78 65 79 66 80 43 81 44 82 52 83 45 84
REMARK SMILES IDX 47 85 53 86 46 87 48 88 49 89 50 90 51 91
REMARK H PARENT 73 44 41 55
REMARK Flexibility Score: inf
ROOT
ATOM      1  C   UNL     1      -1.255  10.098   4.220  1.00  0.00     0.275 C 
ENDROOT
BRANCH   1   2
ATOM      2  C   UNL     1       0.116   9.442   4.035  1.00  0.00     0.274 C 
BRANCH   2   3
ATOM      3  O   UNL     1      -0.029   8.229   3.270  1.00  0.00    -0.462 OA
BRANCH   3   4
ATOM      4  C   UNL     1       0.258   7.067   3.913  1.00  0.00     0.309 C 
ATOM      5  O   UNL     1       0.694   6.999   5.057  1.00  0.00    -0.252 OA
BRANCH   4   6
ATOM      6  C   UNL     1      -0.097   5.845   3.097  1.00  0.00     0.103 C 
ATOM      7  N   UNL     1      -0.233   3.779   1.163  1.00  0.00    -0.342 N 
ATOM      8  C   UNL     1      -1.299   4.769   1.179  1.00  0.00     0.120 C 
ATOM      9  C   UNL     1       0.498   3.549   2.415  1.00  0.00     0.120 C 
ATOM     10  C   UNL     1      -0.818   6.094   1.770  1.00  0.00     0.037 C 
ATOM     11  C   UNL     1       1.071   4.888   2.891  1.00  0.00     0.037 C 
BRANCH   7  12
ATOM     12  C   UNL     1       0.457   3.576   0.017  1.00  0.00     0.206 A 
ATOM     13  N   UNL     1       0.799   2.295  -0.382  1.00  0.00    -0.310 N 
ATOM     14  C   UNL     1       1.679   2.422  -1.431  1.00  0.00     0.070 A 
ATOM     15  N   UNL     1       0.868   4.478  -0.843  1.00  0.00    -0.213 NA
ATOM     16  C   UNL     1       1.656   3.784  -1.723  1.00  0.00     0.091 A 
ATOM     17  C   UNL     1       2.470   1.524  -2.156  1.00  0.00     0.029 A 
ATOM     18  C   UNL     1       2.392   4.272  -2.815  1.00  0.00     0.034 A 
ATOM     19  C   UNL     1       3.188   2.024  -3.247  1.00  0.00     0.006 A 
ATOM     20  C   UNL     1       3.142   3.378  -3.597  1.00  0.00    -0.049 A 
ATOM     21  C   UNL     1       3.892   3.886  -4.790  1.00  0.00     0.044 C 
BRANCH  13  22
ATOM     22  C   UNL     1       0.159   1.108   0.162  1.00  0.00     0.122 C 
ATOM     23  C   UNL     1       0.174  -0.153  -0.682  1.00  0.00     0.028 C 
ENDBRANCH  13  22
ENDBRANCH   7  12
ENDBRANCH   4   6
ENDBRANCH   3   4
ENDBRANCH   2   3
ENDBRANCH   1   2
BRANCH   1  24
ATOM     24  O   UNL     1      -2.016   9.327   5.160  1.00  0.00    -0.458 OA
BRANCH  24  25
ATOM     25  C   UNL     1      -3.045   8.596   4.649  1.00  0.00     0.338 C 
ATOM     26  O   UNL     1      -3.659   8.806   3.633  1.00  0.00    -0.246 OA
BRANCH  25  27
ATOM     27  C   UNL     1      -3.023   7.309   5.385  1.00  0.00     0.060 A 
ATOM     28  C   UNL     1      -2.603   7.239   6.718  1.00  0.00     0.016 A 
ATOM     29  C   UNL     1      -3.159   6.153   4.616  1.00  0.00     0.016 A 
ATOM     30  C   UNL     1      -2.131   6.032   7.220  1.00  0.00     0.010 A 
ATOM     31  C   UNL     1      -2.675   4.954   5.120  1.00  0.00     0.010 A 
ATOM     32  C   UNL     1      -2.081   4.913   6.386  1.00  0.00    -0.014 A 
BRANCH  32  33
ATOM     33  C   UNL     1      -1.623   3.636   6.928  1.00  0.00     0.031 A 
ATOM     34  C   UNL     1      -2.728   2.889   7.567  1.00  0.00     0.074 A 
ATOM     35  C   UNL     1      -0.397   3.081   6.817  1.00  0.00     0.049 A 
ATOM     36  N   UNL     1      -2.905   2.728   8.837  1.00  0.00    -0.248 NA
ATOM     37  C   UNL     1      -3.845   2.432   6.730  1.00  0.00     0.031 C 
ATOM     38  C   UNL     1       0.760   3.546   6.067  1.00  0.00     0.029 A 
ATOM     39  N   UNL     1       0.035   1.876   7.292  1.00  0.00    -0.354 N 
ATOM     40  C   UNL     1      -4.052   1.957   8.941  1.00  0.00     0.074 A 
ATOM     41  C   UNL     1      -4.698   1.995   7.655  1.00  0.00     0.031 C 
ATOM     42  C   UNL     1       1.638   2.526   5.897  1.00  0.00     0.029 A 
ATOM     43  C   UNL     1       1.189   1.385   6.677  1.00  0.00     0.049 A 
ATOM     44  H   UNL     1      -0.430   1.391   8.011  1.00  0.00     0.167 HD
ATOM     45  C   UNL     1      -4.257   1.118   9.988  1.00  0.00     0.034 A 
ATOM     46  C   UNL     1       1.696   0.128   6.792  1.00  0.00     0.034 A 
ATOM     47  C   UNL     1      -3.376   1.380  11.091  1.00  0.00     0.049 A 
ATOM     48  C   UNL     1       1.162  -0.415   8.064  1.00  0.00     0.074 A 
ATOM     49  C   UNL     1      -3.092   2.492  11.861  1.00  0.00     0.029 A 
ATOM     50  N   UNL     1      -2.323   0.517  11.278  1.00  0.00    -0.354 N 
ATOM     51  N   UNL     1       1.510   0.035   9.236  1.00  0.00    -0.248 NA
ATOM     52  C   UNL     1      -0.080  -1.170   8.013  1.00  0.00     0.031 C 
ATOM     53  C   UNL     1      -1.681   2.452  12.055  1.00  0.00     0.029 A 
ATOM     54  C   UNL     1      -1.205   1.293  11.441  1.00  0.00     0.049 A 
ATOM     55  H   UNL     1      -2.363  -0.466  11.291  1.00  0.00     0.167 HD
ATOM     56  C   UNL     1       0.330   0.024   9.963  1.00  0.00     0.074 A 
ATOM     57  C   UNL     1      -0.592  -0.810   9.192  1.00  0.00     0.031 C 
ATOM     58  C   UNL     1       0.105   0.926  10.960  1.00  0.00     0.034 A 
BRANCH  45  59
ATOM     59  C   UNL     1      -5.026  -0.162   9.856  1.00  0.00     0.023 A 
ATOM     60  C   UNL     1      -5.521  -0.763  11.027  1.00  0.00     0.012 A 
ATOM     61  C   UNL     1      -5.082  -0.912   8.659  1.00  0.00     0.148 A 
ATOM     62  C   UNL     1      -6.061  -2.052  11.001  1.00  0.00     0.002 A 
ATOM     63  C   UNL     1      -5.702  -2.151   8.620  1.00  0.00     0.091 A 
ATOM     64  F   UNL     1      -4.417  -0.490   7.577  1.00  0.00    -0.205 F 
ATOM     65  C   UNL     1      -6.174  -2.737   9.795  1.00  0.00     0.022 A 
BRANCH  63  66
ATOM     66  S   UNL     1      -5.912  -3.039   7.075  1.00  0.00     0.127 S 
ATOM     67  O   UNL     1      -4.888  -4.072   7.189  1.00  0.00    -0.237 OA
ATOM     68  O   UNL     1      -7.292  -3.514   7.186  1.00  0.00    -0.237 OA
ATOM     69  O   UNL     1      -5.709  -2.044   6.029  1.00  0.00    -0.744 OA
ENDBRANCH  63  66
ENDBRANCH  45  59
BRANCH  46  70
ATOM     70  C   UNL     1       2.453  -0.749   5.856  1.00  0.00     0.023 A 
ATOM     71  C   UNL     1       3.003  -1.965   6.332  1.00  0.00     0.012 A 
ATOM     72  C   UNL     1       2.382  -0.578   4.461  1.00  0.00     0.148 A 
ATOM     73  C   UNL     1       3.405  -2.987   5.460  1.00  0.00     0.002 A 
ATOM     74  C   UNL     1       2.803  -1.593   3.598  1.00  0.00     0.091 A 
ATOM     75  F   UNL     1       1.802   0.524   3.964  1.00  0.00    -0.205 F 
ATOM     76  C   UNL     1       3.296  -2.806   4.088  1.00  0.00     0.022 A 
BRANCH  74  77
ATOM     77  S   UNL     1       2.638  -1.403   1.827  1.00  0.00     0.127 S 
ATOM     78  O   UNL     1       3.671  -2.289   1.290  1.00  0.00    -0.237 OA
ATOM     79  O   UNL     1       1.269  -1.859   1.608  1.00  0.00    -0.237 OA
ATOM     80  O   UNL     1       2.891   0.012   1.586  1.00  0.00    -0.744 OA
ENDBRANCH  74  77
ENDBRANCH  46  70
BRANCH  58  81
ATOM     81  C   UNL     1       1.238   1.814  11.403  1.00  0.00     0.023 A 
ATOM     82  C   UNL     1       1.751   2.836  10.576  1.00  0.00     0.012 A 
ATOM     83  C   UNL     1       1.608   1.779  12.757  1.00  0.00     0.148 A 
ATOM     84  C   UNL     1       2.607   3.812  11.096  1.00  0.00     0.002 A 
ATOM     85  C   UNL     1       2.426   2.773  13.279  1.00  0.00     0.091 A 
ATOM     86  F   UNL     1       1.097   0.804  13.524  1.00  0.00    -0.205 F 
ATOM     87  C   UNL     1       2.929   3.791  12.452  1.00  0.00     0.022 A 
BRANCH  85  88
ATOM     88  S   UNL     1       2.785   2.879  15.034  1.00  0.00     0.127 S 
ATOM     89  O   UNL     1       4.233   2.683  15.062  1.00  0.00    -0.237 OA
ATOM     90  O   UNL     1       2.345   4.237  15.356  1.00  0.00    -0.237 OA
ATOM     91  O   UNL     1       2.007   1.826  15.674  1.00  0.00    -0.744 OA
ENDBRANCH  85  88
ENDBRANCH  58  81
ENDBRANCH  32  33
ENDBRANCH  25  27
ENDBRANCH  24  25
ENDBRANCH   1  24
TORSDOF 16
