REMARK SMILES COCc1cccc(O[C@@H](F)C(=O)OCCOC(=O)c2ccc(-c3c4nc(c(-c5cccc(S(=O)(=O)[O-])c5F)c5ccc([nH]5)c(-c5cccc(S(=O)(=O)[O-])c5F)c5nc(c(-c6cccc(S(=O)(=O)[O-])c6F)c6ccc3[nH]6)C=C5)C=C4)cc2)c1
REMARK SMILES IDX 15 1 14 2 12 3 13 4 10 5 11 6 9 7 8 8 4 9 5 10 83 11 6 12
REMARK SMILES IDX 7 13 3 14 2 15 1 16 16 17 17 18 18 19 19 20 20 21 21 22
REMARK SMILES IDX 82 23 22 24 81 25 23 26 24 27 25 28 75 29 26 30 80 31 74 32
REMARK SMILES IDX 76 33 27 34 79 35 73 36 72 37 28 39 60 40 40 41 59 42 41 43
REMARK SMILES IDX 44 44 58 45 77 46 42 47 43 48 57 50 78 51 45 52 29 53 30 54
REMARK SMILES IDX 38 55 31 56 33 57 39 58 32 59 34 60 35 61 36 62 37 63 61 64
REMARK SMILES IDX 62 65 70 66 63 67 65 68 71 69 64 70 66 71 67 72 68 73 69 74
REMARK SMILES IDX 46 75 47 76 55 77 48 78 50 79 56 80 49 81 51 82 52 83 53 84
REMARK SMILES IDX 54 85
REMARK H PARENT 76 38 44 49
REMARK Flexibility Score: inf
ROOT
ATOM      1  C   UNL     1      -3.110  -3.182  -1.848  1.00  0.00     0.274 C 
ENDROOT
BRANCH   1   2
ATOM      2  O   UNL     1      -2.259  -2.877  -2.966  1.00  0.00    -0.457 OA
BRANCH   2   3
ATOM      3  C   UNL     1      -2.213  -3.755  -4.003  1.00  0.00     0.381 C 
ATOM      4  O   UNL     1      -2.810  -4.827  -4.022  1.00  0.00    -0.244 OA
BRANCH   3   5
ATOM      5  C   UNL     1      -1.283  -3.281  -5.147  1.00  0.00     0.461 C 
ATOM      6  F   UNL     1      -0.087  -3.950  -5.145  1.00  0.00    -0.189 F 
BRANCH   5   7
ATOM      7  O   UNL     1      -1.022  -1.906  -5.373  1.00  0.00    -0.451 OA
BRANCH   7   8
ATOM      8  C   UNL     1      -0.267  -1.215  -4.471  1.00  0.00     0.124 A 
ATOM      9  C   UNL     1       1.056  -0.938  -2.446  1.00  0.00    -0.019 A 
ATOM     10  C   UNL     1       1.147   0.434  -2.708  1.00  0.00     0.006 A 
ATOM     11  C   UNL     1       0.377  -1.758  -3.359  1.00  0.00     0.052 A 
ATOM     12  C   UNL     1       0.533   0.980  -3.834  1.00  0.00     0.004 A 
ATOM     13  C   UNL     1      -0.180   0.158  -4.706  1.00  0.00     0.046 A 
BRANCH   9  14
ATOM     14  C   UNL     1       1.635  -1.544  -1.192  1.00  0.00     0.195 C 
BRANCH  14  15
ATOM     15  O   UNL     1       0.779  -1.386  -0.058  1.00  0.00    -0.380 OA
ATOM     16  C   UNL     1       0.871  -0.105   0.548  1.00  0.00     0.195 C 
ENDBRANCH  14  15
ENDBRANCH   9  14
ENDBRANCH   7   8
ENDBRANCH   5   7
ENDBRANCH   3   5
ENDBRANCH   2   3
ENDBRANCH   1   2
BRANCH   1  17
ATOM     17  C   UNL     1      -4.276  -2.194  -1.790  1.00  0.00     0.275 C 
BRANCH  17  18
ATOM     18  O   UNL     1      -5.202  -2.430  -2.865  1.00  0.00    -0.458 OA
BRANCH  18  19
ATOM     19  C   UNL     1      -4.905  -1.804  -4.028  1.00  0.00     0.338 C 
ATOM     20  O   UNL     1      -3.999  -1.017  -4.237  1.00  0.00    -0.246 OA
BRANCH  19  21
ATOM     21  C   UNL     1      -5.749  -2.349  -5.100  1.00  0.00     0.060 A 
ATOM     22  C   UNL     1      -5.111  -2.896  -6.218  1.00  0.00     0.016 A 
ATOM     23  C   UNL     1      -7.140  -2.277  -5.033  1.00  0.00     0.016 A 
ATOM     24  C   UNL     1      -5.865  -3.373  -7.284  1.00  0.00     0.010 A 
ATOM     25  C   UNL     1      -7.895  -2.754  -6.105  1.00  0.00     0.010 A 
ATOM     26  C   UNL     1      -7.261  -3.293  -7.239  1.00  0.00    -0.014 A 
BRANCH  26  27
ATOM     27  C   UNL     1      -8.064  -3.725  -8.404  1.00  0.00     0.031 A 
ATOM     28  C   UNL     1      -8.715  -2.692  -9.276  1.00  0.00     0.074 A 
ATOM     29  C   UNL     1      -8.217  -5.037  -8.658  1.00  0.00     0.049 A 
ATOM     30  N   UNL     1      -9.541  -2.857 -10.274  1.00  0.00    -0.248 NA
ATOM     31  C   UNL     1      -8.398  -1.284  -8.981  1.00  0.00     0.031 C 
ATOM     32  C   UNL     1      -7.614  -6.122  -7.882  1.00  0.00     0.029 A 
ATOM     33  N   UNL     1      -8.949  -5.680  -9.623  1.00  0.00    -0.354 N 
ATOM     34  C   UNL     1      -9.872  -1.579 -10.706  1.00  0.00     0.074 A 
ATOM     35  C   UNL     1      -9.162  -0.646  -9.857  1.00  0.00     0.031 C 
ATOM     36  C   UNL     1      -8.026  -7.298  -8.384  1.00  0.00     0.029 A 
ATOM     37  C   UNL     1      -8.948  -7.048  -9.488  1.00  0.00     0.049 A 
ATOM     38  H   UNL     1      -9.429  -5.208 -10.342  1.00  0.00     0.167 HD
ATOM     39  C   UNL     1     -10.684  -1.218 -11.728  1.00  0.00     0.034 A 
ATOM     40  C   UNL     1      -9.642  -7.989 -10.157  1.00  0.00     0.034 A 
ATOM     41  C   UNL     1     -11.365  -2.155 -12.579  1.00  0.00     0.049 A 
ATOM     42  C   UNL     1     -10.559  -7.558 -11.271  1.00  0.00     0.074 A 
ATOM     43  C   UNL     1     -12.194  -1.896 -13.656  1.00  0.00     0.029 A 
ATOM     44  N   UNL     1     -11.298  -3.535 -12.448  1.00  0.00    -0.354 N 
ATOM     45  N   UNL     1     -10.797  -6.350 -11.724  1.00  0.00    -0.248 NA
ATOM     46  C   UNL     1     -11.282  -8.620 -11.985  1.00  0.00     0.031 C 
ATOM     47  C   UNL     1     -12.640  -3.120 -14.167  1.00  0.00     0.029 A 
ATOM     48  C   UNL     1     -12.072  -4.141 -13.422  1.00  0.00     0.049 A 
ATOM     49  H   UNL     1     -10.777  -4.012 -11.763  1.00  0.00     0.167 HD
ATOM     50  C   UNL     1     -11.668  -6.509 -12.795  1.00  0.00     0.074 A 
ATOM     51  C   UNL     1     -11.900  -7.932 -12.936  1.00  0.00     0.031 C 
ATOM     52  C   UNL     1     -12.239  -5.563 -13.581  1.00  0.00     0.034 A 
BRANCH  39  53
ATOM     53  C   UNL     1     -10.855   0.253 -11.999  1.00  0.00     0.023 A 
ATOM     54  C   UNL     1      -9.802   0.977 -12.592  1.00  0.00     0.012 A 
ATOM     55  C   UNL     1     -12.070   0.907 -11.716  1.00  0.00     0.148 A 
ATOM     56  C   UNL     1      -9.944   2.336 -12.873  1.00  0.00     0.002 A 
ATOM     57  C   UNL     1     -12.219   2.252 -12.036  1.00  0.00     0.091 A 
ATOM     58  F   UNL     1     -13.052   0.207 -11.130  1.00  0.00    -0.205 F 
ATOM     59  C   UNL     1     -11.154   2.970 -12.605  1.00  0.00     0.022 A 
BRANCH  57  60
ATOM     60  S   UNL     1     -13.761   3.141 -11.794  1.00  0.00     0.127 S 
ATOM     61  O   UNL     1     -13.422   4.021 -10.676  1.00  0.00    -0.237 OA
ATOM     62  O   UNL     1     -13.928   3.824 -13.078  1.00  0.00    -0.237 OA
ATOM     63  O   UNL     1     -14.768   2.128 -11.510  1.00  0.00    -0.744 OA
ENDBRANCH  57  60
ENDBRANCH  39  53
BRANCH  40  64
ATOM     64  C   UNL     1      -9.480  -9.428  -9.806  1.00  0.00     0.023 A 
ATOM     65  C   UNL     1      -8.846 -10.296 -10.715  1.00  0.00     0.012 A 
ATOM     66  C   UNL     1      -9.929  -9.935  -8.571  1.00  0.00     0.148 A 
ATOM     67  C   UNL     1      -8.690 -11.650 -10.413  1.00  0.00     0.002 A 
ATOM     68  C   UNL     1      -9.721 -11.273  -8.254  1.00  0.00     0.091 A 
ATOM     69  F   UNL     1     -10.549  -9.099  -7.726  1.00  0.00    -0.205 F 
ATOM     70  C   UNL     1      -9.116 -12.136  -9.180  1.00  0.00     0.022 A 
BRANCH  68  71
ATOM     71  S   UNL     1     -10.123 -11.947  -6.638  1.00  0.00     0.127 S 
ATOM     72  O   UNL     1     -11.331 -12.714  -6.925  1.00  0.00    -0.237 OA
ATOM     73  O   UNL     1      -8.938 -12.752  -6.339  1.00  0.00    -0.237 OA
ATOM     74  O   UNL     1     -10.294 -10.792  -5.766  1.00  0.00    -0.744 OA
ENDBRANCH  68  71
ENDBRANCH  40  64
BRANCH  52  75
ATOM     75  C   UNL     1     -13.139  -6.032 -14.693  1.00  0.00     0.023 A 
ATOM     76  C   UNL     1     -14.427  -6.518 -14.393  1.00  0.00     0.012 A 
ATOM     77  C   UNL     1     -12.739  -5.913 -16.038  1.00  0.00     0.148 A 
ATOM     78  C   UNL     1     -15.293  -6.904 -15.415  1.00  0.00     0.002 A 
ATOM     79  C   UNL     1     -13.625  -6.255 -17.053  1.00  0.00     0.091 A 
ATOM     80  F   UNL     1     -11.502  -5.465 -16.300  1.00  0.00    -0.205 F 
ATOM     81  C   UNL     1     -14.898  -6.761 -16.743  1.00  0.00     0.022 A 
BRANCH  79  82
ATOM     82  S   UNL     1     -13.238  -6.014 -18.790  1.00  0.00     0.127 S 
ATOM     83  O   UNL     1     -13.041  -7.390 -19.245  1.00  0.00    -0.237 OA
ATOM     84  O   UNL     1     -14.454  -5.374 -19.293  1.00  0.00    -0.237 OA
ATOM     85  O   UNL     1     -12.052  -5.169 -18.824  1.00  0.00    -0.744 OA
ENDBRANCH  79  82
ENDBRANCH  52  75
ENDBRANCH  26  27
ENDBRANCH  19  21
ENDBRANCH  18  19
ENDBRANCH  17  18
ENDBRANCH   1  17
TORSDOF 18
