REMARK SMILES Nc1nnc(S[C@H](F)C(=O)OCCOC(=O)c2ccc(-c3c4nc(c(-c5cccc(S(=O)(=O)[O-])c5F)c5ccc([nH]5)c(-c5cccc(S(=O)(=O)[O-])c5F)c5nc(c(-c6cccc(S(=O)(=O)[O-])c6F)c6ccc3[nH]6)C=C5)C=C4)cc2)s1
REMARK SMILES IDX 12 1 11 2 9 3 10 4 7 5 8 6 6 7 5 8 2 9 3 10 80 11 4 12 1 13
REMARK SMILES IDX 13 16 14 17 15 18 16 19 17 20 18 21 79 22 19 23 78 24 20 25
REMARK SMILES IDX 21 26 22 27 72 28 23 29 77 30 71 31 73 32 24 33 76 34 70 35
REMARK SMILES IDX 69 36 25 38 57 39 37 40 56 41 38 42 41 43 55 44 74 45 39 46
REMARK SMILES IDX 40 47 54 49 75 50 42 51 26 52 27 53 35 54 28 55 30 56 36 57
REMARK SMILES IDX 29 58 31 59 32 60 33 61 34 62 58 63 59 64 67 65 60 66 62 67
REMARK SMILES IDX 68 68 61 69 63 70 64 71 65 72 66 73 43 74 44 75 52 76 45 77
REMARK SMILES IDX 47 78 53 79 46 80 48 81 49 82 50 83 51 84
REMARK H PARENT 1 14 1 15 73 37 41 48
REMARK Flexibility Score: inf
ROOT
ATOM      1  C   UNL     1       2.886   2.725   2.697  1.00  0.00     0.274 C 
ENDROOT
BRANCH   1   2
ATOM      2  O   UNL     1       2.796   2.036   1.437  1.00  0.00    -0.459 OA
BRANCH   2   3
ATOM      3  C   UNL     1       3.950   1.947   0.716  1.00  0.00     0.351 C 
ATOM      4  O   UNL     1       5.044   2.368   1.085  1.00  0.00    -0.248 OA
BRANCH   3   5
ATOM      5  C   UNL     1       3.737   1.251  -0.610  1.00  0.00     0.340 C 
ATOM      6  F   UNL     1       2.695   0.362  -0.577  1.00  0.00    -0.222 F 
BRANCH   5   7
ATOM      7  S   UNL     1       3.492   2.321  -2.048  1.00  0.00    -0.044 SA
BRANCH   7   8
ATOM      8  C   UNL     1       3.887   3.934  -1.529  1.00  0.00     0.179 A 
ATOM      9  C   UNL     1       4.455   6.232  -1.309  1.00  0.00     0.203 A 
ATOM     10  N   UNL     1       3.965   5.729  -0.200  1.00  0.00    -0.120 NA
ATOM     11  S   UNL     1       4.541   5.103  -2.601  1.00  0.00    -0.069 S 
ATOM     12  N   UNL     1       3.589   4.409  -0.342  1.00  0.00    -0.130 NA
BRANCH   9  13
ATOM     13  N   UNL     1       4.845   7.505  -1.459  1.00  0.00    -0.374 N 
ATOM     14  H   UNL     1       4.784   8.130  -0.701  1.00  0.00     0.159 HD
ATOM     15  H   UNL     1       5.191   7.815  -2.326  1.00  0.00     0.159 HD
ENDBRANCH   9  13
ENDBRANCH   7   8
ENDBRANCH   5   7
ENDBRANCH   3   5
ENDBRANCH   2   3
ENDBRANCH   1   2
BRANCH   1  16
ATOM     16  C   UNL     1       3.088   1.760   3.871  1.00  0.00     0.275 C 
BRANCH  16  17
ATOM     17  O   UNL     1       4.431   1.244   3.928  1.00  0.00    -0.458 OA
BRANCH  17  18
ATOM     18  C   UNL     1       4.650   0.127   3.193  1.00  0.00     0.338 C 
ATOM     19  O   UNL     1       3.826  -0.500   2.550  1.00  0.00    -0.246 OA
BRANCH  18  20
ATOM     20  C   UNL     1       6.095  -0.156   3.125  1.00  0.00     0.060 A 
ATOM     21  C   UNL     1       6.652  -0.355   1.857  1.00  0.00     0.016 A 
ATOM     22  C   UNL     1       6.880  -0.279   4.272  1.00  0.00     0.016 A 
ATOM     23  C   UNL     1       7.995  -0.685   1.726  1.00  0.00     0.010 A 
ATOM     24  C   UNL     1       8.231  -0.616   4.140  1.00  0.00     0.010 A 
ATOM     25  C   UNL     1       8.790  -0.836   2.868  1.00  0.00    -0.014 A 
BRANCH  25  26
ATOM     26  C   UNL     1      10.191  -1.291   2.722  1.00  0.00     0.031 A 
ATOM     27  C   UNL     1      10.553  -2.702   3.079  1.00  0.00     0.074 A 
ATOM     28  C   UNL     1      11.130  -0.439   2.271  1.00  0.00     0.049 A 
ATOM     29  N   UNL     1      11.723  -3.284   3.063  1.00  0.00    -0.248 NA
ATOM     30  C   UNL     1       9.451  -3.575   3.516  1.00  0.00     0.031 C 
ATOM     31  C   UNL     1      10.890   0.954   1.894  1.00  0.00     0.029 A 
ATOM     32  N   UNL     1      12.477  -0.614   2.081  1.00  0.00    -0.354 N 
ATOM     33  C   UNL     1      11.510  -4.575   3.528  1.00  0.00     0.074 A 
ATOM     34  C   UNL     1      10.096  -4.692   3.818  1.00  0.00     0.031 C 
ATOM     35  C   UNL     1      12.059   1.518   1.549  1.00  0.00     0.029 A 
ATOM     36  C   UNL     1      13.130   0.538   1.713  1.00  0.00     0.049 A 
ATOM     37  H   UNL     1      12.931  -1.480   2.197  1.00  0.00     0.167 HD
ATOM     38  C   UNL     1      12.409  -5.574   3.690  1.00  0.00     0.034 A 
ATOM     39  C   UNL     1      14.446   0.784   1.560  1.00  0.00     0.034 A 
ATOM     40  C   UNL     1      13.808  -5.455   3.378  1.00  0.00     0.049 A 
ATOM     41  C   UNL     1      15.427  -0.341   1.751  1.00  0.00     0.074 A 
ATOM     42  C   UNL     1      14.791  -6.427   3.448  1.00  0.00     0.029 A 
ATOM     43  N   UNL     1      14.428  -4.289   2.954  1.00  0.00    -0.354 N 
ATOM     44  N   UNL     1      15.196  -1.592   2.072  1.00  0.00    -0.248 NA
ATOM     45  C   UNL     1      16.846  -0.032   1.525  1.00  0.00     0.031 C 
ATOM     46  C   UNL     1      16.012  -5.838   3.100  1.00  0.00     0.029 A 
ATOM     47  C   UNL     1      15.784  -4.510   2.777  1.00  0.00     0.049 A 
ATOM     48  H   UNL     1      13.972  -3.430   2.802  1.00  0.00     0.167 HD
ATOM     49  C   UNL     1      16.433  -2.225   2.061  1.00  0.00     0.074 A 
ATOM     50  C   UNL     1      17.409  -1.224   1.678  1.00  0.00     0.031 C 
ATOM     51  C   UNL     1      16.737  -3.514   2.354  1.00  0.00     0.034 A 
BRANCH  38  52
ATOM     52  C   UNL     1      11.902  -6.887   4.228  1.00  0.00     0.023 A 
ATOM     53  C   UNL     1      11.099  -7.717   3.420  1.00  0.00     0.012 A 
ATOM     54  C   UNL     1      12.251  -7.314   5.524  1.00  0.00     0.148 A 
ATOM     55  C   UNL     1      10.618  -8.932   3.907  1.00  0.00     0.002 A 
ATOM     56  C   UNL     1      11.806  -8.547   5.986  1.00  0.00     0.091 A 
ATOM     57  F   UNL     1      12.995  -6.501   6.287  1.00  0.00    -0.205 F 
ATOM     58  C   UNL     1      10.979  -9.351   5.185  1.00  0.00     0.022 A 
BRANCH  56  59
ATOM     59  S   UNL     1      12.283  -9.207   7.587  1.00  0.00     0.127 S 
ATOM     60  O   UNL     1      11.041  -9.068   8.346  1.00  0.00    -0.237 OA
ATOM     61  O   UNL     1      12.644 -10.586   7.257  1.00  0.00    -0.237 OA
ATOM     62  O   UNL     1      13.394  -8.384   8.045  1.00  0.00    -0.744 OA
ENDBRANCH  56  59
ENDBRANCH  38  52
BRANCH  39  63
ATOM     63  C   UNL     1      14.900   2.154   1.194  1.00  0.00     0.023 A 
ATOM     64  C   UNL     1      15.434   2.397  -0.085  1.00  0.00     0.012 A 
ATOM     65  C   UNL     1      14.763   3.227   2.097  1.00  0.00     0.148 A 
ATOM     66  C   UNL     1      15.844   3.679  -0.451  1.00  0.00     0.002 A 
ATOM     67  C   UNL     1      15.119   4.512   1.706  1.00  0.00     0.091 A 
ATOM     68  F   UNL     1      14.266   2.971   3.316  1.00  0.00    -0.205 F 
ATOM     69  C   UNL     1      15.676   4.738   0.438  1.00  0.00     0.022 A 
BRANCH  67  70
ATOM     70  S   UNL     1      14.814   5.953   2.734  1.00  0.00     0.127 S 
ATOM     71  O   UNL     1      16.171   6.361   3.087  1.00  0.00    -0.237 OA
ATOM     72  O   UNL     1      14.125   6.846   1.800  1.00  0.00    -0.237 OA
ATOM     73  O   UNL     1      13.988   5.485   3.838  1.00  0.00    -0.744 OA
ENDBRANCH  67  70
ENDBRANCH  39  63
BRANCH  51  74
ATOM     74  C   UNL     1      18.180  -3.935   2.243  1.00  0.00     0.023 A 
ATOM     75  C   UNL     1      19.116  -3.499   3.201  1.00  0.00     0.012 A 
ATOM     76  C   UNL     1      18.591  -4.826   1.231  1.00  0.00     0.148 A 
ATOM     77  C   UNL     1      20.445  -3.917   3.136  1.00  0.00     0.002 A 
ATOM     78  C   UNL     1      19.905  -5.279   1.203  1.00  0.00     0.091 A 
ATOM     79  F   UNL     1      17.690  -5.216   0.317  1.00  0.00    -0.205 F 
ATOM     80  C   UNL     1      20.836  -4.815   2.146  1.00  0.00     0.022 A 
BRANCH  78  81
ATOM     81  S   UNL     1      20.473  -6.510   0.025  1.00  0.00     0.127 S 
ATOM     82  O   UNL     1      21.309  -5.707  -0.866  1.00  0.00    -0.237 OA
ATOM     83  O   UNL     1      21.212  -7.440   0.880  1.00  0.00    -0.237 OA
ATOM     84  O   UNL     1      19.273  -7.071  -0.581  1.00  0.00    -0.744 OA
ENDBRANCH  78  81
ENDBRANCH  51  74
ENDBRANCH  25  26
ENDBRANCH  18  20
ENDBRANCH  17  18
ENDBRANCH  16  17
ENDBRANCH   1  16
TORSDOF 17
