REMARK SMILES C[C@H](NC(=O)c1c(C(=O)OCCOC(=O)c2ccc(-c3c4nc(c(-c5cccc(S(=O)(=O)[O-])c5F)c5ccc([nH]5)c(-c5cccc(S(=O)(=O)[O-])c5F)c5nc(c(-c6cccc(S(=O)(=O)[O-])c6F)c6ccc3[nH]6)C=C5)C=C4)cc2)cnn1C)[C@]12C[C@H]3C[C@H](C[C@H](C3)C1)C2
REMARK SMILES IDX 11 1 10 2 8 3 9 4 7 5 6 6 81 7 79 8 80 9 82 10 4 11 3 12
REMARK SMILES IDX 5 14 2 15 1 16 83 17 84 18 91 19 92 20 85 21 89 22 87 23
REMARK SMILES IDX 86 24 90 25 88 26 12 27 13 28 14 29 15 30 16 31 17 32 78 33
REMARK SMILES IDX 18 34 77 35 19 36 20 37 21 38 71 39 22 40 76 41 70 42 72 43
REMARK SMILES IDX 23 44 75 45 69 46 68 47 24 49 56 50 36 51 55 52 37 53 40 54
REMARK SMILES IDX 54 55 73 56 38 57 39 58 53 60 74 61 41 62 25 63 26 64 34 65
REMARK SMILES IDX 27 66 29 67 35 68 28 69 30 70 31 71 32 72 33 73 57 74 58 75
REMARK SMILES IDX 66 76 59 77 61 78 67 79 60 80 62 81 63 82 64 83 65 84 42 85
REMARK SMILES IDX 43 86 51 87 44 88 46 89 52 90 45 91 47 92 48 93 49 94 50 95
REMARK H PARENT 3 13 72 48 40 59
REMARK Flexibility Score: inf
ROOT
ATOM      1  C   UNL     1       5.585   1.725   1.180  1.00  0.00     0.275 C 
ENDROOT
BRANCH   1   2
ATOM      2  O   UNL     1       4.175   1.555   1.440  1.00  0.00    -0.458 OA
BRANCH   2   3
ATOM      3  C   UNL     1       3.827   1.653   2.753  1.00  0.00     0.342 C 
ATOM      4  O   UNL     1       4.627   1.878   3.659  1.00  0.00    -0.246 OA
BRANCH   3   5
ATOM      5  C   UNL     1       2.411   1.520   3.026  1.00  0.00     0.111 A 
ATOM      6  C   UNL     1       1.436   0.760   2.384  1.00  0.00     0.140 A 
ATOM      7  N   UNL     1       0.392   0.747   3.285  1.00  0.00    -0.262 N 
ATOM      8  C   UNL     1       1.736   2.095   4.131  1.00  0.00     0.151 A 
ATOM      9  N   UNL     1       0.468   1.713   4.212  1.00  0.00    -0.180 NA
ATOM     10  C   UNL     1      -0.623  -0.262   3.486  1.00  0.00     0.174 C 
BRANCH   6  11
ATOM     11  C   UNL     1       1.547  -0.100   1.239  1.00  0.00     0.270 C 
ATOM     12  N   UNL     1       1.039   0.311   0.026  1.00  0.00    -0.348 N 
ATOM     13  H   UNL     1       1.074  -0.364  -0.689  1.00  0.00     0.164 HD
ATOM     14  O   UNL     1       2.049  -1.220   1.309  1.00  0.00    -0.267 OA
BRANCH  12  15
ATOM     15  C   UNL     1       0.454   1.602  -0.368  1.00  0.00     0.085 C 
ATOM     16  C   UNL     1       1.181   2.094  -1.626  1.00  0.00     0.031 C 
BRANCH  15  17
ATOM     17  C   UNL     1      -1.115   1.555  -0.532  1.00  0.00    -0.009 C 
ATOM     18  C   UNL     1      -1.745   0.669   0.567  1.00  0.00     0.012 C 
ATOM     19  C   UNL     1      -1.619   1.022  -1.901  1.00  0.00     0.012 C 
ATOM     20  C   UNL     1      -1.690   2.992  -0.350  1.00  0.00     0.012 C 
ATOM     21  C   UNL     1      -3.273   0.650   0.519  1.00  0.00    -0.010 C 
ATOM     22  C   UNL     1      -3.165   1.019  -1.959  1.00  0.00    -0.010 C 
ATOM     23  C   UNL     1      -3.229   2.989  -0.390  1.00  0.00    -0.010 C 
ATOM     24  C   UNL     1      -3.776   2.084   0.726  1.00  0.00     0.007 C 
ATOM     25  C   UNL     1      -3.723   0.119  -0.846  1.00  0.00     0.007 C 
ATOM     26  C   UNL     1      -3.695   2.449  -1.749  1.00  0.00     0.007 C 
ENDBRANCH  15  17
ENDBRANCH  12  15
ENDBRANCH   6  11
ENDBRANCH   3   5
ENDBRANCH   2   3
ENDBRANCH   1   2
BRANCH   1  27
ATOM     27  C   UNL     1       5.934   3.154   0.754  1.00  0.00     0.275 C 
BRANCH  27  28
ATOM     28  O   UNL     1       5.698   4.098   1.815  1.00  0.00    -0.458 OA
BRANCH  28  29
ATOM     29  C   UNL     1       4.601   4.878   1.662  1.00  0.00     0.338 C 
ATOM     30  O   UNL     1       3.817   4.868   0.730  1.00  0.00    -0.246 OA
BRANCH  29  31
ATOM     31  C   UNL     1       4.386   5.695   2.867  1.00  0.00     0.060 A 
ATOM     32  C   UNL     1       3.693   5.112   3.920  1.00  0.00     0.016 A 
ATOM     33  C   UNL     1       4.688   7.053   2.903  1.00  0.00     0.016 A 
ATOM     34  C   UNL     1       3.210   5.881   4.972  1.00  0.00     0.010 A 
ATOM     35  C   UNL     1       4.284   7.814   4.011  1.00  0.00     0.010 A 
ATOM     36  C   UNL     1       3.505   7.247   5.039  1.00  0.00    -0.014 A 
BRANCH  36  37
ATOM     37  C   UNL     1       2.958   8.069   6.157  1.00  0.00     0.031 A 
ATOM     38  C   UNL     1       2.076   9.257   5.865  1.00  0.00     0.074 A 
ATOM     39  C   UNL     1       3.236   7.751   7.439  1.00  0.00     0.049 A 
ATOM     40  N   UNL     1       1.618  10.169   6.684  1.00  0.00    -0.248 NA
ATOM     41  C   UNL     1       1.666   9.452   4.465  1.00  0.00     0.031 C 
ATOM     42  C   UNL     1       4.043   6.609   7.873  1.00  0.00     0.029 A 
ATOM     43  N   UNL     1       2.873   8.361   8.615  1.00  0.00    -0.354 N 
ATOM     44  C   UNL     1       0.945  11.092   5.890  1.00  0.00     0.074 A 
ATOM     45  C   UNL     1       1.041  10.620   4.526  1.00  0.00     0.031 C 
ATOM     46  C   UNL     1       4.089   6.583   9.213  1.00  0.00     0.029 A 
ATOM     47  C   UNL     1       3.392   7.752   9.735  1.00  0.00     0.049 A 
ATOM     48  H   UNL     1       2.296   9.159   8.653  1.00  0.00     0.167 HD
ATOM     49  C   UNL     1       0.303  12.225   6.263  1.00  0.00     0.034 A 
ATOM     50  C   UNL     1       3.350   8.110  11.033  1.00  0.00     0.034 A 
ATOM     51  C   UNL     1       0.140  12.649   7.629  1.00  0.00     0.049 A 
ATOM     52  C   UNL     1       2.638   9.376  11.419  1.00  0.00     0.074 A 
ATOM     53  C   UNL     1      -0.552  13.746   8.112  1.00  0.00     0.029 A 
ATOM     54  N   UNL     1       0.670  11.995   8.731  1.00  0.00    -0.354 N 
ATOM     55  N   UNL     1       1.963  10.207  10.662  1.00  0.00    -0.248 NA
ATOM     56  C   UNL     1       2.675   9.750  12.839  1.00  0.00     0.031 C 
ATOM     57  C   UNL     1      -0.414  13.773   9.504  1.00  0.00     0.029 A 
ATOM     58  C   UNL     1       0.337  12.675   9.891  1.00  0.00     0.049 A 
ATOM     59  H   UNL     1       1.205  11.170   8.694  1.00  0.00     0.167 HD
ATOM     60  C   UNL     1       1.470  11.185  11.517  1.00  0.00     0.074 A 
ATOM     61  C   UNL     1       1.907  10.831  12.852  1.00  0.00     0.031 C 
ATOM     62  C   UNL     1       0.735  12.286  11.220  1.00  0.00     0.034 A 
BRANCH  49  63
ATOM     63  C   UNL     1      -0.272  13.095   5.174  1.00  0.00     0.023 A 
ATOM     64  C   UNL     1      -1.416  12.683   4.461  1.00  0.00     0.012 A 
ATOM     65  C   UNL     1       0.306  14.348   4.882  1.00  0.00     0.148 A 
ATOM     66  C   UNL     1      -1.947  13.480   3.447  1.00  0.00     0.002 A 
ATOM     67  C   UNL     1      -0.257  15.158   3.902  1.00  0.00     0.091 A 
ATOM     68  F   UNL     1       1.407  14.717   5.553  1.00  0.00    -0.205 F 
ATOM     69  C   UNL     1      -1.374  14.720   3.175  1.00  0.00     0.022 A 
BRANCH  67  70
ATOM     70  S   UNL     1       0.365  16.805   3.541  1.00  0.00     0.127 S 
ATOM     71  O   UNL     1       1.064  16.585   2.276  1.00  0.00    -0.237 OA
ATOM     72  O   UNL     1      -0.869  17.584   3.427  1.00  0.00    -0.237 OA
ATOM     73  O   UNL     1       1.207  17.170   4.671  1.00  0.00    -0.744 OA
ENDBRANCH  67  70
ENDBRANCH  49  63
BRANCH  50  74
ATOM     74  C   UNL     1       3.987   7.243  12.066  1.00  0.00     0.023 A 
ATOM     75  C   UNL     1       3.172   6.559  12.988  1.00  0.00     0.012 A 
ATOM     76  C   UNL     1       5.384   7.061  12.118  1.00  0.00     0.148 A 
ATOM     77  C   UNL     1       3.736   5.724  13.954  1.00  0.00     0.002 A 
ATOM     78  C   UNL     1       5.934   6.183  13.043  1.00  0.00     0.091 A 
ATOM     79  F   UNL     1       6.144   7.737  11.245  1.00  0.00    -0.205 F 
ATOM     80  C   UNL     1       5.114   5.525  13.972  1.00  0.00     0.022 A 
BRANCH  78  81
ATOM     81  S   UNL     1       7.681   5.762  13.054  1.00  0.00     0.127 S 
ATOM     82  O   UNL     1       8.127   6.373  14.304  1.00  0.00    -0.237 OA
ATOM     83  O   UNL     1       7.638   4.299  13.065  1.00  0.00    -0.237 OA
ATOM     84  O   UNL     1       8.234   6.339  11.837  1.00  0.00    -0.744 OA
ENDBRANCH  78  81
ENDBRANCH  50  74
BRANCH  62  85
ATOM     85  C   UNL     1       0.318  13.173  12.364  1.00  0.00     0.023 A 
ATOM     86  C   UNL     1       1.272  13.989  13.004  1.00  0.00     0.012 A 
ATOM     87  C   UNL     1      -1.032  13.245  12.761  1.00  0.00     0.148 A 
ATOM     88  C   UNL     1       0.893  14.839  14.043  1.00  0.00     0.002 A 
ATOM     89  C   UNL     1      -1.410  14.131  13.762  1.00  0.00     0.091 A 
ATOM     90  F   UNL     1      -1.921  12.445  12.154  1.00  0.00    -0.205 F 
ATOM     91  C   UNL     1      -0.447  14.919  14.413  1.00  0.00     0.022 A 
BRANCH  89  92
ATOM     92  S   UNL     1      -3.126  14.372  14.237  1.00  0.00     0.127 S 
ATOM     93  O   UNL     1      -3.168  13.719  15.544  1.00  0.00    -0.237 OA
ATOM     94  O   UNL     1      -3.234  15.830  14.280  1.00  0.00    -0.237 OA
ATOM     95  O   UNL     1      -3.923  13.738  13.195  1.00  0.00    -0.744 OA
ENDBRANCH  89  92
ENDBRANCH  62  85
ENDBRANCH  36  37
ENDBRANCH  29  31
ENDBRANCH  28  29
ENDBRANCH  27  28
ENDBRANCH   1  27
TORSDOF 17
