REMARK SMILES C[C@@H](C(=O)OCCOC(=O)c1ccc(-c2c3nc(c(-c4cccc(S(=O)(=O)[O-])c4F)c4ccc([nH]4)c(-c4cccc(S(=O)(=O)[O-])c4F)c4nc(c(-c5cccc(S(=O)(=O)[O-])c5F)c5ccc2[nH]5)C=C4)C=C3)cc1)c1ccc(-c2ccc3[nH]ccc3c2)cc1
REMARK SMILES IDX 7 1 6 2 5 3 3 4 4 5 2 6 1 7 74 8 75 9 88 10 76 11 87 12
REMARK SMILES IDX 77 13 78 14 79 15 86 16 80 17 85 18 81 19 84 20 82 21 83 22
REMARK SMILES IDX 8 24 9 25 10 26 11 27 12 28 73 29 13 30 72 31 14 32 15 33
REMARK SMILES IDX 16 34 66 35 17 36 71 37 65 38 67 39 18 40 70 41 64 42 63 43
REMARK SMILES IDX 19 45 51 46 31 47 50 48 32 49 35 50 49 51 68 52 33 53 34 54
REMARK SMILES IDX 48 56 69 57 36 58 20 59 21 60 29 61 22 62 24 63 30 64 23 65
REMARK SMILES IDX 25 66 26 67 27 68 28 69 52 70 53 71 61 72 54 73 56 74 62 75
REMARK SMILES IDX 55 76 57 77 58 78 59 79 60 80 37 81 38 82 46 83 39 84 41 85
REMARK SMILES IDX 47 86 40 87 42 88 43 89 44 90 45 91
REMARK H PARENT 82 23 67 44 35 55
REMARK Flexibility Score: inf
ROOT
ATOM      1  C   UNL     1       2.190   4.315   0.066  1.00  0.00     0.275 C 
ENDROOT
BRANCH   1   2
ATOM      2  C   UNL     1       2.562   3.422   1.245  1.00  0.00     0.274 C 
BRANCH   2   3
ATOM      3  O   UNL     1       1.985   2.116   1.037  1.00  0.00    -0.462 OA
BRANCH   3   4
ATOM      4  C   UNL     1       1.288   1.558   2.068  1.00  0.00     0.313 C 
ATOM      5  O   UNL     1       1.161   2.093   3.164  1.00  0.00    -0.252 OA
BRANCH   4   6
ATOM      6  C   UNL     1       0.752   0.150   1.727  1.00  0.00     0.126 C 
ATOM      7  C   UNL     1       1.265  -0.295   0.340  1.00  0.00     0.025 C 
BRANCH   6   8
ATOM      8  C   UNL     1      -0.767  -0.038   1.885  1.00  0.00    -0.034 A 
ATOM      9  C   UNL     1      -1.538   0.716   2.784  1.00  0.00     0.005 A 
ATOM     10  C   UNL     1      -1.454  -1.018   1.146  1.00  0.00     0.005 A 
ATOM     11  C   UNL     1      -2.940   0.607   2.821  1.00  0.00     0.009 A 
ATOM     12  C   UNL     1      -2.851  -1.124   1.180  1.00  0.00     0.009 A 
ATOM     13  C   UNL     1      -3.627  -0.267   1.967  1.00  0.00    -0.018 A 
BRANCH  13  14
ATOM     14  C   UNL     1      -5.095  -0.203   1.801  1.00  0.00    -0.018 A 
ATOM     15  C   UNL     1      -5.646  -0.105   0.509  1.00  0.00     0.011 A 
ATOM     16  C   UNL     1      -5.972  -0.163   2.902  1.00  0.00     0.019 A 
ATOM     17  C   UNL     1      -7.019   0.049   0.282  1.00  0.00     0.027 A 
ATOM     18  C   UNL     1      -7.363  -0.012   2.702  1.00  0.00    -0.000 A 
ATOM     19  C   UNL     1      -7.849   0.103   1.401  1.00  0.00     0.045 A 
ATOM     20  C   UNL     1      -8.487   0.074   3.572  1.00  0.00     0.028 A 
ATOM     21  N   UNL     1      -9.210   0.300   1.484  1.00  0.00    -0.361 N 
ATOM     22  C   UNL     1      -9.609   0.254   2.795  1.00  0.00     0.083 A 
ATOM     23  H   UNL     1      -9.808   0.450   0.716  1.00  0.00     0.166 HD
ENDBRANCH  13  14
ENDBRANCH   6   8
ENDBRANCH   4   6
ENDBRANCH   3   4
ENDBRANCH   2   3
ENDBRANCH   1   2
BRANCH   1  24
ATOM     24  O   UNL     1       0.761   4.461   0.056  1.00  0.00    -0.458 OA
BRANCH  24  25
ATOM     25  C   UNL     1       0.130   4.097  -1.082  1.00  0.00     0.338 C 
ATOM     26  O   UNL     1       0.638   3.783  -2.149  1.00  0.00    -0.246 OA
BRANCH  25  27
ATOM     27  C   UNL     1      -1.319   4.109  -0.835  1.00  0.00     0.060 A 
ATOM     28  C   UNL     1      -1.850   3.257   0.131  1.00  0.00     0.016 A 
ATOM     29  C   UNL     1      -2.160   4.902  -1.615  1.00  0.00     0.016 A 
ATOM     30  C   UNL     1      -3.231   3.164   0.284  1.00  0.00     0.010 A 
ATOM     31  C   UNL     1      -3.545   4.849  -1.411  1.00  0.00     0.010 A 
ATOM     32  C   UNL     1      -4.100   3.954  -0.480  1.00  0.00    -0.014 A 
BRANCH  32  33
ATOM     33  C   UNL     1      -5.575   3.774  -0.350  1.00  0.00     0.031 A 
ATOM     34  C   UNL     1      -6.381   3.293  -1.529  1.00  0.00     0.074 A 
ATOM     35  C   UNL     1      -6.200   3.987   0.826  1.00  0.00     0.049 A 
ATOM     36  N   UNL     1      -7.678   3.164  -1.651  1.00  0.00    -0.248 NA
ATOM     37  C   UNL     1      -5.628   2.906  -2.734  1.00  0.00     0.031 C 
ATOM     38  C   UNL     1      -5.547   4.387   2.073  1.00  0.00     0.029 A 
ATOM     39  N   UNL     1      -7.526   3.878   1.169  1.00  0.00    -0.354 N 
ATOM     40  C   UNL     1      -7.899   2.760  -2.962  1.00  0.00     0.074 A 
ATOM     41  C   UNL     1      -6.603   2.643  -3.593  1.00  0.00     0.031 C 
ATOM     42  C   UNL     1      -6.464   4.434   3.053  1.00  0.00     0.029 A 
ATOM     43  C   UNL     1      -7.781   4.146   2.494  1.00  0.00     0.049 A 
ATOM     44  H   UNL     1      -8.229   3.631   0.525  1.00  0.00     0.167 HD
ATOM     45  C   UNL     1      -9.072   2.499  -3.583  1.00  0.00     0.034 A 
ATOM     46  C   UNL     1      -8.942   4.178   3.178  1.00  0.00     0.034 A 
ATOM     47  C   UNL     1     -10.358   2.528  -2.942  1.00  0.00     0.049 A 
ATOM     48  C   UNL     1     -10.234   3.904   2.453  1.00  0.00     0.074 A 
ATOM     49  C   UNL     1     -11.595   2.237  -3.490  1.00  0.00     0.029 A 
ATOM     50  N   UNL     1     -10.576   2.860  -1.615  1.00  0.00    -0.354 N 
ATOM     51  N   UNL     1     -10.427   3.505   1.219  1.00  0.00    -0.248 NA
ATOM     52  C   UNL     1     -11.475   4.094   3.221  1.00  0.00     0.031 C 
ATOM     53  C   UNL     1     -12.563   2.389  -2.492  1.00  0.00     0.029 A 
ATOM     54  C   UNL     1     -11.926   2.763  -1.320  1.00  0.00     0.049 A 
ATOM     55  H   UNL     1      -9.876   3.126  -0.976  1.00  0.00     0.167 HD
ATOM     56  C   UNL     1     -11.804   3.382   1.070  1.00  0.00     0.074 A 
ATOM     57  C   UNL     1     -12.398   3.714   2.347  1.00  0.00     0.031 C 
ATOM     58  C   UNL     1     -12.511   3.045  -0.035  1.00  0.00     0.034 A 
BRANCH  45  59
ATOM     59  C   UNL     1      -9.022   2.138  -5.041  1.00  0.00     0.023 A 
ATOM     60  C   UNL     1      -8.645   0.838  -5.429  1.00  0.00     0.012 A 
ATOM     61  C   UNL     1      -9.407   3.072  -6.023  1.00  0.00     0.148 A 
ATOM     62  C   UNL     1      -8.629   0.479  -6.776  1.00  0.00     0.002 A 
ATOM     63  C   UNL     1      -9.423   2.696  -7.360  1.00  0.00     0.091 A 
ATOM     64  F   UNL     1      -9.737   4.311  -5.632  1.00  0.00    -0.205 F 
ATOM     65  C   UNL     1      -9.028   1.403  -7.739  1.00  0.00     0.022 A 
BRANCH  63  66
ATOM     66  S   UNL     1      -9.985   3.801  -8.661  1.00  0.00     0.127 S 
ATOM     67  O   UNL     1      -8.720   4.203  -9.274  1.00  0.00    -0.237 OA
ATOM     68  O   UNL     1     -10.809   2.916  -9.486  1.00  0.00    -0.237 OA
ATOM     69  O   UNL     1     -10.725   4.860  -7.989  1.00  0.00    -0.744 OA
ENDBRANCH  63  66
ENDBRANCH  45  59
BRANCH  46  70
ATOM     70  C   UNL     1      -8.944   4.460   4.643  1.00  0.00     0.023 A 
ATOM     71  C   UNL     1      -9.350   3.450   5.537  1.00  0.00     0.012 A 
ATOM     72  C   UNL     1      -8.538   5.705   5.161  1.00  0.00     0.148 A 
ATOM     73  C   UNL     1      -9.364   3.677   6.914  1.00  0.00     0.002 A 
ATOM     74  C   UNL     1      -8.493   5.904   6.537  1.00  0.00     0.091 A 
ATOM     75  F   UNL     1      -8.199   6.676   4.301  1.00  0.00    -0.205 F 
ATOM     76  C   UNL     1      -8.920   4.897   7.415  1.00  0.00     0.022 A 
BRANCH  74  77
ATOM     77  S   UNL     1      -7.793   7.396   7.251  1.00  0.00     0.127 S 
ATOM     78  O   UNL     1      -8.989   8.174   7.558  1.00  0.00    -0.237 OA
ATOM     79  O   UNL     1      -7.079   6.878   8.419  1.00  0.00    -0.237 OA
ATOM     80  O   UNL     1      -6.921   7.939   6.217  1.00  0.00    -0.744 OA
ENDBRANCH  74  77
ENDBRANCH  46  70
BRANCH  58  81
ATOM     81  C   UNL     1     -14.011   2.991   0.080  1.00  0.00     0.023 A 
ATOM     82  C   UNL     1     -14.749   4.189   0.144  1.00  0.00     0.012 A 
ATOM     83  C   UNL     1     -14.693   1.759   0.044  1.00  0.00     0.148 A 
ATOM     84  C   UNL     1     -16.143   4.161   0.195  1.00  0.00     0.002 A 
ATOM     85  C   UNL     1     -16.083   1.741   0.049  1.00  0.00     0.091 A 
ATOM     86  F   UNL     1     -13.971   0.630   0.007  1.00  0.00    -0.205 F 
ATOM     87  C   UNL     1     -16.810   2.939   0.135  1.00  0.00     0.022 A 
BRANCH  85  88
ATOM     88  S   UNL     1     -17.020   0.217  -0.122  1.00  0.00     0.127 S 
ATOM     89  O   UNL     1     -17.478  -0.007   1.247  1.00  0.00    -0.237 OA
ATOM     90  O   UNL     1     -18.073   0.601  -1.063  1.00  0.00    -0.237 OA
ATOM     91  O   UNL     1     -16.080  -0.767  -0.642  1.00  0.00    -0.744 OA
ENDBRANCH  85  88
ENDBRANCH  58  81
ENDBRANCH  32  33
ENDBRANCH  25  27
ENDBRANCH  24  25
ENDBRANCH   1  24
TORSDOF 16
