REMARK SMILES C[C@H]1C[C@](C(=O)OCCOC(=O)c2ccc(-c3c4nc(c(-c5cccc(S(=O)(=O)[O-])c5F)c5ccc([nH]5)c(-c5cccc(S(=O)(=O)[O-])c5F)c5nc(c(-c6cccc(S(=O)(=O)[O-])c6F)c6ccc3[nH]6)C=C5)C=C4)cc2)(N(C=O)C2CC2)CS1
REMARK SMILES IDX 9 1 8 2 7 3 5 4 6 5 4 6 1 7 2 8 3 9 83 10 82 11 76 12 77 13
REMARK SMILES IDX 78 14 79 15 80 16 81 17 10 18 11 19 12 20 13 21 14 22 75 23
REMARK SMILES IDX 15 24 74 25 16 26 17 27 18 28 68 29 19 30 73 31 67 32 69 33
REMARK SMILES IDX 20 34 72 35 66 36 65 37 21 39 53 40 33 41 52 42 34 43 37 44
REMARK SMILES IDX 51 45 70 46 35 47 36 48 50 50 71 51 38 52 22 53 23 54 31 55
REMARK SMILES IDX 24 56 26 57 32 58 25 59 27 60 28 61 29 62 30 63 54 64 55 65
REMARK SMILES IDX 63 66 56 67 58 68 64 69 57 70 59 71 60 72 61 73 62 74 39 75
REMARK SMILES IDX 40 76 48 77 41 78 43 79 49 80 42 81 44 82 45 83 46 84 47 85
REMARK H PARENT 69 38 37 49
REMARK Flexibility Score: inf
ROOT
ATOM      1  C   UNL     1      -2.385   5.102   3.185  1.00  0.00     0.275 C 
ENDROOT
BRANCH   1   2
ATOM      2  C   UNL     1      -0.967   5.656   3.060  1.00  0.00     0.274 C 
BRANCH   2   3
ATOM      3  O   UNL     1      -0.138   4.729   2.325  1.00  0.00    -0.460 OA
BRANCH   3   4
ATOM      4  C   UNL     1       0.657   3.906   3.072  1.00  0.00     0.333 C 
ATOM      5  O   UNL     1       0.785   3.990   4.288  1.00  0.00    -0.249 OA
BRANCH   4   6
ATOM      6  C   UNL     1       1.475   2.922   2.189  1.00  0.00     0.150 C 
ATOM      7  C   UNL     1      -0.472  -0.039   1.141  1.00  0.00     0.019 C 
ATOM      8  C   UNL     1       0.737   0.850   0.851  1.00  0.00     0.046 C 
ATOM      9  C   UNL     1       0.457   2.327   1.172  1.00  0.00     0.055 C 
ATOM     10  S   UNL     1       2.136   0.361   1.886  1.00  0.00    -0.156 SA
ATOM     11  C   UNL     1       1.923   1.724   3.050  1.00  0.00     0.110 C 
BRANCH   6  12
ATOM     12  N   UNL     1       2.656   3.712   1.720  1.00  0.00    -0.325 N 
BRANCH  12  13
ATOM     13  C   UNL     1       3.454   4.354   2.690  1.00  0.00     0.341 C 
ATOM     14  O   UNL     1       4.459   5.022   2.470  1.00  0.00    -0.279 OA
ENDBRANCH  12  13
BRANCH  12  15
ATOM     15  C   UNL     1       3.232   3.679   0.390  1.00  0.00     0.086 C 
ATOM     16  C   UNL     1       2.815   3.030  -0.889  1.00  0.00     0.027 C 
ATOM     17  C   UNL     1       2.597   4.501  -0.703  1.00  0.00     0.027 C 
ENDBRANCH  12  15
ENDBRANCH   6  12
ENDBRANCH   4   6
ENDBRANCH   3   4
ENDBRANCH   2   3
ENDBRANCH   1   2
BRANCH   1  18
ATOM     18  O   UNL     1      -2.330   3.869   3.920  1.00  0.00    -0.458 OA
BRANCH  18  19
ATOM     19  C   UNL     1      -3.253   2.934   3.591  1.00  0.00     0.338 C 
ATOM     20  O   UNL     1      -4.171   3.069   2.801  1.00  0.00    -0.246 OA
BRANCH  19  21
ATOM     21  C   UNL     1      -2.954   1.672   4.310  1.00  0.00     0.060 A 
ATOM     22  C   UNL     1      -1.637   1.322   4.612  1.00  0.00     0.016 A 
ATOM     23  C   UNL     1      -3.985   0.787   4.620  1.00  0.00     0.016 A 
ATOM     24  C   UNL     1      -1.338   0.067   5.141  1.00  0.00     0.010 A 
ATOM     25  C   UNL     1      -3.691  -0.431   5.249  1.00  0.00     0.010 A 
ATOM     26  C   UNL     1      -2.362  -0.823   5.490  1.00  0.00    -0.014 A 
BRANCH  26  27
ATOM     27  C   UNL     1      -2.048  -2.156   6.087  1.00  0.00     0.031 A 
ATOM     28  C   UNL     1      -2.587  -3.417   5.458  1.00  0.00     0.074 A 
ATOM     29  C   UNL     1      -1.302  -2.251   7.208  1.00  0.00     0.049 A 
ATOM     30  N   UNL     1      -2.610  -4.635   5.936  1.00  0.00    -0.248 NA
ATOM     31  C   UNL     1      -3.199  -3.289   4.125  1.00  0.00     0.031 C 
ATOM     32  C   UNL     1      -0.704  -1.126   7.929  1.00  0.00     0.029 A 
ATOM     33  N   UNL     1      -0.926  -3.349   7.946  1.00  0.00    -0.354 N 
ATOM     34  C   UNL     1      -3.319  -5.395   5.013  1.00  0.00     0.074 A 
ATOM     35  C   UNL     1      -3.691  -4.505   3.933  1.00  0.00     0.031 C 
ATOM     36  C   UNL     1      -0.014  -1.591   8.981  1.00  0.00     0.029 A 
ATOM     37  C   UNL     1      -0.189  -3.036   9.065  1.00  0.00     0.049 A 
ATOM     38  H   UNL     1      -1.163  -4.272   7.697  1.00  0.00     0.167 HD
ATOM     39  C   UNL     1      -3.627  -6.713   5.055  1.00  0.00     0.034 A 
ATOM     40  C   UNL     1       0.263  -3.809  10.072  1.00  0.00     0.034 A 
ATOM     41  C   UNL     1      -3.169  -7.622   6.072  1.00  0.00     0.049 A 
ATOM     42  C   UNL     1      -0.048  -5.279  10.068  1.00  0.00     0.074 A 
ATOM     43  C   UNL     1      -3.392  -8.985   6.170  1.00  0.00     0.029 A 
ATOM     44  N   UNL     1      -2.373  -7.270   7.151  1.00  0.00    -0.354 N 
ATOM     45  N   UNL     1      -0.700  -5.981   9.174  1.00  0.00    -0.248 NA
ATOM     46  C   UNL     1       0.443  -6.066  11.210  1.00  0.00     0.031 C 
ATOM     47  C   UNL     1      -2.725  -9.458   7.306  1.00  0.00     0.029 A 
ATOM     48  C   UNL     1      -2.087  -8.390   7.914  1.00  0.00     0.049 A 
ATOM     49  H   UNL     1      -2.058  -6.358   7.345  1.00  0.00     0.167 HD
ATOM     50  C   UNL     1      -0.695  -7.290   9.641  1.00  0.00     0.074 A 
ATOM     51  C   UNL     1       0.061  -7.291  10.877  1.00  0.00     0.031 C 
ATOM     52  C   UNL     1      -1.291  -8.386   9.113  1.00  0.00     0.034 A 
BRANCH  39  53
ATOM     53  C   UNL     1      -4.477  -7.271   3.945  1.00  0.00     0.023 A 
ATOM     54  C   UNL     1      -3.903  -7.524   2.684  1.00  0.00     0.012 A 
ATOM     55  C   UNL     1      -5.826  -7.610   4.172  1.00  0.00     0.148 A 
ATOM     56  C   UNL     1      -4.664  -8.083   1.658  1.00  0.00     0.002 A 
ATOM     57  C   UNL     1      -6.568  -8.201   3.156  1.00  0.00     0.091 A 
ATOM     58  F   UNL     1      -6.363  -7.337   5.370  1.00  0.00    -0.205 F 
ATOM     59  C   UNL     1      -5.991  -8.432   1.897  1.00  0.00     0.022 A 
BRANCH  57  60
ATOM     60  S   UNL     1      -8.262  -8.751   3.399  1.00  0.00     0.127 S 
ATOM     61  O   UNL     1      -9.016  -7.688   2.737  1.00  0.00    -0.237 OA
ATOM     62  O   UNL     1      -8.278 -10.036   2.699  1.00  0.00    -0.237 OA
ATOM     63  O   UNL     1      -8.442  -8.850   4.841  1.00  0.00    -0.744 OA
ENDBRANCH  57  60
ENDBRANCH  39  53
BRANCH  40  64
ATOM     64  C   UNL     1       1.074  -3.199  11.165  1.00  0.00     0.023 A 
ATOM     65  C   UNL     1       2.443  -3.509  11.263  1.00  0.00     0.012 A 
ATOM     66  C   UNL     1       0.515  -2.273  12.067  1.00  0.00     0.148 A 
ATOM     67  C   UNL     1       3.238  -2.917  12.246  1.00  0.00     0.002 A 
ATOM     68  C   UNL     1       1.326  -1.637  13.000  1.00  0.00     0.091 A 
ATOM     69  F   UNL     1      -0.798  -2.013  11.984  1.00  0.00    -0.205 F 
ATOM     70  C   UNL     1       2.684  -1.968  13.102  1.00  0.00     0.022 A 
BRANCH  68  71
ATOM     71  S   UNL     1       0.710  -0.286  14.012  1.00  0.00     0.127 S 
ATOM     72  O   UNL     1       0.403  -0.965  15.267  1.00  0.00    -0.237 OA
ATOM     73  O   UNL     1       1.861   0.616  14.064  1.00  0.00    -0.237 OA
ATOM     74  O   UNL     1      -0.427   0.250  13.274  1.00  0.00    -0.744 OA
ENDBRANCH  68  71
ENDBRANCH  40  64
BRANCH  52  75
ATOM     75  C   UNL     1      -1.148  -9.681   9.865  1.00  0.00     0.023 A 
ATOM     76  C   UNL     1      -1.914  -9.889  11.029  1.00  0.00     0.012 A 
ATOM     77  C   UNL     1      -0.308 -10.709   9.396  1.00  0.00     0.148 A 
ATOM     78  C   UNL     1      -1.825 -11.090  11.731  1.00  0.00     0.002 A 
ATOM     79  C   UNL     1      -0.252 -11.918  10.081  1.00  0.00     0.091 A 
ATOM     80  F   UNL     1       0.432 -10.484   8.300  1.00  0.00    -0.205 F 
ATOM     81  C   UNL     1      -1.003 -12.107  11.252  1.00  0.00     0.022 A 
BRANCH  79  82
ATOM     82  S   UNL     1       0.725 -13.302   9.483  1.00  0.00     0.127 S 
ATOM     83  O   UNL     1       1.935 -13.188  10.294  1.00  0.00    -0.237 OA
ATOM     84  O   UNL     1      -0.121 -14.452   9.808  1.00  0.00    -0.237 OA
ATOM     85  O   UNL     1       0.895 -13.072   8.054  1.00  0.00    -0.744 OA
ENDBRANCH  79  82
ENDBRANCH  52  75
ENDBRANCH  26  27
ENDBRANCH  19  21
ENDBRANCH  18  19
ENDBRANCH   1  18
TORSDOF 17
