REMARK SMILES NC(=O)c1c(-c2ccc(Cl)cc2)csc1NC(=O)[C@H]1[C@@H](C(=O)OCCOC(=O)c2ccc(-c3c4nc(c(-c5cccc(S(=O)(=O)[O-])c5F)c5ccc([nH]5)c(-c5cccc(S(=O)(=O)[O-])c5F)c5nc(c(-c6cccc(S(=O)(=O)[O-])c6F)c6ccc3[nH]6)C=C5)C=C4)cc2)[C@@H]2CC[C@H]1O2
REMARK SMILES IDX 24 1 23 2 21 3 22 4 20 5 19 6 95 7 92 8 94 9 96 10 93 11
REMARK SMILES IDX 17 12 16 13 18 15 15 16 4 17 5 18 13 19 14 20 2 21 1 22 3 25
REMARK SMILES IDX 6 26 7 27 12 28 8 29 11 30 9 31 10 32 25 33 26 34 27 35
REMARK SMILES IDX 28 36 29 37 30 38 91 39 31 40 90 41 32 42 33 43 34 44 84 45
REMARK SMILES IDX 35 46 89 47 83 48 85 49 36 50 88 51 82 52 81 53 37 55 69 56
REMARK SMILES IDX 49 57 68 58 50 59 53 60 67 61 86 62 51 63 52 64 66 66 87 67
REMARK SMILES IDX 54 68 38 69 39 70 47 71 40 72 42 73 48 74 41 75 43 76 44 77
REMARK SMILES IDX 45 78 46 79 70 80 71 81 79 82 72 83 74 84 80 85 73 86 75 87
REMARK SMILES IDX 76 88 77 89 78 90 55 91 56 92 64 93 57 94 59 95 65 96 58 97
REMARK SMILES IDX 60 98 61 99 62 100 63 101
REMARK H PARENT 16 14 1 23 1 24 85 54 53 65
REMARK Flexibility Score: inf
ROOT
ATOM      1  C   UNL     1       0.306  -3.852  10.638  1.00  0.00     0.274 C 
ENDROOT
BRANCH   1   2
ATOM      2  O   UNL     1       0.559  -2.875   9.614  1.00  0.00    -0.462 OA
BRANCH   2   3
ATOM      3  C   UNL     1       0.032  -3.146   8.394  1.00  0.00     0.312 C 
ATOM      4  O   UNL     1      -0.568  -4.176   8.102  1.00  0.00    -0.252 OA
BRANCH   3   5
ATOM      5  C   UNL     1       0.107  -1.982   7.438  1.00  0.00     0.143 C 
ATOM      6  C   UNL     1       0.900  -2.187   6.142  1.00  0.00     0.124 C 
ATOM      7  C   UNL     1       1.775  -0.924   6.141  1.00  0.00     0.132 C 
ATOM      8  C   UNL     1       0.665  -0.667   7.983  1.00  0.00     0.133 C 
ATOM      9  C   UNL     1       0.923   0.308   5.823  1.00  0.00     0.035 C 
ATOM     10  O   UNL     1       2.040  -0.718   7.547  1.00  0.00    -0.373 OA
ATOM     11  C   UNL     1       0.146   0.499   7.128  1.00  0.00     0.036 C 
BRANCH   6  12
ATOM     12  C   UNL     1       1.744  -3.449   5.997  1.00  0.00     0.231 C 
ATOM     13  N   UNL     1       2.216  -3.821   4.753  1.00  0.00    -0.317 N 
ATOM     14  H   UNL     1       2.313  -4.779   4.547  1.00  0.00     0.170 HD
ATOM     15  O   UNL     1       2.070  -4.145   6.959  1.00  0.00    -0.274 OA
BRANCH  13  16
ATOM     16  C   UNL     1       2.554  -2.894   3.787  1.00  0.00     0.108 A 
ATOM     17  C   UNL     1       3.828  -2.468   3.457  1.00  0.00     0.082 A 
ATOM     18  C   UNL     1       3.740  -1.325   2.578  1.00  0.00     0.007 A 
ATOM     19  C   UNL     1       2.441  -1.070   2.178  1.00  0.00     0.076 A 
ATOM     20  S   UNL     1       1.334  -2.185   2.849  1.00  0.00    -0.125 S 
BRANCH  17  21
ATOM     21  C   UNL     1       5.003  -3.087   4.059  1.00  0.00     0.252 C 
ATOM     22  N   UNL     1       6.042  -2.265   4.373  1.00  0.00    -0.365 N 
ATOM     23  H   UNL     1       6.858  -2.636   4.781  1.00  0.00     0.159 HD
ATOM     24  H   UNL     1       5.978  -1.300   4.191  1.00  0.00     0.159 HD
ATOM     25  O   UNL     1       5.058  -4.283   4.331  1.00  0.00    -0.269 OA
ENDBRANCH  17  21
BRANCH  18  26
ATOM     26  C   UNL     1       4.825  -0.497   2.087  1.00  0.00    -0.017 A 
ATOM     27  C   UNL     1       5.045   0.772   2.640  1.00  0.00     0.010 A 
ATOM     28  C   UNL     1       5.685  -0.992   1.102  1.00  0.00     0.010 A 
ATOM     29  C   UNL     1       6.132   1.538   2.212  1.00  0.00     0.021 A 
ATOM     30  C   UNL     1       6.766  -0.221   0.672  1.00  0.00     0.021 A 
ATOM     31  C   UNL     1       6.987   1.038   1.230  1.00  0.00     0.041 A 
ATOM     32  Cl  UNL     1       8.332   1.976   0.711  1.00  0.00    -0.084 Cl
ENDBRANCH  18  26
ENDBRANCH  13  16
ENDBRANCH   6  12
ENDBRANCH   3   5
ENDBRANCH   2   3
ENDBRANCH   1   2
BRANCH   1  33
ATOM     33  C   UNL     1      -0.928  -3.479  11.471  1.00  0.00     0.275 C 
BRANCH  33  34
ATOM     34  O   UNL     1      -2.165  -3.691  10.760  1.00  0.00    -0.458 OA
BRANCH  34  35
ATOM     35  C   UNL     1      -2.592  -2.641  10.019  1.00  0.00     0.338 C 
ATOM     36  O   UNL     1      -2.060  -1.545   9.928  1.00  0.00    -0.246 OA
BRANCH  35  37
ATOM     37  C   UNL     1      -3.748  -3.019   9.186  1.00  0.00     0.060 A 
ATOM     38  C   UNL     1      -3.639  -2.809   7.810  1.00  0.00     0.016 A 
ATOM     39  C   UNL     1      -4.956  -3.454   9.729  1.00  0.00     0.016 A 
ATOM     40  C   UNL     1      -4.731  -2.974   6.975  1.00  0.00     0.010 A 
ATOM     41  C   UNL     1      -6.058  -3.646   8.882  1.00  0.00     0.010 A 
ATOM     42  C   UNL     1      -5.957  -3.380   7.505  1.00  0.00    -0.014 A 
BRANCH  42  43
ATOM     43  C   UNL     1      -7.124  -3.446   6.594  1.00  0.00     0.031 A 
ATOM     44  C   UNL     1      -8.220  -2.425   6.707  1.00  0.00     0.074 A 
ATOM     45  C   UNL     1      -7.153  -4.370   5.614  1.00  0.00     0.049 A 
ATOM     46  N   UNL     1      -9.323  -2.318   6.013  1.00  0.00    -0.248 NA
ATOM     47  C   UNL     1      -8.054  -1.384   7.735  1.00  0.00     0.031 C 
ATOM     48  C   UNL     1      -6.128  -5.392   5.389  1.00  0.00     0.029 A 
ATOM     49  N   UNL     1      -8.075  -4.599   4.626  1.00  0.00    -0.354 N 
ATOM     50  C   UNL     1     -10.001  -1.228   6.543  1.00  0.00     0.074 A 
ATOM     51  C   UNL     1      -9.188  -0.707   7.620  1.00  0.00     0.031 C 
ATOM     52  C   UNL     1      -6.481  -6.142   4.333  1.00  0.00     0.029 A 
ATOM     53  C   UNL     1      -7.771  -5.680   3.832  1.00  0.00     0.049 A 
ATOM     54  H   UNL     1      -8.877  -4.043   4.497  1.00  0.00     0.167 HD
ATOM     55  C   UNL     1     -11.186  -0.699   6.155  1.00  0.00     0.034 A 
ATOM     56  C   UNL     1      -8.466  -6.246   2.826  1.00  0.00     0.034 A 
ATOM     57  C   UNL     1     -11.970  -1.198   5.057  1.00  0.00     0.049 A 
ATOM     58  C   UNL     1      -9.771  -5.628   2.408  1.00  0.00     0.074 A 
ATOM     59  C   UNL     1     -13.191  -0.742   4.593  1.00  0.00     0.029 A 
ATOM     60  N   UNL     1     -11.604  -2.259   4.242  1.00  0.00    -0.354 N 
ATOM     61  N   UNL     1     -10.374  -4.567   2.889  1.00  0.00    -0.248 NA
ATOM     62  C   UNL     1     -10.478  -6.264   1.288  1.00  0.00     0.031 C 
ATOM     63  C   UNL     1     -13.563  -1.527   3.495  1.00  0.00     0.029 A 
ATOM     64  C   UNL     1     -12.567  -2.464   3.269  1.00  0.00     0.049 A 
ATOM     65  H   UNL     1     -10.780  -2.789   4.342  1.00  0.00     0.167 HD
ATOM     66  C   UNL     1     -11.517  -4.395   2.119  1.00  0.00     0.074 A 
ATOM     67  C   UNL     1     -11.503  -5.440   1.115  1.00  0.00     0.031 C 
ATOM     68  C   UNL     1     -12.505  -3.474   2.245  1.00  0.00     0.034 A 
BRANCH  55  69
ATOM     69  C   UNL     1     -11.688   0.505   6.905  1.00  0.00     0.023 A 
ATOM     70  C   UNL     1     -11.092   1.762   6.676  1.00  0.00     0.012 A 
ATOM     71  C   UNL     1     -12.771   0.406   7.800  1.00  0.00     0.148 A 
ATOM     72  C   UNL     1     -11.550   2.897   7.344  1.00  0.00     0.002 A 
ATOM     73  C   UNL     1     -13.246   1.548   8.434  1.00  0.00     0.091 A 
ATOM     74  F   UNL     1     -13.307  -0.802   8.023  1.00  0.00    -0.205 F 
ATOM     75  C   UNL     1     -12.631   2.792   8.215  1.00  0.00     0.022 A 
BRANCH  73  76
ATOM     76  S   UNL     1     -14.675   1.529   9.523  1.00  0.00     0.127 S 
ATOM     77  O   UNL     1     -14.053   1.732  10.830  1.00  0.00    -0.237 OA
ATOM     78  O   UNL     1     -15.451   2.669   9.034  1.00  0.00    -0.237 OA
ATOM     79  O   UNL     1     -15.311   0.234   9.327  1.00  0.00    -0.744 OA
ENDBRANCH  73  76
ENDBRANCH  55  69
BRANCH  56  80
ATOM     80  C   UNL     1      -7.923  -7.448   2.132  1.00  0.00     0.023 A 
ATOM     81  C   UNL     1      -7.491  -7.349   0.796  1.00  0.00     0.012 A 
ATOM     82  C   UNL     1      -7.808  -8.683   2.800  1.00  0.00     0.148 A 
ATOM     83  C   UNL     1      -6.982  -8.464   0.129  1.00  0.00     0.002 A 
ATOM     84  C   UNL     1      -7.245  -9.774   2.149  1.00  0.00     0.091 A 
ATOM     85  F   UNL     1      -8.247  -8.768   4.064  1.00  0.00    -0.205 F 
ATOM     86  C   UNL     1      -6.847  -9.673   0.809  1.00  0.00     0.022 A 
BRANCH  84  87
ATOM     87  S   UNL     1      -6.915 -11.319   3.005  1.00  0.00     0.127 S 
ATOM     88  O   UNL     1      -8.043 -12.144   2.583  1.00  0.00    -0.237 OA
ATOM     89  O   UNL     1      -5.621 -11.713   2.446  1.00  0.00    -0.237 OA
ATOM     90  O   UNL     1      -6.869 -10.969   4.419  1.00  0.00    -0.744 OA
ENDBRANCH  84  87
ENDBRANCH  56  80
BRANCH  68  91
ATOM     91  C   UNL     1     -13.639  -3.543   1.257  1.00  0.00     0.023 A 
ATOM     92  C   UNL     1     -14.594  -4.574   1.365  1.00  0.00     0.012 A 
ATOM     93  C   UNL     1     -13.785  -2.567   0.254  1.00  0.00     0.148 A 
ATOM     94  C   UNL     1     -15.656  -4.653   0.466  1.00  0.00     0.002 A 
ATOM     95  C   UNL     1     -14.871  -2.627  -0.612  1.00  0.00     0.091 A 
ATOM     96  F   UNL     1     -12.854  -1.606   0.149  1.00  0.00    -0.205 F 
ATOM     97  C   UNL     1     -15.800  -3.675  -0.515  1.00  0.00     0.022 A 
BRANCH  95  98
ATOM     98  S   UNL     1     -15.168  -1.354  -1.844  1.00  0.00     0.127 S 
ATOM     99  O   UNL     1     -14.585  -1.953  -3.042  1.00  0.00    -0.237 OA
ATOM    100  O   UNL     1     -16.629  -1.260  -1.859  1.00  0.00    -0.237 OA
ATOM    101  O   UNL     1     -14.499  -0.162  -1.340  1.00  0.00    -0.744 OA
ENDBRANCH  95  98
ENDBRANCH  68  91
ENDBRANCH  42  43
ENDBRANCH  35  37
ENDBRANCH  34  35
ENDBRANCH  33  34
ENDBRANCH   1  33
TORSDOF 18
