REMARK SMILES O=C(/C=C/c1ccc(S(=O)(=O)Nc2ccc3c(c2)OCCO3)cc1)OCCOC(=O)c1ccc(-c2c3nc(c(-c4cccc(S(=O)(=O)[O-])c4F)c4ccc([nH]4)c(-c4cccc(S(=O)(=O)[O-])c4F)c4nc(c(-c5cccc(S(=O)(=O)[O-])c5F)c5ccc2[nH]5)C=C4)C=C3)cc1
REMARK SMILES IDX 26 1 25 2 2 3 1 4 3 5 4 6 5 7 6 8 24 9 7 10 23 11 8 12 9 13
REMARK SMILES IDX 10 14 11 15 12 16 13 18 14 19 18 20 15 21 17 22 16 23 19 24
REMARK SMILES IDX 22 25 20 26 21 27 27 28 28 29 29 30 30 31 31 32 32 33 93 34
REMARK SMILES IDX 33 35 92 36 34 37 35 38 36 39 86 40 37 41 91 42 85 43 87 44
REMARK SMILES IDX 38 45 90 46 84 47 83 48 39 50 71 51 51 52 70 53 52 54 55 55
REMARK SMILES IDX 69 56 88 57 53 58 54 59 68 61 89 62 56 63 40 64 41 65 49 66
REMARK SMILES IDX 42 67 44 68 50 69 43 70 45 71 46 72 47 73 48 74 72 75 73 76
REMARK SMILES IDX 81 77 74 78 76 79 82 80 75 81 77 82 78 83 79 84 80 85 57 86
REMARK SMILES IDX 58 87 66 88 59 89 61 90 67 91 60 92 62 93 63 94 64 95 65 96
REMARK H PARENT 12 17 87 49 55 60
REMARK Flexibility Score: inf
ROOT
ATOM      1  C   UNL     1       4.294  -1.210   0.585  1.00  0.00     0.275 C 
ENDROOT
BRANCH   1   2
ATOM      2  O   UNL     1       3.195  -0.361   0.974  1.00  0.00    -0.459 OA
BRANCH   2   3
ATOM      3  C   UNL     1       3.016   0.936   0.625  1.00  0.00     0.330 C 
ATOM      4  O   UNL     1       2.244   1.660   1.246  1.00  0.00    -0.247 OA
BRANCH   3   5
ATOM      5  C   UNL     1       3.587   1.420  -0.641  1.00  0.00     0.094 C 
ATOM      6  C   UNL     1       4.889   1.459  -0.955  1.00  0.00     0.015 C 
BRANCH   6   7
ATOM      7  C   UNL     1       5.434   1.798  -2.281  1.00  0.00    -0.025 A 
ATOM      8  C   UNL     1       6.777   1.483  -2.542  1.00  0.00     0.009 A 
ATOM      9  C   UNL     1       4.689   2.421  -3.290  1.00  0.00     0.009 A 
ATOM     10  C   UNL     1       7.383   1.857  -3.744  1.00  0.00     0.023 A 
ATOM     11  C   UNL     1       5.269   2.733  -4.524  1.00  0.00     0.023 A 
ATOM     12  C   UNL     1       6.634   2.523  -4.714  1.00  0.00     0.087 A 
BRANCH  12  13
ATOM     13  S   UNL     1       7.481   3.314  -6.079  1.00  0.00     0.261 S 
ATOM     14  O   UNL     1       8.879   3.404  -5.704  1.00  0.00    -0.201 OA
ATOM     15  O   UNL     1       7.089   2.610  -7.279  1.00  0.00    -0.201 OA
BRANCH  13  16
ATOM     16  N   UNL     1       6.897   4.910  -6.143  1.00  0.00    -0.279 N 
ATOM     17  H   UNL     1       6.881   5.413  -6.990  1.00  0.00     0.180 HD
BRANCH  16  18
ATOM     18  C   UNL     1       6.428   5.499  -4.920  1.00  0.00     0.053 A 
ATOM     19  C   UNL     1       5.122   5.981  -4.934  1.00  0.00     0.031 A 
ATOM     20  C   UNL     1       7.168   5.503  -3.739  1.00  0.00     0.077 A 
ATOM     21  C   UNL     1       4.515   6.382  -3.752  1.00  0.00     0.052 A 
ATOM     22  C   UNL     1       6.512   5.782  -2.540  1.00  0.00     0.163 A 
ATOM     23  C   UNL     1       5.174   6.192  -2.553  1.00  0.00     0.161 A 
ATOM     24  O   UNL     1       7.200   5.521  -1.380  1.00  0.00    -0.486 OA
ATOM     25  O   UNL     1       4.417   6.332  -1.417  1.00  0.00    -0.486 OA
ATOM     26  C   UNL     1       6.421   5.796  -0.208  1.00  0.00     0.271 C 
ATOM     27  C   UNL     1       4.950   5.473  -0.411  1.00  0.00     0.271 C 
ENDBRANCH  16  18
ENDBRANCH  13  16
ENDBRANCH  12  13
ENDBRANCH   6   7
ENDBRANCH   3   5
ENDBRANCH   2   3
ENDBRANCH   1   2
BRANCH   1  28
ATOM     28  C   UNL     1       4.043  -2.082  -0.649  1.00  0.00     0.275 C 
BRANCH  28  29
ATOM     29  O   UNL     1       3.658  -1.331  -1.811  1.00  0.00    -0.458 OA
BRANCH  29  30
ATOM     30  C   UNL     1       2.325  -1.308  -2.075  1.00  0.00     0.338 C 
ATOM     31  O   UNL     1       1.458  -1.887  -1.441  1.00  0.00    -0.246 OA
BRANCH  30  32
ATOM     32  C   UNL     1       2.025  -0.350  -3.168  1.00  0.00     0.060 A 
ATOM     33  C   UNL     1       0.875   0.443  -3.051  1.00  0.00     0.016 A 
ATOM     34  C   UNL     1       2.853  -0.202  -4.282  1.00  0.00     0.016 A 
ATOM     35  C   UNL     1       0.556   1.390  -4.033  1.00  0.00     0.010 A 
ATOM     36  C   UNL     1       2.529   0.747  -5.266  1.00  0.00     0.010 A 
ATOM     37  C   UNL     1       1.379   1.555  -5.154  1.00  0.00    -0.014 A 
BRANCH  37  38
ATOM     38  C   UNL     1       1.028   2.496  -6.258  1.00  0.00     0.031 A 
ATOM     39  C   UNL     1       0.610   1.940  -7.594  1.00  0.00     0.074 A 
ATOM     40  C   UNL     1       1.092   3.837  -6.117  1.00  0.00     0.049 A 
ATOM     41  N   UNL     1       0.344   2.581  -8.702  1.00  0.00    -0.248 NA
ATOM     42  C   UNL     1       0.430   0.481  -7.684  1.00  0.00     0.031 C 
ATOM     43  C   UNL     1       1.360   4.562  -4.876  1.00  0.00     0.029 A 
ATOM     44  N   UNL     1       0.964   4.839  -7.059  1.00  0.00    -0.354 N 
ATOM     45  C   UNL     1      -0.054   1.614  -9.614  1.00  0.00     0.074 A 
ATOM     46  C   UNL     1       0.056   0.334  -8.948  1.00  0.00     0.031 C 
ATOM     47  C   UNL     1       1.445   5.876  -5.154  1.00  0.00     0.029 A 
ATOM     48  C   UNL     1       1.330   6.081  -6.590  1.00  0.00     0.049 A 
ATOM     49  H   UNL     1       0.642   4.680  -7.976  1.00  0.00     0.167 HD
ATOM     50  C   UNL     1      -0.526   1.780 -10.871  1.00  0.00     0.034 A 
ATOM     51  C   UNL     1       1.605   7.230  -7.243  1.00  0.00     0.034 A 
ATOM     52  C   UNL     1      -0.675   3.046 -11.533  1.00  0.00     0.049 A 
ATOM     53  C   UNL     1       1.323   7.341  -8.710  1.00  0.00     0.074 A 
ATOM     54  C   UNL     1      -1.288   3.315 -12.745  1.00  0.00     0.029 A 
ATOM     55  N   UNL     1      -0.172   4.246 -11.066  1.00  0.00    -0.354 N 
ATOM     56  N   UNL     1       0.810   6.444  -9.509  1.00  0.00    -0.248 NA
ATOM     57  C   UNL     1       1.577   8.645  -9.341  1.00  0.00     0.031 C 
ATOM     58  C   UNL     1      -1.118   4.675 -13.031  1.00  0.00     0.029 A 
ATOM     59  C   UNL     1      -0.417   5.251 -11.987  1.00  0.00     0.049 A 
ATOM     60  H   UNL     1       0.293   4.368 -10.207  1.00  0.00     0.167 HD
ATOM     61  C   UNL     1       0.611   7.095 -10.719  1.00  0.00     0.074 A 
ATOM     62  C   UNL     1       1.094   8.449 -10.560  1.00  0.00     0.031 C 
ATOM     63  C   UNL     1       0.038   6.608 -11.844  1.00  0.00     0.034 A 
BRANCH  50  64
ATOM     64  C   UNL     1      -0.996   0.558 -11.604  1.00  0.00     0.023 A 
ATOM     65  C   UNL     1      -2.256   0.012 -11.287  1.00  0.00     0.012 A 
ATOM     66  C   UNL     1      -0.248   0.021 -12.667  1.00  0.00     0.148 A 
ATOM     67  C   UNL     1      -2.762  -1.064 -12.013  1.00  0.00     0.002 A 
ATOM     68  C   UNL     1      -0.773  -1.031 -13.406  1.00  0.00     0.091 A 
ATOM     69  F   UNL     1       0.956   0.547 -12.930  1.00  0.00    -0.205 F 
ATOM     70  C   UNL     1      -2.026  -1.576 -13.079  1.00  0.00     0.022 A 
BRANCH  68  71
ATOM     71  S   UNL     1       0.066  -1.720 -14.836  1.00  0.00     0.127 S 
ATOM     72  O   UNL     1       0.456  -3.039 -14.338  1.00  0.00    -0.237 OA
ATOM     73  O   UNL     1      -1.000  -1.737 -15.838  1.00  0.00    -0.237 OA
ATOM     74  O   UNL     1       1.167  -0.815 -15.132  1.00  0.00    -0.744 OA
ENDBRANCH  68  71
ENDBRANCH  50  64
BRANCH  51  75
ATOM     75  C   UNL     1       2.239   8.383  -6.545  1.00  0.00     0.023 A 
ATOM     76  C   UNL     1       1.457   9.353  -5.901  1.00  0.00     0.012 A 
ATOM     77  C   UNL     1       3.641   8.541  -6.585  1.00  0.00     0.148 A 
ATOM     78  C   UNL     1       2.066  10.447  -5.280  1.00  0.00     0.002 A 
ATOM     79  C   UNL     1       4.246   9.592  -5.909  1.00  0.00     0.091 A 
ATOM     80  F   UNL     1       4.350   7.676  -7.322  1.00  0.00    -0.205 F 
ATOM     81  C   UNL     1       3.457  10.555  -5.264  1.00  0.00     0.022 A 
BRANCH  79  82
ATOM     82  S   UNL     1       6.031   9.759  -5.766  1.00  0.00     0.127 S 
ATOM     83  O   UNL     1       6.273  11.011  -6.479  1.00  0.00    -0.237 OA
ATOM     84  O   UNL     1       6.207   9.834  -4.316  1.00  0.00    -0.237 OA
ATOM     85  O   UNL     1       6.599   8.569  -6.387  1.00  0.00    -0.744 OA
ENDBRANCH  79  82
ENDBRANCH  51  75
BRANCH  63  86
ATOM     86  C   UNL     1      -0.156   7.552 -12.995  1.00  0.00     0.023 A 
ATOM     87  C   UNL     1       0.945   7.930 -13.787  1.00  0.00     0.012 A 
ATOM     88  C   UNL     1      -1.443   8.024 -13.323  1.00  0.00     0.148 A 
ATOM     89  C   UNL     1       0.770   8.781 -14.878  1.00  0.00     0.002 A 
ATOM     90  C   UNL     1      -1.616   8.834 -14.438  1.00  0.00     0.091 A 
ATOM     91  F   UNL     1      -2.471   7.672 -12.538  1.00  0.00    -0.205 F 
ATOM     92  C   UNL     1      -0.510   9.222 -15.211  1.00  0.00     0.022 A 
BRANCH  90  93
ATOM     93  S   UNL     1      -3.236   9.380 -14.990  1.00  0.00     0.127 S 
ATOM     94  O   UNL     1      -3.190  10.810 -14.686  1.00  0.00    -0.237 OA
ATOM     95  O   UNL     1      -3.202   9.058 -16.416  1.00  0.00    -0.237 OA
ATOM     96  O   UNL     1      -4.205   8.611 -14.220  1.00  0.00    -0.744 OA
ENDBRANCH  90  93
ENDBRANCH  63  86
ENDBRANCH  37  38
ENDBRANCH  30  32
ENDBRANCH  29  30
ENDBRANCH  28  29
ENDBRANCH   1  28
TORSDOF 18
