REMARK SMILES O=C(OCCOC(=O)[C@H](Cc1cccc(Br)c1)CC1CCC1)c1ccc(-c2c3nc(c(-c4cccc(S(=O)(=O)[O-])c4F)c4ccc([nH]4)c(-c4cccc(S(=O)(=O)[O-])c4F)c4nc(c(-c5cccc(S(=O)(=O)[O-])c5F)c5ccc2[nH]5)C=C4)C=C3)cc1
REMARK SMILES IDX 4 1 3 2 2 3 1 4 23 5 24 6 85 7 25 8 84 9 26 10 27 11 28 12
REMARK SMILES IDX 78 13 29 14 83 15 77 16 79 17 30 18 82 19 76 20 75 21 31 23
REMARK SMILES IDX 63 24 43 25 62 26 44 27 47 28 61 29 80 30 45 31 46 32 60 34
REMARK SMILES IDX 81 35 48 36 32 37 33 38 41 39 34 40 36 41 42 42 35 43 37 44
REMARK SMILES IDX 38 45 39 46 40 47 64 48 65 49 73 50 66 51 68 52 74 53 67 54
REMARK SMILES IDX 69 55 70 56 71 57 72 58 49 59 50 60 58 61 51 62 53 63 59 64
REMARK SMILES IDX 52 65 54 66 55 67 56 68 57 69 5 70 6 71 7 72 8 73 9 74 18 75
REMARK SMILES IDX 19 76 20 77 22 78 21 79 10 80 11 81 12 82 17 83 13 84 15 85
REMARK SMILES IDX 14 86 16 87
REMARK H PARENT 79 22 47 33
REMARK Flexibility Score: inf
ROOT
ATOM      1  C   UNL     1       3.114  -5.080  -1.396  1.00  0.00     0.275 C 
ENDROOT
BRANCH   1   2
ATOM      2  O   UNL     1       2.611  -3.901  -2.046  1.00  0.00    -0.458 OA
BRANCH   2   3
ATOM      3  C   UNL     1       1.540  -3.135  -1.727  1.00  0.00     0.338 C 
ATOM      4  O   UNL     1       1.246  -2.200  -2.472  1.00  0.00    -0.246 OA
BRANCH   3   5
ATOM      5  C   UNL     1       0.789  -3.265  -0.439  1.00  0.00     0.060 A 
ATOM      6  C   UNL     1       0.607  -4.428   0.311  1.00  0.00     0.016 A 
ATOM      7  C   UNL     1       0.248  -2.077   0.070  1.00  0.00     0.016 A 
ATOM      8  C   UNL     1       0.017  -4.381   1.579  1.00  0.00     0.010 A 
ATOM      9  C   UNL     1      -0.265  -2.003   1.363  1.00  0.00     0.010 A 
ATOM     10  C   UNL     1      -0.408  -3.167   2.121  1.00  0.00    -0.014 A 
BRANCH  10  11
ATOM     11  C   UNL     1      -1.174  -3.139   3.386  1.00  0.00     0.031 A 
ATOM     12  C   UNL     1      -2.638  -2.798   3.319  1.00  0.00     0.074 A 
ATOM     13  C   UNL     1      -0.584  -3.424   4.564  1.00  0.00     0.049 A 
ATOM     14  N   UNL     1      -3.525  -2.796   4.276  1.00  0.00    -0.248 NA
ATOM     15  C   UNL     1      -3.182  -2.424   1.999  1.00  0.00     0.031 C 
ATOM     16  C   UNL     1       0.827  -3.768   4.751  1.00  0.00     0.029 A 
ATOM     17  N   UNL     1      -1.094  -3.436   5.837  1.00  0.00    -0.354 N 
ATOM     18  C   UNL     1      -4.725  -2.448   3.670  1.00  0.00     0.074 A 
ATOM     19  C   UNL     1      -4.442  -2.150   2.288  1.00  0.00     0.031 C 
ATOM     20  C   UNL     1       1.084  -3.884   6.066  1.00  0.00     0.029 A 
ATOM     21  C   UNL     1      -0.147  -3.653   6.811  1.00  0.00     0.049 A 
ATOM     22  H   UNL     1      -2.049  -3.302   6.035  1.00  0.00     0.167 HD
ATOM     23  C   UNL     1      -5.968  -2.448   4.198  1.00  0.00     0.034 A 
ATOM     24  C   UNL     1      -0.269  -3.670   8.153  1.00  0.00     0.034 A 
ATOM     25  C   UNL     1      -6.240  -2.750   5.571  1.00  0.00     0.049 A 
ATOM     26  C   UNL     1      -1.655  -3.580   8.738  1.00  0.00     0.074 A 
ATOM     27  C   UNL     1      -7.460  -2.833   6.212  1.00  0.00     0.029 A 
ATOM     28  N   UNL     1      -5.261  -2.998   6.522  1.00  0.00    -0.354 N 
ATOM     29  N   UNL     1      -2.803  -3.438   8.118  1.00  0.00    -0.248 NA
ATOM     30  C   UNL     1      -1.774  -3.738  10.194  1.00  0.00     0.031 C 
ATOM     31  C   UNL     1      -7.216  -3.097   7.563  1.00  0.00     0.029 A 
ATOM     32  C   UNL     1      -5.847  -3.215   7.753  1.00  0.00     0.049 A 
ATOM     33  H   UNL     1      -4.293  -3.016   6.345  1.00  0.00     0.167 HD
ATOM     34  C   UNL     1      -3.782  -3.557   9.096  1.00  0.00     0.074 A 
ATOM     35  C   UNL     1      -3.091  -3.784  10.350  1.00  0.00     0.031 C 
ATOM     36  C   UNL     1      -5.131  -3.491   8.973  1.00  0.00     0.034 A 
BRANCH  23  37
ATOM     37  C   UNL     1      -7.108  -2.164   3.259  1.00  0.00     0.023 A 
ATOM     38  C   UNL     1      -7.452  -3.121   2.279  1.00  0.00     0.012 A 
ATOM     39  C   UNL     1      -7.827  -0.959   3.333  1.00  0.00     0.148 A 
ATOM     40  C   UNL     1      -8.467  -2.863   1.359  1.00  0.00     0.002 A 
ATOM     41  C   UNL     1      -8.866  -0.728   2.440  1.00  0.00     0.091 A 
ATOM     42  F   UNL     1      -7.465  -0.055   4.254  1.00  0.00    -0.205 F 
ATOM     43  C   UNL     1      -9.178  -1.670   1.445  1.00  0.00     0.022 A 
BRANCH  41  44
ATOM     44  S   UNL     1      -9.884   0.749   2.499  1.00  0.00     0.127 S 
ATOM     45  O   UNL     1      -9.551   1.388   1.226  1.00  0.00    -0.237 OA
ATOM     46  O   UNL     1     -11.232   0.185   2.564  1.00  0.00    -0.237 OA
ATOM     47  O   UNL     1      -9.468   1.481   3.687  1.00  0.00    -0.744 OA
ENDBRANCH  41  44
ENDBRANCH  23  37
BRANCH  24  48
ATOM     48  C   UNL     1       0.924  -3.868   9.027  1.00  0.00     0.023 A 
ATOM     49  C   UNL     1       1.087  -5.082   9.723  1.00  0.00     0.012 A 
ATOM     50  C   UNL     1       1.889  -2.853   9.186  1.00  0.00     0.148 A 
ATOM     51  C   UNL     1       2.161  -5.264  10.597  1.00  0.00     0.002 A 
ATOM     52  C   UNL     1       2.978  -3.056  10.028  1.00  0.00     0.091 A 
ATOM     53  F   UNL     1       1.716  -1.704   8.518  1.00  0.00    -0.205 F 
ATOM     54  C   UNL     1       3.106  -4.254  10.748  1.00  0.00     0.022 A 
BRANCH  52  55
ATOM     55  S   UNL     1       4.295  -1.849  10.218  1.00  0.00     0.127 S 
ATOM     56  O   UNL     1       4.083  -1.390  11.591  1.00  0.00    -0.237 OA
ATOM     57  O   UNL     1       5.489  -2.676  10.027  1.00  0.00    -0.237 OA
ATOM     58  O   UNL     1       4.076  -0.858   9.180  1.00  0.00    -0.744 OA
ENDBRANCH  52  55
ENDBRANCH  24  48
BRANCH  36  59
ATOM     59  C   UNL     1      -5.955  -3.719  10.209  1.00  0.00     0.023 A 
ATOM     60  C   UNL     1      -6.001  -2.736  11.216  1.00  0.00     0.012 A 
ATOM     61  C   UNL     1      -6.757  -4.872  10.324  1.00  0.00     0.148 A 
ATOM     62  C   UNL     1      -6.810  -2.913  12.337  1.00  0.00     0.002 A 
ATOM     63  C   UNL     1      -7.604  -5.013  11.414  1.00  0.00     0.091 A 
ATOM     64  F   UNL     1      -6.682  -5.803   9.361  1.00  0.00    -0.205 F 
ATOM     65  C   UNL     1      -7.621  -4.043  12.429  1.00  0.00     0.022 A 
BRANCH  63  66
ATOM     66  S   UNL     1      -8.764  -6.376  11.555  1.00  0.00     0.127 S 
ATOM     67  O   UNL     1      -8.155  -7.177  12.615  1.00  0.00    -0.237 OA
ATOM     68  O   UNL     1      -9.999  -5.692  11.939  1.00  0.00    -0.237 OA
ATOM     69  O   UNL     1      -8.807  -7.005  10.242  1.00  0.00    -0.744 OA
ENDBRANCH  63  66
ENDBRANCH  36  59
ENDBRANCH  10  11
ENDBRANCH   3   5
ENDBRANCH   2   3
ENDBRANCH   1   2
BRANCH   1  70
ATOM     70  C   UNL     1       3.973  -4.820  -0.155  1.00  0.00     0.274 C 
BRANCH  70  71
ATOM     71  O   UNL     1       3.480  -3.741   0.658  1.00  0.00    -0.462 OA
BRANCH  71  72
ATOM     72  C   UNL     1       4.239  -2.607   0.680  1.00  0.00     0.309 C 
ATOM     73  O   UNL     1       5.317  -2.492   0.107  1.00  0.00    -0.252 OA
BRANCH  72  74
ATOM     74  C   UNL     1       3.596  -1.508   1.532  1.00  0.00     0.104 C 
BRANCH  74  75
ATOM     75  C   UNL     1       4.070  -1.741   2.983  1.00  0.00     0.019 C 
BRANCH  75  76
ATOM     76  C   UNL     1       3.164  -1.137   4.053  1.00  0.00    -0.010 C 
ATOM     77  C   UNL     1       3.775  -1.194   5.488  1.00  0.00     0.003 C 
ATOM     78  C   UNL     1       3.075   0.389   4.266  1.00  0.00     0.003 C 
ATOM     79  C   UNL     1       3.055   0.133   5.780  1.00  0.00     0.001 C 
ENDBRANCH  75  76
ENDBRANCH  74  75
BRANCH  74  80
ATOM     80  C   UNL     1       4.022  -0.143   0.913  1.00  0.00     0.050 C 
BRANCH  80  81
ATOM     81  C   UNL     1       3.008   0.983   0.892  1.00  0.00    -0.046 A 
ATOM     82  C   UNL     1       1.890   0.926   0.054  1.00  0.00     0.004 A 
ATOM     83  C   UNL     1       3.207   2.157   1.629  1.00  0.00     0.019 A 
ATOM     84  C   UNL     1       0.921   1.937   0.058  1.00  0.00     0.001 A 
ATOM     85  C   UNL     1       2.249   3.175   1.627  1.00  0.00     0.018 A 
ATOM     86  C   UNL     1       1.092   3.059   0.863  1.00  0.00     0.016 A 
ATOM     87  Br  UNL     1       2.535   4.729   2.665  1.00  0.00    -0.051 Br
ENDBRANCH  80  81
ENDBRANCH  74  80
ENDBRANCH  72  74
ENDBRANCH  71  72
ENDBRANCH  70  71
ENDBRANCH   1  70
TORSDOF 18
