REMARK SMILES CCCCCCNC(=O)Nc1cccc(-c2ccc([C@@H](C)C(=O)OCCOC(=O)c3ccc(-c4c5nc(c(-c6cccc(S(=O)(=O)[O-])c6F)c6ccc([nH]6)c(-c6cccc(S(=O)(=O)[O-])c6F)c6nc(c(-c7cccc(S(=O)(=O)[O-])c7F)c7ccc4[nH]7)C=C6)C=C5)cc3)cc2F)c1
REMARK SMILES IDX 22 1 23 2 20 3 21 4 19 5 16 6 17 7 94 8 18 9 93 10 95 11
REMARK SMILES IDX 15 12 11 13 12 14 96 15 13 16 14 17 10 18 7 19 8 20 9 22
REMARK SMILES IDX 6 24 5 25 4 26 3 27 2 28 1 29 24 30 25 31 26 32 27 33 28 34
REMARK SMILES IDX 29 35 30 36 31 37 92 38 32 39 91 40 33 41 34 42 35 43 85 44
REMARK SMILES IDX 36 45 90 46 84 47 86 48 37 49 89 50 83 51 82 52 38 54 70 55
REMARK SMILES IDX 50 56 69 57 51 58 54 59 68 60 87 61 52 62 53 63 67 65 88 66
REMARK SMILES IDX 55 67 39 68 40 69 48 70 41 71 43 72 49 73 42 74 44 75 45 76
REMARK SMILES IDX 46 77 47 78 71 79 72 80 80 81 73 82 75 83 81 84 74 85 76 86
REMARK SMILES IDX 77 87 78 88 79 89 56 90 57 91 65 92 58 93 60 94 66 95 59 96
REMARK SMILES IDX 61 97 62 98 63 99 64 100
REMARK H PARENT 7 21 10 23 86 53 54 64
REMARK Flexibility Score: inf
ROOT
ATOM      1  C   UNL     1      -0.158  -5.651   2.757  1.00  0.00     0.313 C 
ATOM      2  O   UNL     1       0.451  -6.652   3.125  1.00  0.00    -0.252 OA
ENDROOT
BRANCH   1   3
ATOM      3  C   UNL     1      -1.670  -5.540   2.905  1.00  0.00     0.126 C 
ATOM      4  C   UNL     1      -2.349  -6.375   1.819  1.00  0.00     0.025 C 
BRANCH   3   5
ATOM      5  C   UNL     1      -2.258  -4.139   2.998  1.00  0.00    -0.031 A 
ATOM      6  C   UNL     1      -3.494  -1.583   3.201  1.00  0.00     0.018 A 
ATOM      7  C   UNL     1      -2.933  -2.026   1.992  1.00  0.00     0.012 A 
ATOM      8  C   UNL     1      -3.401  -2.433   4.306  1.00  0.00     0.131 A 
ATOM      9  C   UNL     1      -2.321  -3.282   1.892  1.00  0.00     0.005 A 
ATOM     10  C   UNL     1      -2.806  -3.691   4.211  1.00  0.00     0.044 A 
ATOM     11  F   UNL     1      -3.915  -2.061   5.489  1.00  0.00    -0.206 F 
BRANCH   6  12
ATOM     12  C   UNL     1      -4.129  -0.261   3.289  1.00  0.00    -0.013 A 
ATOM     13  C   UNL     1      -4.081   2.042   4.084  1.00  0.00     0.043 A 
ATOM     14  C   UNL     1      -5.225   2.334   3.342  1.00  0.00     0.026 A 
ATOM     15  C   UNL     1      -3.594   0.732   4.123  1.00  0.00     0.035 A 
ATOM     16  C   UNL     1      -5.791   1.351   2.530  1.00  0.00     0.003 A 
ATOM     17  C   UNL     1      -5.231   0.072   2.486  1.00  0.00     0.009 A 
BRANCH  13  18
ATOM     18  N   UNL     1      -3.414   3.102   4.712  1.00  0.00    -0.308 N 
ATOM     19  N   UNL     1      -1.136   2.746   4.155  1.00  0.00    -0.338 N 
ATOM     20  C   UNL     1      -2.091   3.296   4.946  1.00  0.00     0.319 C 
ATOM     21  H   UNL     1      -0.220   2.805   4.509  1.00  0.00     0.165 HD
ATOM     22  O   UNL     1      -1.741   4.083   5.827  1.00  0.00    -0.249 OA
ATOM     23  H   UNL     1      -4.000   3.824   5.036  1.00  0.00     0.171 HD
BRANCH  19  24
ATOM     24  C   UNL     1      -1.253   2.083   2.867  1.00  0.00     0.117 C 
BRANCH  24  25
ATOM     25  C   UNL     1      -0.235   2.544   1.831  1.00  0.00     0.021 C 
BRANCH  25  26
ATOM     26  C   UNL     1       1.202   2.076   2.058  1.00  0.00     0.002 C 
BRANCH  26  27
ATOM     27  C   UNL     1       1.407   0.568   2.247  1.00  0.00    -0.000 C 
BRANCH  27  28
ATOM     28  C   UNL     1       0.757  -0.346   1.203  1.00  0.00    -0.003 C 
ATOM     29  C   UNL     1       1.234  -0.097  -0.218  1.00  0.00     0.004 C 
ENDBRANCH  27  28
ENDBRANCH  26  27
ENDBRANCH  25  26
ENDBRANCH  24  25
ENDBRANCH  19  24
ENDBRANCH  13  18
ENDBRANCH   6  12
ENDBRANCH   3   5
ENDBRANCH   1   3
BRANCH   1  30
ATOM     30  O   UNL     1       0.424  -4.596   2.129  1.00  0.00    -0.462 OA
BRANCH  30  31
ATOM     31  C   UNL     1       1.854  -4.674   1.951  1.00  0.00     0.274 C 
BRANCH  31  32
ATOM     32  C   UNL     1       2.612  -3.815   2.967  1.00  0.00     0.275 C 
BRANCH  32  33
ATOM     33  O   UNL     1       2.419  -4.283   4.312  1.00  0.00    -0.458 OA
BRANCH  33  34
ATOM     34  C   UNL     1       1.413  -3.673   4.980  1.00  0.00     0.338 C 
ATOM     35  O   UNL     1       0.699  -2.771   4.575  1.00  0.00    -0.246 OA
BRANCH  34  36
ATOM     36  C   UNL     1       1.196  -4.345   6.269  1.00  0.00     0.060 A 
ATOM     37  C   UNL     1       0.003  -5.048   6.441  1.00  0.00     0.016 A 
ATOM     38  C   UNL     1       2.095  -4.202   7.326  1.00  0.00     0.016 A 
ATOM     39  C   UNL     1      -0.325  -5.575   7.685  1.00  0.00     0.010 A 
ATOM     40  C   UNL     1       1.773  -4.749   8.573  1.00  0.00     0.010 A 
ATOM     41  C   UNL     1       0.548  -5.413   8.767  1.00  0.00    -0.014 A 
BRANCH  41  42
ATOM     42  C   UNL     1       0.133  -5.886  10.109  1.00  0.00     0.031 A 
ATOM     43  C   UNL     1      -0.272  -4.891  11.161  1.00  0.00     0.074 A 
ATOM     44  C   UNL     1       0.088  -7.205  10.371  1.00  0.00     0.049 A 
ATOM     45  N   UNL     1      -0.674  -5.104  12.387  1.00  0.00    -0.248 NA
ATOM     46  C   UNL     1      -0.214  -3.468  10.787  1.00  0.00     0.031 C 
ATOM     47  C   UNL     1       0.449  -8.264   9.428  1.00  0.00     0.029 A 
ATOM     48  N   UNL     1      -0.279  -7.879  11.508  1.00  0.00    -0.354 N 
ATOM     49  C   UNL     1      -0.878  -3.848  12.944  1.00  0.00     0.074 A 
ATOM     50  C   UNL     1      -0.550  -2.875  11.924  1.00  0.00     0.031 C 
ATOM     51  C   UNL     1       0.282  -9.456  10.024  1.00  0.00     0.029 A 
ATOM     52  C   UNL     1      -0.172  -9.245  11.397  1.00  0.00     0.049 A 
ATOM     53  H   UNL     1      -0.590  -7.428  12.326  1.00  0.00     0.167 HD
ATOM     54  C   UNL     1      -1.317  -3.532  14.186  1.00  0.00     0.034 A 
ATOM     55  C   UNL     1      -0.408 -10.215  12.301  1.00  0.00     0.034 A 
ATOM     56  C   UNL     1      -1.691  -4.500  15.182  1.00  0.00     0.049 A 
ATOM     57  C   UNL     1      -0.904  -9.835  13.670  1.00  0.00     0.074 A 
ATOM     58  C   UNL     1      -2.194  -4.279  16.452  1.00  0.00     0.029 A 
ATOM     59  N   UNL     1      -1.605  -5.874  15.020  1.00  0.00    -0.354 N 
ATOM     60  N   UNL     1      -1.195  -8.647  14.143  1.00  0.00    -0.248 NA
ATOM     61  C   UNL     1      -1.132 -10.932  14.622  1.00  0.00     0.031 C 
ATOM     62  C   UNL     1      -2.403  -5.521  17.062  1.00  0.00     0.029 A 
ATOM     63  C   UNL     1      -2.039  -6.516  16.168  1.00  0.00     0.049 A 
ATOM     64  H   UNL     1      -1.282  -6.328  14.208  1.00  0.00     0.167 HD
ATOM     65  C   UNL     1      -1.669  -8.855  15.433  1.00  0.00     0.074 A 
ATOM     66  C   UNL     1      -1.647 -10.286  15.659  1.00  0.00     0.031 C 
ATOM     67  C   UNL     1      -2.067  -7.944  16.355  1.00  0.00     0.034 A 
BRANCH  54  68
ATOM     68  C   UNL     1      -1.451  -2.071  14.524  1.00  0.00     0.023 A 
ATOM     69  C   UNL     1      -2.526  -1.330  13.995  1.00  0.00     0.012 A 
ATOM     70  C   UNL     1      -0.538  -1.441  15.392  1.00  0.00     0.148 A 
ATOM     71  C   UNL     1      -2.675   0.023  14.300  1.00  0.00     0.002 A 
ATOM     72  C   UNL     1      -0.713  -0.102  15.722  1.00  0.00     0.091 A 
ATOM     73  F   UNL     1       0.496  -2.153  15.862  1.00  0.00    -0.205 F 
ATOM     74  C   UNL     1      -1.775   0.634  15.170  1.00  0.00     0.022 A 
BRANCH  72  75
ATOM     75  S   UNL     1       0.359   0.743  16.890  1.00  0.00     0.127 S 
ATOM     76  O   UNL     1       1.248   1.484  15.997  1.00  0.00    -0.237 OA
ATOM     77  O   UNL     1      -0.584   1.575  17.639  1.00  0.00    -0.237 OA
ATOM     78  O   UNL     1       0.987  -0.309  17.678  1.00  0.00    -0.744 OA
ENDBRANCH  72  75
ENDBRANCH  54  68
BRANCH  55  79
ATOM     79  C   UNL     1      -0.244 -11.645  11.916  1.00  0.00     0.023 A 
ATOM     80  C   UNL     1      -1.388 -12.457  11.783  1.00  0.00     0.012 A 
ATOM     81  C   UNL     1       1.023 -12.197  11.648  1.00  0.00     0.148 A 
ATOM     82  C   UNL     1      -1.270 -13.797  11.413  1.00  0.00     0.002 A 
ATOM     83  C   UNL     1       1.129 -13.518  11.229  1.00  0.00     0.091 A 
ATOM     84  F   UNL     1       2.102 -11.416  11.803  1.00  0.00    -0.205 F 
ATOM     85  C   UNL     1      -0.015 -14.324  11.124  1.00  0.00     0.022 A 
BRANCH  83  86
ATOM     86  S   UNL     1       2.694 -14.235  10.713  1.00  0.00     0.127 S 
ATOM     87  O   UNL     1       3.030 -15.076  11.859  1.00  0.00    -0.237 OA
ATOM     88  O   UNL     1       2.313 -14.966   9.504  1.00  0.00    -0.237 OA
ATOM     89  O   UNL     1       3.579 -13.103  10.472  1.00  0.00    -0.744 OA
ENDBRANCH  83  86
ENDBRANCH  55  79
BRANCH  67  90
ATOM     90  C   UNL     1      -2.536  -8.464  17.688  1.00  0.00     0.023 A 
ATOM     91  C   UNL     1      -1.592  -8.946  18.616  1.00  0.00     0.012 A 
ATOM     92  C   UNL     1      -3.897  -8.419  18.047  1.00  0.00     0.148 A 
ATOM     93  C   UNL     1      -1.999  -9.402  19.869  1.00  0.00     0.002 A 
ATOM     94  C   UNL     1      -4.290  -8.836  19.314  1.00  0.00     0.091 A 
ATOM     95  F   UNL     1      -4.786  -7.981  17.143  1.00  0.00    -0.205 F 
ATOM     96  C   UNL     1      -3.345  -9.337  20.222  1.00  0.00     0.022 A 
BRANCH  94  97
ATOM     97  S   UNL     1      -5.994  -8.699  19.870  1.00  0.00     0.127 S 
ATOM     98  O   UNL     1      -6.496 -10.052  19.636  1.00  0.00    -0.237 OA
ATOM     99  O   UNL     1      -5.840  -8.342  21.281  1.00  0.00    -0.237 OA
ATOM    100  O   UNL     1      -6.588  -7.651  19.051  1.00  0.00    -0.744 OA
ENDBRANCH  94  97
ENDBRANCH  67  90
ENDBRANCH  41  42
ENDBRANCH  34  36
ENDBRANCH  33  34
ENDBRANCH  32  33
ENDBRANCH  31  32
ENDBRANCH  30  31
ENDBRANCH   1  30
TORSDOF 22
