REMARK SMILES C[C@@]1(C(=O)c2ccccc2N)[C@H](C(=O)OCCOC(=O)c2ccc(-c3c4nc(c(-c5cccc(S(=O)(=O)[O-])c5F)c5ccc([nH]5)c(-c5cccc(S(=O)(=O)[O-])c5F)c5nc(c(-c6cccc(S(=O)(=O)[O-])c6F)c6ccc3[nH]6)C=C5)C=C4)cc2)[C@@H]1C(=O)N1CCOCC1
REMARK SMILES IDX 16 1 15 2 13 3 14 4 12 5 1 6 2 7 84 8 3 9 4 10 5 11 6 12
REMARK SMILES IDX 10 13 7 14 9 15 8 16 11 17 85 20 86 21 87 22 88 23 92 24
REMARK SMILES IDX 89 25 91 26 90 27 17 28 18 29 19 30 20 31 21 32 22 33 83 34
REMARK SMILES IDX 23 35 82 36 24 37 25 38 26 39 76 40 27 41 81 42 75 43 77 44
REMARK SMILES IDX 28 45 80 46 74 47 73 48 29 50 61 51 41 52 60 53 42 54 45 55
REMARK SMILES IDX 59 56 78 57 43 58 44 59 58 61 79 62 46 63 30 64 31 65 39 66
REMARK SMILES IDX 32 67 34 68 40 69 33 70 35 71 36 72 37 73 38 74 62 75 63 76
REMARK SMILES IDX 71 77 64 78 66 79 72 80 65 81 67 82 68 83 69 84 70 85 47 86
REMARK SMILES IDX 48 87 56 88 49 89 51 90 57 91 50 92 52 93 53 94 54 95 55 96
REMARK H PARENT 11 18 11 19 77 49 45 60
REMARK Flexibility Score: inf
ROOT
ATOM      1  C   UNL     1      -2.339  -2.849  -2.858  1.00  0.00     0.274 C 
ENDROOT
BRANCH   1   2
ATOM      2  O   UNL     1      -1.466  -2.317  -1.839  1.00  0.00    -0.462 OA
BRANCH   2   3
ATOM      3  C   UNL     1      -0.388  -3.087  -1.540  1.00  0.00     0.310 C 
ATOM      4  O   UNL     1      -0.139  -4.165  -2.048  1.00  0.00    -0.252 OA
BRANCH   3   5
ATOM      5  C   UNL     1       0.546  -2.538  -0.517  1.00  0.00     0.127 C 
ATOM      6  C   UNL     1       1.815  -0.692   0.683  1.00  0.00     0.022 C 
ATOM      7  C   UNL     1       0.433  -1.300   0.362  1.00  0.00     0.057 C 
ATOM      8  C   UNL     1       0.232  -2.693   0.950  1.00  0.00     0.108 C 
BRANCH   7   9
ATOM      9  C   UNL     1      -0.534  -0.223  -0.074  1.00  0.00     0.172 C 
ATOM     10  O   UNL     1      -0.061   0.704  -0.735  1.00  0.00    -0.293 OA
BRANCH   9  11
ATOM     11  C   UNL     1      -1.979  -0.115   0.208  1.00  0.00     0.041 A 
ATOM     12  C   UNL     1      -2.754   0.343  -0.882  1.00  0.00     0.014 A 
ATOM     13  C   UNL     1      -2.585  -0.299   1.455  1.00  0.00     0.042 A 
ATOM     14  C   UNL     1      -4.123   0.563  -0.761  1.00  0.00     0.001 A 
ATOM     15  C   UNL     1      -3.974  -0.086   1.553  1.00  0.00     0.026 A 
ATOM     16  C   UNL     1      -4.739   0.325   0.457  1.00  0.00     0.002 A 
BRANCH  13  17
ATOM     17  N   UNL     1      -1.875  -0.436   2.653  1.00  0.00    -0.398 N 
ATOM     18  H   UNL     1      -0.902  -0.586   2.634  1.00  0.00     0.156 HD
ATOM     19  H   UNL     1      -2.348  -0.382   3.515  1.00  0.00     0.156 HD
ENDBRANCH  13  17
ENDBRANCH   9  11
ENDBRANCH   7   9
BRANCH   8  20
ATOM     20  C   UNL     1      -1.003  -3.384   1.377  1.00  0.00     0.227 C 
ATOM     21  O   UNL     1      -1.650  -2.983   2.334  1.00  0.00    -0.275 OA
ATOM     22  N   UNL     1      -1.283  -4.582   0.751  1.00  0.00    -0.338 N 
ATOM     23  C   UNL     1      -0.334  -5.697   0.858  1.00  0.00     0.148 C 
ATOM     24  C   UNL     1      -2.679  -4.977   0.639  1.00  0.00     0.148 C 
ATOM     25  C   UNL     1      -0.638  -6.833  -0.124  1.00  0.00     0.181 C 
ATOM     26  C   UNL     1      -2.848  -6.076  -0.408  1.00  0.00     0.181 C 
ATOM     27  O   UNL     1      -2.027  -7.205  -0.080  1.00  0.00    -0.378 OA
ENDBRANCH   8  20
ENDBRANCH   3   5
ENDBRANCH   2   3
ENDBRANCH   1   2
BRANCH   1  28
ATOM     28  C   UNL     1      -2.050  -2.281  -4.252  1.00  0.00     0.275 C 
BRANCH  28  29
ATOM     29  O   UNL     1      -0.747  -2.655  -4.733  1.00  0.00    -0.458 OA
BRANCH  29  30
ATOM     30  C   UNL     1       0.228  -1.773  -4.417  1.00  0.00     0.338 C 
ATOM     31  O   UNL     1       0.095  -0.727  -3.805  1.00  0.00    -0.246 OA
BRANCH  30  32
ATOM     32  C   UNL     1       1.548  -2.296  -4.790  1.00  0.00     0.060 A 
ATOM     33  C   UNL     1       2.392  -2.710  -3.760  1.00  0.00     0.016 A 
ATOM     34  C   UNL     1       2.017  -2.219  -6.098  1.00  0.00     0.016 A 
ATOM     35  C   UNL     1       3.724  -3.001  -4.009  1.00  0.00     0.010 A 
ATOM     36  C   UNL     1       3.354  -2.540  -6.358  1.00  0.00     0.010 A 
ATOM     37  C   UNL     1       4.222  -2.899  -5.309  1.00  0.00    -0.014 A 
BRANCH  37  38
ATOM     38  C   UNL     1       5.671  -3.096  -5.542  1.00  0.00     0.031 A 
ATOM     39  C   UNL     1       6.525  -1.925  -5.938  1.00  0.00     0.074 A 
ATOM     40  C   UNL     1       6.216  -4.316  -5.372  1.00  0.00     0.049 A 
ATOM     41  N   UNL     1       7.786  -1.903  -6.280  1.00  0.00    -0.248 NA
ATOM     42  C   UNL     1       5.874  -0.604  -5.958  1.00  0.00     0.031 C 
ATOM     43  C   UNL     1       5.488  -5.514  -4.951  1.00  0.00     0.029 A 
ATOM     44  N   UNL     1       7.504  -4.752  -5.547  1.00  0.00    -0.354 N 
ATOM     45  C   UNL     1       8.063  -0.585  -6.620  1.00  0.00     0.074 A 
ATOM     46  C   UNL     1       6.843   0.168  -6.429  1.00  0.00     0.031 C 
ATOM     47  C   UNL     1       6.338  -6.552  -4.912  1.00  0.00     0.029 A 
ATOM     48  C   UNL     1       7.653  -6.105  -5.356  1.00  0.00     0.049 A 
ATOM     49  H   UNL     1       8.249  -4.154  -5.785  1.00  0.00     0.167 HD
ATOM     50  C   UNL     1       9.233  -0.053  -7.046  1.00  0.00     0.034 A 
ATOM     51  C   UNL     1       8.722  -6.901  -5.555  1.00  0.00     0.034 A 
ATOM     52  C   UNL     1      10.454  -0.801  -7.173  1.00  0.00     0.049 A 
ATOM     53  C   UNL     1      10.005  -6.281  -6.036  1.00  0.00     0.074 A 
ATOM     54  C   UNL     1      11.707  -0.345  -7.544  1.00  0.00     0.029 A 
ATOM     55  N   UNL     1      10.576  -2.161  -6.934  1.00  0.00    -0.354 N 
ATOM     56  N   UNL     1      10.274  -5.020  -6.276  1.00  0.00    -0.248 NA
ATOM     57  C   UNL     1      11.139  -7.190  -6.254  1.00  0.00     0.031 C 
ATOM     58  C   UNL     1      12.583  -1.436  -7.548  1.00  0.00     0.029 A 
ATOM     59  C   UNL     1      11.880  -2.566  -7.160  1.00  0.00     0.049 A 
ATOM     60  H   UNL     1       9.844  -2.752  -6.646  1.00  0.00     0.167 HD
ATOM     61  C   UNL     1      11.613  -4.979  -6.644  1.00  0.00     0.074 A 
ATOM     62  C   UNL     1      12.107  -6.340  -6.572  1.00  0.00     0.031 C 
ATOM     63  C   UNL     1      12.363  -3.916  -7.026  1.00  0.00     0.034 A 
BRANCH  50  64
ATOM     64  C   UNL     1       9.254   1.411  -7.396  1.00  0.00     0.023 A 
ATOM     65  C   UNL     1       9.231   2.380  -6.373  1.00  0.00     0.012 A 
ATOM     66  C   UNL     1       9.356   1.825  -8.739  1.00  0.00     0.148 A 
ATOM     67  C   UNL     1       9.283   3.739  -6.683  1.00  0.00     0.002 A 
ATOM     68  C   UNL     1       9.448   3.179  -9.038  1.00  0.00     0.091 A 
ATOM     69  F   UNL     1       9.350   0.888  -9.698  1.00  0.00    -0.205 F 
ATOM     70  C   UNL     1       9.403   4.138  -8.013  1.00  0.00     0.022 A 
BRANCH  68  71
ATOM     71  S   UNL     1       9.680   3.785 -10.713  1.00  0.00     0.127 S 
ATOM     72  O   UNL     1       8.371   4.372 -10.999  1.00  0.00    -0.237 OA
ATOM     73  O   UNL     1      10.760   4.758 -10.543  1.00  0.00    -0.237 OA
ATOM     74  O   UNL     1      10.033   2.623 -11.515  1.00  0.00    -0.744 OA
ENDBRANCH  68  71
ENDBRANCH  50  64
BRANCH  51  75
ATOM     75  C   UNL     1       8.625  -8.362  -5.281  1.00  0.00     0.023 A 
ATOM     76  C   UNL     1       9.346  -8.914  -4.205  1.00  0.00     0.012 A 
ATOM     77  C   UNL     1       7.803  -9.201  -6.059  1.00  0.00     0.148 A 
ATOM     78  C   UNL     1       9.271 -10.279  -3.925  1.00  0.00     0.002 A 
ATOM     79  C   UNL     1       7.687 -10.549  -5.739  1.00  0.00     0.091 A 
ATOM     80  F   UNL     1       7.142  -8.664  -7.094  1.00  0.00    -0.205 F 
ATOM     81  C   UNL     1       8.433 -11.094  -4.683  1.00  0.00     0.022 A 
BRANCH  79  82
ATOM     82  S   UNL     1       6.525 -11.634  -6.575  1.00  0.00     0.127 S 
ATOM     83  O   UNL     1       7.410 -12.420  -7.430  1.00  0.00    -0.237 OA
ATOM     84  O   UNL     1       5.934 -12.369  -5.456  1.00  0.00    -0.237 OA
ATOM     85  O   UNL     1       5.594 -10.749  -7.263  1.00  0.00    -0.744 OA
ENDBRANCH  79  82
ENDBRANCH  51  75
BRANCH  63  86
ATOM     86  C   UNL     1      13.808  -4.172  -7.361  1.00  0.00     0.023 A 
ATOM     87  C   UNL     1      14.141  -4.812  -8.570  1.00  0.00     0.012 A 
ATOM     88  C   UNL     1      14.834  -3.713  -6.513  1.00  0.00     0.148 A 
ATOM     89  C   UNL     1      15.476  -5.018  -8.917  1.00  0.00     0.002 A 
ATOM     90  C   UNL     1      16.162  -3.879  -6.888  1.00  0.00     0.091 A 
ATOM     91  F   UNL     1      14.495  -3.125  -5.356  1.00  0.00    -0.205 F 
ATOM     92  C   UNL     1      16.485  -4.541  -8.083  1.00  0.00     0.022 A 
BRANCH  90  93
ATOM     93  S   UNL     1      17.521  -3.211  -5.922  1.00  0.00     0.127 S 
ATOM     94  O   UNL     1      18.063  -4.416  -5.297  1.00  0.00    -0.237 OA
ATOM     95  O   UNL     1      18.376  -2.621  -6.952  1.00  0.00    -0.237 OA
ATOM     96  O   UNL     1      16.925  -2.245  -5.009  1.00  0.00    -0.744 OA
ENDBRANCH  90  93
ENDBRANCH  63  86
ENDBRANCH  37  38
ENDBRANCH  30  32
ENDBRANCH  29  30
ENDBRANCH  28  29
ENDBRANCH   1  28
TORSDOF 18
