REMARK SMILES CCc1nc(-c2cccnc2)nc(Oc2ccc(C(=O)OCCOC(=O)c3ccc(-c4c5nc(c(-c6cccc(S(=O)(=O)[O-])c6F)c6ccc([nH]6)c(-c6cccc(S(=O)(=O)[O-])c6F)c6nc(c(-c7cccc(S(=O)(=O)[O-])c7F)c7ccc4[nH]7)C=C6)C=C5)cc3)cc2)c1C
REMARK SMILES IDX 22 1 21 2 19 3 20 4 18 5 15 6 16 7 91 8 17 9 90 10 14 11
REMARK SMILES IDX 13 12 3 13 4 14 92 15 5 16 93 17 12 18 2 19 1 20 6 21 7 22
REMARK SMILES IDX 11 23 8 24 10 25 9 26 23 27 24 28 25 29 26 30 27 31 28 32
REMARK SMILES IDX 89 33 29 34 88 35 30 36 31 37 32 38 82 39 33 40 87 41 81 42
REMARK SMILES IDX 83 43 34 44 86 45 80 46 79 47 35 49 67 50 47 51 66 52 48 53
REMARK SMILES IDX 51 54 65 55 84 56 49 57 50 58 64 60 85 61 52 62 36 63 37 64
REMARK SMILES IDX 45 65 38 66 40 67 46 68 39 69 41 70 42 71 43 72 44 73 68 74
REMARK SMILES IDX 69 75 77 76 70 77 72 78 78 79 71 80 73 81 74 82 75 83 76 84
REMARK SMILES IDX 53 85 54 86 62 87 55 88 57 89 63 90 56 91 58 92 59 93 60 94
REMARK SMILES IDX 61 95
REMARK H PARENT 83 48 51 59
REMARK Flexibility Score: inf
ROOT
ATOM      1  C   UNL     1       3.071  -9.577   1.853  1.00  0.00     0.275 C 
ENDROOT
BRANCH   1   2
ATOM      2  O   UNL     1       3.326  -8.280   2.429  1.00  0.00    -0.458 OA
BRANCH   2   3
ATOM      3  C   UNL     1       2.234  -7.649   2.922  1.00  0.00     0.338 C 
ATOM      4  O   UNL     1       1.079  -8.030   2.840  1.00  0.00    -0.246 OA
BRANCH   3   5
ATOM      5  C   UNL     1       2.596  -6.397   3.625  1.00  0.00     0.060 A 
ATOM      6  C   UNL     1       2.781  -3.828   4.633  1.00  0.00     0.129 A 
ATOM      7  C   UNL     1       1.932  -4.730   5.259  1.00  0.00     0.048 A 
ATOM      8  C   UNL     1       3.677  -4.240   3.643  1.00  0.00     0.048 A 
ATOM      9  C   UNL     1       1.802  -5.996   4.710  1.00  0.00     0.019 A 
ATOM     10  C   UNL     1       3.585  -5.539   3.133  1.00  0.00     0.019 A 
BRANCH   6  11
ATOM     11  O   UNL     1       2.645  -2.516   4.976  1.00  0.00    -0.439 OA
BRANCH  11  12
ATOM     12  C   UNL     1       1.978  -1.650   4.136  1.00  0.00     0.226 A 
ATOM     13  C   UNL     1       0.879  -0.821   2.223  1.00  0.00     0.051 A 
ATOM     14  N   UNL     1       0.965   0.433   2.703  1.00  0.00    -0.233 NA
ATOM     15  C   UNL     1       1.243  -1.937   2.978  1.00  0.00     0.033 A 
ATOM     16  C   UNL     1       1.551   0.592   3.894  1.00  0.00     0.165 A 
ATOM     17  C   UNL     1       0.829  -3.292   2.487  1.00  0.00     0.052 C 
ATOM     18  N   UNL     1       2.129  -0.389   4.590  1.00  0.00    -0.193 NA
BRANCH  13  19
ATOM     19  C   UNL     1       0.351  -0.938   0.808  1.00  0.00     0.053 C 
ATOM     20  C   UNL     1       0.909   0.139  -0.115  1.00  0.00     0.011 C 
ENDBRANCH  13  19
BRANCH  16  21
ATOM     21  C   UNL     1       1.586   1.939   4.442  1.00  0.00     0.038 A 
ATOM     22  C   UNL     1       2.738   2.482   5.024  1.00  0.00     0.015 A 
ATOM     23  C   UNL     1       0.462   2.763   4.401  1.00  0.00     0.123 A 
ATOM     24  C   UNL     1       2.730   3.790   5.502  1.00  0.00     0.021 A 
ATOM     25  N   UNL     1       0.418   4.038   4.865  1.00  0.00    -0.264 NA
ATOM     26  C   UNL     1       1.557   4.519   5.403  1.00  0.00     0.111 A 
ENDBRANCH  16  21
ENDBRANCH  11  12
ENDBRANCH   6  11
ENDBRANCH   3   5
ENDBRANCH   2   3
ENDBRANCH   1   2
BRANCH   1  27
ATOM     27  C   UNL     1       3.457 -10.693   2.824  1.00  0.00     0.275 C 
BRANCH  27  28
ATOM     28  O   UNL     1       2.552 -10.745   3.943  1.00  0.00    -0.458 OA
BRANCH  28  29
ATOM     29  C   UNL     1       3.002 -10.142   5.066  1.00  0.00     0.338 C 
ATOM     30  O   UNL     1       4.080  -9.588   5.225  1.00  0.00    -0.246 OA
BRANCH  29  31
ATOM     31  C   UNL     1       1.964 -10.136   6.105  1.00  0.00     0.060 A 
ATOM     32  C   UNL     1       0.989  -9.150   6.041  1.00  0.00     0.016 A 
ATOM     33  C   UNL     1       2.072 -10.934   7.239  1.00  0.00     0.016 A 
ATOM     34  C   UNL     1       0.238  -8.832   7.165  1.00  0.00     0.010 A 
ATOM     35  C   UNL     1       1.199 -10.717   8.313  1.00  0.00     0.010 A 
ATOM     36  C   UNL     1       0.307  -9.627   8.316  1.00  0.00    -0.014 A 
BRANCH  36  37
ATOM     37  C   UNL     1      -0.546  -9.316   9.502  1.00  0.00     0.031 A 
ATOM     38  C   UNL     1       0.068  -9.167  10.874  1.00  0.00     0.074 A 
ATOM     39  C   UNL     1      -1.883  -9.181   9.358  1.00  0.00     0.049 A 
ATOM     40  N   UNL     1      -0.523  -9.081  12.039  1.00  0.00    -0.248 NA
ATOM     41  C   UNL     1       1.538  -9.131  10.950  1.00  0.00     0.031 C 
ATOM     42  C   UNL     1      -2.616  -9.284   8.094  1.00  0.00     0.029 A 
ATOM     43  N   UNL     1      -2.869  -8.945  10.286  1.00  0.00    -0.354 N 
ATOM     44  C   UNL     1       0.496  -9.065  12.987  1.00  0.00     0.074 A 
ATOM     45  C   UNL     1       1.744  -9.143  12.260  1.00  0.00     0.031 C 
ATOM     46  C   UNL     1      -3.922  -9.088   8.318  1.00  0.00     0.029 A 
ATOM     47  C   UNL     1      -4.138  -8.955   9.751  1.00  0.00     0.049 A 
ATOM     48  H   UNL     1      -2.687  -8.784  11.240  1.00  0.00     0.167 HD
ATOM     49  C   UNL     1       0.400  -8.989  14.337  1.00  0.00     0.034 A 
ATOM     50  C   UNL     1      -5.349  -8.927  10.340  1.00  0.00     0.034 A 
ATOM     51  C   UNL     1      -0.843  -8.848  15.050  1.00  0.00     0.049 A 
ATOM     52  C   UNL     1      -5.426  -8.854  11.837  1.00  0.00     0.074 A 
ATOM     53  C   UNL     1      -1.041  -8.709  16.413  1.00  0.00     0.029 A 
ATOM     54  N   UNL     1      -2.098  -8.828  14.462  1.00  0.00    -0.354 N 
ATOM     55  N   UNL     1      -4.452  -8.793  12.710  1.00  0.00    -0.248 NA
ATOM     56  C   UNL     1      -6.770  -8.831  12.429  1.00  0.00     0.031 C 
ATOM     57  C   UNL     1      -2.417  -8.643  16.652  1.00  0.00     0.029 A 
ATOM     58  C   UNL     1      -3.075  -8.693  15.434  1.00  0.00     0.049 A 
ATOM     59  H   UNL     1      -2.269  -8.899  13.495  1.00  0.00     0.167 HD
ATOM     60  C   UNL     1      -5.063  -8.692  13.954  1.00  0.00     0.074 A 
ATOM     61  C   UNL     1      -6.492  -8.677  13.716  1.00  0.00     0.031 C 
ATOM     62  C   UNL     1      -4.492  -8.632  15.181  1.00  0.00     0.034 A 
BRANCH  49  63
ATOM     63  C   UNL     1       1.675  -9.054  15.143  1.00  0.00     0.023 A 
ATOM     64  C   UNL     1       2.578  -7.972  15.134  1.00  0.00     0.012 A 
ATOM     65  C   UNL     1       1.947 -10.169  15.963  1.00  0.00     0.148 A 
ATOM     66  C   UNL     1       3.748  -8.015  15.894  1.00  0.00     0.002 A 
ATOM     67  C   UNL     1       3.089 -10.184  16.756  1.00  0.00     0.091 A 
ATOM     68  F   UNL     1       1.086 -11.197  15.950  1.00  0.00    -0.205 F 
ATOM     69  C   UNL     1       3.997  -9.114  16.712  1.00  0.00     0.022 A 
BRANCH  67  70
ATOM     70  S   UNL     1       3.457 -11.515  17.905  1.00  0.00     0.127 S 
ATOM     71  O   UNL     1       4.622 -12.135  17.274  1.00  0.00    -0.237 OA
ATOM     72  O   UNL     1       3.750 -10.784  19.138  1.00  0.00    -0.237 OA
ATOM     73  O   UNL     1       2.262 -12.345  17.958  1.00  0.00    -0.744 OA
ENDBRANCH  67  70
ENDBRANCH  49  63
BRANCH  50  74
ATOM     74  C   UNL     1      -6.584  -8.980   9.506  1.00  0.00     0.023 A 
ATOM     75  C   UNL     1      -7.428  -7.856   9.440  1.00  0.00     0.012 A 
ATOM     76  C   UNL     1      -6.908 -10.127   8.753  1.00  0.00     0.148 A 
ATOM     77  C   UNL     1      -8.587  -7.882   8.662  1.00  0.00     0.002 A 
ATOM     78  C   UNL     1      -8.027 -10.122   7.930  1.00  0.00     0.091 A 
ATOM     79  F   UNL     1      -6.100 -11.193   8.839  1.00  0.00    -0.205 F 
ATOM     80  C   UNL     1      -8.879  -9.008   7.898  1.00  0.00     0.022 A 
BRANCH  78  81
ATOM     81  S   UNL     1      -8.399 -11.472   6.804  1.00  0.00     0.127 S 
ATOM     82  O   UNL     1      -9.602 -12.040   7.407  1.00  0.00    -0.237 OA
ATOM     83  O   UNL     1      -8.618 -10.760   5.544  1.00  0.00    -0.237 OA
ATOM     84  O   UNL     1      -7.222 -12.329   6.812  1.00  0.00    -0.744 OA
ENDBRANCH  78  81
ENDBRANCH  50  74
BRANCH  62  85
ATOM     85  C   UNL     1      -5.411  -8.488  16.366  1.00  0.00     0.023 A 
ATOM     86  C   UNL     1      -6.212  -9.572  16.776  1.00  0.00     0.012 A 
ATOM     87  C   UNL     1      -5.434  -7.290  17.106  1.00  0.00     0.148 A 
ATOM     88  C   UNL     1      -7.052  -9.451  17.883  1.00  0.00     0.002 A 
ATOM     89  C   UNL     1      -6.231  -7.196  18.240  1.00  0.00     0.091 A 
ATOM     90  F   UNL     1      -4.679  -6.264  16.687  1.00  0.00    -0.205 F 
ATOM     91  C   UNL     1      -7.052  -8.269  18.621  1.00  0.00     0.022 A 
BRANCH  89  92
ATOM     92  S   UNL     1      -6.222  -5.752  19.307  1.00  0.00     0.127 S 
ATOM     93  O   UNL     1      -7.545  -5.183  19.051  1.00  0.00    -0.237 OA
ATOM     94  O   UNL     1      -6.061  -6.349  20.633  1.00  0.00    -0.237 OA
ATOM     95  O   UNL     1      -5.098  -4.934  18.870  1.00  0.00    -0.744 OA
ENDBRANCH  89  92
ENDBRANCH  62  85
ENDBRANCH  36  37
ENDBRANCH  29  31
ENDBRANCH  28  29
ENDBRANCH  27  28
ENDBRANCH   1  27
TORSDOF 18
