REMARK SMILES CC[C@@H](C)N(C)C(=O)N1[C@@H](C(=O)OCCOC(=O)c2ccc(-c3c4nc(c(-c5cccc(S(=O)(=O)[O-])c5F)c5ccc([nH]5)c(-c5cccc(S(=O)(=O)[O-])c5F)c5nc(c(-c6cccc(S(=O)(=O)[O-])c6F)c6ccc3[nH]6)C=C5)C=C4)cc2)CC[C@H]2CCCC[C@H]21
REMARK SMILES IDX 14 1 13 2 11 3 12 4 10 5 9 6 89 7 82 8 84 9 88 10 83 11
REMARK SMILES IDX 85 12 87 13 86 14 7 15 8 16 5 17 6 18 3 19 4 20 2 21 1 22
REMARK SMILES IDX 15 23 16 24 17 25 18 26 19 27 20 28 81 29 21 30 80 31 22 32
REMARK SMILES IDX 23 33 24 34 74 35 25 36 79 37 73 38 75 39 26 40 78 41 72 42
REMARK SMILES IDX 71 43 27 45 59 46 39 47 58 48 40 49 43 50 57 51 76 52 41 53
REMARK SMILES IDX 42 54 56 56 77 57 44 58 28 59 29 60 37 61 30 62 32 63 38 64
REMARK SMILES IDX 31 65 33 66 34 67 35 68 36 69 60 70 61 71 69 72 62 73 64 74
REMARK SMILES IDX 70 75 63 76 65 77 66 78 67 79 68 80 45 81 46 82 54 83 47 84
REMARK SMILES IDX 49 85 55 86 48 87 50 88 51 89 52 90 53 91
REMARK H PARENT 75 44 43 55
REMARK Flexibility Score: inf
ROOT
ATOM      1  C   UNL     1       1.332   6.790  -1.021  1.00  0.00     0.274 C 
ENDROOT
BRANCH   1   2
ATOM      2  O   UNL     1       0.141   6.603  -0.234  1.00  0.00    -0.461 OA
BRANCH   2   3
ATOM      3  C   UNL     1       0.353   6.273   1.070  1.00  0.00     0.329 C 
ATOM      4  O   UNL     1       1.465   6.152   1.574  1.00  0.00    -0.250 OA
BRANCH   3   5
ATOM      5  C   UNL     1      -0.957   6.026   1.843  1.00  0.00     0.197 C 
ATOM      6  N   UNL     1      -1.431   4.639   2.002  1.00  0.00    -0.308 N 
ATOM      7  C   UNL     1      -2.637   4.468   2.831  1.00  0.00     0.091 C 
ATOM      8  C   UNL     1      -2.084   6.970   1.411  1.00  0.00     0.038 C 
ATOM      9  C   UNL     1      -3.774   5.469   2.546  1.00  0.00     0.012 C 
ATOM     10  C   UNL     1      -3.191   3.046   2.967  1.00  0.00     0.025 C 
ATOM     11  C   UNL     1      -3.241   6.901   2.407  1.00  0.00     0.008 C 
ATOM     12  C   UNL     1      -4.691   5.107   1.372  1.00  0.00     0.006 C 
ATOM     13  C   UNL     1      -4.226   2.616   1.926  1.00  0.00     0.002 C 
ATOM     14  C   UNL     1      -4.679   3.659   0.914  1.00  0.00     0.000 C 
BRANCH   6  15
ATOM     15  C   UNL     1      -1.019   3.682   1.100  1.00  0.00     0.320 C 
ATOM     16  O   UNL     1      -1.782   3.216   0.260  1.00  0.00    -0.248 OA
BRANCH  15  17
ATOM     17  N   UNL     1       0.293   3.240   1.245  1.00  0.00    -0.325 N 
ATOM     18  C   UNL     1       1.100   3.475   2.447  1.00  0.00     0.149 C 
BRANCH  17  19
ATOM     19  C   UNL     1       0.833   2.217   0.328  1.00  0.00     0.083 C 
ATOM     20  C   UNL     1       0.620   2.548  -1.155  1.00  0.00     0.031 C 
BRANCH  19  21
ATOM     21  C   UNL     1       0.317   0.820   0.719  1.00  0.00     0.021 C 
ATOM     22  C   UNL     1       0.972  -0.311  -0.057  1.00  0.00     0.006 C 
ENDBRANCH  19  21
ENDBRANCH  17  19
ENDBRANCH  15  17
ENDBRANCH   6  15
ENDBRANCH   3   5
ENDBRANCH   2   3
ENDBRANCH   1   2
BRANCH   1  23
ATOM     23  C   UNL     1       1.815   8.246  -1.029  1.00  0.00     0.275 C 
BRANCH  23  24
ATOM     24  O   UNL     1       2.284   8.676   0.264  1.00  0.00    -0.458 OA
BRANCH  24  25
ATOM     25  C   UNL     1       1.351   9.272   1.040  1.00  0.00     0.338 C 
ATOM     26  O   UNL     1       0.202   9.549   0.712  1.00  0.00    -0.246 OA
BRANCH  25  27
ATOM     27  C   UNL     1       1.818   9.390   2.432  1.00  0.00     0.060 A 
ATOM     28  C   UNL     1       0.984   8.879   3.433  1.00  0.00     0.016 A 
ATOM     29  C   UNL     1       2.999  10.052   2.771  1.00  0.00     0.016 A 
ATOM     30  C   UNL     1       1.319   9.020   4.774  1.00  0.00     0.010 A 
ATOM     31  C   UNL     1       3.322  10.223   4.124  1.00  0.00     0.010 A 
ATOM     32  C   UNL     1       2.472   9.725   5.129  1.00  0.00    -0.014 A 
BRANCH  32  33
ATOM     33  C   UNL     1       2.683  10.062   6.556  1.00  0.00     0.031 A 
ATOM     34  C   UNL     1       2.278  11.425   7.045  1.00  0.00     0.074 A 
ATOM     35  C   UNL     1       3.165   9.146   7.414  1.00  0.00     0.049 A 
ATOM     36  N   UNL     1       2.373  11.936   8.244  1.00  0.00    -0.248 NA
ATOM     37  C   UNL     1       1.679  12.330   6.050  1.00  0.00     0.031 C 
ATOM     38  C   UNL     1       3.547   7.779   7.064  1.00  0.00     0.029 A 
ATOM     39  N   UNL     1       3.421   9.233   8.759  1.00  0.00    -0.354 N 
ATOM     40  C   UNL     1       1.877  13.229   8.144  1.00  0.00     0.074 A 
ATOM     41  C   UNL     1       1.484  13.428   6.765  1.00  0.00     0.031 C 
ATOM     42  C   UNL     1       4.008   7.160   8.164  1.00  0.00     0.029 A 
ATOM     43  C   UNL     1       3.978   8.093   9.288  1.00  0.00     0.049 A 
ATOM     44  H   UNL     1       3.224  10.036   9.295  1.00  0.00     0.167 HD
ATOM     45  C   UNL     1       1.746  14.164   9.114  1.00  0.00     0.034 A 
ATOM     46  C   UNL     1       4.428   7.842  10.534  1.00  0.00     0.034 A 
ATOM     47  C   UNL     1       2.116  13.957  10.488  1.00  0.00     0.049 A 
ATOM     48  C   UNL     1       4.299   8.912  11.587  1.00  0.00     0.074 A 
ATOM     49  C   UNL     1       2.020  14.840  11.548  1.00  0.00     0.029 A 
ATOM     50  N   UNL     1       2.653  12.783  10.991  1.00  0.00    -0.354 N 
ATOM     51  N   UNL     1       3.760  10.104  11.495  1.00  0.00    -0.248 NA
ATOM     52  C   UNL     1       4.814   8.591  12.927  1.00  0.00     0.031 C 
ATOM     53  C   UNL     1       2.513  14.202  12.693  1.00  0.00     0.029 A 
ATOM     54  C   UNL     1       2.896  12.916  12.348  1.00  0.00     0.049 A 
ATOM     55  H   UNL     1       2.836  11.973  10.462  1.00  0.00     0.167 HD
ATOM     56  C   UNL     1       3.839  10.661  12.767  1.00  0.00     0.074 A 
ATOM     57  C   UNL     1       4.456   9.664  13.619  1.00  0.00     0.031 C 
ATOM     58  C   UNL     1       3.455  11.890  13.191  1.00  0.00     0.034 A 
BRANCH  45  59
ATOM     59  C   UNL     1       1.160  15.493   8.720  1.00  0.00     0.023 A 
ATOM     60  C   UNL     1      -0.223  15.597   8.465  1.00  0.00     0.012 A 
ATOM     61  C   UNL     1       1.968  16.643   8.631  1.00  0.00     0.148 A 
ATOM     62  C   UNL     1      -0.787  16.818   8.098  1.00  0.00     0.002 A 
ATOM     63  C   UNL     1       1.391  17.865   8.303  1.00  0.00     0.091 A 
ATOM     64  F   UNL     1       3.284  16.518   8.850  1.00  0.00    -0.205 F 
ATOM     65  C   UNL     1       0.017  17.952   8.027  1.00  0.00     0.022 A 
BRANCH  63  66
ATOM     66  S   UNL     1       2.332  19.394   8.251  1.00  0.00     0.127 S 
ATOM     67  O   UNL     1       2.405  19.647   6.813  1.00  0.00    -0.237 OA
ATOM     68  O   UNL     1       1.467  20.315   8.989  1.00  0.00    -0.237 OA
ATOM     69  O   UNL     1       3.603  19.104   8.902  1.00  0.00    -0.744 OA
ENDBRANCH  63  66
ENDBRANCH  45  59
BRANCH  46  70
ATOM     70  C   UNL     1       5.013   6.511  10.867  1.00  0.00     0.023 A 
ATOM     71  C   UNL     1       4.330   5.653  11.751  1.00  0.00     0.012 A 
ATOM     72  C   UNL     1       6.238   6.091  10.312  1.00  0.00     0.148 A 
ATOM     73  C   UNL     1       4.872   4.415  12.101  1.00  0.00     0.002 A 
ATOM     74  C   UNL     1       6.744   4.834  10.622  1.00  0.00     0.091 A 
ATOM     75  F   UNL     1       6.886   6.930   9.493  1.00  0.00    -0.205 F 
ATOM     76  C   UNL     1       6.072   4.001  11.529  1.00  0.00     0.022 A 
BRANCH  74  77
ATOM     77  S   UNL     1       8.216   4.173   9.832  1.00  0.00     0.127 S 
ATOM     78  O   UNL     1       9.202   4.273  10.904  1.00  0.00    -0.237 OA
ATOM     79  O   UNL     1       7.798   2.809   9.503  1.00  0.00    -0.237 OA
ATOM     80  O   UNL     1       8.448   5.021   8.671  1.00  0.00    -0.744 OA
ENDBRANCH  74  77
ENDBRANCH  46  70
BRANCH  58  81
ATOM     81  C   UNL     1       3.656  12.218  14.648  1.00  0.00     0.023 A 
ATOM     82  C   UNL     1       4.954  12.463  15.137  1.00  0.00     0.012 A 
ATOM     83  C   UNL     1       2.554  12.347  15.516  1.00  0.00     0.148 A 
ATOM     84  C   UNL     1       5.156  12.794  16.477  1.00  0.00     0.002 A 
ATOM     85  C   UNL     1       2.759  12.723  16.839  1.00  0.00     0.091 A 
ATOM     86  F   UNL     1       1.327  12.089  15.039  1.00  0.00    -0.205 F 
ATOM     87  C   UNL     1       4.059  12.936  17.324  1.00  0.00     0.022 A 
BRANCH  85  88
ATOM     88  S   UNL     1       1.393  13.019  17.968  1.00  0.00     0.127 S 
ATOM     89  O   UNL     1       1.381  11.786  18.753  1.00  0.00    -0.237 OA
ATOM     90  O   UNL     1       1.841  14.204  18.701  1.00  0.00    -0.237 OA
ATOM     91  O   UNL     1       0.226  13.243  17.125  1.00  0.00    -0.744 OA
ENDBRANCH  85  88
ENDBRANCH  58  81
ENDBRANCH  32  33
ENDBRANCH  25  27
ENDBRANCH  24  25
ENDBRANCH  23  24
ENDBRANCH   1  23
TORSDOF 18
