REMARK SMILES C[C@@H]1[C@H](C)CCC[C@@H]1NC(=O)COc1csc(C(=O)OCCOC(=O)c2ccc(-c3c4nc(c(-c5cccc(S(=O)(=O)[O-])c5F)c5ccc([nH]5)c(-c5cccc(S(=O)(=O)[O-])c5F)c5nc(c(-c6cccc(S(=O)(=O)[O-])c6F)c6ccc3[nH]6)C=C5)C=C4)cc2)c1
REMARK SMILES IDX 21 1 20 2 18 3 19 4 17 5 14 6 15 7 89 8 16 9 13 10 12 11
REMARK SMILES IDX 10 12 9 13 11 15 8 16 1 17 2 18 3 19 4 20 5 21 7 22 6 23
REMARK SMILES IDX 22 24 23 25 24 26 25 27 26 28 27 29 88 30 28 31 87 32 29 33
REMARK SMILES IDX 30 34 31 35 81 36 32 37 86 38 80 39 82 40 33 41 85 42 79 43
REMARK SMILES IDX 78 44 34 46 66 47 46 48 65 49 47 50 50 51 64 52 83 53 48 54
REMARK SMILES IDX 49 55 63 57 84 58 51 59 35 60 36 61 44 62 37 63 39 64 45 65
REMARK SMILES IDX 38 66 40 67 41 68 42 69 43 70 67 71 68 72 76 73 69 74 71 75
REMARK SMILES IDX 77 76 70 77 72 78 73 79 74 80 75 81 52 82 53 83 61 84 54 85
REMARK SMILES IDX 56 86 62 87 55 88 57 89 58 90 59 91 60 92
REMARK H PARENT 9 14 82 45 50 56
REMARK Flexibility Score: inf
ROOT
ATOM      1  C   UNL     1       2.886  -6.730  -0.876  1.00  0.00     0.275 C 
ENDROOT
BRANCH   1   2
ATOM      2  O   UNL     1       2.513  -5.439  -1.391  1.00  0.00    -0.458 OA
BRANCH   2   3
ATOM      3  C   UNL     1       2.227  -4.521  -0.429  1.00  0.00     0.348 C 
ATOM      4  O   UNL     1       2.098  -4.766   0.762  1.00  0.00    -0.245 OA
BRANCH   3   5
ATOM      5  C   UNL     1       2.055  -3.218  -1.010  1.00  0.00     0.116 A 
ATOM      6  C   UNL     1       1.056  -1.150  -1.324  1.00  0.00     0.131 A 
ATOM      7  C   UNL     1       2.392  -0.818  -1.411  1.00  0.00     0.112 A 
ATOM      8  C   UNL     1       0.868  -2.557  -1.222  1.00  0.00     0.074 A 
ATOM      9  S   UNL     1       3.399  -2.207  -1.291  1.00  0.00    -0.133 S 
BRANCH   6  10
ATOM     10  O   UNL     1      -0.002  -0.314  -1.193  1.00  0.00    -0.483 OA
BRANCH  10  11
ATOM     11  C   UNL     1       0.142   1.016  -1.621  1.00  0.00     0.329 C 
BRANCH  11  12
ATOM     12  C   UNL     1       0.100   2.185  -0.622  1.00  0.00     0.258 C 
ATOM     13  N   UNL     1      -0.464   2.143   0.613  1.00  0.00    -0.350 N 
ATOM     14  H   UNL     1      -0.490   3.029   1.040  1.00  0.00     0.163 HD
ATOM     15  O   UNL     1       0.530   3.290  -0.983  1.00  0.00    -0.271 OA
BRANCH  13  16
ATOM     16  C   UNL     1      -1.044   1.098   1.467  1.00  0.00     0.085 C 
ATOM     17  C   UNL     1       1.454   0.593   1.985  1.00  0.00     0.010 C 
ATOM     18  C   UNL     1      -0.013   0.251   2.287  1.00  0.00     0.011 C 
ATOM     19  C   UNL     1      -0.343  -1.262   2.479  1.00  0.00    -0.009 C 
ATOM     20  C   UNL     1       0.870  -2.196   2.513  1.00  0.00     0.008 C 
ATOM     21  C   UNL     1      -1.412  -1.815   1.536  1.00  0.00     0.004 C 
ATOM     22  C   UNL     1      -2.255   0.412   0.827  1.00  0.00     0.025 C 
ATOM     23  C   UNL     1      -2.624  -0.908   1.474  1.00  0.00     0.002 C 
ENDBRANCH  13  16
ENDBRANCH  11  12
ENDBRANCH  10  11
ENDBRANCH   6  10
ENDBRANCH   3   5
ENDBRANCH   2   3
ENDBRANCH   1   2
BRANCH   1  24
ATOM     24  C   UNL     1       4.404  -6.796  -0.757  1.00  0.00     0.275 C 
BRANCH  24  25
ATOM     25  O   UNL     1       4.864  -5.862   0.240  1.00  0.00    -0.458 OA
BRANCH  25  26
ATOM     26  C   UNL     1       5.841  -5.019  -0.168  1.00  0.00     0.338 C 
ATOM     27  O   UNL     1       6.341  -4.970  -1.282  1.00  0.00    -0.246 OA
BRANCH  26  28
ATOM     28  C   UNL     1       6.319  -4.176   0.944  1.00  0.00     0.060 A 
ATOM     29  C   UNL     1       5.469  -3.322   1.652  1.00  0.00     0.016 A 
ATOM     30  C   UNL     1       7.696  -4.146   1.178  1.00  0.00     0.016 A 
ATOM     31  C   UNL     1       6.015  -2.366   2.521  1.00  0.00     0.010 A 
ATOM     32  C   UNL     1       8.227  -3.242   2.098  1.00  0.00     0.010 A 
ATOM     33  C   UNL     1       7.403  -2.299   2.734  1.00  0.00    -0.014 A 
BRANCH  33  34
ATOM     34  C   UNL     1       8.034  -1.212   3.539  1.00  0.00     0.031 A 
ATOM     35  C   UNL     1       9.001  -0.255   2.880  1.00  0.00     0.074 A 
ATOM     36  C   UNL     1       7.806  -1.106   4.862  1.00  0.00     0.049 A 
ATOM     37  N   UNL     1       9.774   0.654   3.421  1.00  0.00    -0.248 NA
ATOM     38  C   UNL     1       9.130  -0.350   1.416  1.00  0.00     0.031 C 
ATOM     39  C   UNL     1       6.909  -1.959   5.639  1.00  0.00     0.029 A 
ATOM     40  N   UNL     1       8.336  -0.244   5.793  1.00  0.00    -0.354 N 
ATOM     41  C   UNL     1      10.522   1.192   2.378  1.00  0.00     0.074 A 
ATOM     42  C   UNL     1      10.119   0.498   1.174  1.00  0.00     0.031 C 
ATOM     43  C   UNL     1       6.944  -1.576   6.925  1.00  0.00     0.029 A 
ATOM     44  C   UNL     1       7.900  -0.481   7.075  1.00  0.00     0.049 A 
ATOM     45  H   UNL     1       8.969   0.475   5.562  1.00  0.00     0.167 HD
ATOM     46  C   UNL     1      11.444   2.187   2.408  1.00  0.00     0.034 A 
ATOM     47  C   UNL     1       8.239   0.104   8.241  1.00  0.00     0.034 A 
ATOM     48  C   UNL     1      11.802   2.927   3.589  1.00  0.00     0.049 A 
ATOM     49  C   UNL     1       9.250   1.221   8.248  1.00  0.00     0.074 A 
ATOM     50  C   UNL     1      12.691   3.982   3.709  1.00  0.00     0.029 A 
ATOM     51  N   UNL     1      11.281   2.701   4.853  1.00  0.00    -0.354 N 
ATOM     52  N   UNL     1       9.888   1.766   7.242  1.00  0.00    -0.248 NA
ATOM     53  C   UNL     1       9.564   1.822   9.553  1.00  0.00     0.031 C 
ATOM     54  C   UNL     1      12.709   4.391   5.048  1.00  0.00     0.029 A 
ATOM     55  C   UNL     1      11.820   3.601   5.758  1.00  0.00     0.049 A 
ATOM     56  H   UNL     1      10.623   2.003   5.076  1.00  0.00     0.167 HD
ATOM     57  C   UNL     1      10.644   2.801   7.784  1.00  0.00     0.074 A 
ATOM     58  C   UNL     1      10.374   2.814   9.207  1.00  0.00     0.031 C 
ATOM     59  C   UNL     1      11.494   3.654   7.160  1.00  0.00     0.034 A 
BRANCH  46  60
ATOM     60  C   UNL     1      12.101   2.564   1.103  1.00  0.00     0.023 A 
ATOM     61  C   UNL     1      11.356   3.251   0.122  1.00  0.00     0.012 A 
ATOM     62  C   UNL     1      13.457   2.272   0.857  1.00  0.00     0.148 A 
ATOM     63  C   UNL     1      11.935   3.599  -1.098  1.00  0.00     0.002 A 
ATOM     64  C   UNL     1      14.040   2.662  -0.344  1.00  0.00     0.091 A 
ATOM     65  F   UNL     1      14.149   1.599   1.788  1.00  0.00    -0.205 F 
ATOM     66  C   UNL     1      13.278   3.313  -1.328  1.00  0.00     0.022 A 
BRANCH  64  67
ATOM     67  S   UNL     1      15.786   2.408  -0.686  1.00  0.00     0.127 S 
ATOM     68  O   UNL     1      15.755   1.208  -1.520  1.00  0.00    -0.237 OA
ATOM     69  O   UNL     1      16.150   3.634  -1.399  1.00  0.00    -0.237 OA
ATOM     70  O   UNL     1      16.423   2.262   0.616  1.00  0.00    -0.744 OA
ENDBRANCH  64  67
ENDBRANCH  46  60
BRANCH  47  71
ATOM     71  C   UNL     1       7.552  -0.304   9.499  1.00  0.00     0.023 A 
ATOM     72  C   UNL     1       6.635   0.586  10.092  1.00  0.00     0.012 A 
ATOM     73  C   UNL     1       7.766  -1.565  10.087  1.00  0.00     0.148 A 
ATOM     74  C   UNL     1       5.958   0.236  11.261  1.00  0.00     0.002 A 
ATOM     75  C   UNL     1       7.049  -1.929  11.221  1.00  0.00     0.091 A 
ATOM     76  F   UNL     1       8.655  -2.390   9.515  1.00  0.00    -0.205 F 
ATOM     77  C   UNL     1       6.156  -1.024  11.818  1.00  0.00     0.022 A 
BRANCH  75  78
ATOM     78  S   UNL     1       7.139  -3.573  11.938  1.00  0.00     0.127 S 
ATOM     79  O   UNL     1       7.799  -3.308  13.214  1.00  0.00    -0.237 OA
ATOM     80  O   UNL     1       5.724  -3.935  12.039  1.00  0.00    -0.237 OA
ATOM     81  O   UNL     1       7.899  -4.376  10.990  1.00  0.00    -0.744 OA
ENDBRANCH  75  78
ENDBRANCH  47  71
BRANCH  59  82
ATOM     82  C   UNL     1      12.159   4.717   7.997  1.00  0.00     0.023 A 
ATOM     83  C   UNL     1      13.196   4.367   8.885  1.00  0.00     0.012 A 
ATOM     84  C   UNL     1      11.797   6.072   7.860  1.00  0.00     0.148 A 
ATOM     85  C   UNL     1      13.837   5.343   9.648  1.00  0.00     0.002 A 
ATOM     86  C   UNL     1      12.470   7.045   8.591  1.00  0.00     0.091 A 
ATOM     87  F   UNL     1      10.792   6.387   7.029  1.00  0.00    -0.205 F 
ATOM     88  C   UNL     1      13.483   6.682   9.493  1.00  0.00     0.022 A 
BRANCH  86  89
ATOM     89  S   UNL     1      12.133   8.798   8.383  1.00  0.00     0.127 S 
ATOM     90  O   UNL     1      11.285   9.079   9.539  1.00  0.00    -0.237 OA
ATOM     91  O   UNL     1      13.471   9.388   8.451  1.00  0.00    -0.237 OA
ATOM     92  O   UNL     1      11.490   8.923   7.082  1.00  0.00    -0.744 OA
ENDBRANCH  86  89
ENDBRANCH  59  82
ENDBRANCH  33  34
ENDBRANCH  26  28
ENDBRANCH  25  26
ENDBRANCH  24  25
ENDBRANCH   1  24
TORSDOF 18
