REMARK SMILES COC(=O)CCN(C)C(=O)NCc1ccc(C(=O)OCCOC(=O)c2ccc(-c3c4nc(c(-c5cccc(S(=O)(=O)[O-])c5F)c5ccc([nH]5)c(-c5cccc(S(=O)(=O)[O-])c5F)c5nc(c(-c6cccc(S(=O)(=O)[O-])c6F)c6ccc3[nH]6)C=C5)C=C4)cc2)o1
REMARK SMILES IDX 17 1 18 2 16 3 13 4 14 5 88 6 15 7 12 8 11 9 9 10 10 11 7 13
REMARK SMILES IDX 8 14 6 15 5 16 3 17 4 18 2 19 1 20 19 21 20 22 21 23 22 24
REMARK SMILES IDX 23 25 24 26 25 27 26 28 87 29 27 30 86 31 28 32 29 33 30 34
REMARK SMILES IDX 80 35 31 36 85 37 79 38 81 39 32 40 84 41 78 42 77 43 33 45
REMARK SMILES IDX 65 46 45 47 64 48 46 49 49 50 63 51 82 52 47 53 48 54 62 56
REMARK SMILES IDX 83 57 50 58 34 59 35 60 43 61 36 62 38 63 44 64 37 65 39 66
REMARK SMILES IDX 40 67 41 68 42 69 66 70 67 71 75 72 68 73 70 74 76 75 69 76
REMARK SMILES IDX 71 77 72 78 73 79 74 80 51 81 52 82 60 83 53 84 55 85 61 86
REMARK SMILES IDX 54 87 56 88 57 89 58 90 59 91
REMARK H PARENT 11 12 81 44 49 55
REMARK Flexibility Score: inf
ROOT
ATOM      1  C   UNL     1       1.552   7.842  -2.067  1.00  0.00     0.374 C 
ATOM      2  O   UNL     1       1.792   7.170  -3.059  1.00  0.00    -0.242 OA
ENDROOT
BRANCH   1   3
ATOM      3  C   UNL     1       0.641   7.475  -1.004  1.00  0.00     0.211 A 
ATOM      4  C   UNL     1      -0.497   6.001   0.193  1.00  0.00     0.124 A 
ATOM      5  C   UNL     1      -0.604   7.204   0.855  1.00  0.00     0.048 A 
ATOM      6  O   UNL     1       0.197   6.178  -0.969  1.00  0.00    -0.452 OA
ATOM      7  C   UNL     1       0.133   8.148   0.092  1.00  0.00     0.058 A 
BRANCH   4   8
ATOM      8  C   UNL     1      -0.895   4.603   0.505  1.00  0.00     0.193 C 
BRANCH   8   9
ATOM      9  N   UNL     1       0.323   3.853   0.728  1.00  0.00    -0.331 N 
ATOM     10  C   UNL     1       0.874   3.102   1.689  1.00  0.00     0.317 C 
ATOM     11  O   UNL     1       1.912   2.515   1.374  1.00  0.00    -0.249 OA
ATOM     12  H   UNL     1       0.918   3.912  -0.055  1.00  0.00     0.165 HD
BRANCH  10  13
ATOM     13  N   UNL     1       0.324   2.947   2.928  1.00  0.00    -0.327 N 
ATOM     14  C   UNL     1      -0.723   3.757   3.514  1.00  0.00     0.148 C 
BRANCH  13  15
ATOM     15  C   UNL     1       0.830   1.831   3.746  1.00  0.00     0.132 C 
BRANCH  15  16
ATOM     16  C   UNL     1       0.097   0.524   3.471  1.00  0.00     0.144 C 
BRANCH  16  17
ATOM     17  C   UNL     1       0.759  -0.234   2.352  1.00  0.00     0.307 C 
ATOM     18  O   UNL     1       1.702  -0.992   2.527  1.00  0.00    -0.252 OA
BRANCH  17  19
ATOM     19  O   UNL     1       0.167   0.051   1.160  1.00  0.00    -0.469 OA
ATOM     20  C   UNL     1       0.854  -0.487   0.025  1.00  0.00     0.282 C 
ENDBRANCH  17  19
ENDBRANCH  16  17
ENDBRANCH  15  16
ENDBRANCH  13  15
ENDBRANCH  10  13
ENDBRANCH   8   9
ENDBRANCH   4   8
ENDBRANCH   1   3
BRANCH   1  21
ATOM     21  O   UNL     1       2.167   9.028  -1.770  1.00  0.00    -0.456 OA
BRANCH  21  22
ATOM     22  C   UNL     1       3.275   9.389  -2.619  1.00  0.00     0.275 C 
BRANCH  22  23
ATOM     23  C   UNL     1       4.619   9.064  -1.956  1.00  0.00     0.275 C 
BRANCH  23  24
ATOM     24  O   UNL     1       4.886   7.650  -1.945  1.00  0.00    -0.458 OA
BRANCH  24  25
ATOM     25  C   UNL     1       4.475   6.990  -0.836  1.00  0.00     0.338 C 
ATOM     26  O   UNL     1       3.931   7.479   0.141  1.00  0.00    -0.246 OA
BRANCH  25  27
ATOM     27  C   UNL     1       4.639   5.540  -1.036  1.00  0.00     0.060 A 
ATOM     28  C   UNL     1       3.491   4.751  -0.987  1.00  0.00     0.016 A 
ATOM     29  C   UNL     1       5.892   4.951  -1.216  1.00  0.00     0.016 A 
ATOM     30  C   UNL     1       3.588   3.368  -1.110  1.00  0.00     0.010 A 
ATOM     31  C   UNL     1       5.987   3.557  -1.333  1.00  0.00     0.010 A 
ATOM     32  C   UNL     1       4.835   2.755  -1.267  1.00  0.00    -0.014 A 
BRANCH  32  33
ATOM     33  C   UNL     1       4.910   1.274  -1.329  1.00  0.00     0.031 A 
ATOM     34  C   UNL     1       5.453   0.493  -0.166  1.00  0.00     0.074 A 
ATOM     35  C   UNL     1       4.468   0.628  -2.425  1.00  0.00     0.049 A 
ATOM     36  N   UNL     1       5.678  -0.792  -0.070  1.00  0.00    -0.248 NA
ATOM     37  C   UNL     1       5.804   1.260   1.039  1.00  0.00     0.031 C 
ATOM     38  C   UNL     1       3.901   1.272  -3.610  1.00  0.00     0.029 A 
ATOM     39  N   UNL     1       4.439  -0.711  -2.725  1.00  0.00    -0.354 N 
ATOM     40  C   UNL     1       6.229  -0.986   1.191  1.00  0.00     0.074 A 
ATOM     41  C   UNL     1       6.317   0.316   1.818  1.00  0.00     0.031 C 
ATOM     42  C   UNL     1       3.596   0.330  -4.516  1.00  0.00     0.029 A 
ATOM     43  C   UNL     1       3.975  -0.979  -3.991  1.00  0.00     0.049 A 
ATOM     44  H   UNL     1       4.724  -1.411  -2.095  1.00  0.00     0.167 HD
ATOM     45  C   UNL     1       6.609  -2.145   1.781  1.00  0.00     0.034 A 
ATOM     46  C   UNL     1       3.882  -2.145  -4.661  1.00  0.00     0.034 A 
ATOM     47  C   UNL     1       6.453  -3.447   1.187  1.00  0.00     0.049 A 
ATOM     48  C   UNL     1       4.296  -3.420  -3.977  1.00  0.00     0.074 A 
ATOM     49  C   UNL     1       6.777  -4.682   1.721  1.00  0.00     0.029 A 
ATOM     50  N   UNL     1       5.908  -3.683  -0.065  1.00  0.00    -0.354 N 
ATOM     51  N   UNL     1       4.746  -3.592  -2.758  1.00  0.00    -0.248 NA
ATOM     52  C   UNL     1       4.163  -4.664  -4.748  1.00  0.00     0.031 C 
ATOM     53  C   UNL     1       6.433  -5.666   0.788  1.00  0.00     0.029 A 
ATOM     54  C   UNL     1       5.889  -5.044  -0.325  1.00  0.00     0.049 A 
ATOM     55  H   UNL     1       5.582  -2.987  -0.680  1.00  0.00     0.167 HD
ATOM     56  C   UNL     1       4.922  -4.962  -2.605  1.00  0.00     0.074 A 
ATOM     57  C   UNL     1       4.509  -5.578  -3.850  1.00  0.00     0.031 C 
ATOM     58  C   UNL     1       5.406  -5.647  -1.540  1.00  0.00     0.034 A 
BRANCH  45  59
ATOM     59  C   UNL     1       7.195  -2.068   3.166  1.00  0.00     0.023 A 
ATOM     60  C   UNL     1       6.343  -1.852   4.267  1.00  0.00     0.012 A 
ATOM     61  C   UNL     1       8.572  -2.272   3.385  1.00  0.00     0.148 A 
ATOM     62  C   UNL     1       6.856  -1.816   5.563  1.00  0.00     0.002 A 
ATOM     63  C   UNL     1       9.070  -2.270   4.684  1.00  0.00     0.091 A 
ATOM     64  F   UNL     1       9.371  -2.453   2.324  1.00  0.00    -0.205 F 
ATOM     65  C   UNL     1       8.215  -2.035   5.773  1.00  0.00     0.022 A 
BRANCH  63  66
ATOM     66  S   UNL     1      10.795  -2.616   5.052  1.00  0.00     0.127 S 
ATOM     67  O   UNL     1      11.316  -1.276   5.321  1.00  0.00    -0.237 OA
ATOM     68  O   UNL     1      10.699  -3.478   6.231  1.00  0.00    -0.237 OA
ATOM     69  O   UNL     1      11.331  -3.274   3.868  1.00  0.00    -0.744 OA
ENDBRANCH  63  66
ENDBRANCH  45  59
BRANCH  46  70
ATOM     70  C   UNL     1       3.327  -2.159  -6.043  1.00  0.00     0.023 A 
ATOM     71  C   UNL     1       2.058  -2.724  -6.271  1.00  0.00     0.012 A 
ATOM     72  C   UNL     1       4.025  -1.580  -7.121  1.00  0.00     0.148 A 
ATOM     73  C   UNL     1       1.502  -2.730  -7.550  1.00  0.00     0.002 A 
ATOM     74  C   UNL     1       3.442  -1.541  -8.383  1.00  0.00     0.091 A 
ATOM     75  F   UNL     1       5.243  -1.069  -6.892  1.00  0.00    -0.205 F 
ATOM     76  C   UNL     1       2.186  -2.127  -8.603  1.00  0.00     0.022 A 
BRANCH  74  77
ATOM     77  S   UNL     1       4.200  -0.667  -9.758  1.00  0.00     0.127 S 
ATOM     78  O   UNL     1       4.759  -1.766 -10.540  1.00  0.00    -0.237 OA
ATOM     79  O   UNL     1       3.051   0.001 -10.370  1.00  0.00    -0.237 OA
ATOM     80  O   UNL     1       5.164   0.242  -9.153  1.00  0.00    -0.744 OA
ENDBRANCH  74  77
ENDBRANCH  46  70
BRANCH  58  81
ATOM     81  C   UNL     1       5.494  -7.146  -1.653  1.00  0.00     0.023 A 
ATOM     82  C   UNL     1       6.529  -7.721  -2.416  1.00  0.00     0.012 A 
ATOM     83  C   UNL     1       4.611  -7.981  -0.940  1.00  0.00     0.148 A 
ATOM     84  C   UNL     1       6.671  -9.106  -2.486  1.00  0.00     0.002 A 
ATOM     85  C   UNL     1       4.782  -9.361  -0.985  1.00  0.00     0.091 A 
ATOM     86  F   UNL     1       3.619  -7.415  -0.238  1.00  0.00    -0.205 F 
ATOM     87  C   UNL     1       5.807  -9.925  -1.762  1.00  0.00     0.022 A 
BRANCH  85  88
ATOM     88  S   UNL     1       3.765 -10.484  -0.019  1.00  0.00     0.127 S 
ATOM     89  O   UNL     1       2.854 -11.010  -1.034  1.00  0.00    -0.237 OA
ATOM     90  O   UNL     1       4.747 -11.451   0.477  1.00  0.00    -0.237 OA
ATOM     91  O   UNL     1       3.149  -9.670   1.020  1.00  0.00    -0.744 OA
ENDBRANCH  85  88
ENDBRANCH  58  81
ENDBRANCH  32  33
ENDBRANCH  25  27
ENDBRANCH  24  25
ENDBRANCH  23  24
ENDBRANCH  22  23
ENDBRANCH  21  22
ENDBRANCH   1  21
TORSDOF 21
