REMARK SMILES COc1cc(OC)cc(-c2ccc([C@@H](C)C(=O)OCCOC(=O)c3ccc(-c4c5nc(c(-c6cccc(S(=O)(=O)[O-])c6F)c6ccc([nH]6)c(-c6cccc(S(=O)(=O)[O-])c6F)c6nc(c(-c7cccc(S(=O)(=O)[O-])c7F)c7ccc4[nH]7)C=C6)C=C5)cc3)cc2F)c1
REMARK SMILES IDX 19 1 18 2 16 3 17 4 14 5 15 6 13 7 10 8 11 9 88 10 12 11
REMARK SMILES IDX 87 12 89 13 9 14 3 15 4 16 90 17 5 18 8 19 2 20 1 21 6 22
REMARK SMILES IDX 7 23 20 24 21 25 22 26 23 27 24 28 25 29 86 30 26 31 85 32
REMARK SMILES IDX 27 33 28 34 29 35 79 36 30 37 84 38 78 39 80 40 31 41 83 42
REMARK SMILES IDX 77 43 76 44 32 46 64 47 44 48 63 49 45 50 48 51 62 52 81 53
REMARK SMILES IDX 46 54 47 55 61 57 82 58 49 59 33 60 34 61 42 62 35 63 37 64
REMARK SMILES IDX 43 65 36 66 38 67 39 68 40 69 41 70 65 71 66 72 74 73 67 74
REMARK SMILES IDX 69 75 75 76 68 77 70 78 71 79 72 80 73 81 50 82 51 83 59 84
REMARK SMILES IDX 52 85 54 86 60 87 53 88 55 89 56 90 57 91 58 92
REMARK H PARENT 80 45 48 56
REMARK Flexibility Score: inf
ROOT
ATOM      1  C   UNL     1       8.253  -2.207  -6.166  1.00  0.00     0.274 C 
ENDROOT
BRANCH   1   2
ATOM      2  O   UNL     1       7.551  -3.258  -5.475  1.00  0.00    -0.462 OA
BRANCH   2   3
ATOM      3  C   UNL     1       8.311  -4.198  -4.854  1.00  0.00     0.313 C 
ATOM      4  O   UNL     1       9.532  -4.266  -4.943  1.00  0.00    -0.252 OA
BRANCH   3   5
ATOM      5  C   UNL     1       7.498  -5.219  -4.066  1.00  0.00     0.126 C 
ATOM      6  C   UNL     1       7.365  -6.508  -4.876  1.00  0.00     0.025 C 
BRANCH   5   7
ATOM      7  C   UNL     1       6.160  -4.733  -3.527  1.00  0.00    -0.031 A 
ATOM      8  C   UNL     1       3.648  -3.908  -2.473  1.00  0.00     0.018 A 
ATOM      9  C   UNL     1       3.846  -4.049  -3.856  1.00  0.00     0.012 A 
ATOM     10  C   UNL     1       4.743  -4.149  -1.636  1.00  0.00     0.131 A 
ATOM     11  C   UNL     1       5.078  -4.461  -4.375  1.00  0.00     0.005 A 
ATOM     12  C   UNL     1       5.976  -4.559  -2.146  1.00  0.00     0.044 A 
ATOM     13  F   UNL     1       4.612  -4.041  -0.305  1.00  0.00    -0.206 F 
BRANCH   8  14
ATOM     14  C   UNL     1       2.308  -3.614  -1.942  1.00  0.00    -0.008 A 
ATOM     15  C   UNL     1       0.758  -2.266  -0.640  1.00  0.00     0.123 A 
ATOM     16  C   UNL     1      -0.270  -3.163  -0.942  1.00  0.00     0.092 A 
ATOM     17  C   UNL     1       2.049  -2.501  -1.125  1.00  0.00     0.055 A 
ATOM     18  C   UNL     1      -0.035  -4.277  -1.744  1.00  0.00     0.123 A 
ATOM     19  C   UNL     1       1.248  -4.489  -2.246  1.00  0.00     0.055 A 
BRANCH  15  20
ATOM     20  O   UNL     1       0.392  -1.224   0.168  1.00  0.00    -0.497 OA
ATOM     21  C   UNL     1       1.146  -0.028   0.011  1.00  0.00     0.278 C 
ENDBRANCH  15  20
BRANCH  18  22
ATOM     22  O   UNL     1      -1.122  -5.075  -1.974  1.00  0.00    -0.497 OA
ATOM     23  C   UNL     1      -0.869  -6.315  -2.626  1.00  0.00     0.278 C 
ENDBRANCH  18  22
ENDBRANCH   8  14
ENDBRANCH   5   7
ENDBRANCH   3   5
ENDBRANCH   2   3
ENDBRANCH   1   2
BRANCH   1  24
ATOM     24  C   UNL     1       8.240  -0.914  -5.350  1.00  0.00     0.275 C 
BRANCH  24  25
ATOM     25  O   UNL     1       9.053  -1.039  -4.170  1.00  0.00    -0.458 OA
BRANCH  25  26
ATOM     26  C   UNL     1       8.381  -1.353  -3.038  1.00  0.00     0.338 C 
ATOM     27  O   UNL     1       7.178  -1.489  -2.904  1.00  0.00    -0.246 OA
BRANCH  26  28
ATOM     28  C   UNL     1       9.345  -1.634  -1.966  1.00  0.00     0.060 A 
ATOM     29  C   UNL     1       9.478  -2.953  -1.527  1.00  0.00     0.016 A 
ATOM     30  C   UNL     1      10.049  -0.603  -1.345  1.00  0.00     0.016 A 
ATOM     31  C   UNL     1      10.300  -3.250  -0.445  1.00  0.00     0.010 A 
ATOM     32  C   UNL     1      10.888  -0.904  -0.268  1.00  0.00     0.010 A 
ATOM     33  C   UNL     1      11.004  -2.226   0.200  1.00  0.00    -0.014 A 
BRANCH  33  34
ATOM     34  C   UNL     1      11.831  -2.537   1.390  1.00  0.00     0.031 A 
ATOM     35  C   UNL     1      11.368  -2.114   2.754  1.00  0.00     0.074 A 
ATOM     36  C   UNL     1      12.996  -3.195   1.240  1.00  0.00     0.049 A 
ATOM     37  N   UNL     1      11.974  -2.236   3.905  1.00  0.00    -0.248 NA
ATOM     38  C   UNL     1      10.049  -1.464   2.833  1.00  0.00     0.031 C 
ATOM     39  C   UNL     1      13.540  -3.664  -0.034  1.00  0.00     0.029 A 
ATOM     40  N   UNL     1      13.937  -3.567   2.165  1.00  0.00    -0.354 N 
ATOM     41  C   UNL     1      11.133  -1.647   4.841  1.00  0.00     0.074 A 
ATOM     42  C   UNL     1       9.974  -1.163   4.122  1.00  0.00     0.031 C 
ATOM     43  C   UNL     1      14.725  -4.255   0.188  1.00  0.00     0.029 A 
ATOM     44  C   UNL     1      15.040  -4.174   1.612  1.00  0.00     0.049 A 
ATOM     45  H   UNL     1      13.833  -3.415   3.132  1.00  0.00     0.167 HD
ATOM     46  C   UNL     1      11.303  -1.535   6.180  1.00  0.00     0.034 A 
ATOM     47  C   UNL     1      16.182  -4.598   2.187  1.00  0.00     0.034 A 
ATOM     48  C   UNL     1      12.439  -2.052   6.895  1.00  0.00     0.049 A 
ATOM     49  C   UNL     1      16.351  -4.450   3.674  1.00  0.00     0.074 A 
ATOM     50  C   UNL     1      12.687  -2.021   8.256  1.00  0.00     0.029 A 
ATOM     51  N   UNL     1      13.518  -2.695   6.307  1.00  0.00    -0.354 N 
ATOM     52  N   UNL     1      15.507  -3.972   4.557  1.00  0.00    -0.248 NA
ATOM     53  C   UNL     1      17.619  -4.920   4.249  1.00  0.00     0.031 C 
ATOM     54  C   UNL     1      13.922  -2.637   8.490  1.00  0.00     0.029 A 
ATOM     55  C   UNL     1      14.438  -3.061   7.276  1.00  0.00     0.049 A 
ATOM     56  H   UNL     1      13.616  -2.865   5.343  1.00  0.00     0.167 HD
ATOM     57  C   UNL     1      16.128  -4.109   5.793  1.00  0.00     0.074 A 
ATOM     58  C   UNL     1      17.412  -4.735   5.546  1.00  0.00     0.031 C 
ATOM     59  C   UNL     1      15.686  -3.732   7.018  1.00  0.00     0.034 A 
BRANCH  46  60
ATOM     60  C   UNL     1      10.213  -0.854   6.963  1.00  0.00     0.023 A 
ATOM     61  C   UNL     1       9.003  -1.535   7.204  1.00  0.00     0.012 A 
ATOM     62  C   UNL     1      10.396   0.440   7.490  1.00  0.00     0.148 A 
ATOM     63  C   UNL     1       7.980  -0.928   7.933  1.00  0.00     0.002 A 
ATOM     64  C   UNL     1       9.385   1.024   8.246  1.00  0.00     0.091 A 
ATOM     65  F   UNL     1      11.541   1.084   7.225  1.00  0.00    -0.205 F 
ATOM     66  C   UNL     1       8.174   0.345   8.461  1.00  0.00     0.022 A 
BRANCH  64  67
ATOM     67  S   UNL     1       9.576   2.634   9.019  1.00  0.00     0.127 S 
ATOM     68  O   UNL     1       8.817   3.491   8.109  1.00  0.00    -0.237 OA
ATOM     69  O   UNL     1       8.950   2.431  10.327  1.00  0.00    -0.237 OA
ATOM     70  O   UNL     1      11.010   2.880   9.070  1.00  0.00    -0.744 OA
ENDBRANCH  64  67
ENDBRANCH  46  60
BRANCH  47  71
ATOM     71  C   UNL     1      17.231  -5.250   1.353  1.00  0.00     0.023 A 
ATOM     72  C   UNL     1      17.462  -6.631   1.493  1.00  0.00     0.012 A 
ATOM     73  C   UNL     1      17.966  -4.523   0.396  1.00  0.00     0.148 A 
ATOM     74  C   UNL     1      18.419  -7.275   0.708  1.00  0.00     0.002 A 
ATOM     75  C   UNL     1      18.880  -5.181  -0.420  1.00  0.00     0.091 A 
ATOM     76  F   UNL     1      17.748  -3.205   0.293  1.00  0.00    -0.205 F 
ATOM     77  C   UNL     1      19.118  -6.554  -0.256  1.00  0.00     0.022 A 
BRANCH  75  78
ATOM     78  S   UNL     1      19.727  -4.355  -1.773  1.00  0.00     0.127 S 
ATOM     79  O   UNL     1      21.083  -4.234  -1.247  1.00  0.00    -0.237 OA
ATOM     80  O   UNL     1      19.572  -5.320  -2.863  1.00  0.00    -0.237 OA
ATOM     81  O   UNL     1      19.009  -3.104  -1.977  1.00  0.00    -0.744 OA
ENDBRANCH  75  78
ENDBRANCH  47  71
BRANCH  59  82
ATOM     82  C   UNL     1      16.586  -4.003   8.195  1.00  0.00     0.023 A 
ATOM     83  C   UNL     1      17.723  -3.196   8.399  1.00  0.00     0.012 A 
ATOM     84  C   UNL     1      16.269  -5.004   9.133  1.00  0.00     0.148 A 
ATOM     85  C   UNL     1      18.545  -3.399   9.507  1.00  0.00     0.002 A 
ATOM     86  C   UNL     1      17.070  -5.173  10.257  1.00  0.00     0.091 A 
ATOM     87  F   UNL     1      15.196  -5.777   8.909  1.00  0.00    -0.205 F 
ATOM     88  C   UNL     1      18.213  -4.377  10.441  1.00  0.00     0.022 A 
BRANCH  86  89
ATOM     89  S   UNL     1      16.665  -6.351  11.552  1.00  0.00     0.127 S 
ATOM     90  O   UNL     1      17.589  -7.445  11.261  1.00  0.00    -0.237 OA
ATOM     91  O   UNL     1      16.974  -5.599  12.770  1.00  0.00    -0.237 OA
ATOM     92  O   UNL     1      15.251  -6.657  11.380  1.00  0.00    -0.744 OA
ENDBRANCH  86  89
ENDBRANCH  59  82
ENDBRANCH  33  34
ENDBRANCH  26  28
ENDBRANCH  25  26
ENDBRANCH  24  25
ENDBRANCH   1  24
TORSDOF 18
