REMARK SMILES CN(C)Nc1ncnc(Nc2ccc(C(=O)OCCOC(=O)c3ccc(-c4c5nc(c(-c6cccc(S(=O)(=O)[O-])c6F)c6ccc([nH]6)c(-c6cccc(S(=O)(=O)[O-])c6F)c6nc(c(-c7cccc(S(=O)(=O)[O-])c7F)c7ccc4[nH]7)C=C6)C=C5)cc3)cc2)c1[N+](=O)[O-]
REMARK SMILES IDX 18 1 17 2 15 3 16 4 14 5 11 6 12 7 87 8 13 9 86 10 10 11
REMARK SMILES IDX 9 13 5 14 6 15 88 16 7 17 8 18 4 19 2 21 1 22 3 23 89 24
REMARK SMILES IDX 90 25 91 26 19 27 20 28 21 29 22 30 23 31 24 32 85 33 25 34
REMARK SMILES IDX 84 35 26 36 27 37 28 38 78 39 29 40 83 41 77 42 79 43 30 44
REMARK SMILES IDX 82 45 76 46 75 47 31 49 63 50 43 51 62 52 44 53 47 54 61 55
REMARK SMILES IDX 80 56 45 57 46 58 60 60 81 61 48 62 32 63 33 64 41 65 34 66
REMARK SMILES IDX 36 67 42 68 35 69 37 70 38 71 39 72 40 73 64 74 65 75 73 76
REMARK SMILES IDX 66 77 68 78 74 79 67 80 69 81 70 82 71 83 72 84 49 85 50 86
REMARK SMILES IDX 58 87 51 88 53 89 59 90 52 91 54 92 55 93 56 94 57 95
REMARK H PARENT 10 12 4 20 79 48 47 59
REMARK Flexibility Score: inf
ROOT
ATOM      1  C   UNL     1       7.659  -8.056  -5.374  1.00  0.00     0.275 C 
ENDROOT
BRANCH   1   2
ATOM      2  O   UNL     1       6.892  -6.932  -4.899  1.00  0.00    -0.458 OA
BRANCH   2   3
ATOM      3  C   UNL     1       7.146  -6.592  -3.613  1.00  0.00     0.338 C 
ATOM      4  O   UNL     1       7.905  -7.152  -2.841  1.00  0.00    -0.246 OA
BRANCH   3   5
ATOM      5  C   UNL     1       6.385  -5.392  -3.224  1.00  0.00     0.060 A 
ATOM      6  C   UNL     1       4.977  -3.318  -1.971  1.00  0.00     0.040 A 
ATOM      7  C   UNL     1       6.371  -3.294  -2.015  1.00  0.00     0.027 A 
ATOM      8  C   UNL     1       4.299  -4.352  -2.639  1.00  0.00     0.027 A 
ATOM      9  C   UNL     1       7.069  -4.333  -2.622  1.00  0.00     0.018 A 
ATOM     10  C   UNL     1       4.995  -5.385  -3.276  1.00  0.00     0.018 A 
BRANCH   6  11
ATOM     11  N   UNL     1       4.328  -2.412  -1.114  1.00  0.00    -0.334 N 
ATOM     12  H   UNL     1       4.615  -1.472  -1.174  1.00  0.00     0.168 HD
BRANCH  11  13
ATOM     13  C   UNL     1       3.314  -2.696  -0.181  1.00  0.00     0.215 A 
ATOM     14  C   UNL     1       1.554  -2.062   1.278  1.00  0.00     0.225 A 
ATOM     15  N   UNL     1       1.182  -3.353   1.420  1.00  0.00    -0.212 NA
ATOM     16  C   UNL     1       2.682  -1.715   0.562  1.00  0.00     0.354 A 
ATOM     17  C   UNL     1       1.899  -4.258   0.755  1.00  0.00     0.227 A 
ATOM     18  N   UNL     1       2.906  -3.982  -0.073  1.00  0.00    -0.212 NA
BRANCH  14  19
ATOM     19  N   UNL     1       0.600  -1.178   1.790  1.00  0.00    -0.298 N 
ATOM     20  H   UNL     1       0.176  -1.415   2.646  1.00  0.00     0.184 HD
BRANCH  19  21
ATOM     21  N   UNL     1       0.194   0.036   1.174  1.00  0.00    -0.228 NA
ATOM     22  C   UNL     1      -0.018  -0.115  -0.277  1.00  0.00     0.130 C 
ATOM     23  C   UNL     1      -1.095   0.412   1.782  1.00  0.00     0.130 C 
ENDBRANCH  19  21
ENDBRANCH  14  19
BRANCH  16  24
ATOM     24  N   UNL     1       3.255  -0.406   0.691  1.00  0.00     0.070 N 
ATOM     25  O   UNL     1       3.589   0.177  -0.352  1.00  0.00    -0.258 OA
ATOM     26  O   UNL     1       3.483   0.008   1.836  1.00  0.00    -0.258 OA
ENDBRANCH  16  24
ENDBRANCH  11  13
ENDBRANCH   6  11
ENDBRANCH   3   5
ENDBRANCH   2   3
ENDBRANCH   1   2
BRANCH   1  27
ATOM     27  C   UNL     1       8.944  -7.597  -6.063  1.00  0.00     0.275 C 
BRANCH  27  28
ATOM     28  O   UNL     1       9.809  -6.929  -5.125  1.00  0.00    -0.458 OA
BRANCH  28  29
ATOM     29  C   UNL     1      10.267  -5.717  -5.517  1.00  0.00     0.338 C 
ATOM     30  O   UNL     1      10.047  -5.167  -6.584  1.00  0.00    -0.246 OA
BRANCH  29  31
ATOM     31  C   UNL     1      11.095  -5.089  -4.466  1.00  0.00     0.060 A 
ATOM     32  C   UNL     1      10.650  -5.012  -3.149  1.00  0.00     0.016 A 
ATOM     33  C   UNL     1      12.256  -4.413  -4.839  1.00  0.00     0.016 A 
ATOM     34  C   UNL     1      11.253  -4.117  -2.258  1.00  0.00     0.010 A 
ATOM     35  C   UNL     1      12.938  -3.627  -3.903  1.00  0.00     0.010 A 
ATOM     36  C   UNL     1      12.405  -3.401  -2.622  1.00  0.00    -0.014 A 
BRANCH  36  37
ATOM     37  C   UNL     1      13.014  -2.372  -1.718  1.00  0.00     0.031 A 
ATOM     38  C   UNL     1      13.288  -0.974  -2.235  1.00  0.00     0.074 A 
ATOM     39  C   UNL     1      13.338  -2.658  -0.439  1.00  0.00     0.049 A 
ATOM     40  N   UNL     1      14.005  -0.018  -1.699  1.00  0.00    -0.248 NA
ATOM     41  C   UNL     1      12.704  -0.613  -3.539  1.00  0.00     0.031 C 
ATOM     42  C   UNL     1      13.135  -3.946   0.223  1.00  0.00     0.029 A 
ATOM     43  N   UNL     1      13.913  -1.876   0.536  1.00  0.00    -0.354 N 
ATOM     44  C   UNL     1      14.052   1.003  -2.644  1.00  0.00     0.074 A 
ATOM     45  C   UNL     1      13.268   0.563  -3.777  1.00  0.00     0.031 C 
ATOM     46  C   UNL     1      13.527  -3.854   1.503  1.00  0.00     0.029 A 
ATOM     47  C   UNL     1      14.091  -2.528   1.736  1.00  0.00     0.049 A 
ATOM     48  H   UNL     1      14.172  -0.937   0.391  1.00  0.00     0.167 HD
ATOM     49  C   UNL     1      14.680   2.202  -2.576  1.00  0.00     0.034 A 
ATOM     50  C   UNL     1      14.666  -2.124   2.887  1.00  0.00     0.034 A 
ATOM     51  C   UNL     1      15.345   2.705  -1.403  1.00  0.00     0.049 A 
ATOM     52  C   UNL     1      15.262  -0.747   2.975  1.00  0.00     0.074 A 
ATOM     53  C   UNL     1      15.986   3.921  -1.232  1.00  0.00     0.029 A 
ATOM     54  N   UNL     1      15.409   2.046  -0.188  1.00  0.00    -0.354 N 
ATOM     55  N   UNL     1      15.297   0.196   2.066  1.00  0.00    -0.248 NA
ATOM     56  C   UNL     1      15.895  -0.375   4.250  1.00  0.00     0.031 C 
ATOM     57  C   UNL     1      16.418   4.005   0.096  1.00  0.00     0.029 A 
ATOM     58  C   UNL     1      16.052   2.839   0.747  1.00  0.00     0.049 A 
ATOM     59  H   UNL     1      15.051   1.145  -0.014  1.00  0.00     0.167 HD
ATOM     60  C   UNL     1      15.942   1.274   2.661  1.00  0.00     0.074 A 
ATOM     61  C   UNL     1      16.250   0.882   4.021  1.00  0.00     0.031 C 
ATOM     62  C   UNL     1      16.282   2.468   2.118  1.00  0.00     0.034 A 
BRANCH  49  63
ATOM     63  C   UNL     1      14.646   3.085  -3.795  1.00  0.00     0.023 A 
ATOM     64  C   UNL     1      13.484   3.824  -4.089  1.00  0.00     0.012 A 
ATOM     65  C   UNL     1      15.786   3.236  -4.609  1.00  0.00     0.148 A 
ATOM     66  C   UNL     1      13.449   4.682  -5.188  1.00  0.00     0.002 A 
ATOM     67  C   UNL     1      15.756   4.121  -5.682  1.00  0.00     0.091 A 
ATOM     68  F   UNL     1      16.875   2.505  -4.331  1.00  0.00    -0.205 F 
ATOM     69  C   UNL     1      14.587   4.839  -5.977  1.00  0.00     0.022 A 
BRANCH  67  70
ATOM     70  S   UNL     1      17.206   4.434  -6.696  1.00  0.00     0.127 S 
ATOM     71  O   UNL     1      16.968   3.553  -7.838  1.00  0.00    -0.237 OA
ATOM     72  O   UNL     1      17.085   5.862  -6.994  1.00  0.00    -0.237 OA
ATOM     73  O   UNL     1      18.348   4.093  -5.858  1.00  0.00    -0.744 OA
ENDBRANCH  67  70
ENDBRANCH  49  63
BRANCH  50  74
ATOM     74  C   UNL     1      14.658  -3.030   4.072  1.00  0.00     0.023 A 
ATOM     75  C   UNL     1      13.841  -2.708   5.173  1.00  0.00     0.012 A 
ATOM     76  C   UNL     1      15.399  -4.226   4.096  1.00  0.00     0.148 A 
ATOM     77  C   UNL     1      13.772  -3.555   6.280  1.00  0.00     0.002 A 
ATOM     78  C   UNL     1      15.277  -5.095   5.175  1.00  0.00     0.091 A 
ATOM     79  F   UNL     1      16.198  -4.505   3.057  1.00  0.00    -0.205 F 
ATOM     80  C   UNL     1      14.476  -4.756   6.274  1.00  0.00     0.022 A 
BRANCH  78  81
ATOM     81  S   UNL     1      16.030  -6.727   5.144  1.00  0.00     0.127 S 
ATOM     82  O   UNL     1      17.299  -6.489   5.824  1.00  0.00    -0.237 OA
ATOM     83  O   UNL     1      15.069  -7.534   5.899  1.00  0.00    -0.237 OA
ATOM     84  O   UNL     1      16.108  -7.073   3.730  1.00  0.00    -0.744 OA
ENDBRANCH  78  81
ENDBRANCH  50  74
BRANCH  62  85
ATOM     85  C   UNL     1      17.006   3.452   2.995  1.00  0.00     0.023 A 
ATOM     86  C   UNL     1      18.382   3.274   3.239  1.00  0.00     0.012 A 
ATOM     87  C   UNL     1      16.350   4.581   3.521  1.00  0.00     0.148 A 
ATOM     88  C   UNL     1      19.090   4.195   4.010  1.00  0.00     0.002 A 
ATOM     89  C   UNL     1      17.070   5.511   4.263  1.00  0.00     0.091 A 
ATOM     90  F   UNL     1      15.034   4.722   3.302  1.00  0.00    -0.205 F 
ATOM     91  C   UNL     1      18.438   5.318   4.513  1.00  0.00     0.022 A 
BRANCH  89  92
ATOM     92  S   UNL     1      16.300   7.015   4.876  1.00  0.00     0.127 S 
ATOM     93  O   UNL     1      15.864   6.609   6.210  1.00  0.00    -0.237 OA
ATOM     94  O   UNL     1      17.407   7.973   4.864  1.00  0.00    -0.237 OA
ATOM     95  O   UNL     1      15.242   7.319   3.921  1.00  0.00    -0.744 OA
ENDBRANCH  89  92
ENDBRANCH  62  85
ENDBRANCH  36  37
ENDBRANCH  29  31
ENDBRANCH  28  29
ENDBRANCH  27  28
ENDBRANCH   1  27
TORSDOF 19
