REMARK SMILES C[C@H]1CN(CCC(=O)OCCOC(=O)c2ccc(-c3c4nc(c(-c5cccc(S(=O)(=O)[O-])c5F)c5ccc([nH]5)c(-c5cccc(S(=O)(=O)[O-])c5F)c5nc(c(-c6cccc(S(=O)(=O)[O-])c6F)c6ccc3[nH]6)C=C5)C=C4)cc2)S(=O)(=O)C1
REMARK SMILES IDX 11 1 10 2 9 3 7 4 8 5 6 6 5 7 4 8 1 9 2 10 3 11 81 12 78 13
REMARK SMILES IDX 79 14 80 15 12 16 13 17 14 18 15 19 16 20 77 21 17 22 76 23
REMARK SMILES IDX 18 24 19 25 20 26 70 27 21 28 75 29 69 30 71 31 22 32 74 33
REMARK SMILES IDX 68 34 67 35 23 37 55 38 35 39 54 40 36 41 39 42 53 43 72 44
REMARK SMILES IDX 37 45 38 46 52 48 73 49 40 50 24 51 25 52 33 53 26 54 28 55
REMARK SMILES IDX 34 56 27 57 29 58 30 59 31 60 32 61 56 62 57 63 65 64 58 65
REMARK SMILES IDX 60 66 66 67 59 68 61 69 62 70 63 71 64 72 41 73 42 74 50 75
REMARK SMILES IDX 43 76 45 77 51 78 44 79 46 80 47 81 48 82 49 83
REMARK H PARENT 71 36 39 47
REMARK Flexibility Score: inf
ROOT
ATOM      1  C   UNL     1      -1.982  -4.864   2.972  1.00  0.00     0.275 C 
ENDROOT
BRANCH   1   2
ATOM      2  C   UNL     1      -2.128  -3.515   2.267  1.00  0.00     0.274 C 
BRANCH   2   3
ATOM      3  O   UNL     1      -1.169  -2.558   2.761  1.00  0.00    -0.462 OA
BRANCH   3   4
ATOM      4  C   UNL     1      -1.602  -1.652   3.665  1.00  0.00     0.307 C 
ATOM      5  O   UNL     1      -2.770  -1.511   4.005  1.00  0.00    -0.252 OA
BRANCH   4   6
ATOM      6  C   UNL     1      -0.507  -0.735   4.157  1.00  0.00     0.139 C 
BRANCH   6   7
ATOM      7  C   UNL     1       0.905  -1.304   4.169  1.00  0.00     0.114 C 
BRANCH   7   8
ATOM      8  N   UNL     1       1.670  -1.189   2.914  1.00  0.00    -0.201 NA
ATOM      9  C   UNL     1      -0.516   0.057   0.660  1.00  0.00     0.010 C 
ATOM     10  C   UNL     1       0.944  -0.383   0.757  1.00  0.00     0.017 C 
ATOM     11  C   UNL     1       1.611   0.022   2.090  1.00  0.00     0.106 C 
ATOM     12  C   UNL     1       1.098  -1.902   0.552  1.00  0.00     0.158 C 
ATOM     13  S   UNL     1       2.014  -2.529   1.940  1.00  0.00     0.214 S 
ATOM     14  O   UNL     1       3.416  -2.459   1.582  1.00  0.00    -0.212 OA
ATOM     15  O   UNL     1       1.403  -3.734   2.434  1.00  0.00    -0.212 OA
ENDBRANCH   7   8
ENDBRANCH   6   7
ENDBRANCH   4   6
ENDBRANCH   3   4
ENDBRANCH   2   3
ENDBRANCH   1   2
BRANCH   1  16
ATOM     16  O   UNL     1      -2.416  -4.776   4.339  1.00  0.00    -0.458 OA
BRANCH  16  17
ATOM     17  C   UNL     1      -1.432  -4.525   5.230  1.00  0.00     0.338 C 
ATOM     18  O   UNL     1      -0.235  -4.434   5.025  1.00  0.00    -0.246 OA
BRANCH  17  19
ATOM     19  C   UNL     1      -2.018  -4.193   6.526  1.00  0.00     0.060 A 
ATOM     20  C   UNL     1      -1.918  -2.870   6.960  1.00  0.00     0.016 A 
ATOM     21  C   UNL     1      -2.552  -5.183   7.344  1.00  0.00     0.016 A 
ATOM     22  C   UNL     1      -2.344  -2.520   8.228  1.00  0.00     0.010 A 
ATOM     23  C   UNL     1      -3.000  -4.829   8.614  1.00  0.00     0.010 A 
ATOM     24  C   UNL     1      -2.886  -3.500   9.061  1.00  0.00    -0.014 A 
BRANCH  24  25
ATOM     25  C   UNL     1      -3.304  -3.130  10.425  1.00  0.00     0.031 A 
ATOM     26  C   UNL     1      -2.522  -3.640  11.595  1.00  0.00     0.074 A 
ATOM     27  C   UNL     1      -4.386  -2.349  10.583  1.00  0.00     0.049 A 
ATOM     28  N   UNL     1      -2.785  -3.535  12.868  1.00  0.00    -0.248 NA
ATOM     29  C   UNL     1      -1.282  -4.376  11.291  1.00  0.00     0.031 C 
ATOM     30  C   UNL     1      -5.186  -1.785   9.493  1.00  0.00     0.029 A 
ATOM     31  N   UNL     1      -5.014  -1.914  11.719  1.00  0.00    -0.354 N 
ATOM     32  C   UNL     1      -1.778  -4.237  13.518  1.00  0.00     0.074 A 
ATOM     33  C   UNL     1      -0.898  -4.763  12.499  1.00  0.00     0.031 C 
ATOM     34  C   UNL     1      -6.209  -1.090  10.014  1.00  0.00     0.029 A 
ATOM     35  C   UNL     1      -6.168  -1.212  11.465  1.00  0.00     0.049 A 
ATOM     36  H   UNL     1      -4.673  -2.087  12.626  1.00  0.00     0.167 HD
ATOM     37  C   UNL     1      -1.610  -4.418  14.849  1.00  0.00     0.034 A 
ATOM     38  C   UNL     1      -7.106  -0.757  12.314  1.00  0.00     0.034 A 
ATOM     39  C   UNL     1      -2.497  -3.867  15.839  1.00  0.00     0.049 A 
ATOM     40  C   UNL     1      -6.909  -0.998  13.784  1.00  0.00     0.074 A 
ATOM     41  C   UNL     1      -2.416  -3.957  17.215  1.00  0.00     0.029 A 
ATOM     42  N   UNL     1      -3.638  -3.129  15.552  1.00  0.00    -0.354 N 
ATOM     43  N   UNL     1      -5.919  -1.605  14.395  1.00  0.00    -0.248 NA
ATOM     44  C   UNL     1      -7.942  -0.471  14.684  1.00  0.00     0.031 C 
ATOM     45  C   UNL     1      -3.527  -3.304  17.759  1.00  0.00     0.029 A 
ATOM     46  C   UNL     1      -4.277  -2.766  16.724  1.00  0.00     0.049 A 
ATOM     47  H   UNL     1      -3.947  -2.897  14.646  1.00  0.00     0.167 HD
ATOM     48  C   UNL     1      -6.189  -1.502  15.754  1.00  0.00     0.074 A 
ATOM     49  C   UNL     1      -7.427  -0.755  15.873  1.00  0.00     0.031 C 
ATOM     50  C   UNL     1      -5.487  -1.986  16.808  1.00  0.00     0.034 A 
BRANCH  37  51
ATOM     51  C   UNL     1      -0.435  -5.245  15.299  1.00  0.00     0.023 A 
ATOM     52  C   UNL     1       0.877  -4.748  15.155  1.00  0.00     0.012 A 
ATOM     53  C   UNL     1      -0.630  -6.510  15.887  1.00  0.00     0.148 A 
ATOM     54  C   UNL     1       1.975  -5.512  15.550  1.00  0.00     0.002 A 
ATOM     55  C   UNL     1       0.466  -7.245  16.324  1.00  0.00     0.091 A 
ATOM     56  F   UNL     1      -1.882  -6.979  15.994  1.00  0.00    -0.205 F 
ATOM     57  C   UNL     1       1.769  -6.755  16.142  1.00  0.00     0.022 A 
BRANCH  55  58
ATOM     58  S   UNL     1       0.302  -8.821  17.170  1.00  0.00     0.127 S 
ATOM     59  O   UNL     1       0.848  -9.747  16.178  1.00  0.00    -0.237 OA
ATOM     60  O   UNL     1       1.146  -8.624  18.349  1.00  0.00    -0.237 OA
ATOM     61  O   UNL     1      -1.117  -8.980  17.456  1.00  0.00    -0.744 OA
ENDBRANCH  55  58
ENDBRANCH  37  51
BRANCH  38  62
ATOM     62  C   UNL     1      -8.289  -0.018  11.794  1.00  0.00     0.023 A 
ATOM     63  C   UNL     1      -8.422   1.356  12.070  1.00  0.00     0.012 A 
ATOM     64  C   UNL     1      -9.261  -0.655  10.997  1.00  0.00     0.148 A 
ATOM     65  C   UNL     1      -9.517   2.075  11.589  1.00  0.00     0.002 A 
ATOM     66  C   UNL     1     -10.319   0.079  10.474  1.00  0.00     0.091 A 
ATOM     67  F   UNL     1      -9.120  -1.965  10.750  1.00  0.00    -0.205 F 
ATOM     68  C   UNL     1     -10.458   1.441  10.784  1.00  0.00     0.022 A 
BRANCH  66  69
ATOM     69  S   UNL     1     -11.508  -0.622   9.324  1.00  0.00     0.127 S 
ATOM     70  O   UNL     1     -12.729  -0.627  10.125  1.00  0.00    -0.237 OA
ATOM     71  O   UNL     1     -11.488   0.358   8.237  1.00  0.00    -0.237 OA
ATOM     72  O   UNL     1     -10.985  -1.932   8.963  1.00  0.00    -0.744 OA
ENDBRANCH  66  69
ENDBRANCH  38  62
BRANCH  50  73
ATOM     73  C   UNL     1      -6.017  -1.678  18.183  1.00  0.00     0.023 A 
ATOM     74  C   UNL     1      -7.187  -2.309  18.648  1.00  0.00     0.012 A 
ATOM     75  C   UNL     1      -5.314  -0.803  19.034  1.00  0.00     0.148 A 
ATOM     76  C   UNL     1      -7.673  -2.041  19.927  1.00  0.00     0.002 A 
ATOM     77  C   UNL     1      -5.773  -0.585  20.326  1.00  0.00     0.091 A 
ATOM     78  F   UNL     1      -4.213  -0.199  18.564  1.00  0.00    -0.205 F 
ATOM     79  C   UNL     1      -6.960  -1.190  20.769  1.00  0.00     0.022 A 
BRANCH  77  80
ATOM     80  S   UNL     1      -4.865   0.411  21.513  1.00  0.00     0.127 S 
ATOM     81  O   UNL     1      -5.717   1.594  21.621  1.00  0.00    -0.237 OA
ATOM     82  O   UNL     1      -4.860  -0.449  22.697  1.00  0.00    -0.237 OA
ATOM     83  O   UNL     1      -3.552   0.640  20.926  1.00  0.00    -0.744 OA
ENDBRANCH  77  80
ENDBRANCH  50  73
ENDBRANCH  24  25
ENDBRANCH  17  19
ENDBRANCH  16  17
ENDBRANCH   1  16
TORSDOF 16
