REMARK SMILES Cc1ccc(C)c(-n2nc(C)c(/C=C(/C#N)C(=O)OCCOC(=O)c3ccc(-c4c5nc(c(-c6cccc(S(=O)(=O)[O-])c6F)c6ccc([nH]6)c(-c6cccc(S(=O)(=O)[O-])c6F)c6nc(c(-c7cccc(S(=O)(=O)[O-])c7F)c7ccc4[nH]7)C=C6)C=C5)cc3)c2Cl)c1
REMARK SMILES IDX 21 1 20 2 19 3 17 4 18 5 14 6 13 7 12 8 8 9 9 10 88 11 10 12
REMARK SMILES IDX 89 13 11 14 7 15 1 16 2 17 3 18 90 19 4 20 5 21 6 22 15 23
REMARK SMILES IDX 16 24 22 25 23 26 24 27 25 28 26 29 87 30 27 31 86 32 28 33
REMARK SMILES IDX 29 34 30 35 80 36 31 37 85 38 79 39 81 40 32 41 84 42 78 43
REMARK SMILES IDX 77 44 33 46 65 47 45 48 64 49 46 50 49 51 63 52 82 53 47 54
REMARK SMILES IDX 48 55 62 57 83 58 50 59 34 60 35 61 43 62 36 63 38 64 44 65
REMARK SMILES IDX 37 66 39 67 40 68 41 69 42 70 66 71 67 72 75 73 68 74 70 75
REMARK SMILES IDX 76 76 69 77 71 78 72 79 73 80 74 81 51 82 52 83 60 84 53 85
REMARK SMILES IDX 55 86 61 87 54 88 56 89 57 90 58 91 59 92
REMARK H PARENT 81 45 49 56
REMARK Flexibility Score: inf
ROOT
ATOM      1  C   UNL     1      -7.412   6.803   0.401  1.00  0.00     0.275 C 
ENDROOT
BRANCH   1   2
ATOM      2  C   UNL     1      -6.387   7.736  -0.265  1.00  0.00     0.275 C 
BRANCH   2   3
ATOM      3  O   UNL     1      -5.327   6.984  -0.904  1.00  0.00    -0.458 OA
BRANCH   3   4
ATOM      4  C   UNL     1      -4.070   7.347  -0.527  1.00  0.00     0.349 C 
ATOM      5  O   UNL     1      -3.813   8.313   0.183  1.00  0.00    -0.245 OA
BRANCH   4   6
ATOM      6  C   UNL     1      -3.024   6.816  -1.421  1.00  0.00     0.138 C 
ATOM      7  C   UNL     1      -2.215   5.728  -1.388  1.00  0.00     0.040 C 
BRANCH   7   8
ATOM      8  C   UNL     1      -2.006   4.451  -0.628  1.00  0.00     0.037 A 
ATOM      9  N   UNL     1      -1.273   2.296  -0.489  1.00  0.00    -0.221 N 
ATOM     10  N   UNL     1      -1.992   2.483   0.601  1.00  0.00    -0.171 NA
ATOM     11  C   UNL     1      -1.242   3.441  -1.246  1.00  0.00     0.140 A 
ATOM     12  C   UNL     1      -2.261   3.787   0.664  1.00  0.00     0.069 A 
ATOM     13  Cl  UNL     1      -0.440   3.383  -2.763  1.00  0.00    -0.061 Cl
ATOM     14  C   UNL     1      -2.665   4.042   2.080  1.00  0.00     0.069 C 
BRANCH   9  15
ATOM     15  C   UNL     1      -0.585   1.058  -0.537  1.00  0.00     0.069 A 
ATOM     16  C   UNL     1       3.022  -0.097  -0.107  1.00  0.00     0.044 C 
ATOM     17  C   UNL     1       1.529  -0.105  -0.257  1.00  0.00    -0.049 A 
ATOM     18  C   UNL     1       0.829  -1.306  -0.083  1.00  0.00     0.004 A 
ATOM     19  C   UNL     1       0.819   1.076  -0.517  1.00  0.00     0.032 A 
ATOM     20  C   UNL     1      -0.564  -1.325  -0.103  1.00  0.00     0.006 A 
ATOM     21  C   UNL     1      -1.294  -0.144  -0.296  1.00  0.00    -0.025 A 
ATOM     22  C   UNL     1      -2.798  -0.242  -0.206  1.00  0.00     0.047 C 
ENDBRANCH   9  15
ENDBRANCH   7   8
BRANCH   6  23
ATOM     23  C   UNL     1      -3.058   7.979  -2.401  1.00  0.00     0.107 C 
ATOM     24  N   UNL     1      -3.086   8.943  -3.213  1.00  0.00    -0.192 NA
ENDBRANCH   6  23
ENDBRANCH   4   6
ENDBRANCH   3   4
ENDBRANCH   2   3
ENDBRANCH   1   2
BRANCH   1  25
ATOM     25  O   UNL     1      -6.952   5.902   1.430  1.00  0.00    -0.458 OA
BRANCH  25  26
ATOM     26  C   UNL     1      -5.622   5.647   1.457  1.00  0.00     0.338 C 
ATOM     27  O   UNL     1      -5.084   4.889   0.687  1.00  0.00    -0.246 OA
BRANCH  26  28
ATOM     28  C   UNL     1      -4.948   6.587   2.419  1.00  0.00     0.060 A 
ATOM     29  C   UNL     1      -3.558   6.832   2.353  1.00  0.00     0.016 A 
ATOM     30  C   UNL     1      -5.754   7.432   3.165  1.00  0.00     0.016 A 
ATOM     31  C   UNL     1      -2.980   7.929   2.960  1.00  0.00     0.010 A 
ATOM     32  C   UNL     1      -5.217   8.609   3.620  1.00  0.00     0.010 A 
ATOM     33  C   UNL     1      -3.839   8.844   3.534  1.00  0.00    -0.014 A 
BRANCH  33  34
ATOM     34  C   UNL     1      -3.319  10.123   3.967  1.00  0.00     0.031 A 
ATOM     35  C   UNL     1      -2.720  10.990   2.910  1.00  0.00     0.074 A 
ATOM     36  C   UNL     1      -3.594  10.512   5.226  1.00  0.00     0.049 A 
ATOM     37  N   UNL     1      -1.497  11.406   2.844  1.00  0.00    -0.248 NA
ATOM     38  C   UNL     1      -3.519  11.347   1.726  1.00  0.00     0.031 C 
ATOM     39  C   UNL     1      -4.411   9.785   6.211  1.00  0.00     0.029 A 
ATOM     40  N   UNL     1      -3.383  11.707   5.827  1.00  0.00    -0.354 N 
ATOM     41  C   UNL     1      -1.459  12.312   1.780  1.00  0.00     0.074 A 
ATOM     42  C   UNL     1      -2.649  12.069   1.015  1.00  0.00     0.031 C 
ATOM     43  C   UNL     1      -4.881  10.655   7.125  1.00  0.00     0.029 A 
ATOM     44  C   UNL     1      -4.228  11.928   6.909  1.00  0.00     0.049 A 
ATOM     45  H   UNL     1      -2.702  12.352   5.528  1.00  0.00     0.167 HD
ATOM     46  C   UNL     1      -0.612  13.382   1.821  1.00  0.00     0.034 A 
ATOM     47  C   UNL     1      -4.412  13.095   7.561  1.00  0.00     0.034 A 
ATOM     48  C   UNL     1       0.403  13.178   2.832  1.00  0.00     0.049 A 
ATOM     49  C   UNL     1      -3.204  13.907   7.312  1.00  0.00     0.074 A 
ATOM     50  C   UNL     1       1.397  12.257   3.079  1.00  0.00     0.029 A 
ATOM     51  N   UNL     1       0.176  13.837   4.014  1.00  0.00    -0.354 N 
ATOM     52  N   UNL     1      -2.014  13.563   7.724  1.00  0.00    -0.248 NA
ATOM     53  C   UNL     1      -3.236  14.896   6.249  1.00  0.00     0.031 C 
ATOM     54  C   UNL     1       1.440  12.131   4.502  1.00  0.00     0.029 A 
ATOM     55  C   UNL     1       0.531  13.035   5.058  1.00  0.00     0.049 A 
ATOM     56  H   UNL     1      -0.186  14.748   4.095  1.00  0.00     0.167 HD
ATOM     57  C   UNL     1      -1.182  13.898   6.665  1.00  0.00     0.074 A 
ATOM     58  C   UNL     1      -1.951  14.866   5.884  1.00  0.00     0.031 C 
ATOM     59  C   UNL     1      -0.090  13.130   6.365  1.00  0.00     0.034 A 
BRANCH  46  60
ATOM     60  C   UNL     1      -0.951  14.804   1.366  1.00  0.00     0.023 A 
ATOM     61  C   UNL     1       0.047  15.789   1.587  1.00  0.00     0.012 A 
ATOM     62  C   UNL     1      -2.248  15.283   1.072  1.00  0.00     0.148 A 
ATOM     63  C   UNL     1      -0.253  17.155   1.645  1.00  0.00     0.002 A 
ATOM     64  C   UNL     1      -2.531  16.648   1.071  1.00  0.00     0.091 A 
ATOM     65  F   UNL     1      -3.256  14.432   0.889  1.00  0.00    -0.205 F 
ATOM     66  C   UNL     1      -1.548  17.585   1.397  1.00  0.00     0.022 A 
BRANCH  64  67
ATOM     67  S   UNL     1      -4.180  17.281   0.727  1.00  0.00     0.127 S 
ATOM     68  O   UNL     1      -4.561  17.817   2.031  1.00  0.00    -0.237 OA
ATOM     69  O   UNL     1      -3.901  18.287  -0.299  1.00  0.00    -0.237 OA
ATOM     70  O   UNL     1      -4.956  16.142   0.257  1.00  0.00    -0.744 OA
ENDBRANCH  64  67
ENDBRANCH  46  60
BRANCH  47  71
ATOM     71  C   UNL     1      -5.636  13.630   8.188  1.00  0.00     0.023 A 
ATOM     72  C   UNL     1      -5.526  14.649   9.151  1.00  0.00     0.012 A 
ATOM     73  C   UNL     1      -6.914  13.345   7.652  1.00  0.00     0.148 A 
ATOM     74  C   UNL     1      -6.644  15.396   9.535  1.00  0.00     0.002 A 
ATOM     75  C   UNL     1      -8.024  14.086   8.043  1.00  0.00     0.091 A 
ATOM     76  F   UNL     1      -7.022  12.409   6.699  1.00  0.00    -0.205 F 
ATOM     77  C   UNL     1      -7.888  15.124   8.973  1.00  0.00     0.022 A 
BRANCH  75  78
ATOM     78  S   UNL     1      -9.660  13.809   7.349  1.00  0.00     0.127 S 
ATOM     79  O   UNL     1     -10.489  13.731   8.553  1.00  0.00    -0.237 OA
ATOM     80  O   UNL     1      -9.858  15.012   6.547  1.00  0.00    -0.237 OA
ATOM     81  O   UNL     1      -9.571  12.559   6.603  1.00  0.00    -0.744 OA
ENDBRANCH  75  78
ENDBRANCH  47  71
BRANCH  59  82
ATOM     82  C   UNL     1       0.390  12.148   7.404  1.00  0.00     0.023 A 
ATOM     83  C   UNL     1      -0.377  11.047   7.839  1.00  0.00     0.012 A 
ATOM     84  C   UNL     1       1.716  12.266   7.851  1.00  0.00     0.148 A 
ATOM     85  C   UNL     1       0.157  10.107   8.726  1.00  0.00     0.002 A 
ATOM     86  C   UNL     1       2.259  11.306   8.695  1.00  0.00     0.091 A 
ATOM     87  F   UNL     1       2.438  13.315   7.426  1.00  0.00    -0.205 F 
ATOM     88  C   UNL     1       1.480  10.229   9.145  1.00  0.00     0.022 A 
BRANCH  86  89
ATOM     89  S   UNL     1       3.988  11.358   9.165  1.00  0.00     0.127 S 
ATOM     90  O   UNL     1       3.921  11.914  10.515  1.00  0.00    -0.237 OA
ATOM     91  O   UNL     1       4.378   9.948   9.103  1.00  0.00    -0.237 OA
ATOM     92  O   UNL     1       4.645  12.196   8.169  1.00  0.00    -0.744 OA
ENDBRANCH  86  89
ENDBRANCH  59  82
ENDBRANCH  33  34
ENDBRANCH  26  28
ENDBRANCH  25  26
ENDBRANCH   1  25
TORSDOF 17
