REMARK SMILES O=C(OCCOC(=O)c1cc(S(=O)(=O)Nc2cccc(Cl)c2)ccc1O)c1ccc(-c2c3nc(c(-c4cccc(S(=O)(=O)[O-])c4F)c4ccc([nH]4)c(-c4cccc(S(=O)(=O)[O-])c4F)c4nc(c(-c5cccc(S(=O)(=O)[O-])c5F)c5ccc2[nH]5)C=C4)C=C3)cc1
REMARK SMILES IDX 4 1 3 2 2 3 1 4 27 5 28 6 89 7 29 8 88 9 30 10 31 11 32 12
REMARK SMILES IDX 82 13 33 14 87 15 81 16 83 17 34 18 86 19 80 20 79 21 35 23
REMARK SMILES IDX 67 24 47 25 66 26 48 27 51 28 65 29 84 30 49 31 50 32 64 34
REMARK SMILES IDX 85 35 52 36 36 37 37 38 45 39 38 40 40 41 46 42 39 43 41 44
REMARK SMILES IDX 42 45 43 46 44 47 68 48 69 49 77 50 70 51 72 52 78 53 71 54
REMARK SMILES IDX 73 55 74 56 75 57 76 58 53 59 54 60 62 61 55 62 57 63 63 64
REMARK SMILES IDX 56 65 58 66 59 67 60 68 61 69 5 70 6 71 7 72 8 73 9 74 10 75
REMARK SMILES IDX 25 76 11 77 24 78 23 79 26 80 12 82 13 83 14 84 15 85 16 87
REMARK SMILES IDX 17 88 22 89 18 90 20 91 19 92 21 93
REMARK H PARENT 83 22 51 33 26 81 15 86
REMARK Flexibility Score: inf
ROOT
ATOM      1  C   UNL     1       4.053   1.008  -1.361  1.00  0.00     0.275 C 
ENDROOT
BRANCH   1   2
ATOM      2  O   UNL     1       3.061  -0.027  -1.253  1.00  0.00    -0.458 OA
BRANCH   2   3
ATOM      3  C   UNL     1       2.898  -1.007  -0.334  1.00  0.00     0.338 C 
ATOM      4  O   UNL     1       1.991  -1.819  -0.514  1.00  0.00    -0.246 OA
BRANCH   3   5
ATOM      5  C   UNL     1       3.696  -1.136   0.929  1.00  0.00     0.060 A 
ATOM      6  C   UNL     1       5.002  -0.683   1.132  1.00  0.00     0.016 A 
ATOM      7  C   UNL     1       3.075  -1.818   1.991  1.00  0.00     0.016 A 
ATOM      8  C   UNL     1       5.644  -0.844   2.366  1.00  0.00     0.010 A 
ATOM      9  C   UNL     1       3.709  -1.974   3.229  1.00  0.00     0.010 A 
ATOM     10  C   UNL     1       5.003  -1.486   3.426  1.00  0.00    -0.014 A 
BRANCH  10  11
ATOM     11  C   UNL     1       5.728  -1.741   4.692  1.00  0.00     0.031 A 
ATOM     12  C   UNL     1       6.205  -3.131   4.988  1.00  0.00     0.074 A 
ATOM     13  C   UNL     1       5.981  -0.739   5.556  1.00  0.00     0.049 A 
ATOM     14  N   UNL     1       6.931  -3.549   5.989  1.00  0.00    -0.248 NA
ATOM     15  C   UNL     1       5.861  -4.178   4.010  1.00  0.00     0.031 C 
ATOM     16  C   UNL     1       5.631   0.663   5.348  1.00  0.00     0.029 A 
ATOM     17  N   UNL     1       6.563  -0.747   6.798  1.00  0.00    -0.354 N 
ATOM     18  C   UNL     1       7.175  -4.892   5.737  1.00  0.00     0.074 A 
ATOM     19  C   UNL     1       6.457  -5.240   4.532  1.00  0.00     0.031 C 
ATOM     20  C   UNL     1       5.898   1.361   6.465  1.00  0.00     0.029 A 
ATOM     21  C   UNL     1       6.486   0.462   7.450  1.00  0.00     0.049 A 
ATOM     22  H   UNL     1       6.995  -1.542   7.186  1.00  0.00     0.167 HD
ATOM     23  C   UNL     1       7.977  -5.743   6.416  1.00  0.00     0.034 A 
ATOM     24  C   UNL     1       6.855   0.807   8.699  1.00  0.00     0.034 A 
ATOM     25  C   UNL     1       8.661  -5.397   7.630  1.00  0.00     0.049 A 
ATOM     26  C   UNL     1       7.630  -0.197   9.508  1.00  0.00     0.074 A 
ATOM     27  C   UNL     1       9.497  -6.179   8.404  1.00  0.00     0.029 A 
ATOM     28  N   UNL     1       8.563  -4.165   8.261  1.00  0.00    -0.354 N 
ATOM     29  N   UNL     1       7.980  -1.417   9.181  1.00  0.00    -0.248 NA
ATOM     30  C   UNL     1       8.135   0.246  10.815  1.00  0.00     0.031 C 
ATOM     31  C   UNL     1       9.888  -5.426   9.517  1.00  0.00     0.029 A 
ATOM     32  C   UNL     1       9.313  -4.167   9.423  1.00  0.00     0.049 A 
ATOM     33  H   UNL     1       8.037  -3.402   7.931  1.00  0.00     0.167 HD
ATOM     34  C   UNL     1       8.804  -1.864  10.205  1.00  0.00     0.074 A 
ATOM     35  C   UNL     1       8.896  -0.782  11.166  1.00  0.00     0.031 C 
ATOM     36  C   UNL     1       9.433  -3.058  10.335  1.00  0.00     0.034 A 
BRANCH  23  37
ATOM     37  C   UNL     1       8.188  -7.102   5.810  1.00  0.00     0.023 A 
ATOM     38  C   UNL     1       8.994  -7.217   4.657  1.00  0.00     0.012 A 
ATOM     39  C   UNL     1       7.595  -8.252   6.359  1.00  0.00     0.148 A 
ATOM     40  C   UNL     1       9.176  -8.452   4.037  1.00  0.00     0.002 A 
ATOM     41  C   UNL     1       7.809  -9.486   5.755  1.00  0.00     0.091 A 
ATOM     42  F   UNL     1       6.816  -8.115   7.440  1.00  0.00    -0.205 F 
ATOM     43  C   UNL     1       8.588  -9.586   4.589  1.00  0.00     0.022 A 
BRANCH  41  44
ATOM     44  S   UNL     1       7.137 -11.017   6.409  1.00  0.00     0.127 S 
ATOM     45  O   UNL     1       6.171 -11.382   5.373  1.00  0.00    -0.237 OA
ATOM     46  O   UNL     1       8.323 -11.872   6.464  1.00  0.00    -0.237 OA
ATOM     47  O   UNL     1       6.564 -10.684   7.705  1.00  0.00    -0.744 OA
ENDBRANCH  41  44
ENDBRANCH  23  37
BRANCH  24  48
ATOM     48  C   UNL     1       6.573   2.173   9.223  1.00  0.00     0.023 A 
ATOM     49  C   UNL     1       7.625   3.088   9.416  1.00  0.00     0.012 A 
ATOM     50  C   UNL     1       5.256   2.568   9.535  1.00  0.00     0.148 A 
ATOM     51  C   UNL     1       7.378   4.355   9.950  1.00  0.00     0.002 A 
ATOM     52  C   UNL     1       5.012   3.846  10.027  1.00  0.00     0.091 A 
ATOM     53  F   UNL     1       4.265   1.684   9.350  1.00  0.00    -0.205 F 
ATOM     54  C   UNL     1       6.073   4.736  10.251  1.00  0.00     0.022 A 
BRANCH  52  55
ATOM     55  S   UNL     1       3.347   4.449  10.329  1.00  0.00     0.127 S 
ATOM     56  O   UNL     1       3.259   4.378  11.783  1.00  0.00    -0.237 OA
ATOM     57  O   UNL     1       3.405   5.801   9.774  1.00  0.00    -0.237 OA
ATOM     58  O   UNL     1       2.473   3.544   9.592  1.00  0.00    -0.744 OA
ENDBRANCH  52  55
ENDBRANCH  24  48
BRANCH  36  59
ATOM     59  C   UNL     1      10.317  -3.244  11.536  1.00  0.00     0.023 A 
ATOM     60  C   UNL     1       9.743  -3.424  12.809  1.00  0.00     0.012 A 
ATOM     61  C   UNL     1      11.716  -3.314  11.387  1.00  0.00     0.148 A 
ATOM     62  C   UNL     1      10.552  -3.643  13.923  1.00  0.00     0.002 A 
ATOM     63  C   UNL     1      12.512  -3.583  12.492  1.00  0.00     0.091 A 
ATOM     64  F   UNL     1      12.242  -3.113  10.170  1.00  0.00    -0.205 F 
ATOM     65  C   UNL     1      11.933  -3.736  13.763  1.00  0.00     0.022 A 
BRANCH  63  66
ATOM     66  S   UNL     1      14.287  -3.821  12.357  1.00  0.00     0.127 S 
ATOM     67  O   UNL     1      14.797  -2.564  12.902  1.00  0.00    -0.237 OA
ATOM     68  O   UNL     1      14.510  -4.990  13.208  1.00  0.00    -0.237 OA
ATOM     69  O   UNL     1      14.552  -4.047  10.943  1.00  0.00    -0.744 OA
ENDBRANCH  63  66
ENDBRANCH  36  59
ENDBRANCH  10  11
ENDBRANCH   3   5
ENDBRANCH   2   3
ENDBRANCH   1   2
BRANCH   1  70
ATOM     70  C   UNL     1       3.764   2.255  -0.528  1.00  0.00     0.275 C 
BRANCH  70  71
ATOM     71  O   UNL     1       3.379   1.948   0.815  1.00  0.00    -0.458 OA
BRANCH  71  72
ATOM     72  C   UNL     1       2.060   2.094   1.115  1.00  0.00     0.342 C 
ATOM     73  O   UNL     1       1.163   2.398   0.347  1.00  0.00    -0.246 OA
BRANCH  72  74
ATOM     74  C   UNL     1       1.847   1.657   2.508  1.00  0.00     0.103 A 
ATOM     75  C   UNL     1       0.910   0.638   2.757  1.00  0.00     0.041 A 
ATOM     76  C   UNL     1       2.613   2.178   3.554  1.00  0.00     0.130 A 
ATOM     77  C   UNL     1       0.871   0.040   4.023  1.00  0.00     0.088 A 
ATOM     78  C   UNL     1       2.548   1.595   4.812  1.00  0.00     0.048 A 
ATOM     79  C   UNL     1       1.764   0.464   5.007  1.00  0.00     0.026 A 
BRANCH  76  80
ATOM     80  O   UNL     1       3.449   3.240   3.354  1.00  0.00    -0.507 OA
ATOM     81  H   UNL     1       3.502   3.642   2.510  1.00  0.00     0.293 HD
ENDBRANCH  76  80
BRANCH  77  82
ATOM     82  S   UNL     1      -0.185  -1.359   4.331  1.00  0.00     0.261 S 
ATOM     83  O   UNL     1      -1.132  -1.440   3.236  1.00  0.00    -0.201 OA
ATOM     84  O   UNL     1       0.661  -2.491   4.640  1.00  0.00    -0.201 OA
BRANCH  82  85
ATOM     85  N   UNL     1      -1.134  -1.018   5.713  1.00  0.00    -0.280 N 
ATOM     86  H   UNL     1      -2.116  -1.072   5.679  1.00  0.00     0.180 HD
BRANCH  85  87
ATOM     87  C   UNL     1      -0.457  -0.652   6.924  1.00  0.00     0.050 A 
ATOM     88  C   UNL     1      -0.395   0.707   7.245  1.00  0.00     0.027 A 
ATOM     89  C   UNL     1       0.223  -1.591   7.702  1.00  0.00     0.047 A 
ATOM     90  C   UNL     1       0.397   1.136   8.310  1.00  0.00     0.004 A 
ATOM     91  C   UNL     1       0.994  -1.153   8.782  1.00  0.00     0.043 A 
ATOM     92  C   UNL     1       1.098   0.205   9.076  1.00  0.00     0.020 A 
ATOM     93  Cl  UNL     1       1.847  -2.300   9.741  1.00  0.00    -0.084 Cl
ENDBRANCH  85  87
ENDBRANCH  82  85
ENDBRANCH  77  82
ENDBRANCH  72  74
ENDBRANCH  71  72
ENDBRANCH  70  71
ENDBRANCH   1  70
TORSDOF 18
