REMARK SMILES O=C(N[C@@H](Cc1ccccc1)C(=O)N[C@@H](CS)C(=O)N[C@@H](CO)C(=O)OCCOC(=O)c1ccc(-c2c3nc(c(-c4cccc(S(=O)(=O)[O-])c4F)c4ccc([nH]4)c(-c4cccc(S(=O)(=O)[O-])c4F)c4nc(c(-c5cccc(S(=O)(=O)[O-])c5F)c5ccc2[nH]5)C=C4)C=C3)cc1)c1ccc(F)cc1
REMARK SMILES IDX 26 1 24 2 25 3 21 4 20 5 18 6 19 7 15 9 14 10 12 11 13 12
REMARK SMILES IDX 4 14 3 15 1 16 2 17 95 19 96 20 101 21 97 22 100 23 98 24
REMARK SMILES IDX 99 25 5 26 6 27 7 28 11 29 8 30 10 31 9 32 16 33 17 34 22 36
REMARK SMILES IDX 23 37 27 39 28 40 29 41 30 42 31 43 32 44 33 45 94 46 34 47
REMARK SMILES IDX 93 48 35 49 36 50 37 51 87 52 38 53 92 54 86 55 88 56 39 57
REMARK SMILES IDX 91 58 85 59 84 60 40 62 72 63 52 64 71 65 53 66 56 67 70 68
REMARK SMILES IDX 89 69 54 70 55 71 69 73 90 74 57 75 41 76 42 77 50 78 43 79
REMARK SMILES IDX 45 80 51 81 44 82 46 83 47 84 48 85 49 86 73 87 74 88 82 89
REMARK SMILES IDX 75 90 77 91 83 92 76 93 78 94 79 95 80 96 81 97 58 98 59 99
REMARK SMILES IDX 67 100 60 101 62 102 68 103 61 104 63 105 64 106 65 107
REMARK SMILES IDX 66 108
REMARK H PARENT 20 8 14 13 3 18 17 35 23 38 88 61 56 72
REMARK Flexibility Score: inf
ROOT
ATOM      1  O   UNL     1       4.378   8.627  -1.980  1.00  0.00    -0.460 OA
ENDROOT
BRANCH   1   2
ATOM      2  C   UNL     1       4.755   8.258  -0.721  1.00  0.00     0.331 C 
ATOM      3  O   UNL     1       4.612   8.941   0.286  1.00  0.00    -0.250 OA
BRANCH   2   4
ATOM      4  C   UNL     1       5.503   6.910  -0.733  1.00  0.00     0.218 C 
BRANCH   4   5
ATOM      5  N   UNL     1       5.261   6.170  -1.982  1.00  0.00    -0.339 N 
ATOM      6  C   UNL     1       4.258   5.262  -2.175  1.00  0.00     0.244 C 
ATOM      7  O   UNL     1       3.446   5.527  -3.066  1.00  0.00    -0.273 OA
ATOM      8  H   UNL     1       5.869   6.343  -2.737  1.00  0.00     0.164 HD
BRANCH   6   9
ATOM      9  C   UNL     1       4.064   4.018  -1.270  1.00  0.00     0.181 C 
BRANCH   9  10
ATOM     10  N   UNL     1       5.289   3.473  -0.691  1.00  0.00    -0.342 N 
ATOM     11  C   UNL     1       5.706   2.189  -0.520  1.00  0.00     0.243 C 
ATOM     12  O   UNL     1       6.829   2.053  -0.017  1.00  0.00    -0.273 OA
ATOM     13  H   UNL     1       5.923   4.153  -0.368  1.00  0.00     0.164 HD
BRANCH  11  14
ATOM     14  C   UNL     1       4.956   0.946  -1.062  1.00  0.00     0.176 C 
BRANCH  14  15
ATOM     15  N   UNL     1       3.503   0.931  -0.882  1.00  0.00    -0.340 N 
ATOM     16  O   UNL     1       1.491   0.123  -0.347  1.00  0.00    -0.269 OA
ATOM     17  C   UNL     1       2.706   0.040  -0.206  1.00  0.00     0.251 C 
ATOM     18  H   UNL     1       3.023   1.675  -1.313  1.00  0.00     0.164 HD
BRANCH  17  19
ATOM     19  C   UNL     1       3.294  -1.057   0.597  1.00  0.00     0.040 A 
ATOM     20  C   UNL     1       4.267  -0.818   1.576  1.00  0.00     0.017 A 
ATOM     21  C   UNL     1       2.854  -2.365   0.348  1.00  0.00     0.017 A 
ATOM     22  C   UNL     1       4.866  -1.895   2.232  1.00  0.00     0.040 A 
ATOM     23  C   UNL     1       3.448  -3.438   1.016  1.00  0.00     0.040 A 
ATOM     24  C   UNL     1       4.462  -3.194   1.936  1.00  0.00     0.123 A 
ATOM     25  F   UNL     1       5.066  -4.224   2.543  1.00  0.00    -0.207 F 
ENDBRANCH  17  19
ENDBRANCH  14  15
BRANCH  14  26
ATOM     26  C   UNL     1       5.383   0.580  -2.497  1.00  0.00     0.070 C 
BRANCH  26  27
ATOM     27  C   UNL     1       5.063   1.589  -3.571  1.00  0.00    -0.045 A 
ATOM     28  C   UNL     1       6.018   2.547  -3.944  1.00  0.00     0.004 A 
ATOM     29  C   UNL     1       3.809   1.596  -4.198  1.00  0.00     0.004 A 
ATOM     30  C   UNL     1       5.719   3.500  -4.918  1.00  0.00     0.000 A 
ATOM     31  C   UNL     1       3.511   2.557  -5.165  1.00  0.00     0.000 A 
ATOM     32  C   UNL     1       4.465   3.507  -5.524  1.00  0.00     0.000 A 
ENDBRANCH  26  27
ENDBRANCH  14  26
ENDBRANCH  11  14
ENDBRANCH   9  10
BRANCH   9  33
ATOM     33  C   UNL     1       2.939   4.237  -0.252  1.00  0.00     0.101 C 
BRANCH  33  34
ATOM     34  S   UNL     1       3.482   4.672   1.438  1.00  0.00    -0.177 SA
ATOM     35  H   UNL     1       4.204   3.644   1.960  1.00  0.00     0.102 HD
ENDBRANCH  33  34
ENDBRANCH   9  33
ENDBRANCH   6   9
ENDBRANCH   4   5
BRANCH   4  36
ATOM     36  C   UNL     1       6.992   7.205  -0.537  1.00  0.00     0.193 C 
BRANCH  36  37
ATOM     37  O   UNL     1       7.579   7.747  -1.723  1.00  0.00    -0.394 OA
ATOM     38  H   UNL     1       7.498   7.106  -2.447  1.00  0.00     0.210 HD
ENDBRANCH  36  37
ENDBRANCH   4  36
ENDBRANCH   2   4
ENDBRANCH   1   2
BRANCH   1  39
ATOM     39  C   UNL     1       3.679   9.881  -2.114  1.00  0.00     0.274 C 
BRANCH  39  40
ATOM     40  C   UNL     1       2.299   9.620  -2.708  1.00  0.00     0.275 C 
BRANCH  40  41
ATOM     41  O   UNL     1       1.552   8.825  -1.774  1.00  0.00    -0.458 OA
BRANCH  41  42
ATOM     42  C   UNL     1       0.507   8.142  -2.305  1.00  0.00     0.338 C 
ATOM     43  O   UNL     1       0.106   8.232  -3.453  1.00  0.00    -0.246 OA
BRANCH  42  44
ATOM     44  C   UNL     1      -0.064   7.210  -1.293  1.00  0.00     0.060 A 
ATOM     45  C   UNL     1       0.585   6.946  -0.087  1.00  0.00     0.016 A 
ATOM     46  C   UNL     1      -1.234   6.509  -1.593  1.00  0.00     0.016 A 
ATOM     47  C   UNL     1       0.146   5.894   0.729  1.00  0.00     0.010 A 
ATOM     48  C   UNL     1      -1.710   5.512  -0.724  1.00  0.00     0.010 A 
ATOM     49  C   UNL     1      -0.984   5.124   0.416  1.00  0.00    -0.014 A 
BRANCH  49  50
ATOM     50  C   UNL     1      -1.343   3.871   1.178  1.00  0.00     0.031 A 
ATOM     51  C   UNL     1      -1.749   2.615   0.424  1.00  0.00     0.074 A 
ATOM     52  C   UNL     1      -1.299   3.783   2.527  1.00  0.00     0.049 A 
ATOM     53  N   UNL     1      -2.432   1.579   0.846  1.00  0.00    -0.248 NA
ATOM     54  C   UNL     1      -1.371   2.534  -0.997  1.00  0.00     0.031 C 
ATOM     55  C   UNL     1      -0.888   4.840   3.448  1.00  0.00     0.029 A 
ATOM     56  N   UNL     1      -1.612   2.730   3.364  1.00  0.00    -0.354 N 
ATOM     57  C   UNL     1      -2.682   0.801  -0.282  1.00  0.00     0.074 A 
ATOM     58  C   UNL     1      -2.043   1.463  -1.398  1.00  0.00     0.031 C 
ATOM     59  C   UNL     1      -0.909   4.371   4.704  1.00  0.00     0.029 A 
ATOM     60  C   UNL     1      -1.471   3.025   4.702  1.00  0.00     0.049 A 
ATOM     61  H   UNL     1      -1.908   1.851   3.035  1.00  0.00     0.167 HD
ATOM     62  C   UNL     1      -3.380  -0.356  -0.382  1.00  0.00     0.034 A 
ATOM     63  C   UNL     1      -1.813   2.338   5.813  1.00  0.00     0.034 A 
ATOM     64  C   UNL     1      -3.848  -1.124   0.743  1.00  0.00     0.049 A 
ATOM     65  C   UNL     1      -2.503   1.008   5.689  1.00  0.00     0.074 A 
ATOM     66  C   UNL     1      -4.547  -2.321   0.738  1.00  0.00     0.029 A 
ATOM     67  N   UNL     1      -3.602  -0.814   2.068  1.00  0.00    -0.354 N 
ATOM     68  N   UNL     1      -2.819   0.339   4.609  1.00  0.00    -0.248 NA
ATOM     69  C   UNL     1      -2.894   0.341   6.942  1.00  0.00     0.031 C 
ATOM     70  C   UNL     1      -4.705  -2.744   2.061  1.00  0.00     0.029 A 
ATOM     71  C   UNL     1      -4.105  -1.810   2.888  1.00  0.00     0.049 A 
ATOM     72  H   UNL     1      -3.138  -0.005   2.383  1.00  0.00     0.167 HD
ATOM     73  C   UNL     1      -3.435  -0.827   5.050  1.00  0.00     0.074 A 
ATOM     74  C   UNL     1      -3.412  -0.795   6.496  1.00  0.00     0.031 C 
ATOM     75  C   UNL     1      -4.006  -1.816   4.321  1.00  0.00     0.034 A 
BRANCH  62  76
ATOM     76  C   UNL     1      -3.676  -0.903  -1.754  1.00  0.00     0.023 A 
ATOM     77  C   UNL     1      -2.678  -1.578  -2.480  1.00  0.00     0.012 A 
ATOM     78  C   UNL     1      -4.991  -0.854  -2.263  1.00  0.00     0.148 A 
ATOM     79  C   UNL     1      -2.980  -2.184  -3.700  1.00  0.00     0.002 A 
ATOM     80  C   UNL     1      -5.295  -1.499  -3.456  1.00  0.00     0.091 A 
ATOM     81  F   UNL     1      -5.923  -0.190  -1.565  1.00  0.00    -0.205 F 
ATOM     82  C   UNL     1      -4.289  -2.159  -4.179  1.00  0.00     0.022 A 
BRANCH  80  83
ATOM     83  S   UNL     1      -6.971  -1.605  -4.099  1.00  0.00     0.127 S 
ATOM     84  O   UNL     1      -6.907  -0.696  -5.243  1.00  0.00    -0.237 OA
ATOM     85  O   UNL     1      -7.079  -3.021  -4.453  1.00  0.00    -0.237 OA
ATOM     86  O   UNL     1      -7.846  -1.185  -3.014  1.00  0.00    -0.744 OA
ENDBRANCH  80  83
ENDBRANCH  62  76
BRANCH  63  87
ATOM     87  C   UNL     1      -1.528   2.918   7.159  1.00  0.00     0.023 A 
ATOM     88  C   UNL     1      -0.587   2.296   8.002  1.00  0.00     0.012 A 
ATOM     89  C   UNL     1      -2.152   4.103   7.593  1.00  0.00     0.148 A 
ATOM     90  C   UNL     1      -0.284   2.837   9.253  1.00  0.00     0.002 A 
ATOM     91  C   UNL     1      -1.784   4.681   8.801  1.00  0.00     0.091 A 
ATOM     92  F   UNL     1      -3.082   4.664   6.806  1.00  0.00    -0.205 F 
ATOM     93  C   UNL     1      -0.866   4.040   9.644  1.00  0.00     0.022 A 
BRANCH  91  94
ATOM     94  S   UNL     1      -2.352   6.327   9.242  1.00  0.00     0.127 S 
ATOM     95  O   UNL     1      -3.555   6.038  10.015  1.00  0.00    -0.237 OA
ATOM     96  O   UNL     1      -1.230   6.852  10.022  1.00  0.00    -0.237 OA
ATOM     97  O   UNL     1      -2.547   7.002   7.964  1.00  0.00    -0.744 OA
ENDBRANCH  91  94
ENDBRANCH  63  87
BRANCH  75  98
ATOM     98  C   UNL     1      -4.615  -2.972   5.066  1.00  0.00     0.023 A 
ATOM     99  C   UNL     1      -5.860  -2.808   5.704  1.00  0.00     0.012 A 
ATOM    100  C   UNL     1      -3.985  -4.231   5.091  1.00  0.00     0.148 A 
ATOM    101  C   UNL     1      -6.454  -3.871   6.383  1.00  0.00     0.002 A 
ATOM    102  C   UNL     1      -4.599  -5.296   5.740  1.00  0.00     0.091 A 
ATOM    103  F   UNL     1      -2.789  -4.363   4.498  1.00  0.00    -0.205 F 
ATOM    104  C   UNL     1      -5.829  -5.116   6.394  1.00  0.00     0.022 A 
BRANCH 102 105
ATOM    105  S   UNL     1      -3.890  -6.947   5.734  1.00  0.00     0.127 S 
ATOM    106  O   UNL     1      -3.216  -6.989   7.029  1.00  0.00    -0.237 OA
ATOM    107  O   UNL     1      -5.074  -7.802   5.636  1.00  0.00    -0.237 OA
ATOM    108  O   UNL     1      -3.022  -6.995   4.565  1.00  0.00    -0.744 OA
ENDBRANCH 102 105
ENDBRANCH  75  98
ENDBRANCH  49  50
ENDBRANCH  42  44
ENDBRANCH  41  42
ENDBRANCH  40  41
ENDBRANCH  39  40
ENDBRANCH   1  39
TORSDOF 26
