REMARK SMILES COc1ccc([C@@H]2C(C#N)=C(N)N3C(=O)[C@H](CC(=O)OCCOC(=O)c4ccc(-c5c6nc(c(-c7cccc(S(=O)(=O)[O-])c7F)c7ccc([nH]7)c(-c7cccc(S(=O)(=O)[O-])c7F)c7nc(c(-c8cccc(S(=O)(=O)[O-])c8F)c8ccc5[nH]8)C=C7)C=C6)cc4)SC3=C2C#N)cc1
REMARK SMILES IDX 21 1 20 2 18 3 19 4 17 5 16 6 7 7 8 8 91 9 11 10 90 11 13 12
REMARK SMILES IDX 89 13 14 14 15 15 6 16 3 17 4 18 95 19 5 20 94 21 2 22 1 23
REMARK SMILES IDX 9 24 10 25 92 26 93 27 12 28 22 31 23 32 24 33 25 34 26 35
REMARK SMILES IDX 27 36 88 37 28 38 87 39 29 40 30 41 31 42 81 43 32 44 86 45
REMARK SMILES IDX 80 46 82 47 33 48 85 49 79 50 78 51 34 53 66 54 46 55 65 56
REMARK SMILES IDX 47 57 50 58 64 59 83 60 48 61 49 62 63 64 84 65 51 66 35 67
REMARK SMILES IDX 36 68 44 69 37 70 39 71 45 72 38 73 40 74 41 75 42 76 43 77
REMARK SMILES IDX 67 78 68 79 76 80 69 81 71 82 77 83 70 84 72 85 73 86 74 87
REMARK SMILES IDX 75 88 52 89 53 90 61 91 54 92 56 93 62 94 55 95 57 96 58 97
REMARK SMILES IDX 59 98 60 99
REMARK H PARENT 12 29 12 30 82 52 50 63
REMARK Flexibility Score: inf
ROOT
ATOM      1  C   UNL     1       7.856  11.110   6.095  1.00  0.00     0.274 C 
ENDROOT
BRANCH   1   2
ATOM      2  O   UNL     1       7.170   9.873   5.816  1.00  0.00    -0.462 OA
BRANCH   2   3
ATOM      3  C   UNL     1       7.353   8.839   6.670  1.00  0.00     0.307 C 
ATOM      4  O   UNL     1       8.062   8.875   7.667  1.00  0.00    -0.252 OA
BRANCH   3   5
ATOM      5  C   UNL     1       6.641   7.576   6.228  1.00  0.00     0.147 C 
BRANCH   5   6
ATOM      6  C   UNL     1       5.302   7.845   5.555  1.00  0.00     0.154 C 
ATOM      7  C   UNL     1       2.198   6.109   2.079  1.00  0.00     0.107 C 
ATOM      8  C   UNL     1       3.317   6.832   1.357  1.00  0.00     0.083 C 
ATOM      9  C   UNL     1       2.524   5.928   3.537  1.00  0.00     0.073 C 
ATOM     10  C   UNL     1       4.338   7.463   1.968  1.00  0.00     0.126 C 
ATOM     11  C   UNL     1       3.577   6.583   4.072  1.00  0.00     0.099 C 
ATOM     12  N   UNL     1       4.433   7.403   3.354  1.00  0.00    -0.258 N 
ATOM     13  S   UNL     1       4.114   6.450   5.717  1.00  0.00    -0.093 SA
ATOM     14  C   UNL     1       5.469   8.026   4.061  1.00  0.00     0.247 C 
ATOM     15  O   UNL     1       6.392   8.658   3.549  1.00  0.00    -0.273 OA
BRANCH   7  16
ATOM     16  C   UNL     1       1.783   4.800   1.406  1.00  0.00    -0.034 A 
ATOM     17  C   UNL     1       0.928   2.376   0.251  1.00  0.00     0.118 A 
ATOM     18  C   UNL     1       0.058   3.462   0.335  1.00  0.00     0.047 A 
ATOM     19  C   UNL     1       2.236   2.508   0.716  1.00  0.00     0.047 A 
ATOM     20  C   UNL     1       0.475   4.661   0.914  1.00  0.00     0.008 A 
ATOM     21  C   UNL     1       2.663   3.712   1.289  1.00  0.00     0.008 A 
BRANCH  17  22
ATOM     22  O   UNL     1       0.401   1.254  -0.327  1.00  0.00    -0.497 OA
ATOM     23  C   UNL     1       0.999   0.023   0.064  1.00  0.00     0.278 C 
ENDBRANCH  17  22
ENDBRANCH   7  16
BRANCH   8  24
ATOM     24  C   UNL     1       3.329   6.751  -0.161  1.00  0.00     0.100 C 
ATOM     25  N   UNL     1       3.338   6.683  -1.420  1.00  0.00    -0.193 NA
ENDBRANCH   8  24
BRANCH   9  26
ATOM     26  C   UNL     1       1.756   4.889   4.339  1.00  0.00     0.098 C 
ATOM     27  N   UNL     1       1.120   4.027   5.004  1.00  0.00    -0.193 NA
ENDBRANCH   9  26
BRANCH  10  28
ATOM     28  N   UNL     1       5.291   8.138   1.248  1.00  0.00    -0.384 N 
ATOM     29  H   UNL     1       5.226   8.182   0.266  1.00  0.00     0.158 HD
ATOM     30  H   UNL     1       6.039   8.578   1.712  1.00  0.00     0.158 HD
ENDBRANCH  10  28
ENDBRANCH   5   6
ENDBRANCH   3   5
ENDBRANCH   2   3
ENDBRANCH   1   2
BRANCH   1  31
ATOM     31  C   UNL     1       6.857  12.201   6.480  1.00  0.00     0.275 C 
BRANCH  31  32
ATOM     32  O   UNL     1       6.249  11.901   7.748  1.00  0.00    -0.458 OA
BRANCH  32  33
ATOM     33  C   UNL     1       5.081  11.221   7.676  1.00  0.00     0.338 C 
ATOM     34  O   UNL     1       4.456  10.929   6.671  1.00  0.00    -0.246 OA
BRANCH  33  35
ATOM     35  C   UNL     1       4.726  10.725   9.013  1.00  0.00     0.060 A 
ATOM     36  C   UNL     1       4.609   9.343   9.196  1.00  0.00     0.016 A 
ATOM     37  C   UNL     1       4.445  11.609  10.054  1.00  0.00     0.016 A 
ATOM     38  C   UNL     1       4.187   8.838  10.423  1.00  0.00     0.010 A 
ATOM     39  C   UNL     1       4.025  11.100  11.285  1.00  0.00     0.010 A 
ATOM     40  C   UNL     1       3.874   9.715  11.469  1.00  0.00    -0.014 A 
BRANCH  40  41
ATOM     41  C   UNL     1       3.330   9.181  12.738  1.00  0.00     0.031 A 
ATOM     42  C   UNL     1       1.865   9.326  13.039  1.00  0.00     0.074 A 
ATOM     43  C   UNL     1       4.149   8.576  13.617  1.00  0.00     0.049 A 
ATOM     44  N   UNL     1       1.202   8.963  14.104  1.00  0.00    -0.248 NA
ATOM     45  C   UNL     1       1.039   9.972  12.005  1.00  0.00     0.031 C 
ATOM     46  C   UNL     1       5.588   8.384  13.435  1.00  0.00     0.029 A 
ATOM     47  N   UNL     1       3.890   8.031  14.848  1.00  0.00    -0.354 N 
ATOM     48  C   UNL     1      -0.111   9.361  13.887  1.00  0.00     0.074 A 
ATOM     49  C   UNL     1      -0.150  10.003  12.591  1.00  0.00     0.031 C 
ATOM     50  C   UNL     1       6.089   7.780  14.525  1.00  0.00     0.029 A 
ATOM     51  C   UNL     1       5.013   7.564  15.489  1.00  0.00     0.049 A 
ATOM     52  H   UNL     1       2.987   7.980  15.237  1.00  0.00     0.167 HD
ATOM     53  C   UNL     1      -1.190   9.191  14.688  1.00  0.00     0.034 A 
ATOM     54  C   UNL     1       5.157   7.032  16.718  1.00  0.00     0.034 A 
ATOM     55  C   UNL     1      -1.154   8.522  15.960  1.00  0.00     0.049 A 
ATOM     56  C   UNL     1       3.938   6.844  17.582  1.00  0.00     0.074 A 
ATOM     57  C   UNL     1      -2.200   8.267  16.829  1.00  0.00     0.029 A 
ATOM     58  N   UNL     1      -0.011   8.000  16.547  1.00  0.00    -0.354 N 
ATOM     59  N   UNL     1       2.686   7.127  17.315  1.00  0.00    -0.248 NA
ATOM     60  C   UNL     1       4.147   6.233  18.902  1.00  0.00     0.031 C 
ATOM     61  C   UNL     1      -1.688   7.596  17.945  1.00  0.00     0.029 A 
ATOM     62  C   UNL     1      -0.325   7.423  17.766  1.00  0.00     0.049 A 
ATOM     63  H   UNL     1       0.891   8.034  16.154  1.00  0.00     0.167 HD
ATOM     64  C   UNL     1       1.954   6.698  18.417  1.00  0.00     0.074 A 
ATOM     65  C   UNL     1       2.902   6.116  19.345  1.00  0.00     0.031 C 
ATOM     66  C   UNL     1       0.622   6.793  18.649  1.00  0.00     0.034 A 
BRANCH  53  67
ATOM     67  C   UNL     1      -2.514   9.702  14.189  1.00  0.00     0.023 A 
ATOM     68  C   UNL     1      -3.195   8.989  13.182  1.00  0.00     0.012 A 
ATOM     69  C   UNL     1      -3.107  10.851  14.746  1.00  0.00     0.148 A 
ATOM     70  C   UNL     1      -4.436   9.426  12.719  1.00  0.00     0.002 A 
ATOM     71  C   UNL     1      -4.361  11.260  14.304  1.00  0.00     0.091 A 
ATOM     72  F   UNL     1      -2.431  11.532  15.682  1.00  0.00    -0.205 F 
ATOM     73  C   UNL     1      -5.022  10.554  13.286  1.00  0.00     0.022 A 
BRANCH  71  74
ATOM     74  S   UNL     1      -5.225  12.662  15.022  1.00  0.00     0.127 S 
ATOM     75  O   UNL     1      -5.056  13.676  13.983  1.00  0.00    -0.237 OA
ATOM     76  O   UNL     1      -6.589  12.152  15.159  1.00  0.00    -0.237 OA
ATOM     77  O   UNL     1      -4.554  12.938  16.285  1.00  0.00    -0.744 OA
ENDBRANCH  71  74
ENDBRANCH  53  67
BRANCH  54  78
ATOM     78  C   UNL     1       6.500   6.586  17.180  1.00  0.00     0.023 A 
ATOM     79  C   UNL     1       6.763   5.208  17.312  1.00  0.00     0.012 A 
ATOM     80  C   UNL     1       7.526   7.510  17.459  1.00  0.00     0.148 A 
ATOM     81  C   UNL     1       8.013   4.760  17.738  1.00  0.00     0.002 A 
ATOM     82  C   UNL     1       8.785   7.055  17.832  1.00  0.00     0.091 A 
ATOM     83  F   UNL     1       7.251   8.818  17.349  1.00  0.00    -0.205 F 
ATOM     84  C   UNL     1       9.027   5.682  17.986  1.00  0.00     0.022 A 
BRANCH  82  85
ATOM     85  S   UNL     1      10.179   8.169  18.044  1.00  0.00     0.127 S 
ATOM     86  O   UNL     1      10.285   8.243  19.498  1.00  0.00    -0.237 OA
ATOM     87  O   UNL     1      11.261   7.438  17.383  1.00  0.00    -0.237 OA
ATOM     88  O   UNL     1       9.794   9.402  17.369  1.00  0.00    -0.744 OA
ENDBRANCH  82  85
ENDBRANCH  54  78
BRANCH  66  89
ATOM     89  C   UNL     1       0.099   6.232  19.945  1.00  0.00     0.023 A 
ATOM     90  C   UNL     1       0.331   6.927  21.148  1.00  0.00     0.012 A 
ATOM     91  C   UNL     1      -0.676   5.056  19.964  1.00  0.00     0.148 A 
ATOM     92  C   UNL     1      -0.175   6.444  22.355  1.00  0.00     0.002 A 
ATOM     93  C   UNL     1      -1.213   4.604  21.164  1.00  0.00     0.091 A 
ATOM     94  F   UNL     1      -0.867   4.394  18.813  1.00  0.00    -0.205 F 
ATOM     95  C   UNL     1      -0.956   5.291  22.361  1.00  0.00     0.022 A 
BRANCH  93  96
ATOM     96  S   UNL     1      -2.302   3.177  21.239  1.00  0.00     0.127 S 
ATOM     97  O   UNL     1      -1.387   2.123  21.672  1.00  0.00    -0.237 OA
ATOM     98  O   UNL     1      -3.286   3.581  22.245  1.00  0.00    -0.237 OA
ATOM     99  O   UNL     1      -2.848   3.030  19.896  1.00  0.00    -0.744 OA
ENDBRANCH  93  96
ENDBRANCH  66  89
ENDBRANCH  40  41
ENDBRANCH  33  35
ENDBRANCH  32  33
ENDBRANCH  31  32
ENDBRANCH   1  31
TORSDOF 20
