REMARK SMILES CC(=O)Nc1cccc(NC(=O)N[C@H](C(=O)OCCOC(=O)c2ccc(-c3c4nc(c(-c5cccc(S(=O)(=O)[O-])c5F)c5ccc([nH]5)c(-c5cccc(S(=O)(=O)[O-])c5F)c5nc(c(-c6cccc(S(=O)(=O)[O-])c6F)c6ccc3[nH]6)C=C5)C=C4)cc2)C(C)C)c1
REMARK SMILES IDX 18 1 17 2 15 3 16 4 14 5 13 6 10 7 11 8 12 10 9 12 5 13 6 14
REMARK SMILES IDX 89 15 7 16 8 17 4 18 1 19 2 20 3 21 86 23 87 24 88 25 19 26
REMARK SMILES IDX 20 27 21 28 22 29 23 30 24 31 85 32 25 33 84 34 26 35 27 36
REMARK SMILES IDX 28 37 78 38 29 39 83 40 77 41 79 42 30 43 82 44 76 45 75 46
REMARK SMILES IDX 31 48 63 49 43 50 62 51 44 52 47 53 61 54 80 55 45 56 46 57
REMARK SMILES IDX 60 59 81 60 48 61 32 62 33 63 41 64 34 65 36 66 42 67 35 68
REMARK SMILES IDX 37 69 38 70 39 71 40 72 64 73 65 74 73 75 66 76 68 77 74 78
REMARK SMILES IDX 67 79 69 80 70 81 71 82 72 83 49 84 50 85 58 86 51 87 53 88
REMARK SMILES IDX 59 89 52 90 54 91 55 92 56 93 57 94
REMARK H PARENT 10 9 13 11 4 22 79 47 47 58
REMARK Flexibility Score: inf
ROOT
ATOM      1  C   UNL     1       8.292   3.370   3.922  1.00  0.00     0.274 C 
ENDROOT
BRANCH   1   2
ATOM      2  O   UNL     1       7.221   4.315   3.751  1.00  0.00    -0.461 OA
BRANCH   2   3
ATOM      3  C   UNL     1       6.014   3.835   3.344  1.00  0.00     0.329 C 
ATOM      4  O   UNL     1       5.787   2.656   3.090  1.00  0.00    -0.250 OA
BRANCH   3   5
ATOM      5  C   UNL     1       4.928   4.934   3.311  1.00  0.00     0.196 C 
BRANCH   5   6
ATOM      6  N   UNL     1       3.933   4.642   4.356  1.00  0.00    -0.324 N 
ATOM      7  N   UNL     1       1.843   5.330   3.462  1.00  0.00    -0.308 N 
ATOM      8  C   UNL     1       2.604   4.848   4.474  1.00  0.00     0.319 C 
ATOM      9  H   UNL     1       1.037   5.814   3.753  1.00  0.00     0.171 HD
ATOM     10  O   UNL     1       2.088   4.723   5.586  1.00  0.00    -0.248 OA
ATOM     11  H   UNL     1       4.323   4.198   5.143  1.00  0.00     0.166 HD
BRANCH   7  12
ATOM     12  C   UNL     1       2.006   5.258   2.076  1.00  0.00     0.044 A 
ATOM     13  C   UNL     1       2.116   6.476  -0.013  1.00  0.00     0.043 A 
ATOM     14  C   UNL     1       2.652   5.328  -0.615  1.00  0.00     0.026 A 
ATOM     15  C   UNL     1       1.732   6.408   1.324  1.00  0.00     0.052 A 
ATOM     16  C   UNL     1       2.808   4.141   0.104  1.00  0.00     0.004 A 
ATOM     17  C   UNL     1       2.474   4.102   1.453  1.00  0.00     0.026 A 
BRANCH  13  18
ATOM     18  N   UNL     1       2.013   7.618  -0.829  1.00  0.00    -0.326 N 
ATOM     19  C   UNL     1       1.872   9.508   0.809  1.00  0.00     0.114 C 
ATOM     20  C   UNL     1       1.816   8.943  -0.581  1.00  0.00     0.221 C 
ATOM     21  O   UNL     1       1.649   9.696  -1.546  1.00  0.00    -0.275 OA
ATOM     22  H   UNL     1       2.103   7.415  -1.788  1.00  0.00     0.169 HD
ENDBRANCH  13  18
ENDBRANCH   7  12
ENDBRANCH   5   6
BRANCH   5  23
ATOM     23  C   UNL     1       5.498   6.375   3.334  1.00  0.00     0.017 C 
ATOM     24  C   UNL     1       6.249   6.638   2.014  1.00  0.00     0.010 C 
ATOM     25  C   UNL     1       4.442   7.468   3.503  1.00  0.00     0.010 C 
ENDBRANCH   5  23
ENDBRANCH   3   5
ENDBRANCH   2   3
ENDBRANCH   1   2
BRANCH   1  26
ATOM     26  C   UNL     1       8.466   3.010   5.398  1.00  0.00     0.275 C 
BRANCH  26  27
ATOM     27  O   UNL     1       7.537   1.993   5.802  1.00  0.00    -0.458 OA
BRANCH  27  28
ATOM     28  C   UNL     1       6.300   2.421   6.148  1.00  0.00     0.338 C 
ATOM     29  O   UNL     1       5.904   3.573   6.212  1.00  0.00    -0.246 OA
BRANCH  28  30
ATOM     30  C   UNL     1       5.429   1.249   6.321  1.00  0.00     0.060 A 
ATOM     31  C   UNL     1       4.210   1.210   5.635  1.00  0.00     0.016 A 
ATOM     32  C   UNL     1       5.799   0.217   7.184  1.00  0.00     0.016 A 
ATOM     33  C   UNL     1       3.334   0.149   5.837  1.00  0.00     0.010 A 
ATOM     34  C   UNL     1       4.927  -0.851   7.375  1.00  0.00     0.010 A 
ATOM     35  C   UNL     1       3.682  -0.877   6.722  1.00  0.00    -0.014 A 
BRANCH  35  36
ATOM     36  C   UNL     1       2.725  -1.957   7.041  1.00  0.00     0.031 A 
ATOM     37  C   UNL     1       2.082  -1.978   8.397  1.00  0.00     0.074 A 
ATOM     38  C   UNL     1       2.501  -2.942   6.153  1.00  0.00     0.049 A 
ATOM     39  N   UNL     1       1.356  -2.911   8.952  1.00  0.00    -0.248 NA
ATOM     40  C   UNL     1       2.304  -0.797   9.248  1.00  0.00     0.031 C 
ATOM     41  C   UNL     1       3.074  -3.014   4.809  1.00  0.00     0.029 A 
ATOM     42  N   UNL     1       1.766  -4.093   6.270  1.00  0.00    -0.354 N 
ATOM     43  C   UNL     1       1.075  -2.455  10.234  1.00  0.00     0.074 A 
ATOM     44  C   UNL     1       1.713  -1.164  10.376  1.00  0.00     0.031 C 
ATOM     45  C   UNL     1       2.700  -4.170   4.238  1.00  0.00     0.029 A 
ATOM     46  C   UNL     1       1.897  -4.933   5.190  1.00  0.00     0.049 A 
ATOM     47  H   UNL     1       1.200  -4.297   7.050  1.00  0.00     0.167 HD
ATOM     48  C   UNL     1       0.342  -3.056  11.199  1.00  0.00     0.034 A 
ATOM     49  C   UNL     1       1.452  -6.191   5.010  1.00  0.00     0.034 A 
ATOM     50  C   UNL     1      -0.311  -4.326  11.031  1.00  0.00     0.049 A 
ATOM     51  C   UNL     1       0.647  -6.842   6.104  1.00  0.00     0.074 A 
ATOM     52  C   UNL     1      -1.123  -5.001  11.925  1.00  0.00     0.029 A 
ATOM     53  N   UNL     1      -0.220  -5.117   9.896  1.00  0.00    -0.354 N 
ATOM     54  N   UNL     1       0.301  -6.360   7.274  1.00  0.00    -0.248 NA
ATOM     55  C   UNL     1       0.145  -8.198   5.842  1.00  0.00     0.031 C 
ATOM     56  C   UNL     1      -1.500  -6.215  11.340  1.00  0.00     0.029 A 
ATOM     57  C   UNL     1      -0.953  -6.279  10.068  1.00  0.00     0.049 A 
ATOM     58  H   UNL     1       0.291  -4.887   9.087  1.00  0.00     0.167 HD
ATOM     59  C   UNL     1      -0.493  -7.334   7.869  1.00  0.00     0.074 A 
ATOM     60  C   UNL     1      -0.588  -8.427   6.923  1.00  0.00     0.031 C 
ATOM     61  C   UNL     1      -1.083  -7.329   9.090  1.00  0.00     0.034 A 
BRANCH  48  62
ATOM     62  C   UNL     1       0.193  -2.340  12.515  1.00  0.00     0.023 A 
ATOM     63  C   UNL     1      -0.607  -1.182  12.597  1.00  0.00     0.012 A 
ATOM     64  C   UNL     1       0.804  -2.841  13.681  1.00  0.00     0.148 A 
ATOM     65  C   UNL     1      -0.767  -0.514  13.810  1.00  0.00     0.002 A 
ATOM     66  C   UNL     1       0.601  -2.197  14.896  1.00  0.00     0.091 A 
ATOM     67  F   UNL     1       1.580  -3.929  13.580  1.00  0.00    -0.205 F 
ATOM     68  C   UNL     1      -0.173  -1.027  14.960  1.00  0.00     0.022 A 
BRANCH  66  69
ATOM     69  S   UNL     1       1.257  -2.823  16.447  1.00  0.00     0.127 S 
ATOM     70  O   UNL     1       2.283  -1.829  16.757  1.00  0.00    -0.237 OA
ATOM     71  O   UNL     1       0.082  -2.779  17.318  1.00  0.00    -0.237 OA
ATOM     72  O   UNL     1       1.752  -4.163  16.163  1.00  0.00    -0.744 OA
ENDBRANCH  66  69
ENDBRANCH  48  62
BRANCH  49  73
ATOM     73  C   UNL     1       1.730  -6.904   3.732  1.00  0.00     0.023 A 
ATOM     74  C   UNL     1       0.669  -7.165   2.843  1.00  0.00     0.012 A 
ATOM     75  C   UNL     1       3.034  -7.303   3.381  1.00  0.00     0.148 A 
ATOM     76  C   UNL     1       0.896  -7.839   1.644  1.00  0.00     0.002 A 
ATOM     77  C   UNL     1       3.262  -7.925   2.160  1.00  0.00     0.091 A 
ATOM     78  F   UNL     1       4.029  -7.055   4.245  1.00  0.00    -0.205 F 
ATOM     79  C   UNL     1       2.192  -8.211   1.298  1.00  0.00     0.022 A 
BRANCH  77  80
ATOM     80  S   UNL     1       4.912  -8.328   1.573  1.00  0.00     0.127 S 
ATOM     81  O   UNL     1       4.899  -9.787   1.621  1.00  0.00    -0.237 OA
ATOM     82  O   UNL     1       4.900  -7.755   0.226  1.00  0.00    -0.237 OA
ATOM     83  O   UNL     1       5.830  -7.674   2.495  1.00  0.00    -0.744 OA
ENDBRANCH  77  80
ENDBRANCH  49  73
BRANCH  61  84
ATOM     84  C   UNL     1      -1.933  -8.517   9.461  1.00  0.00     0.023 A 
ATOM     85  C   UNL     1      -1.327  -9.750   9.770  1.00  0.00     0.012 A 
ATOM     86  C   UNL     1      -3.331  -8.382   9.581  1.00  0.00     0.148 A 
ATOM     87  C   UNL     1      -2.103 -10.841  10.162  1.00  0.00     0.002 A 
ATOM     88  C   UNL     1      -4.091  -9.457  10.023  1.00  0.00     0.091 A 
ATOM     89  F   UNL     1      -3.889  -7.204   9.265  1.00  0.00    -0.205 F 
ATOM     90  C   UNL     1      -3.481 -10.691  10.300  1.00  0.00     0.022 A 
BRANCH  88  91
ATOM     91  S   UNL     1      -5.857  -9.327  10.327  1.00  0.00     0.127 S 
ATOM     92  O   UNL     1      -6.408 -10.114   9.225  1.00  0.00    -0.237 OA
ATOM     93  O   UNL     1      -5.990  -9.948  11.646  1.00  0.00    -0.237 OA
ATOM     94  O   UNL     1      -6.168  -7.905  10.295  1.00  0.00    -0.744 OA
ENDBRANCH  88  91
ENDBRANCH  61  84
ENDBRANCH  35  36
ENDBRANCH  28  30
ENDBRANCH  27  28
ENDBRANCH  26  27
ENDBRANCH   1  26
TORSDOF 18
