REMARK SMILES O=C(CCCCCn1cc(Cl)c(I)n1)OCCOC(=O)c1ccc(-c2c3nc(c(-c4cccc(S(=O)(=O)[O-])c4F)c4ccc([nH]4)c(-c4cccc(S(=O)(=O)[O-])c4F)c4nc(c(-c5cccc(S(=O)(=O)[O-])c5F)c5ccc2[nH]5)C=C4)C=C3)cc1
REMARK SMILES IDX 16 1 15 2 2 3 1 4 3 5 4 6 5 7 6 8 7 9 8 10 9 11 14 12 10 13
REMARK SMILES IDX 12 14 11 15 13 16 17 17 18 18 19 19 20 20 21 21 22 22 83 23
REMARK SMILES IDX 23 24 82 25 24 26 25 27 26 28 76 29 27 30 81 31 75 32 77 33
REMARK SMILES IDX 28 34 80 35 74 36 73 37 29 39 61 40 41 41 60 42 42 43 45 44
REMARK SMILES IDX 59 45 78 46 43 47 44 48 58 50 79 51 46 52 30 53 31 54 39 55
REMARK SMILES IDX 32 56 34 57 40 58 33 59 35 60 36 61 37 62 38 63 62 64 63 65
REMARK SMILES IDX 71 66 64 67 66 68 72 69 65 70 67 71 68 72 69 73 70 74 47 75
REMARK SMILES IDX 48 76 56 77 49 78 51 79 57 80 50 81 52 82 53 83 54 84 55 85
REMARK H PARENT 77 38 45 49
REMARK Flexibility Score: inf
ROOT
ATOM      1  C   UNL     1       3.800   1.804   0.095  1.00  0.00     0.274 C 
ENDROOT
BRANCH   1   2
ATOM      2  O   UNL     1       2.516   1.313  -0.337  1.00  0.00    -0.462 OA
BRANCH   2   3
ATOM      3  C   UNL     1       2.245   0.134  -0.945  1.00  0.00     0.305 C 
ATOM      4  O   UNL     1       1.289   0.059  -1.717  1.00  0.00    -0.252 OA
BRANCH   3   5
ATOM      5  C   UNL     1       3.050  -1.109  -0.625  1.00  0.00     0.123 C 
BRANCH   5   6
ATOM      6  C   UNL     1       4.001  -1.586  -1.717  1.00  0.00     0.012 C 
BRANCH   6   7
ATOM      7  C   UNL     1       5.297  -0.785  -1.834  1.00  0.00     0.002 C 
BRANCH   7   8
ATOM      8  C   UNL     1       6.155  -0.715  -0.554  1.00  0.00     0.024 C 
BRANCH   8   9
ATOM      9  C   UNL     1       7.039  -1.931  -0.287  1.00  0.00     0.144 C 
BRANCH   9  10
ATOM     10  N   UNL     1       7.993  -2.166  -1.353  1.00  0.00    -0.270 N 
ATOM     11  C   UNL     1       8.784  -1.229  -1.960  1.00  0.00     0.130 A 
ATOM     12  N   UNL     1       8.038  -3.370  -1.947  1.00  0.00    -0.165 NA
ATOM     13  C   UNL     1       9.328  -1.849  -3.058  1.00  0.00     0.092 A 
ATOM     14  C   UNL     1       8.865  -3.179  -2.978  1.00  0.00     0.141 A 
ATOM     15  Cl  UNL     1      10.305  -1.125  -4.238  1.00  0.00    -0.080 Cl
ATOM     16  I   UNL     1       9.312  -4.688  -4.276  1.00  0.00    -0.018 I 
ENDBRANCH   9  10
ENDBRANCH   8   9
ENDBRANCH   7   8
ENDBRANCH   6   7
ENDBRANCH   5   6
ENDBRANCH   3   5
ENDBRANCH   2   3
ENDBRANCH   1   2
BRANCH   1  17
ATOM     17  C   UNL     1       4.012   1.774   1.599  1.00  0.00     0.275 C 
BRANCH  17  18
ATOM     18  O   UNL     1       3.997   0.446   2.087  1.00  0.00    -0.458 OA
BRANCH  18  19
ATOM     19  C   UNL     1       2.780  -0.053   2.422  1.00  0.00     0.338 C 
ATOM     20  O   UNL     1       1.701   0.455   2.243  1.00  0.00    -0.246 OA
BRANCH  19  21
ATOM     21  C   UNL     1       3.034  -1.293   3.171  1.00  0.00     0.060 A 
ATOM     22  C   UNL     1       1.977  -1.787   3.933  1.00  0.00     0.016 A 
ATOM     23  C   UNL     1       4.349  -1.767   3.314  1.00  0.00     0.016 A 
ATOM     24  C   UNL     1       2.283  -2.577   5.015  1.00  0.00     0.010 A 
ATOM     25  C   UNL     1       4.657  -2.524   4.411  1.00  0.00     0.010 A 
ATOM     26  C   UNL     1       3.629  -2.841   5.291  1.00  0.00    -0.014 A 
BRANCH  26  27
ATOM     27  C   UNL     1       3.949  -3.597   6.478  1.00  0.00     0.031 A 
ATOM     28  C   UNL     1       3.683  -5.033   6.275  1.00  0.00     0.074 A 
ATOM     29  C   UNL     1       4.508  -3.023   7.560  1.00  0.00     0.049 A 
ATOM     30  N   UNL     1       2.672  -5.703   6.719  1.00  0.00    -0.248 NA
ATOM     31  C   UNL     1       4.462  -5.739   5.243  1.00  0.00     0.031 C 
ATOM     32  C   UNL     1       5.035  -1.659   7.673  1.00  0.00     0.029 A 
ATOM     33  N   UNL     1       4.857  -3.584   8.748  1.00  0.00    -0.354 N 
ATOM     34  C   UNL     1       2.898  -7.001   6.274  1.00  0.00     0.074 A 
ATOM     35  C   UNL     1       3.777  -6.879   5.147  1.00  0.00     0.031 C 
ATOM     36  C   UNL     1       5.851  -1.590   8.750  1.00  0.00     0.029 A 
ATOM     37  C   UNL     1       5.813  -2.859   9.456  1.00  0.00     0.049 A 
ATOM     38  H   UNL     1       4.469  -4.427   9.079  1.00  0.00     0.167 HD
ATOM     39  C   UNL     1       2.700  -8.045   7.126  1.00  0.00     0.034 A 
ATOM     40  C   UNL     1       6.579  -3.317  10.480  1.00  0.00     0.034 A 
ATOM     41  C   UNL     1       1.849  -7.639   8.228  1.00  0.00     0.049 A 
ATOM     42  C   UNL     1       5.912  -4.525  11.019  1.00  0.00     0.074 A 
ATOM     43  C   UNL     1       0.602  -7.059   8.353  1.00  0.00     0.029 A 
ATOM     44  N   UNL     1       2.476  -7.455   9.436  1.00  0.00    -0.354 N 
ATOM     45  N   UNL     1       4.769  -4.496  11.643  1.00  0.00    -0.248 NA
ATOM     46  C   UNL     1       6.295  -5.816  10.472  1.00  0.00     0.031 C 
ATOM     47  C   UNL     1       0.699  -6.196   9.486  1.00  0.00     0.029 A 
ATOM     48  C   UNL     1       1.970  -6.344  10.044  1.00  0.00     0.049 A 
ATOM     49  H   UNL     1       3.181  -8.034   9.806  1.00  0.00     0.167 HD
ATOM     50  C   UNL     1       4.083  -5.593  11.139  1.00  0.00     0.074 A 
ATOM     51  C   UNL     1       5.113  -6.435  10.530  1.00  0.00     0.031 C 
ATOM     52  C   UNL     1       2.725  -5.551  10.988  1.00  0.00     0.034 A 
BRANCH  39  53
ATOM     53  C   UNL     1       3.668  -9.218   7.279  1.00  0.00     0.023 A 
ATOM     54  C   UNL     1       3.332 -10.170   8.269  1.00  0.00     0.012 A 
ATOM     55  C   UNL     1       4.993  -9.274   6.780  1.00  0.00     0.148 A 
ATOM     56  C   UNL     1       4.291 -11.014   8.837  1.00  0.00     0.002 A 
ATOM     57  C   UNL     1       5.933 -10.148   7.313  1.00  0.00     0.091 A 
ATOM     58  F   UNL     1       5.409  -8.435   5.836  1.00  0.00    -0.205 F 
ATOM     59  C   UNL     1       5.598 -10.992   8.370  1.00  0.00     0.022 A 
BRANCH  57  60
ATOM     60  S   UNL     1       7.638 -10.177   6.731  1.00  0.00     0.127 S 
ATOM     61  O   UNL     1       8.353  -9.712   7.917  1.00  0.00    -0.237 OA
ATOM     62  O   UNL     1       7.811 -11.593   6.411  1.00  0.00    -0.237 OA
ATOM     63  O   UNL     1       7.689  -9.287   5.578  1.00  0.00    -0.744 OA
ENDBRANCH  57  60
ENDBRANCH  39  53
BRANCH  40  64
ATOM     64  C   UNL     1       7.975  -2.978  10.857  1.00  0.00     0.023 A 
ATOM     65  C   UNL     1       8.468  -3.362  12.122  1.00  0.00     0.012 A 
ATOM     66  C   UNL     1       8.908  -2.544   9.890  1.00  0.00     0.148 A 
ATOM     67  C   UNL     1       9.841  -3.353  12.400  1.00  0.00     0.002 A 
ATOM     68  C   UNL     1      10.271  -2.524  10.173  1.00  0.00     0.091 A 
ATOM     69  F   UNL     1       8.474  -2.241   8.660  1.00  0.00    -0.205 F 
ATOM     70  C   UNL     1      10.744  -2.943  11.423  1.00  0.00     0.022 A 
BRANCH  68  71
ATOM     71  S   UNL     1      11.491  -2.021   8.952  1.00  0.00     0.127 S 
ATOM     72  O   UNL     1      12.307  -1.073   9.712  1.00  0.00    -0.237 OA
ATOM     73  O   UNL     1      12.151  -3.286   8.641  1.00  0.00    -0.237 OA
ATOM     74  O   UNL     1      10.737  -1.417   7.860  1.00  0.00    -0.744 OA
ENDBRANCH  68  71
ENDBRANCH  40  64
BRANCH  52  75
ATOM     75  C   UNL     1       1.970  -4.465  11.705  1.00  0.00     0.023 A 
ATOM     76  C   UNL     1       2.141  -3.092  11.432  1.00  0.00     0.012 A 
ATOM     77  C   UNL     1       0.956  -4.862  12.592  1.00  0.00     0.148 A 
ATOM     78  C   UNL     1       1.333  -2.136  12.055  1.00  0.00     0.002 A 
ATOM     79  C   UNL     1       0.126  -3.914  13.172  1.00  0.00     0.091 A 
ATOM     80  F   UNL     1       0.810  -6.172  12.840  1.00  0.00    -0.205 F 
ATOM     81  C   UNL     1       0.316  -2.548  12.916  1.00  0.00     0.022 A 
BRANCH  79  82
ATOM     82  S   UNL     1      -1.264  -4.402  14.194  1.00  0.00     0.127 S 
ATOM     83  O   UNL     1      -0.767  -4.119  15.539  1.00  0.00    -0.237 OA
ATOM     84  O   UNL     1      -2.325  -3.505  13.732  1.00  0.00    -0.237 OA
ATOM     85  O   UNL     1      -1.506  -5.808  13.896  1.00  0.00    -0.744 OA
ENDBRANCH  79  82
ENDBRANCH  52  75
ENDBRANCH  26  27
ENDBRANCH  19  21
ENDBRANCH  18  19
ENDBRANCH  17  18
ENDBRANCH   1  17
TORSDOF 19
