REMARK SMILES O=C(COc1ccc(Br)cc1/C=C1\C(=O)Nc2ccc(Br)cc21)OCCOC(=O)c1ccc(-c2c3nc(c(-c4cccc(S(=O)(=O)[O-])c4F)c4ccc([nH]4)c(-c4cccc(S(=O)(=O)[O-])c4F)c4nc(c(-c5cccc(S(=O)(=O)[O-])c5F)c5ccc2[nH]5)C=C4)C=C3)cc1
REMARK SMILES IDX 25 1 24 2 2 3 1 4 3 5 4 6 5 7 6 8 11 9 7 10 10 11 8 12 9 13
REMARK SMILES IDX 12 14 13 15 14 16 23 17 15 18 16 19 17 20 22 21 18 23 20 24
REMARK SMILES IDX 19 25 21 26 26 27 27 28 28 29 29 30 30 31 31 32 92 33 32 34
REMARK SMILES IDX 91 35 33 36 34 37 35 38 85 39 36 40 90 41 84 42 86 43 37 44
REMARK SMILES IDX 89 45 83 46 82 47 38 49 70 50 50 51 69 52 51 53 54 54 68 55
REMARK SMILES IDX 87 56 52 57 53 58 67 60 88 61 55 62 39 63 40 64 48 65 41 66
REMARK SMILES IDX 43 67 49 68 42 69 44 70 45 71 46 72 47 73 71 74 72 75 80 76
REMARK SMILES IDX 73 77 75 78 81 79 74 80 76 81 77 82 78 83 79 84 56 85 57 86
REMARK SMILES IDX 65 87 58 88 60 89 66 90 59 91 61 92 62 93 63 94 64 95
REMARK H PARENT 16 22 86 48 54 59
REMARK Flexibility Score: inf
ROOT
ATOM      1  C   UNL     1       4.678  -0.835   0.346  1.00  0.00     0.274 C 
ENDROOT
BRANCH   1   2
ATOM      2  O   UNL     1       3.368  -0.397   0.759  1.00  0.00    -0.460 OA
BRANCH   2   3
ATOM      3  C   UNL     1       2.795   0.734   0.279  1.00  0.00     0.344 C 
ATOM      4  O   UNL     1       1.571   0.833   0.234  1.00  0.00    -0.248 OA
BRANCH   3   5
ATOM      5  C   UNL     1       3.710   1.899  -0.100  1.00  0.00     0.352 C 
BRANCH   5   6
ATOM      6  O   UNL     1       4.531   2.399   0.966  1.00  0.00    -0.481 OA
BRANCH   6   7
ATOM      7  C   UNL     1       3.832   3.338   1.699  1.00  0.00     0.127 A 
ATOM      8  C   UNL     1       2.741   2.893   2.470  1.00  0.00     0.048 A 
ATOM      9  C   UNL     1       4.173   4.705   1.628  1.00  0.00     0.018 A 
ATOM     10  C   UNL     1       1.878   3.801   3.068  1.00  0.00     0.019 A 
ATOM     11  C   UNL     1       3.241   5.591   2.197  1.00  0.00     0.027 A 
ATOM     12  C   UNL     1       2.119   5.152   2.906  1.00  0.00     0.018 A 
ATOM     13  Br  UNL     1       0.921   6.414   3.647  1.00  0.00    -0.051 Br
BRANCH   9  14
ATOM     14  C   UNL     1       5.390   5.164   0.885  1.00  0.00     0.026 C 
ATOM     15  C   UNL     1       5.883   6.409   0.708  1.00  0.00     0.050 C 
ATOM     16  C   UNL     1       5.263   7.694   1.193  1.00  0.00     0.256 C 
ATOM     17  C   UNL     1       6.674   6.783  -0.472  1.00  0.00     0.012 A 
ATOM     18  O   UNL     1       4.999   8.004   2.323  1.00  0.00    -0.269 OA
ATOM     19  N   UNL     1       5.190   8.464   0.040  1.00  0.00    -0.321 N 
ATOM     20  C   UNL     1       6.057   7.956  -0.925  1.00  0.00     0.049 A 
ATOM     21  C   UNL     1       7.811   6.311  -1.101  1.00  0.00     0.026 A 
ATOM     22  H   UNL     1       4.611   9.252  -0.079  1.00  0.00     0.170 HD
ATOM     23  C   UNL     1       6.409   8.569  -2.101  1.00  0.00     0.028 A 
ATOM     24  C   UNL     1       8.237   6.989  -2.254  1.00  0.00     0.018 A 
ATOM     25  C   UNL     1       7.508   8.065  -2.789  1.00  0.00     0.018 A 
ATOM     26  Br  UNL     1       9.874   6.507  -3.075  1.00  0.00    -0.051 Br
ENDBRANCH   9  14
ENDBRANCH   6   7
ENDBRANCH   5   6
ENDBRANCH   3   5
ENDBRANCH   2   3
ENDBRANCH   1   2
BRANCH   1  27
ATOM     27  C   UNL     1       4.572  -1.679  -0.925  1.00  0.00     0.275 C 
BRANCH  27  28
ATOM     28  O   UNL     1       4.215  -0.825  -2.026  1.00  0.00    -0.458 OA
BRANCH  28  29
ATOM     29  C   UNL     1       2.932  -0.907  -2.469  1.00  0.00     0.338 C 
ATOM     30  O   UNL     1       2.096  -1.725  -2.135  1.00  0.00    -0.246 OA
BRANCH  29  31
ATOM     31  C   UNL     1       2.663   0.306  -3.277  1.00  0.00     0.060 A 
ATOM     32  C   UNL     1       3.613   0.795  -4.180  1.00  0.00     0.016 A 
ATOM     33  C   UNL     1       1.464   0.999  -3.076  1.00  0.00     0.016 A 
ATOM     34  C   UNL     1       3.364   1.981  -4.875  1.00  0.00     0.010 A 
ATOM     35  C   UNL     1       1.219   2.190  -3.768  1.00  0.00     0.010 A 
ATOM     36  C   UNL     1       2.165   2.689  -4.676  1.00  0.00    -0.014 A 
BRANCH  36  37
ATOM     37  C   UNL     1       1.849   3.860  -5.530  1.00  0.00     0.031 A 
ATOM     38  C   UNL     1       2.070   5.272  -5.062  1.00  0.00     0.074 A 
ATOM     39  C   UNL     1       1.361   3.625  -6.765  1.00  0.00     0.049 A 
ATOM     40  N   UNL     1       1.900   6.385  -5.729  1.00  0.00    -0.248 NA
ATOM     41  C   UNL     1       2.551   5.470  -3.684  1.00  0.00     0.031 C 
ATOM     42  C   UNL     1       1.085   2.298  -7.322  1.00  0.00     0.029 A 
ATOM     43  N   UNL     1       1.012   4.488  -7.772  1.00  0.00    -0.354 N 
ATOM     44  C   UNL     1       2.257   7.414  -4.866  1.00  0.00     0.074 A 
ATOM     45  C   UNL     1       2.648   6.796  -3.616  1.00  0.00     0.031 C 
ATOM     46  C   UNL     1       0.614   2.436  -8.572  1.00  0.00     0.029 A 
ATOM     47  C   UNL     1       0.547   3.857  -8.902  1.00  0.00     0.049 A 
ATOM     48  H   UNL     1       1.086   5.467  -7.694  1.00  0.00     0.167 HD
ATOM     49  C   UNL     1       2.279   8.744  -5.117  1.00  0.00     0.034 A 
ATOM     50  C   UNL     1       0.126   4.360 -10.078  1.00  0.00     0.034 A 
ATOM     51  C   UNL     1       1.892   9.350  -6.365  1.00  0.00     0.049 A 
ATOM     52  C   UNL     1       0.167   5.842 -10.310  1.00  0.00     0.074 A 
ATOM     53  C   UNL     1       1.860  10.701  -6.676  1.00  0.00     0.029 A 
ATOM     54  N   UNL     1       1.494   8.669  -7.499  1.00  0.00    -0.354 N 
ATOM     55  N   UNL     1       0.608   6.783  -9.514  1.00  0.00    -0.248 NA
ATOM     56  C   UNL     1      -0.311   6.331 -11.613  1.00  0.00     0.031 C 
ATOM     57  C   UNL     1       1.492  10.835  -8.013  1.00  0.00     0.029 A 
ATOM     58  C   UNL     1       1.255   9.570  -8.521  1.00  0.00     0.049 A 
ATOM     59  H   UNL     1       1.396   7.692  -7.569  1.00  0.00     0.167 HD
ATOM     60  C   UNL     1       0.505   7.965 -10.236  1.00  0.00     0.074 A 
ATOM     61  C   UNL     1      -0.038   7.627 -11.533  1.00  0.00     0.031 C 
ATOM     62  C   UNL     1       0.820   9.219  -9.843  1.00  0.00     0.034 A 
BRANCH  49  63
ATOM     63  C   UNL     1       2.822   9.698  -4.092  1.00  0.00     0.023 A 
ATOM     64  C   UNL     1       4.122  10.200  -4.314  1.00  0.00     0.012 A 
ATOM     65  C   UNL     1       2.003  10.303  -3.124  1.00  0.00     0.148 A 
ATOM     66  C   UNL     1       4.595  11.299  -3.598  1.00  0.00     0.002 A 
ATOM     67  C   UNL     1       2.485  11.399  -2.412  1.00  0.00     0.091 A 
ATOM     68  F   UNL     1       0.766   9.822  -2.939  1.00  0.00    -0.205 F 
ATOM     69  C   UNL     1       3.779  11.894  -2.643  1.00  0.00     0.022 A 
BRANCH  67  70
ATOM     70  S   UNL     1       1.467  12.294  -1.235  1.00  0.00     0.127 S 
ATOM     71  O   UNL     1       1.928  11.718   0.027  1.00  0.00    -0.237 OA
ATOM     72  O   UNL     1       1.871  13.683  -1.457  1.00  0.00    -0.237 OA
ATOM     73  O   UNL     1       0.091  12.000  -1.608  1.00  0.00    -0.744 OA
ENDBRANCH  67  70
ENDBRANCH  49  63
BRANCH  50  74
ATOM     74  C   UNL     1      -0.284   3.441 -11.172  1.00  0.00     0.023 A 
ATOM     75  C   UNL     1       0.582   3.254 -12.266  1.00  0.00     0.012 A 
ATOM     76  C   UNL     1      -1.507   2.748 -11.127  1.00  0.00     0.148 A 
ATOM     77  C   UNL     1       0.225   2.406 -13.313  1.00  0.00     0.002 A 
ATOM     78  C   UNL     1      -1.839   1.876 -12.155  1.00  0.00     0.091 A 
ATOM     79  F   UNL     1      -2.317   2.958 -10.080  1.00  0.00    -0.205 F 
ATOM     80  C   UNL     1      -0.980   1.711 -13.254  1.00  0.00     0.022 A 
BRANCH  78  81
ATOM     81  S   UNL     1      -3.328   0.873 -12.122  1.00  0.00     0.127 S 
ATOM     82  O   UNL     1      -4.143   1.517 -13.149  1.00  0.00    -0.237 OA
ATOM     83  O   UNL     1      -2.811  -0.448 -12.484  1.00  0.00    -0.237 OA
ATOM     84  O   UNL     1      -3.833   0.967 -10.760  1.00  0.00    -0.744 OA
ENDBRANCH  78  81
ENDBRANCH  50  74
BRANCH  62  85
ATOM     85  C   UNL     1       0.652  10.344 -10.822  1.00  0.00     0.023 A 
ATOM     86  C   UNL     1      -0.625  10.899 -11.023  1.00  0.00     0.012 A 
ATOM     87  C   UNL     1       1.778  10.947 -11.415  1.00  0.00     0.148 A 
ATOM     88  C   UNL     1      -0.781  12.040 -11.808  1.00  0.00     0.002 A 
ATOM     89  C   UNL     1       1.619  12.103 -12.169  1.00  0.00     0.091 A 
ATOM     90  F   UNL     1       2.982  10.392 -11.211  1.00  0.00    -0.205 F 
ATOM     91  C   UNL     1       0.340  12.648 -12.369  1.00  0.00     0.022 A 
BRANCH  89  92
ATOM     92  S   UNL     1       3.014  13.002 -12.855  1.00  0.00     0.127 S 
ATOM     93  O   UNL     1       2.888  12.705 -14.281  1.00  0.00    -0.237 OA
ATOM     94  O   UNL     1       2.704  14.385 -12.489  1.00  0.00    -0.237 OA
ATOM     95  O   UNL     1       4.200  12.459 -12.207  1.00  0.00    -0.744 OA
ENDBRANCH  89  92
ENDBRANCH  62  85
ENDBRANCH  36  37
ENDBRANCH  29  31
ENDBRANCH  28  29
ENDBRANCH  27  28
ENDBRANCH   1  27
TORSDOF 17
