REMARK SMILES Cc1c(C(=O)NC(=S)Nc2ccccc2C(=O)OCCOC(=O)c2ccc(-c3c4nc(c(-c5cccc(S(=O)(=O)[O-])c5F)c5ccc([nH]5)c(-c5cccc(S(=O)(=O)[O-])c5F)c5nc(c(-c6cccc(S(=O)(=O)[O-])c6F)c6ccc3[nH]6)C=C5)C=C4)cc2)cccc1[N+](=O)[O-]
REMARK SMILES IDX 19 1 18 2 16 3 17 4 15 5 10 6 11 7 12 8 14 9 13 10 9 11 7 13
REMARK SMILES IDX 8 14 6 15 4 16 5 17 3 19 1 20 2 21 90 22 87 23 89 24 88 25
REMARK SMILES IDX 91 26 92 27 93 28 20 29 21 30 22 31 23 32 24 33 25 34 86 35
REMARK SMILES IDX 26 36 85 37 27 38 28 39 29 40 79 41 30 42 84 43 78 44 80 45
REMARK SMILES IDX 31 46 83 47 77 48 76 49 32 51 64 52 44 53 63 54 45 55 48 56
REMARK SMILES IDX 62 57 81 58 46 59 47 60 61 62 82 63 49 64 33 65 34 66 42 67
REMARK SMILES IDX 35 68 37 69 43 70 36 71 38 72 39 73 40 74 41 75 65 76 66 77
REMARK SMILES IDX 74 78 67 79 69 80 75 81 68 82 70 83 71 84 72 85 73 86 50 87
REMARK SMILES IDX 51 88 59 89 52 90 54 91 60 92 53 93 55 94 56 95 57 96 58 97
REMARK H PARENT 9 12 6 18 80 50 48 61
REMARK Flexibility Score: inf
ROOT
ATOM      1  C   UNL     1       0.493  -4.461   2.098  1.00  0.00     0.275 C 
ENDROOT
BRANCH   1   2
ATOM      2  O   UNL     1       0.853  -3.246   1.340  1.00  0.00    -0.458 OA
BRANCH   2   3
ATOM      3  C   UNL     1       0.222  -2.109   1.807  1.00  0.00     0.340 C 
ATOM      4  O   UNL     1      -0.603  -2.261   2.710  1.00  0.00    -0.246 OA
BRANCH   3   5
ATOM      5  C   UNL     1       0.171  -0.737   1.061  1.00  0.00     0.083 A 
ATOM      6  C   UNL     1       1.289   0.328   0.143  1.00  0.00     0.055 A 
ATOM      7  C   UNL     1       0.787   1.315  -1.338  1.00  0.00     0.027 A 
ATOM      8  C   UNL     1      -0.882   0.855  -2.042  1.00  0.00     0.002 A 
ATOM      9  C   UNL     1      -1.385  -0.899   0.671  1.00  0.00     0.018 A 
ATOM     10  C   UNL     1      -1.930  -0.329  -0.767  1.00  0.00     0.001 A 
BRANCH   6  11
ATOM     11  N   UNL     1       2.505  -0.320  -0.194  1.00  0.00    -0.332 N 
ATOM     12  H   UNL     1       3.322   0.213  -0.057  1.00  0.00     0.169 HD
BRANCH  11  13
ATOM     13  C   UNL     1       2.703  -1.592  -0.686  1.00  0.00     0.177 C 
ATOM     14  S   UNL     1       4.301  -1.982  -1.080  1.00  0.00    -0.040 S 
BRANCH  13  15
ATOM     15  N   UNL     1       1.624  -2.526  -1.073  1.00  0.00    -0.299 N 
ATOM     16  C   UNL     1       0.165  -2.775  -1.671  1.00  0.00     0.257 C 
ATOM     17  O   UNL     1      -0.208  -3.935  -1.830  1.00  0.00    -0.269 OA
ATOM     18  H   UNL     1       1.971  -3.422  -0.859  1.00  0.00     0.172 HD
BRANCH  16  19
ATOM     19  C   UNL     1      -0.756  -1.571  -2.063  1.00  0.00     0.049 A 
ATOM     20  C   UNL     1       1.083  -0.431  -2.699  1.00  0.00     0.053 C 
ATOM     21  C   UNL     1      -0.035  -0.495  -1.118  1.00  0.00     0.039 A 
ATOM     22  C   UNL     1      -0.899   1.138  -0.211  1.00  0.00     0.273 A 
ATOM     23  C   UNL     1      -2.264  -1.004  -2.759  1.00  0.00     0.014 A 
ATOM     24  C   UNL     1      -2.505   1.626  -0.973  1.00  0.00     0.086 A 
ATOM     25  C   UNL     1      -3.109   0.549  -2.296  1.00  0.00     0.008 A 
BRANCH  22  26
ATOM     26  N   UNL     1      -0.448   2.481   0.545  1.00  0.00     0.063 N 
ATOM     27  O   UNL     1      -1.370   3.037   1.161  1.00  0.00    -0.258 OA
ATOM     28  O   UNL     1       0.629   3.050   0.316  1.00  0.00    -0.258 OA
ENDBRANCH  22  26
ENDBRANCH  16  19
ENDBRANCH  13  15
ENDBRANCH  11  13
ENDBRANCH   6  11
ENDBRANCH   3   5
ENDBRANCH   2   3
ENDBRANCH   1   2
BRANCH   1  29
ATOM     29  C   UNL     1       1.550  -5.600   2.161  1.00  0.00     0.275 C 
BRANCH  29  30
ATOM     30  O   UNL     1       2.906  -5.335   2.571  1.00  0.00    -0.458 OA
BRANCH  30  31
ATOM     31  C   UNL     1       3.390  -4.120   2.248  1.00  0.00     0.338 C 
ATOM     32  O   UNL     1       4.026  -3.903   1.239  1.00  0.00    -0.246 OA
BRANCH  31  33
ATOM     33  C   UNL     1       2.939  -3.129   3.239  1.00  0.00     0.060 A 
ATOM     34  C   UNL     1       2.801  -1.795   2.832  1.00  0.00     0.016 A 
ATOM     35  C   UNL     1       2.323  -3.617   4.396  1.00  0.00     0.016 A 
ATOM     36  C   UNL     1       2.024  -0.929   3.569  1.00  0.00     0.010 A 
ATOM     37  C   UNL     1       1.387  -2.834   5.004  1.00  0.00     0.010 A 
ATOM     38  C   UNL     1       1.379  -1.468   4.666  1.00  0.00    -0.014 A 
BRANCH  38  39
ATOM     39  C   UNL     1       1.171  -0.629   5.825  1.00  0.00     0.031 A 
ATOM     40  C   UNL     1      -0.243  -0.134   5.932  1.00  0.00     0.074 A 
ATOM     41  C   UNL     1       2.309  -0.898   6.552  1.00  0.00     0.049 A 
ATOM     42  N   UNL     1      -0.643   0.925   6.547  1.00  0.00    -0.248 NA
ATOM     43  C   UNL     1      -1.392  -0.661   5.149  1.00  0.00     0.031 C 
ATOM     44  C   UNL     1       2.625  -1.245   7.933  1.00  0.00     0.029 A 
ATOM     45  N   UNL     1       3.599  -1.028   5.966  1.00  0.00    -0.354 N 
ATOM     46  C   UNL     1      -1.997   0.697   6.787  1.00  0.00     0.074 A 
ATOM     47  C   UNL     1      -2.459  -0.029   5.653  1.00  0.00     0.031 C 
ATOM     48  C   UNL     1       3.970  -1.199   8.120  1.00  0.00     0.029 A 
ATOM     49  C   UNL     1       4.610  -0.783   6.877  1.00  0.00     0.049 A 
ATOM     50  H   UNL     1       3.753  -1.264   5.023  1.00  0.00     0.167 HD
ATOM     51  C   UNL     1      -2.412   0.628   8.087  1.00  0.00     0.034 A 
ATOM     52  C   UNL     1       5.333   0.362   6.683  1.00  0.00     0.034 A 
ATOM     53  C   UNL     1      -1.203   0.754   8.929  1.00  0.00     0.049 A 
ATOM     54  C   UNL     1       4.632   1.462   7.483  1.00  0.00     0.074 A 
ATOM     55  C   UNL     1      -0.407  -0.183   9.566  1.00  0.00     0.029 A 
ATOM     56  N   UNL     1      -0.415   1.890   8.781  1.00  0.00    -0.354 N 
ATOM     57  N   UNL     1       3.408   1.400   7.935  1.00  0.00    -0.248 NA
ATOM     58  C   UNL     1       5.305   2.694   7.849  1.00  0.00     0.031 C 
ATOM     59  C   UNL     1       0.867   0.424   9.799  1.00  0.00     0.029 A 
ATOM     60  C   UNL     1       0.881   1.686   9.227  1.00  0.00     0.049 A 
ATOM     61  H   UNL     1      -0.740   2.739   8.403  1.00  0.00     0.167 HD
ATOM     62  C   UNL     1       3.090   2.540   8.603  1.00  0.00     0.074 A 
ATOM     63  C   UNL     1       4.340   3.296   8.560  1.00  0.00     0.031 C 
ATOM     64  C   UNL     1       1.843   2.787   9.122  1.00  0.00     0.034 A 
BRANCH  51  65
ATOM     65  C   UNL     1      -3.750   0.158   8.661  1.00  0.00     0.023 A 
ATOM     66  C   UNL     1      -3.778   0.035  10.073  1.00  0.00     0.012 A 
ATOM     67  C   UNL     1      -4.980  -0.106   7.997  1.00  0.00     0.148 A 
ATOM     68  C   UNL     1      -4.912  -0.344  10.792  1.00  0.00     0.002 A 
ATOM     69  C   UNL     1      -6.130  -0.483   8.725  1.00  0.00     0.091 A 
ATOM     70  F   UNL     1      -5.061   0.020   6.667  1.00  0.00    -0.205 F 
ATOM     71  C   UNL     1      -6.090  -0.603  10.120  1.00  0.00     0.022 A 
BRANCH  69  72
ATOM     72  S   UNL     1      -7.745  -0.833   7.988  1.00  0.00     0.127 S 
ATOM     73  O   UNL     1      -7.998  -2.205   8.435  1.00  0.00    -0.237 OA
ATOM     74  O   UNL     1      -8.606   0.168   8.619  1.00  0.00    -0.237 OA
ATOM     75  O   UNL     1      -7.583  -0.688   6.548  1.00  0.00    -0.744 OA
ENDBRANCH  69  72
ENDBRANCH  51  65
BRANCH  52  76
ATOM     76  C   UNL     1       5.733   0.585   5.232  1.00  0.00     0.023 A 
ATOM     77  C   UNL     1       6.202  -0.505   4.446  1.00  0.00     0.012 A 
ATOM     78  C   UNL     1       5.189   1.684   4.572  1.00  0.00     0.148 A 
ATOM     79  C   UNL     1       5.879  -0.592   3.087  1.00  0.00     0.002 A 
ATOM     80  C   UNL     1       4.745   1.532   3.279  1.00  0.00     0.091 A 
ATOM     81  F   UNL     1       4.999   2.842   5.212  1.00  0.00    -0.205 F 
ATOM     82  C   UNL     1       5.089   0.406   2.522  1.00  0.00     0.022 A 
BRANCH  80  83
ATOM     83  S   UNL     1       3.370   2.580   2.807  1.00  0.00     0.127 S 
ATOM     84  O   UNL     1       2.996   1.980   1.530  1.00  0.00    -0.237 OA
ATOM     85  O   UNL     1       2.416   2.360   3.885  1.00  0.00    -0.237 OA
ATOM     86  O   UNL     1       3.979   3.900   2.717  1.00  0.00    -0.744 OA
ENDBRANCH  80  83
ENDBRANCH  52  76
BRANCH  64  87
ATOM     87  C   UNL     1       1.425   4.147   9.647  1.00  0.00     0.023 A 
ATOM     88  C   UNL     1       2.158   5.307   9.353  1.00  0.00     0.012 A 
ATOM     89  C   UNL     1       0.236   4.332  10.398  1.00  0.00     0.148 A 
ATOM     90  C   UNL     1       1.876   6.530   9.953  1.00  0.00     0.002 A 
ATOM     91  C   UNL     1      -0.150   5.591  10.825  1.00  0.00     0.091 A 
ATOM     92  F   UNL     1      -0.523   3.290  10.758  1.00  0.00    -0.205 F 
ATOM     93  C   UNL     1       0.709   6.677  10.679  1.00  0.00     0.022 A 
BRANCH  91  94
ATOM     94  S   UNL     1      -1.785   5.904  11.491  1.00  0.00     0.127 S 
ATOM     95  O   UNL     1      -1.491   6.094  12.909  1.00  0.00    -0.237 OA
ATOM     96  O   UNL     1      -2.171   7.123  10.777  1.00  0.00    -0.237 OA
ATOM     97  O   UNL     1      -2.590   4.736  11.162  1.00  0.00    -0.744 OA
ENDBRANCH  91  94
ENDBRANCH  64  87
ENDBRANCH  38  39
ENDBRANCH  31  33
ENDBRANCH  30  31
ENDBRANCH  29  30
ENDBRANCH   1  29
TORSDOF 19
