REMARK SMILES CC[C@H]1CC[C@](Cc2cccnc2)(C(=O)OCCOC(=O)c2ccc(-c3c4nc(c(-c5cccc(S(=O)(=O)[O-])c5F)c5ccc([nH]5)c(-c5cccc(S(=O)(=O)[O-])c5F)c5nc(c(-c6cccc(S(=O)(=O)[O-])c6F)c6ccc3[nH]6)C=C5)C=C4)cc2)C1
REMARK SMILES IDX 18 1 17 2 16 3 14 4 15 5 6 6 3 7 4 8 85 9 5 10 2 11 1 12
REMARK SMILES IDX 7 13 8 14 9 15 13 16 10 17 12 18 11 19 19 20 20 21 21 22
REMARK SMILES IDX 22 23 23 24 84 25 24 26 83 27 25 28 26 29 27 30 77 31 28 32
REMARK SMILES IDX 82 33 76 34 78 35 29 36 81 37 75 38 74 39 30 41 62 42 42 43
REMARK SMILES IDX 61 44 43 45 46 46 60 47 79 48 44 49 45 50 59 52 80 53 47 54
REMARK SMILES IDX 31 55 32 56 40 57 33 58 35 59 41 60 34 61 36 62 37 63 38 64
REMARK SMILES IDX 39 65 63 66 64 67 72 68 65 69 67 70 73 71 66 72 68 73 69 74
REMARK SMILES IDX 70 75 71 76 48 77 49 78 57 79 50 80 52 81 58 82 51 83 53 84
REMARK SMILES IDX 54 85 55 86 56 87
REMARK H PARENT 78 40 46 51
REMARK Flexibility Score: inf
ROOT
ATOM      1  C   UNL     1       6.317   4.334   0.841  1.00  0.00     0.275 C 
ENDROOT
BRANCH   1   2
ATOM      2  C   UNL     1       5.203   5.161   1.475  1.00  0.00     0.274 C 
BRANCH   2   3
ATOM      3  O   UNL     1       4.383   4.354   2.346  1.00  0.00    -0.462 OA
BRANCH   3   4
ATOM      4  C   UNL     1       3.150   4.012   1.883  1.00  0.00     0.312 C 
ATOM      5  O   UNL     1       2.736   4.330   0.774  1.00  0.00    -0.252 OA
BRANCH   4   6
ATOM      6  C   UNL     1       2.311   3.200   2.902  1.00  0.00     0.072 C 
ATOM      7  C   UNL     1       0.570   1.623   2.051  1.00  0.00    -0.010 C 
ATOM      8  C   UNL     1       0.115   3.065   1.853  1.00  0.00     0.005 C 
ATOM      9  C   UNL     1       2.078   1.768   2.347  1.00  0.00     0.022 C 
ATOM     10  C   UNL     1       0.900   3.843   2.905  1.00  0.00     0.019 C 
BRANCH   7  11
ATOM     11  C   UNL     1      -0.144   0.873   3.191  1.00  0.00     0.000 C 
ATOM     12  C   UNL     1      -1.662   0.874   3.105  1.00  0.00     0.004 C 
ENDBRANCH   7  11
BRANCH   6  13
ATOM     13  C   UNL     1       2.999   3.219   4.297  1.00  0.00     0.056 C 
BRANCH  13  14
ATOM     14  C   UNL     1       2.347   2.429   5.405  1.00  0.00    -0.029 A 
ATOM     15  C   UNL     1       2.676   1.088   5.633  1.00  0.00     0.007 A 
ATOM     16  C   UNL     1       1.371   2.987   6.226  1.00  0.00     0.114 A 
ATOM     17  C   UNL     1       1.986   0.357   6.593  1.00  0.00     0.020 A 
ATOM     18  N   UNL     1       0.692   2.307   7.177  1.00  0.00    -0.264 NA
ATOM     19  C   UNL     1       1.004   1.002   7.325  1.00  0.00     0.111 A 
ENDBRANCH  13  14
ENDBRANCH   6  13
ENDBRANCH   4   6
ENDBRANCH   3   4
ENDBRANCH   2   3
ENDBRANCH   1   2
BRANCH   1  20
ATOM     20  O   UNL     1       5.774   3.415  -0.121  1.00  0.00    -0.458 OA
BRANCH  20  21
ATOM     21  C   UNL     1       5.651   2.141   0.305  1.00  0.00     0.338 C 
ATOM     22  O   UNL     1       5.977   1.687   1.395  1.00  0.00    -0.246 OA
BRANCH  21  23
ATOM     23  C   UNL     1       5.005   1.330  -0.731  1.00  0.00     0.060 A 
ATOM     24  C   UNL     1       3.639   1.486  -0.958  1.00  0.00     0.016 A 
ATOM     25  C   UNL     1       5.714   0.307  -1.357  1.00  0.00     0.016 A 
ATOM     26  C   UNL     1       2.949   0.536  -1.703  1.00  0.00     0.010 A 
ATOM     27  C   UNL     1       5.037  -0.571  -2.207  1.00  0.00     0.010 A 
ATOM     28  C   UNL     1       3.640  -0.497  -2.352  1.00  0.00    -0.014 A 
BRANCH  28  29
ATOM     29  C   UNL     1       2.911  -1.508  -3.166  1.00  0.00     0.031 A 
ATOM     30  C   UNL     1       3.060  -2.975  -2.859  1.00  0.00     0.074 A 
ATOM     31  C   UNL     1       2.142  -1.117  -4.202  1.00  0.00     0.049 A 
ATOM     32  N   UNL     1       2.709  -4.009  -3.578  1.00  0.00    -0.248 NA
ATOM     33  C   UNL     1       3.707  -3.328  -1.583  1.00  0.00     0.031 C 
ATOM     34  C   UNL     1       1.895   0.271  -4.598  1.00  0.00     0.029 A 
ATOM     35  N   UNL     1       1.438  -1.853  -5.124  1.00  0.00    -0.354 N 
ATOM     36  C   UNL     1       3.172  -5.126  -2.892  1.00  0.00     0.074 A 
ATOM     37  C   UNL     1       3.807  -4.646  -1.683  1.00  0.00     0.031 C 
ATOM     38  C   UNL     1       1.086   0.289  -5.666  1.00  0.00     0.029 A 
ATOM     39  C   UNL     1       0.827  -1.083  -6.087  1.00  0.00     0.049 A 
ATOM     40  H   UNL     1       1.377  -2.835  -5.099  1.00  0.00     0.167 HD
ATOM     41  C   UNL     1       3.071  -6.432  -3.236  1.00  0.00     0.034 A 
ATOM     42  C   UNL     1       0.172  -1.433  -7.210  1.00  0.00     0.034 A 
ATOM     43  C   UNL     1       2.356  -6.906  -4.391  1.00  0.00     0.049 A 
ATOM     44  C   UNL     1       0.036  -2.890  -7.547  1.00  0.00     0.074 A 
ATOM     45  C   UNL     1       2.165  -8.211  -4.810  1.00  0.00     0.029 A 
ATOM     46  N   UNL     1       1.690  -6.093  -5.296  1.00  0.00    -0.354 N 
ATOM     47  N   UNL     1       0.465  -3.933  -6.878  1.00  0.00    -0.248 NA
ATOM     48  C   UNL     1      -0.677  -3.221  -8.788  1.00  0.00     0.031 C 
ATOM     49  C   UNL     1       1.378  -8.187  -5.967  1.00  0.00     0.029 A 
ATOM     50  C   UNL     1       1.077  -6.868  -6.266  1.00  0.00     0.049 A 
ATOM     51  H   UNL     1       1.659  -5.110  -5.256  1.00  0.00     0.167 HD
ATOM     52  C   UNL     1       0.062  -5.044  -7.607  1.00  0.00     0.074 A 
ATOM     53  C   UNL     1      -0.671  -4.548  -8.755  1.00  0.00     0.031 C 
ATOM     54  C   UNL     1       0.302  -6.356  -7.365  1.00  0.00     0.034 A 
BRANCH  41  55
ATOM     55  C   UNL     1       3.721  -7.450  -2.339  1.00  0.00     0.023 A 
ATOM     56  C   UNL     1       3.103  -7.808  -1.125  1.00  0.00     0.012 A 
ATOM     57  C   UNL     1       4.910  -8.100  -2.727  1.00  0.00     0.148 A 
ATOM     58  C   UNL     1       3.669  -8.780  -0.300  1.00  0.00     0.002 A 
ATOM     59  C   UNL     1       5.449  -9.094  -1.917  1.00  0.00     0.091 A 
ATOM     60  F   UNL     1       5.499  -7.728  -3.873  1.00  0.00    -0.205 F 
ATOM     61  C   UNL     1       4.834  -9.430  -0.701  1.00  0.00     0.022 A 
BRANCH  59  62
ATOM     62  S   UNL     1       6.908 -10.031  -2.392  1.00  0.00     0.127 S 
ATOM     63  O   UNL     1       7.947  -9.389  -1.588  1.00  0.00    -0.237 OA
ATOM     64  O   UNL     1       6.562 -11.388  -1.967  1.00  0.00    -0.237 OA
ATOM     65  O   UNL     1       7.030  -9.866  -3.834  1.00  0.00    -0.744 OA
ENDBRANCH  59  62
ENDBRANCH  41  55
BRANCH  42  66
ATOM     66  C   UNL     1      -0.415  -0.374  -8.078  1.00  0.00     0.023 A 
ATOM     67  C   UNL     1      -1.813  -0.226  -8.134  1.00  0.00     0.012 A 
ATOM     68  C   UNL     1       0.400   0.536  -8.781  1.00  0.00     0.148 A 
ATOM     69  C   UNL     1      -2.389   0.803  -8.881  1.00  0.00     0.002 A 
ATOM     70  C   UNL     1      -0.178   1.596  -9.470  1.00  0.00     0.091 A 
ATOM     71  F   UNL     1       1.730   0.365  -8.741  1.00  0.00    -0.205 F 
ATOM     72  C   UNL     1      -1.573   1.724  -9.533  1.00  0.00     0.022 A 
BRANCH  70  73
ATOM     73  S   UNL     1       0.821   2.906 -10.188  1.00  0.00     0.127 S 
ATOM     74  O   UNL     1       0.891   2.499 -11.588  1.00  0.00    -0.237 OA
ATOM     75  O   UNL     1       0.006   4.096  -9.934  1.00  0.00    -0.237 OA
ATOM     76  O   UNL     1       2.074   2.878  -9.445  1.00  0.00    -0.744 OA
ENDBRANCH  70  73
ENDBRANCH  42  66
BRANCH  54  77
ATOM     77  C   UNL     1      -0.251  -7.351  -8.346  1.00  0.00     0.023 A 
ATOM     78  C   UNL     1       0.406  -7.544  -9.577  1.00  0.00     0.012 A 
ATOM     79  C   UNL     1      -1.369  -8.142  -8.023  1.00  0.00     0.148 A 
ATOM     80  C   UNL     1      -0.055  -8.498 -10.482  1.00  0.00     0.002 A 
ATOM     81  C   UNL     1      -1.801  -9.116  -8.915  1.00  0.00     0.091 A 
ATOM     82  F   UNL     1      -1.994  -7.923  -6.856  1.00  0.00    -0.205 F 
ATOM     83  C   UNL     1      -1.150  -9.291 -10.147  1.00  0.00     0.022 A 
BRANCH  81  84
ATOM     84  S   UNL     1      -3.155 -10.230  -8.521  1.00  0.00     0.127 S 
ATOM     85  O   UNL     1      -4.266  -9.619  -9.248  1.00  0.00    -0.237 OA
ATOM     86  O   UNL     1      -2.690 -11.502  -9.076  1.00  0.00    -0.237 OA
ATOM     87  O   UNL     1      -3.265 -10.216  -7.069  1.00  0.00    -0.744 OA
ENDBRANCH  81  84
ENDBRANCH  54  77
ENDBRANCH  28  29
ENDBRANCH  21  23
ENDBRANCH  20  21
ENDBRANCH   1  20
TORSDOF 17
