REMARK SMILES C[C@@H](C(=O)OCCOC(=O)c1ccc(-c2c3nc(c(-c4cccc(S(=O)(=O)[O-])c4F)c4ccc([nH]4)c(-c4cccc(S(=O)(=O)[O-])c4F)c4nc(c(-c5cccc(S(=O)(=O)[O-])c5F)c5ccc2[nH]5)C=C4)C=C3)cc1)c1ccc(C[C@H]2CCC[C@@H]2O)cc1F
REMARK SMILES IDX 6 1 5 2 3 3 4 4 2 5 1 6 74 7 75 8 86 9 76 10 85 11 87 12
REMARK SMILES IDX 77 13 78 14 79 15 80 16 83 17 81 18 82 19 84 20 7 22 8 23
REMARK SMILES IDX 9 24 10 25 11 26 12 27 73 28 13 29 72 30 14 31 15 32 16 33
REMARK SMILES IDX 66 34 17 35 71 36 65 37 67 38 18 39 70 40 64 41 63 42 19 44
REMARK SMILES IDX 51 45 31 46 50 47 32 48 35 49 49 50 68 51 33 52 34 53 48 55
REMARK SMILES IDX 69 56 36 57 20 58 21 59 29 60 22 61 24 62 30 63 23 64 25 65
REMARK SMILES IDX 26 66 27 67 28 68 52 69 53 70 61 71 54 72 56 73 62 74 55 75
REMARK SMILES IDX 57 76 58 77 59 78 60 79 37 80 38 81 46 82 39 83 41 84 47 85
REMARK SMILES IDX 40 86 42 87 43 88 44 89 45 90
REMARK H PARENT 84 21 67 43 35 54
REMARK Flexibility Score: inf
ROOT
ATOM      1  C   UNL     1       2.667   3.740  -1.000  1.00  0.00     0.274 C 
ENDROOT
BRANCH   1   2
ATOM      2  O   UNL     1       2.267   2.507  -0.367  1.00  0.00    -0.462 OA
BRANCH   2   3
ATOM      3  C   UNL     1       1.079   2.565   0.304  1.00  0.00     0.313 C 
ATOM      4  O   UNL     1       0.430   3.602   0.367  1.00  0.00    -0.252 OA
BRANCH   3   5
ATOM      5  C   UNL     1       0.731   1.243   1.046  1.00  0.00     0.129 C 
ATOM      6  C   UNL     1       1.293   0.041   0.271  1.00  0.00     0.025 C 
BRANCH   5   7
ATOM      7  C   UNL     1      -0.766   1.132   1.393  1.00  0.00     0.002 A 
ATOM      8  C   UNL     1      -1.444   2.260   1.880  1.00  0.00     0.008 A 
ATOM      9  C   UNL     1      -1.545  -0.021   1.225  1.00  0.00     0.127 A 
ATOM     10  C   UNL     1      -2.836   2.298   1.981  1.00  0.00     0.004 A 
ATOM     11  C   UNL     1      -2.937  -0.010   1.398  1.00  0.00     0.043 A 
ATOM     12  F   UNL     1      -0.992  -1.181   0.849  1.00  0.00    -0.207 F 
ATOM     13  C   UNL     1      -3.613   1.169   1.736  1.00  0.00    -0.045 A 
BRANCH  13  14
ATOM     14  C   UNL     1      -5.127   1.225   1.718  1.00  0.00     0.041 C 
BRANCH  14  15
ATOM     15  C   UNL     1      -5.873   1.607   3.011  1.00  0.00     0.022 C 
ATOM     16  C   UNL     1      -5.387   0.875   4.270  1.00  0.00     0.007 C 
ATOM     17  C   UNL     1      -5.852   3.104   3.356  1.00  0.00     0.117 C 
ATOM     18  C   UNL     1      -4.872   1.961   5.205  1.00  0.00     0.003 C 
ATOM     19  C   UNL     1      -5.729   3.167   4.870  1.00  0.00     0.032 C 
BRANCH  17  20
ATOM     20  O   UNL     1      -7.054   3.722   2.950  1.00  0.00    -0.393 OA
ATOM     21  H   UNL     1      -7.805   3.285   3.381  1.00  0.00     0.210 HD
ENDBRANCH  17  20
ENDBRANCH  14  15
ENDBRANCH  13  14
ENDBRANCH   5   7
ENDBRANCH   3   5
ENDBRANCH   2   3
ENDBRANCH   1   2
BRANCH   1  22
ATOM     22  C   UNL     1       2.197   3.851  -2.457  1.00  0.00     0.275 C 
BRANCH  22  23
ATOM     23  O   UNL     1       0.766   3.961  -2.584  1.00  0.00    -0.458 OA
BRANCH  23  24
ATOM     24  C   UNL     1       0.115   2.791  -2.790  1.00  0.00     0.338 C 
ATOM     25  O   UNL     1       0.636   1.687  -2.904  1.00  0.00    -0.246 OA
BRANCH  24  26
ATOM     26  C   UNL     1      -1.348   2.973  -2.706  1.00  0.00     0.060 A 
ATOM     27  C   UNL     1      -2.048   2.082  -1.890  1.00  0.00     0.016 A 
ATOM     28  C   UNL     1      -2.046   3.940  -3.436  1.00  0.00     0.016 A 
ATOM     29  C   UNL     1      -3.432   2.175  -1.767  1.00  0.00     0.010 A 
ATOM     30  C   UNL     1      -3.447   4.014  -3.332  1.00  0.00     0.010 A 
ATOM     31  C   UNL     1      -4.147   3.137  -2.487  1.00  0.00    -0.014 A 
BRANCH  31  32
ATOM     32  C   UNL     1      -5.628   3.147  -2.368  1.00  0.00     0.031 A 
ATOM     33  C   UNL     1      -6.442   2.154  -3.148  1.00  0.00     0.074 A 
ATOM     34  C   UNL     1      -6.240   3.976  -1.500  1.00  0.00     0.049 A 
ATOM     35  N   UNL     1      -7.728   1.924  -3.106  1.00  0.00    -0.248 NA
ATOM     36  C   UNL     1      -5.706   1.303  -4.096  1.00  0.00     0.031 C 
ATOM     37  C   UNL     1      -5.561   4.948  -0.646  1.00  0.00     0.029 A 
ATOM     38  N   UNL     1      -7.568   4.109  -1.169  1.00  0.00    -0.354 N 
ATOM     39  C   UNL     1      -7.969   0.947  -4.062  1.00  0.00     0.074 A 
ATOM     40  C   UNL     1      -6.686   0.587  -4.630  1.00  0.00     0.031 C 
ATOM     41  C   UNL     1      -6.471   5.550   0.139  1.00  0.00     0.029 A 
ATOM     42  C   UNL     1      -7.800   5.015  -0.157  1.00  0.00     0.049 A 
ATOM     43  H   UNL     1      -8.287   3.604  -1.614  1.00  0.00     0.167 HD
ATOM     44  C   UNL     1      -9.152   0.419  -4.457  1.00  0.00     0.034 A 
ATOM     45  C   UNL     1      -8.948   5.348   0.472  1.00  0.00     0.034 A 
ATOM     46  C   UNL     1     -10.431   0.771  -3.904  1.00  0.00     0.049 A 
ATOM     47  C   UNL     1     -10.243   4.698   0.043  1.00  0.00     0.074 A 
ATOM     48  C   UNL     1     -11.684   0.313  -4.277  1.00  0.00     0.029 A 
ATOM     49  N   UNL     1     -10.628   1.674  -2.872  1.00  0.00    -0.354 N 
ATOM     50  N   UNL     1     -10.445   3.728  -0.815  1.00  0.00    -0.248 NA
ATOM     51  C   UNL     1     -11.475   5.197   0.680  1.00  0.00     0.031 C 
ATOM     52  C   UNL     1     -12.640   0.960  -3.488  1.00  0.00     0.029 A 
ATOM     53  C   UNL     1     -11.982   1.799  -2.605  1.00  0.00     0.049 A 
ATOM     54  H   UNL     1      -9.912   2.155  -2.398  1.00  0.00     0.167 HD
ATOM     55  C   UNL     1     -11.818   3.501  -0.819  1.00  0.00     0.074 A 
ATOM     56  C   UNL     1     -12.394   4.393   0.164  1.00  0.00     0.031 C 
ATOM     57  C   UNL     1     -12.544   2.660  -1.598  1.00  0.00     0.034 A 
BRANCH  44  58
ATOM     58  C   UNL     1      -9.121  -0.564  -5.594  1.00  0.00     0.023 A 
ATOM     59  C   UNL     1      -8.723  -1.895  -5.369  1.00  0.00     0.012 A 
ATOM     60  C   UNL     1      -9.524  -0.165  -6.883  1.00  0.00     0.148 A 
ATOM     61  C   UNL     1      -8.704  -2.811  -6.421  1.00  0.00     0.002 A 
ATOM     62  C   UNL     1      -9.538  -1.091  -7.917  1.00  0.00     0.091 A 
ATOM     63  F   UNL     1      -9.870   1.116  -7.077  1.00  0.00    -0.205 F 
ATOM     64  C   UNL     1      -9.119  -2.413  -7.691  1.00  0.00     0.022 A 
BRANCH  62  65
ATOM     65  S   UNL     1     -10.117  -0.682  -9.566  1.00  0.00     0.127 S 
ATOM     66  O   UNL     1      -8.864  -0.637 -10.317  1.00  0.00    -0.237 OA
ATOM     67  O   UNL     1     -10.978  -1.823  -9.884  1.00  0.00    -0.237 OA
ATOM     68  O   UNL     1     -10.819   0.588  -9.441  1.00  0.00    -0.744 OA
ENDBRANCH  62  65
ENDBRANCH  44  58
BRANCH  45  69
ATOM     69  C   UNL     1      -8.939   6.275   1.647  1.00  0.00     0.023 A 
ATOM     70  C   UNL     1      -9.331   5.776   2.907  1.00  0.00     0.012 A 
ATOM     71  C   UNL     1      -8.545   7.620   1.548  1.00  0.00     0.148 A 
ATOM     72  C   UNL     1      -9.343   6.593   4.037  1.00  0.00     0.002 A 
ATOM     73  C   UNL     1      -8.502   8.417   2.690  1.00  0.00     0.091 A 
ATOM     74  F   UNL     1      -8.215   8.105   0.343  1.00  0.00    -0.205 F 
ATOM     75  C   UNL     1      -8.916   7.912   3.931  1.00  0.00     0.022 A 
BRANCH  73  76
ATOM     76  S   UNL     1      -7.803  10.071   2.653  1.00  0.00     0.127 S 
ATOM     77  O   UNL     1      -8.996  10.902   2.533  1.00  0.00    -0.237 OA
ATOM     78  O   UNL     1      -7.122  10.151   3.946  1.00  0.00    -0.237 OA
ATOM     79  O   UNL     1      -6.899  10.068   1.510  1.00  0.00    -0.744 OA
ENDBRANCH  73  76
ENDBRANCH  45  69
BRANCH  57  80
ATOM     80  C   UNL     1     -14.046   2.684  -1.455  1.00  0.00     0.023 A 
ATOM     81  C   UNL     1     -14.765   3.800  -1.931  1.00  0.00     0.012 A 
ATOM     82  C   UNL     1     -14.754   1.578  -0.943  1.00  0.00     0.148 A 
ATOM     83  C   UNL     1     -16.158   3.830  -1.874  1.00  0.00     0.002 A 
ATOM     84  C   UNL     1     -16.145   1.595  -0.931  1.00  0.00     0.091 A 
ATOM     85  F   UNL     1     -14.057   0.530  -0.480  1.00  0.00    -0.205 F 
ATOM     86  C   UNL     1     -16.848   2.724  -1.385  1.00  0.00     0.022 A 
BRANCH  84  87
ATOM     87  S   UNL     1     -17.125   0.181  -0.410  1.00  0.00     0.127 S 
ATOM     88  O   UNL     1     -17.637   0.632   0.883  1.00  0.00    -0.237 OA
ATOM     89  O   UNL     1     -18.134   0.094  -1.467  1.00  0.00    -0.237 OA
ATOM     90  O   UNL     1     -16.205  -0.947  -0.360  1.00  0.00    -0.744 OA
ENDBRANCH  84  87
ENDBRANCH  57  80
ENDBRANCH  31  32
ENDBRANCH  24  26
ENDBRANCH  23  24
ENDBRANCH  22  23
ENDBRANCH   1  22
TORSDOF 18
