REMARK SMILES COC[C@H](O)CC1(C(=O)OCCOC(=O)c2ccc(-c3c4nc(c(-c5cccc(S(=O)(=O)[O-])c5F)c5ccc([nH]5)c(-c5cccc(S(=O)(=O)[O-])c5F)c5nc(c(-c6cccc(S(=O)(=O)[O-])c6F)c6ccc3[nH]6)C=C5)C=C4)cc2)CC1
REMARK SMILES IDX 11 1 10 2 8 3 9 4 7 5 79 6 80 7 6 8 4 9 3 10 2 11 1 12 5 13
REMARK SMILES IDX 12 15 13 16 14 17 15 18 16 19 17 20 78 21 18 22 77 23 19 24
REMARK SMILES IDX 20 25 21 26 71 27 22 28 76 29 70 30 72 31 23 32 75 33 69 34
REMARK SMILES IDX 68 35 24 37 56 38 36 39 55 40 37 41 40 42 54 43 73 44 38 45
REMARK SMILES IDX 39 46 53 48 74 49 41 50 25 51 26 52 34 53 27 54 29 55 35 56
REMARK SMILES IDX 28 57 30 58 31 59 32 60 33 61 57 62 58 63 66 64 59 65 61 66
REMARK SMILES IDX 67 67 60 68 62 69 63 70 64 71 65 72 42 73 43 74 51 75 44 76
REMARK SMILES IDX 46 77 52 78 45 79 47 80 48 81 49 82 50 83
REMARK H PARENT 5 14 72 36 40 47
REMARK Flexibility Score: inf
ROOT
ATOM      1  C   UNL     1      -2.029   3.468  -1.048  1.00  0.00     0.274 C 
ENDROOT
BRANCH   1   2
ATOM      2  O   UNL     1      -1.014   4.167  -0.309  1.00  0.00    -0.462 OA
BRANCH   2   3
ATOM      3  C   UNL     1      -1.350   4.589   0.935  1.00  0.00     0.312 C 
ATOM      4  O   UNL     1      -2.476   4.710   1.381  1.00  0.00    -0.252 OA
BRANCH   3   5
ATOM      5  C   UNL     1      -0.110   4.863   1.739  1.00  0.00     0.071 C 
ATOM      6  C   UNL     1      -0.008   6.286   2.301  1.00  0.00     0.020 C 
ATOM      7  C   UNL     1       0.887   5.879   1.179  1.00  0.00     0.020 C 
BRANCH   5   8
ATOM      8  C   UNL     1       0.395   3.780   2.698  1.00  0.00     0.053 C 
BRANCH   8   9
ATOM      9  C   UNL     1       0.237   2.282   2.317  1.00  0.00     0.141 C 
BRANCH   9  10
ATOM     10  C   UNL     1       1.522   1.232   2.234  1.00  0.00     0.191 C 
BRANCH  10  11
ATOM     11  O   UNL     1       2.973   0.819   0.950  1.00  0.00    -0.382 OA
ATOM     12  C   UNL     1       4.112   1.214   0.049  1.00  0.00     0.195 C 
ENDBRANCH  10  11
ENDBRANCH   9  10
BRANCH   9  13
ATOM     13  O   UNL     1      -0.907   1.952   1.542  1.00  0.00    -0.391 OA
ATOM     14  H   UNL     1      -0.755   2.203   0.618  1.00  0.00     0.211 HD
ENDBRANCH   9  13
ENDBRANCH   8   9
ENDBRANCH   5   8
ENDBRANCH   3   5
ENDBRANCH   2   3
ENDBRANCH   1   2
BRANCH   1  15
ATOM     15  C   UNL     1      -1.308   2.515  -2.010  1.00  0.00     0.275 C 
BRANCH  15  16
ATOM     16  O   UNL     1      -0.386   1.690  -1.258  1.00  0.00    -0.458 OA
BRANCH  16  17
ATOM     17  C   UNL     1       0.879   2.175  -1.171  1.00  0.00     0.338 C 
ATOM     18  O   UNL     1       1.372   3.085  -1.814  1.00  0.00    -0.246 OA
BRANCH  17  19
ATOM     19  C   UNL     1       1.498   1.611   0.035  1.00  0.00     0.060 A 
ATOM     20  C   UNL     1       2.544   2.714   1.040  1.00  0.00     0.016 A 
ATOM     21  C   UNL     1       1.428  -0.157   0.397  1.00  0.00     0.016 A 
ATOM     22  C   UNL     1       3.562   2.020   2.378  1.00  0.00     0.010 A 
ATOM     23  C   UNL     1       2.446  -0.844   1.734  1.00  0.00     0.010 A 
ATOM     24  C   UNL     1       3.511   0.233   2.717  1.00  0.00    -0.014 A 
BRANCH  24  25
ATOM     25  C   UNL     1       4.350  -0.339   3.801  1.00  0.00     0.031 A 
ATOM     26  C   UNL     1       5.772  -0.714   3.514  1.00  0.00     0.074 A 
ATOM     27  C   UNL     1       3.856  -0.548   5.037  1.00  0.00     0.049 A 
ATOM     28  N   UNL     1       6.742  -0.997   4.344  1.00  0.00    -0.248 NA
ATOM     29  C   UNL     1       6.159  -0.768   2.100  1.00  0.00     0.031 C 
ATOM     30  C   UNL     1       2.478  -0.315   5.463  1.00  0.00     0.029 A 
ATOM     31  N   UNL     1       4.469  -1.038   6.168  1.00  0.00    -0.354 N 
ATOM     32  C   UNL     1       7.868  -1.194   3.555  1.00  0.00     0.074 A 
ATOM     33  C   UNL     1       7.457  -1.023   2.178  1.00  0.00     0.031 C 
ATOM     34  C   UNL     1       2.345  -0.677   6.750  1.00  0.00     0.029 A 
ATOM     35  C   UNL     1       3.623  -1.182   7.243  1.00  0.00     0.049 A 
ATOM     36  H   UNL     1       5.427  -1.265   6.204  1.00  0.00     0.167 HD
ATOM     37  C   UNL     1       9.130  -1.500   3.934  1.00  0.00     0.034 A 
ATOM     38  C   UNL     1       3.842  -1.675   8.479  1.00  0.00     0.034 A 
ATOM     39  C   UNL     1       9.511  -1.835   5.278  1.00  0.00     0.049 A 
ATOM     40  C   UNL     1       5.234  -2.102   8.865  1.00  0.00     0.074 A 
ATOM     41  C   UNL     1      10.762  -2.170   5.762  1.00  0.00     0.029 A 
ATOM     42  N   UNL     1       8.626  -1.953   6.338  1.00  0.00    -0.354 N 
ATOM     43  N   UNL     1       6.339  -2.049   8.161  1.00  0.00    -0.248 NA
ATOM     44  C   UNL     1       5.419  -2.620  10.229  1.00  0.00     0.031 C 
ATOM     45  C   UNL     1      10.625  -2.539   7.106  1.00  0.00     0.029 A 
ATOM     46  C   UNL     1       9.294  -2.395   7.467  1.00  0.00     0.049 A 
ATOM     47  H   UNL     1       7.663  -1.753   6.295  1.00  0.00     0.167 HD
ATOM     48  C   UNL     1       7.352  -2.498   9.002  1.00  0.00     0.074 A 
ATOM     49  C   UNL     1       6.733  -2.796  10.277  1.00  0.00     0.031 C 
ATOM     50  C   UNL     1       8.673  -2.659   8.740  1.00  0.00     0.034 A 
BRANCH  37  51
ATOM     51  C   UNL     1      10.191  -1.476   2.868  1.00  0.00     0.023 A 
ATOM     52  C   UNL     1      10.658  -0.229   2.403  1.00  0.00     0.012 A 
ATOM     53  C   UNL     1      10.749  -2.661   2.354  1.00  0.00     0.148 A 
ATOM     54  C   UNL     1      11.653  -0.161   1.429  1.00  0.00     0.002 A 
ATOM     55  C   UNL     1      11.760  -2.585   1.403  1.00  0.00     0.091 A 
ATOM     56  F   UNL     1      10.268  -3.834   2.789  1.00  0.00    -0.205 F 
ATOM     57  C   UNL     1      12.209  -1.338   0.936  1.00  0.00     0.022 A 
BRANCH  55  58
ATOM     58  S   UNL     1      12.573  -4.039   0.734  1.00  0.00     0.127 S 
ATOM     59  O   UNL     1      12.082  -4.042  -0.644  1.00  0.00    -0.237 OA
ATOM     60  O   UNL     1      13.987  -3.694   0.876  1.00  0.00    -0.237 OA
ATOM     61  O   UNL     1      12.134  -5.159   1.555  1.00  0.00    -0.744 OA
ENDBRANCH  55  58
ENDBRANCH  37  51
BRANCH  38  62
ATOM     62  C   UNL     1       2.719  -1.755   9.459  1.00  0.00     0.023 A 
ATOM     63  C   UNL     1       2.713  -0.913  10.588  1.00  0.00     0.012 A 
ATOM     64  C   UNL     1       1.642  -2.643   9.262  1.00  0.00     0.148 A 
ATOM     65  C   UNL     1       1.669  -0.969  11.513  1.00  0.00     0.002 A 
ATOM     66  C   UNL     1       0.577  -2.652  10.157  1.00  0.00     0.091 A 
ATOM     67  F   UNL     1       1.676  -3.457   8.198  1.00  0.00    -0.205 F 
ATOM     68  C   UNL     1       0.595  -1.828  11.291  1.00  0.00     0.022 A 
BRANCH  66  69
ATOM     69  S   UNL     1      -0.905  -3.628   9.871  1.00  0.00     0.127 S 
ATOM     70  O   UNL     1      -0.749  -4.703  10.847  1.00  0.00    -0.237 OA
ATOM     71  O   UNL     1      -1.965  -2.667  10.177  1.00  0.00    -0.237 OA
ATOM     72  O   UNL     1      -0.845  -4.025   8.471  1.00  0.00    -0.744 OA
ENDBRANCH  66  69
ENDBRANCH  38  62
BRANCH  50  73
ATOM     73  C   UNL     1       9.550  -3.169   9.853  1.00  0.00     0.023 A 
ATOM     74  C   UNL     1       9.464  -4.519  10.251  1.00  0.00     0.012 A 
ATOM     75  C   UNL     1      10.506  -2.331  10.459  1.00  0.00     0.148 A 
ATOM     76  C   UNL     1      10.292  -5.016  11.257  1.00  0.00     0.002 A 
ATOM     77  C   UNL     1      11.360  -2.845  11.428  1.00  0.00     0.091 A 
ATOM     78  F   UNL     1      10.560  -1.044  10.085  1.00  0.00    -0.205 F 
ATOM     79  C   UNL     1      11.247  -4.184  11.837  1.00  0.00     0.022 A 
BRANCH  77  80
ATOM     80  S   UNL     1      12.678  -1.864  12.154  1.00  0.00     0.127 S 
ATOM     81  O   UNL     1      12.108  -1.510  13.452  1.00  0.00    -0.237 OA
ATOM     82  O   UNL     1      13.786  -2.820  12.215  1.00  0.00    -0.237 OA
ATOM     83  O   UNL     1      12.896  -0.753  11.237  1.00  0.00    -0.744 OA
ENDBRANCH  77  80
ENDBRANCH  50  73
ENDBRANCH  24  25
ENDBRANCH  17  19
ENDBRANCH  16  17
ENDBRANCH  15  16
ENDBRANCH   1  15
TORSDOF 19
