REMARK SMILES [NH3+][C@@H](Cc1cn(-c2nc(Cl)nc(N3CCOCC3)n2)c2ccccc12)C(=O)OCCOC(=O)c1ccc(-c2c3nc(c(-c4cccc(S(=O)(=O)[O-])c4F)c4ccc([nH]4)c(-c4cccc(S(=O)(=O)[O-])c4F)c4nc(c(-c5cccc(S(=O)(=O)[O-])c5F)c5ccc2[nH]5)C=C4)C=C3)cc1
REMARK SMILES IDX 29 1 28 2 26 3 27 4 2 5 1 6 3 10 4 11 5 12 25 13 6 14 20 15
REMARK SMILES IDX 24 16 21 17 23 18 22 19 7 20 8 21 19 22 9 23 12 24 10 25
REMARK SMILES IDX 11 26 13 27 14 28 18 29 15 30 17 31 16 32 30 33 31 34 32 35
REMARK SMILES IDX 33 36 34 37 35 38 96 39 36 40 95 41 37 42 38 43 39 44 89 45
REMARK SMILES IDX 40 46 94 47 88 48 90 49 41 50 93 51 87 52 86 53 42 55 74 56
REMARK SMILES IDX 54 57 73 58 55 59 58 60 72 61 91 62 56 63 57 64 71 66 92 67
REMARK SMILES IDX 59 68 43 69 44 70 52 71 45 72 47 73 53 74 46 75 48 76 49 77
REMARK SMILES IDX 50 78 51 79 75 80 76 81 84 82 77 83 79 84 85 85 78 86 80 87
REMARK SMILES IDX 81 88 82 89 83 90 60 91 61 92 69 93 62 94 64 95 70 96 63 97
REMARK SMILES IDX 65 98 66 99 67 100 68 101
REMARK H PARENT 1 7 1 8 1 9 90 54 58 65
REMARK Flexibility Score: inf
ROOT
ATOM      1  C   UNL     1      -2.907   0.873  -0.350  1.00  0.00     0.274 C 
ENDROOT
BRANCH   1   2
ATOM      2  O   UNL     1      -1.476   0.711  -0.423  1.00  0.00    -0.458 OA
BRANCH   2   3
ATOM      3  C   UNL     1      -0.715   1.738   0.070  1.00  0.00     0.365 C 
ATOM      4  O   UNL     1      -1.181   2.775   0.526  1.00  0.00    -0.245 OA
BRANCH   3   5
ATOM      5  C   UNL     1       0.800   1.456  -0.067  1.00  0.00     0.296 C 
BRANCH   5   6
ATOM      6  N   UNL     1       1.093   0.005  -0.237  1.00  0.00    -0.346 N 
ATOM      7  H   UNL     1       2.100  -0.131  -0.323  1.00  0.00     0.345 HD
ATOM      8  H   UNL     1       0.631  -0.339  -1.078  1.00  0.00     0.345 HD
ATOM      9  H   UNL     1       0.749  -0.508   0.575  1.00  0.00     0.345 HD
ENDBRANCH   5   6
BRANCH   5  10
ATOM     10  C   UNL     1       1.474   2.349  -1.108  1.00  0.00     0.115 C 
BRANCH  10  11
ATOM     11  C   UNL     1       0.718   2.513  -2.369  1.00  0.00    -0.015 A 
ATOM     12  C   UNL     1       0.227   1.500  -3.150  1.00  0.00     0.099 A 
ATOM     13  C   UNL     1       0.339   3.740  -2.990  1.00  0.00     0.004 A 
ATOM     14  N   UNL     1      -0.335   2.046  -4.275  1.00  0.00    -0.285 N 
ATOM     15  C   UNL     1      -0.244   3.424  -4.222  1.00  0.00     0.056 A 
ATOM     16  C   UNL     1       0.451   5.095  -2.616  1.00  0.00     0.010 A 
ATOM     17  C   UNL     1      -0.687   4.422  -5.105  1.00  0.00     0.027 A 
ATOM     18  C   UNL     1      -0.005   6.093  -3.478  1.00  0.00     0.001 A 
ATOM     19  C   UNL     1      -0.555   5.758  -4.710  1.00  0.00     0.002 A 
BRANCH  14  20
ATOM     20  C   UNL     1      -0.901   1.242  -5.288  1.00  0.00     0.240 A 
ATOM     21  N   UNL     1      -0.487   1.415  -6.533  1.00  0.00    -0.181 NA
ATOM     22  N   UNL     1      -1.658   0.225  -4.863  1.00  0.00    -0.176 NA
ATOM     23  C   UNL     1      -0.787   0.378  -7.296  1.00  0.00     0.228 A 
ATOM     24  C   UNL     1      -1.972  -0.701  -5.752  1.00  0.00     0.231 A 
ATOM     25  Cl  UNL     1      -0.119   0.402  -8.870  1.00  0.00    -0.041 Cl
ATOM     26  N   UNL     1      -1.499  -0.703  -6.986  1.00  0.00    -0.182 NA
BRANCH  24  27
ATOM     27  N   UNL     1      -2.782  -1.712  -5.310  1.00  0.00    -0.336 N 
ATOM     28  C   UNL     1      -4.117  -1.335  -4.844  1.00  0.00     0.148 C 
ATOM     29  C   UNL     1      -2.665  -3.041  -5.889  1.00  0.00     0.148 C 
ATOM     30  C   UNL     1      -4.680  -2.437  -3.933  1.00  0.00     0.181 C 
ATOM     31  C   UNL     1      -3.241  -4.051  -4.883  1.00  0.00     0.181 C 
ATOM     32  O   UNL     1      -4.607  -3.734  -4.554  1.00  0.00    -0.378 OA
ENDBRANCH  24  27
ENDBRANCH  14  20
ENDBRANCH  10  11
ENDBRANCH   5  10
ENDBRANCH   3   5
ENDBRANCH   2   3
ENDBRANCH   1   2
BRANCH   1  33
ATOM     33  C   UNL     1      -3.514  -0.229   0.523  1.00  0.00     0.275 C 
BRANCH  33  34
ATOM     34  O   UNL     1      -3.140  -0.002   1.889  1.00  0.00    -0.458 OA
BRANCH  34  35
ATOM     35  C   UNL     1      -2.111  -0.754   2.354  1.00  0.00     0.338 C 
ATOM     36  O   UNL     1      -1.842  -1.900   2.022  1.00  0.00    -0.246 OA
BRANCH  35  37
ATOM     37  C   UNL     1      -1.205   0.167   3.077  1.00  0.00     0.060 A 
ATOM     38  C   UNL     1      -1.690   1.349   3.653  1.00  0.00     0.016 A 
ATOM     39  C   UNL     1       0.167  -0.029   2.917  1.00  0.00     0.016 A 
ATOM     40  C   UNL     1      -0.820   2.410   3.879  1.00  0.00     0.010 A 
ATOM     41  C   UNL     1       1.034   1.032   3.158  1.00  0.00     0.010 A 
ATOM     42  C   UNL     1       0.529   2.282   3.540  1.00  0.00    -0.014 A 
BRANCH  42  43
ATOM     43  C   UNL     1       1.444   3.395   3.792  1.00  0.00     0.031 A 
ATOM     44  C   UNL     1       1.957   3.372   5.171  1.00  0.00     0.074 A 
ATOM     45  C   UNL     1       1.879   4.356   2.947  1.00  0.00     0.049 A 
ATOM     46  N   UNL     1       1.549   4.142   6.125  1.00  0.00    -0.248 NA
ATOM     47  C   UNL     1       2.867   2.299   5.584  1.00  0.00     0.031 C 
ATOM     48  C   UNL     1       1.595   4.529   1.532  1.00  0.00     0.029 A 
ATOM     49  N   UNL     1       2.780   5.360   3.178  1.00  0.00    -0.354 N 
ATOM     50  C   UNL     1       2.329   3.799   7.211  1.00  0.00     0.074 A 
ATOM     51  C   UNL     1       2.965   2.544   6.891  1.00  0.00     0.031 C 
ATOM     52  C   UNL     1       2.514   5.349   0.967  1.00  0.00     0.029 A 
ATOM     53  C   UNL     1       3.314   5.931   2.022  1.00  0.00     0.049 A 
ATOM     54  H   UNL     1       3.030   5.655   4.083  1.00  0.00     0.167 HD
ATOM     55  C   UNL     1       2.619   4.699   8.183  1.00  0.00     0.034 A 
ATOM     56  C   UNL     1       4.305   6.854   1.939  1.00  0.00     0.034 A 
ATOM     57  C   UNL     1       1.815   5.886   8.114  1.00  0.00     0.049 A 
ATOM     58  C   UNL     1       4.256   7.607   3.209  1.00  0.00     0.074 A 
ATOM     59  C   UNL     1       0.462   6.159   8.154  1.00  0.00     0.029 A 
ATOM     60  N   UNL     1       2.410   7.005   7.584  1.00  0.00    -0.354 N 
ATOM     61  N   UNL     1       3.266   8.384   3.546  1.00  0.00    -0.248 NA
ATOM     62  C   UNL     1       5.131   7.188   4.287  1.00  0.00     0.031 C 
ATOM     63  C   UNL     1       0.269   7.237   7.241  1.00  0.00     0.029 A 
ATOM     64  C   UNL     1       1.517   7.582   6.721  1.00  0.00     0.049 A 
ATOM     65  H   UNL     1       3.316   7.332   7.787  1.00  0.00     0.167 HD
ATOM     66  C   UNL     1       3.118   8.162   4.906  1.00  0.00     0.074 A 
ATOM     67  C   UNL     1       4.358   7.513   5.324  1.00  0.00     0.031 C 
ATOM     68  C   UNL     1       1.897   8.266   5.504  1.00  0.00     0.034 A 
BRANCH  55  69
ATOM     69  C   UNL     1       3.894   4.635   8.957  1.00  0.00     0.023 A 
ATOM     70  C   UNL     1       3.936   5.221  10.232  1.00  0.00     0.012 A 
ATOM     71  C   UNL     1       5.112   4.205   8.381  1.00  0.00     0.148 A 
ATOM     72  C   UNL     1       5.145   5.344  10.922  1.00  0.00     0.002 A 
ATOM     73  C   UNL     1       6.292   4.248   9.104  1.00  0.00     0.091 A 
ATOM     74  F   UNL     1       5.146   3.866   7.085  1.00  0.00    -0.205 F 
ATOM     75  C   UNL     1       6.318   4.834  10.371  1.00  0.00     0.022 A 
BRANCH  73  76
ATOM     76  S   UNL     1       7.808   3.546   8.453  1.00  0.00     0.127 S 
ATOM     77  O   UNL     1       8.540   4.746   8.061  1.00  0.00    -0.237 OA
ATOM     78  O   UNL     1       8.341   2.845   9.622  1.00  0.00    -0.237 OA
ATOM     79  O   UNL     1       7.386   2.664   7.372  1.00  0.00    -0.744 OA
ENDBRANCH  73  76
ENDBRANCH  55  69
BRANCH  56  80
ATOM     80  C   UNL     1       5.452   6.993   1.002  1.00  0.00     0.023 A 
ATOM     81  C   UNL     1       6.249   8.160   1.068  1.00  0.00     0.012 A 
ATOM     82  C   UNL     1       5.971   5.881   0.304  1.00  0.00     0.148 A 
ATOM     83  C   UNL     1       7.546   8.190   0.539  1.00  0.00     0.002 A 
ATOM     84  C   UNL     1       7.263   5.918  -0.224  1.00  0.00     0.091 A 
ATOM     85  F   UNL     1       5.240   4.760   0.242  1.00  0.00    -0.205 F 
ATOM     86  C   UNL     1       8.060   7.063  -0.089  1.00  0.00     0.022 A 
BRANCH  84  87
ATOM     87  S   UNL     1       8.008   4.497  -1.040  1.00  0.00     0.127 S 
ATOM     88  O   UNL     1       8.627   5.109  -2.217  1.00  0.00    -0.237 OA
ATOM     89  O   UNL     1       8.952   4.026  -0.030  1.00  0.00    -0.237 OA
ATOM     90  O   UNL     1       6.904   3.596  -1.345  1.00  0.00    -0.744 OA
ENDBRANCH  84  87
ENDBRANCH  56  80
BRANCH  68  91
ATOM     91  C   UNL     1       0.780   8.918   4.730  1.00  0.00     0.023 A 
ATOM     92  C   UNL     1       0.177   8.305   3.611  1.00  0.00     0.012 A 
ATOM     93  C   UNL     1       0.205  10.084   5.263  1.00  0.00     0.148 A 
ATOM     94  C   UNL     1      -0.978   8.847   3.038  1.00  0.00     0.002 A 
ATOM     95  C   UNL     1      -0.962  10.598   4.714  1.00  0.00     0.091 A 
ATOM     96  F   UNL     1       0.793  10.643   6.331  1.00  0.00    -0.205 F 
ATOM     97  C   UNL     1      -1.556   9.985   3.599  1.00  0.00     0.022 A 
BRANCH  95  98
ATOM     98  S   UNL     1      -1.818  11.996   5.446  1.00  0.00     0.127 S 
ATOM     99  O   UNL     1      -1.689  13.014   4.405  1.00  0.00    -0.237 OA
ATOM    100  O   UNL     1      -3.172  11.471   5.623  1.00  0.00    -0.237 OA
ATOM    101  O   UNL     1      -1.122  12.294   6.691  1.00  0.00    -0.744 OA
ENDBRANCH  95  98
ENDBRANCH  68  91
ENDBRANCH  42  43
ENDBRANCH  35  37
ENDBRANCH  34  35
ENDBRANCH  33  34
ENDBRANCH   1  33
TORSDOF 19
