REMARK SMILES O=C(OCCOC(=O)c1ccccc1Sc1ccc(S(=O)(=O)N2CCCC2)cc1[N+](=O)[O-])c1ccc(-c2c3nc(c(-c4cccc(S(=O)(=O)[O-])c4F)c4ccc([nH]4)c(-c4cccc(S(=O)(=O)[O-])c4F)c4nc(c(-c5cccc(S(=O)(=O)[O-])c5F)c5ccc2[nH]5)C=C4)C=C3)cc1
REMARK SMILES IDX 5 1 4 2 3 3 2 4 1 5 33 6 34 7 95 8 35 9 94 10 36 11 37 12
REMARK SMILES IDX 38 13 88 14 39 15 93 16 87 17 89 18 40 19 92 20 86 21 85 22
REMARK SMILES IDX 41 24 73 25 53 26 72 27 54 28 57 29 71 30 90 31 55 32 56 33
REMARK SMILES IDX 70 35 91 36 58 37 42 38 43 39 51 40 44 41 46 42 52 43 45 44
REMARK SMILES IDX 47 45 48 46 49 47 50 48 74 49 75 50 83 51 76 52 78 53 84 54
REMARK SMILES IDX 77 55 79 56 80 57 81 58 82 59 59 60 60 61 68 62 61 63 63 64
REMARK SMILES IDX 69 65 62 66 64 67 65 68 66 69 67 70 6 71 7 72 8 73 9 74
REMARK SMILES IDX 10 75 14 76 11 77 13 78 12 79 15 80 16 81 17 82 29 83 18 84
REMARK SMILES IDX 28 85 19 86 30 87 31 88 32 89 20 90 21 91 22 92 23 93 24 94
REMARK SMILES IDX 27 95 25 96 26 97
REMARK H PARENT 89 23 57 34
REMARK Flexibility Score: inf
ROOT
ATOM      1  C   UNL     1       3.817   0.712  -0.683  1.00  0.00     0.275 C 
ENDROOT
BRANCH   1   2
ATOM      2  C   UNL     1       3.841  -0.718  -1.207  1.00  0.00     0.275 C 
BRANCH   2   3
ATOM      3  O   UNL     1       2.693  -1.482  -0.832  1.00  0.00    -0.458 OA
BRANCH   3   4
ATOM      4  C   UNL     1       2.404  -2.055   0.358  1.00  0.00     0.338 C 
ATOM      5  O   UNL     1       1.340  -2.667   0.450  1.00  0.00    -0.246 OA
BRANCH   4   6
ATOM      6  C   UNL     1       3.247  -1.923   1.594  1.00  0.00     0.060 A 
ATOM      7  C   UNL     1       4.589  -1.530   1.649  1.00  0.00     0.016 A 
ATOM      8  C   UNL     1       2.599  -2.205   2.811  1.00  0.00     0.016 A 
ATOM      9  C   UNL     1       5.238  -1.331   2.865  1.00  0.00     0.010 A 
ATOM     10  C   UNL     1       3.254  -2.054   4.035  1.00  0.00     0.010 A 
ATOM     11  C   UNL     1       4.581  -1.621   4.057  1.00  0.00    -0.014 A 
BRANCH  11  12
ATOM     12  C   UNL     1       5.393  -1.716   5.281  1.00  0.00     0.031 A 
ATOM     13  C   UNL     1       6.040  -3.029   5.556  1.00  0.00     0.074 A 
ATOM     14  C   UNL     1       5.623  -0.640   6.051  1.00  0.00     0.049 A 
ATOM     15  N   UNL     1       6.860  -3.348   6.513  1.00  0.00    -0.248 NA
ATOM     16  C   UNL     1       5.769  -4.112   4.593  1.00  0.00     0.031 C 
ATOM     17  C   UNL     1       5.120   0.690   5.758  1.00  0.00     0.029 A 
ATOM     18  N   UNL     1       6.320  -0.477   7.214  1.00  0.00    -0.354 N 
ATOM     19  C   UNL     1       7.214  -4.663   6.265  1.00  0.00     0.074 A 
ATOM     20  C   UNL     1       6.516  -5.090   5.074  1.00  0.00     0.031 C 
ATOM     21  C   UNL     1       5.462   1.535   6.743  1.00  0.00     0.029 A 
ATOM     22  C   UNL     1       6.214   0.792   7.742  1.00  0.00     0.049 A 
ATOM     23  H   UNL     1       6.846  -1.195   7.635  1.00  0.00     0.167 HD
ATOM     24  C   UNL     1       8.058  -5.439   6.975  1.00  0.00     0.034 A 
ATOM     25  C   UNL     1       6.668   1.278   8.912  1.00  0.00     0.034 A 
ATOM     26  C   UNL     1       8.670  -5.005   8.196  1.00  0.00     0.049 A 
ATOM     27  C   UNL     1       7.494   0.348   9.757  1.00  0.00     0.074 A 
ATOM     28  C   UNL     1       9.460  -5.723   9.070  1.00  0.00     0.029 A 
ATOM     29  N   UNL     1       8.524  -3.730   8.732  1.00  0.00    -0.354 N 
ATOM     30  N   UNL     1       7.855  -0.887   9.497  1.00  0.00    -0.248 NA
ATOM     31  C   UNL     1       8.009   0.875  11.025  1.00  0.00     0.031 C 
ATOM     32  C   UNL     1       9.767  -4.889  10.151  1.00  0.00     0.029 A 
ATOM     33  C   UNL     1       9.202  -3.640   9.931  1.00  0.00     0.049 A 
ATOM     34  H   UNL     1       8.013  -2.998   8.316  1.00  0.00     0.167 HD
ATOM     35  C   UNL     1       8.673  -1.275  10.546  1.00  0.00     0.074 A 
ATOM     36  C   UNL     1       8.766  -0.134  11.438  1.00  0.00     0.031 C 
ATOM     37  C   UNL     1       9.288  -2.465  10.762  1.00  0.00     0.034 A 
BRANCH  24  38
ATOM     38  C   UNL     1       8.292  -6.822   6.446  1.00  0.00     0.023 A 
ATOM     39  C   UNL     1       9.081  -7.003   5.290  1.00  0.00     0.012 A 
ATOM     40  C   UNL     1       7.660  -7.929   7.038  1.00  0.00     0.148 A 
ATOM     41  C   UNL     1       9.207  -8.265   4.710  1.00  0.00     0.002 A 
ATOM     42  C   UNL     1       7.820  -9.189   6.476  1.00  0.00     0.091 A 
ATOM     43  F   UNL     1       6.882  -7.722   8.109  1.00  0.00    -0.205 F 
ATOM     44  C   UNL     1       8.580  -9.357   5.306  1.00  0.00     0.022 A 
BRANCH  42  45
ATOM     45  S   UNL     1       7.081 -10.664   7.181  1.00  0.00     0.127 S 
ATOM     46  O   UNL     1       6.149 -11.061   6.127  1.00  0.00    -0.237 OA
ATOM     47  O   UNL     1       8.242 -11.539   7.333  1.00  0.00    -0.237 OA
ATOM     48  O   UNL     1       6.460 -10.247   8.431  1.00  0.00    -0.744 OA
ENDBRANCH  42  45
ENDBRANCH  24  38
BRANCH  25  49
ATOM     49  C   UNL     1       6.376   2.681   9.331  1.00  0.00     0.023 A 
ATOM     50  C   UNL     1       7.423   3.614   9.457  1.00  0.00     0.012 A 
ATOM     51  C   UNL     1       5.058   3.097   9.613  1.00  0.00     0.148 A 
ATOM     52  C   UNL     1       7.171   4.918   9.893  1.00  0.00     0.002 A 
ATOM     53  C   UNL     1       4.808   4.410  10.002  1.00  0.00     0.091 A 
ATOM     54  F   UNL     1       4.070   2.198   9.505  1.00  0.00    -0.205 F 
ATOM     55  C   UNL     1       5.864   5.318  10.159  1.00  0.00     0.022 A 
BRANCH  53  56
ATOM     56  S   UNL     1       3.139   5.028  10.259  1.00  0.00     0.127 S 
ATOM     57  O   UNL     1       3.052   5.056  11.716  1.00  0.00    -0.237 OA
ATOM     58  O   UNL     1       3.196   6.343   9.620  1.00  0.00    -0.237 OA
ATOM     59  O   UNL     1       2.268   4.074   9.584  1.00  0.00    -0.744 OA
ENDBRANCH  53  56
ENDBRANCH  25  49
BRANCH  37  60
ATOM     60  C   UNL     1      10.139  -2.569  11.994  1.00  0.00     0.023 A 
ATOM     61  C   UNL     1       9.533  -2.668  13.261  1.00  0.00     0.012 A 
ATOM     62  C   UNL     1      11.538  -2.653  11.876  1.00  0.00     0.148 A 
ATOM     63  C   UNL     1      10.316  -2.819  14.402  1.00  0.00     0.002 A 
ATOM     64  C   UNL     1      12.307  -2.861  13.011  1.00  0.00     0.091 A 
ATOM     65  F   UNL     1      12.088  -2.531  10.659  1.00  0.00    -0.205 F 
ATOM     66  C   UNL     1      11.700  -2.931  14.276  1.00  0.00     0.022 A 
BRANCH  64  67
ATOM     67  S   UNL     1      14.079  -3.127  12.925  1.00  0.00     0.127 S 
ATOM     68  O   UNL     1      14.594  -1.863  13.449  1.00  0.00    -0.237 OA
ATOM     69  O   UNL     1      14.262  -4.277  13.811  1.00  0.00    -0.237 OA
ATOM     70  O   UNL     1      14.377  -3.392  11.524  1.00  0.00    -0.744 OA
ENDBRANCH  64  67
ENDBRANCH  37  60
ENDBRANCH  11  12
ENDBRANCH   4   6
ENDBRANCH   3   4
ENDBRANCH   2   3
ENDBRANCH   1   2
BRANCH   1  71
ATOM     71  O   UNL     1       3.489   0.853   0.705  1.00  0.00    -0.458 OA
BRANCH  71  72
ATOM     72  C   UNL     1       2.426   1.643   0.985  1.00  0.00     0.339 C 
ATOM     73  O   UNL     1       1.748   2.258   0.177  1.00  0.00    -0.246 OA
BRANCH  72  74
ATOM     74  C   UNL     1       2.084   1.560   2.408  1.00  0.00     0.074 A 
ATOM     75  C   UNL     1       0.976   0.726   2.672  1.00  0.00     0.017 A 
ATOM     76  C   UNL     1       2.716   2.267   3.443  1.00  0.00     0.027 A 
ATOM     77  C   UNL     1       0.513   0.539   3.972  1.00  0.00     0.001 A 
ATOM     78  C   UNL     1       2.188   2.086   4.744  1.00  0.00     0.016 A 
ATOM     79  C   UNL     1       1.125   1.218   5.011  1.00  0.00     0.001 A 
BRANCH  76  80
ATOM     80  S   UNL     1       4.120   3.381   3.442  1.00  0.00    -0.082 SA
BRANCH  80  81
ATOM     81  C   UNL     1       4.836   3.465   1.831  1.00  0.00     0.090 A 
ATOM     82  C   UNL     1       6.006   2.719   1.584  1.00  0.00     0.024 A 
ATOM     83  C   UNL     1       4.362   4.277   0.796  1.00  0.00     0.284 A 
ATOM     84  C   UNL     1       6.598   2.690   0.309  1.00  0.00     0.023 A 
ATOM     85  C   UNL     1       4.950   4.254  -0.478  1.00  0.00     0.108 A 
ATOM     86  C   UNL     1       6.029   3.421  -0.741  1.00  0.00     0.089 A 
BRANCH  83  87
ATOM     87  N   UNL     1       3.223   5.176   0.968  1.00  0.00     0.063 N 
ATOM     88  O   UNL     1       2.404   5.221   0.038  1.00  0.00    -0.258 OA
ATOM     89  O   UNL     1       3.204   5.910   1.961  1.00  0.00    -0.258 OA
ENDBRANCH  83  87
BRANCH  86  90
ATOM     90  S   UNL     1       6.611   3.137  -2.409  1.00  0.00     0.243 S 
ATOM     91  O   UNL     1       7.671   4.093  -2.637  1.00  0.00    -0.207 OA
ATOM     92  O   UNL     1       6.838   1.709  -2.510  1.00  0.00    -0.207 OA
BRANCH  90  93
ATOM     93  N   UNL     1       5.352   3.495  -3.463  1.00  0.00    -0.198 NA
ATOM     94  C   UNL     1       4.946   4.873  -3.763  1.00  0.00     0.102 C 
ATOM     95  C   UNL     1       4.209   2.607  -3.683  1.00  0.00     0.102 C 
ATOM     96  C   UNL     1       3.417   4.879  -3.651  1.00  0.00     0.018 C 
ATOM     97  C   UNL     1       3.007   3.452  -3.306  1.00  0.00     0.018 C 
ENDBRANCH  90  93
ENDBRANCH  86  90
ENDBRANCH  80  81
ENDBRANCH  76  80
ENDBRANCH  72  74
ENDBRANCH  71  72
ENDBRANCH   1  71
TORSDOF 19
