REMARK SMILES O=C(OCCOC(=O)[C@H]1Cc2c([nH]c3ccccc23)[C@H](c2c[nH]c3ccccc23)[NH2+]1)c1ccc(-c2c3nc(c(-c4cccc(S(=O)(=O)[O-])c4F)c4ccc([nH]4)c(-c4cccc(S(=O)(=O)[O-])c4F)c4nc(c(-c5cccc(S(=O)(=O)[O-])c5F)c5ccc2[nH]5)C=C4)C=C3)cc1
REMARK SMILES IDX 4 1 3 2 2 3 1 4 31 5 32 6 93 7 33 8 92 9 34 10 35 11 36 12
REMARK SMILES IDX 86 13 37 14 91 15 85 16 87 17 38 18 90 19 84 20 83 21 39 23
REMARK SMILES IDX 71 24 51 25 70 26 52 27 55 28 69 29 88 30 53 31 54 32 68 34
REMARK SMILES IDX 89 35 56 36 40 37 41 38 49 39 42 40 44 41 50 42 43 43 45 44
REMARK SMILES IDX 46 45 47 46 48 47 72 48 73 49 81 50 74 51 76 52 82 53 75 54
REMARK SMILES IDX 77 55 78 56 79 57 80 58 57 59 58 60 66 61 59 62 61 63 67 64
REMARK SMILES IDX 60 65 62 66 63 67 64 68 65 69 5 70 6 71 7 72 8 73 9 74 10 75
REMARK SMILES IDX 30 76 11 77 20 78 12 81 19 82 13 83 14 84 18 85 15 87 17 88
REMARK SMILES IDX 16 89 21 90 22 91 29 92 23 93 24 94 28 95 25 97 27 98 26 99
REMARK H PARENT 87 22 55 33 30 79 30 80 13 86 23 96
REMARK Flexibility Score: inf
ROOT
ATOM      1  C   UNL     1       4.165   1.569   0.008  1.00  0.00     0.275 C 
ENDROOT
BRANCH   1   2
ATOM      2  O   UNL     1       3.256   0.896  -0.875  1.00  0.00    -0.458 OA
BRANCH   2   3
ATOM      3  C   UNL     1       3.319  -0.356  -1.390  1.00  0.00     0.338 C 
ATOM      4  O   UNL     1       2.539  -0.651  -2.296  1.00  0.00    -0.246 OA
BRANCH   3   5
ATOM      5  C   UNL     1       4.197  -1.441  -0.843  1.00  0.00     0.060 A 
ATOM      6  C   UNL     1       5.472  -1.289  -0.286  1.00  0.00     0.016 A 
ATOM      7  C   UNL     1       3.676  -2.741  -0.917  1.00  0.00     0.016 A 
ATOM      8  C   UNL     1       6.157  -2.378   0.288  1.00  0.00     0.010 A 
ATOM      9  C   UNL     1       4.356  -3.823  -0.343  1.00  0.00     0.010 A 
ATOM     10  C   UNL     1       5.593  -3.656   0.301  1.00  0.00    -0.014 A 
BRANCH  10  11
ATOM     11  C   UNL     1       6.283  -4.834   0.912  1.00  0.00     0.031 A 
ATOM     12  C   UNL     1       6.640  -6.001   0.031  1.00  0.00     0.074 A 
ATOM     13  C   UNL     1       6.564  -4.923   2.232  1.00  0.00     0.049 A 
ATOM     14  N   UNL     1       7.235  -7.117   0.360  1.00  0.00    -0.248 NA
ATOM     15  C   UNL     1       6.323  -5.888  -1.403  1.00  0.00     0.031 C 
ATOM     16  C   UNL     1       6.361  -3.875   3.228  1.00  0.00     0.029 A 
ATOM     17  N   UNL     1       7.039  -5.981   2.982  1.00  0.00    -0.354 N 
ATOM     18  C   UNL     1       7.439  -7.792  -0.833  1.00  0.00     0.074 A 
ATOM     19  C   UNL     1       6.766  -7.044  -1.869  1.00  0.00     0.031 C 
ATOM     20  C   UNL     1       6.592  -4.376   4.457  1.00  0.00     0.029 A 
ATOM     21  C   UNL     1       6.960  -5.776   4.346  1.00  0.00     0.049 A 
ATOM     22  H   UNL     1       7.399  -6.805   2.582  1.00  0.00     0.167 HD
ATOM     23  C   UNL     1       8.223  -8.868  -1.070  1.00  0.00     0.034 A 
ATOM     24  C   UNL     1       7.143  -6.621   5.382  1.00  0.00     0.034 A 
ATOM     25  C   UNL     1       8.896  -9.619  -0.053  1.00  0.00     0.049 A 
ATOM     26  C   UNL     1       7.754  -7.962   5.114  1.00  0.00     0.074 A 
ATOM     27  C   UNL     1       9.789 -10.665  -0.198  1.00  0.00     0.029 A 
ATOM     28  N   UNL     1       8.721  -9.426   1.307  1.00  0.00    -0.354 N 
ATOM     29  N   UNL     1       8.084  -8.496   3.968  1.00  0.00    -0.248 NA
ATOM     30  C   UNL     1       8.141  -8.754   6.292  1.00  0.00     0.031 C 
ATOM     31  C   UNL     1      10.125 -11.130   1.079  1.00  0.00     0.029 A 
ATOM     32  C   UNL     1       9.462 -10.355   2.015  1.00  0.00     0.049 A 
ATOM     33  H   UNL     1       8.153  -8.731   1.710  1.00  0.00     0.167 HD
ATOM     34  C   UNL     1       8.823  -9.625   4.287  1.00  0.00     0.074 A 
ATOM     35  C   UNL     1       8.833  -9.734   5.731  1.00  0.00     0.031 C 
ATOM     36  C   UNL     1       9.486 -10.456   3.449  1.00  0.00     0.034 A 
BRANCH  23  37
ATOM     37  C   UNL     1       8.465  -9.199  -2.512  1.00  0.00     0.023 A 
ATOM     38  C   UNL     1       9.289  -8.342  -3.275  1.00  0.00     0.012 A 
ATOM     39  C   UNL     1       7.874 -10.319  -3.117  1.00  0.00     0.148 A 
ATOM     40  C   UNL     1       9.483  -8.569  -4.634  1.00  0.00     0.002 A 
ATOM     41  C   UNL     1       8.101 -10.559  -4.465  1.00  0.00     0.091 A 
ATOM     42  F   UNL     1       7.082 -11.103  -2.372  1.00  0.00    -0.205 F 
ATOM     43  C   UNL     1       8.892  -9.680  -5.227  1.00  0.00     0.022 A 
BRANCH  41  44
ATOM     44  S   UNL     1       7.420 -11.979  -5.324  1.00  0.00     0.127 S 
ATOM     45  O   UNL     1       6.551 -11.338  -6.310  1.00  0.00    -0.237 OA
ATOM     46  O   UNL     1       8.622 -12.600  -5.880  1.00  0.00    -0.237 OA
ATOM     47  O   UNL     1       6.730 -12.769  -4.314  1.00  0.00    -0.744 OA
ENDBRANCH  41  44
ENDBRANCH  23  37
BRANCH  24  48
ATOM     48  C   UNL     1       6.830  -6.258   6.793  1.00  0.00     0.023 A 
ATOM     49  C   UNL     1       7.783  -5.620   7.605  1.00  0.00     0.012 A 
ATOM     50  C   UNL     1       5.614  -6.670   7.367  1.00  0.00     0.148 A 
ATOM     51  C   UNL     1       7.523  -5.394   8.962  1.00  0.00     0.002 A 
ATOM     52  C   UNL     1       5.340  -6.397   8.706  1.00  0.00     0.091 A 
ATOM     53  F   UNL     1       4.749  -7.359   6.607  1.00  0.00    -0.205 F 
ATOM     54  C   UNL     1       6.297  -5.767   9.510  1.00  0.00     0.022 A 
BRANCH  52  55
ATOM     55  S   UNL     1       3.693  -6.657   9.384  1.00  0.00     0.127 S 
ATOM     56  O   UNL     1       3.842  -7.924  10.090  1.00  0.00    -0.237 OA
ATOM     57  O   UNL     1       3.523  -5.482  10.239  1.00  0.00    -0.237 OA
ATOM     58  O   UNL     1       2.826  -6.665   8.209  1.00  0.00    -0.744 OA
ENDBRANCH  52  55
ENDBRANCH  24  48
BRANCH  36  59
ATOM     59  C   UNL     1      10.350 -11.509   4.077  1.00  0.00     0.023 A 
ATOM     60  C   UNL     1       9.769 -12.621   4.713  1.00  0.00     0.012 A 
ATOM     61  C   UNL     1      11.752 -11.395   4.011  1.00  0.00     0.148 A 
ATOM     62  C   UNL     1      10.575 -13.590   5.308  1.00  0.00     0.002 A 
ATOM     63  C   UNL     1      12.548 -12.393   4.553  1.00  0.00     0.091 A 
ATOM     64  F   UNL     1      12.280 -10.307   3.430  1.00  0.00    -0.205 F 
ATOM     65  C   UNL     1      11.962 -13.483   5.216  1.00  0.00     0.022 A 
BRANCH  63  66
ATOM     66  S   UNL     1      14.335 -12.386   4.391  1.00  0.00     0.127 S 
ATOM     67  O   UNL     1      14.759 -12.091   5.758  1.00  0.00    -0.237 OA
ATOM     68  O   UNL     1      14.608 -13.754   3.948  1.00  0.00    -0.237 OA
ATOM     69  O   UNL     1      14.646 -11.360   3.404  1.00  0.00    -0.744 OA
ENDBRANCH  63  66
ENDBRANCH  36  59
ENDBRANCH  10  11
ENDBRANCH   3   5
ENDBRANCH   2   3
ENDBRANCH   1   2
BRANCH   1  70
ATOM     70  C   UNL     1       3.909   1.345   1.497  1.00  0.00     0.274 C 
BRANCH  70  71
ATOM     71  O   UNL     1       3.435   0.031   1.805  1.00  0.00    -0.458 OA
BRANCH  71  72
ATOM     72  C   UNL     1       2.079  -0.096   1.970  1.00  0.00     0.365 C 
ATOM     73  O   UNL     1       1.290   0.841   1.885  1.00  0.00    -0.245 OA
BRANCH  72  74
ATOM     74  C   UNL     1       1.683  -1.524   2.377  1.00  0.00     0.298 C 
ATOM     75  C   UNL     1       0.305  -1.867   1.759  1.00  0.00     0.115 C 
ATOM     76  N   UNL     1       2.729  -2.496   1.967  1.00  0.00    -0.323 N 
ATOM     77  C   UNL     1       0.046  -3.333   1.864  1.00  0.00    -0.006 A 
ATOM     78  C   UNL     1       2.496  -3.864   2.434  1.00  0.00     0.264 C 
ATOM     79  H   UNL     1       3.624  -2.179   2.340  1.00  0.00     0.347 HD
ATOM     80  H   UNL     1       2.714  -2.528   0.948  1.00  0.00     0.347 HD
ATOM     81  C   UNL     1       1.077  -4.214   2.120  1.00  0.00     0.083 A 
ATOM     82  C   UNL     1      -1.152  -4.089   1.800  1.00  0.00     0.003 A 
ATOM     83  N   UNL     1       0.579  -5.484   2.046  1.00  0.00    -0.353 N 
ATOM     84  C   UNL     1      -0.790  -5.435   1.911  1.00  0.00     0.046 A 
ATOM     85  C   UNL     1      -2.517  -3.766   1.684  1.00  0.00     0.010 A 
ATOM     86  H   UNL     1       1.117  -6.308   2.082  1.00  0.00     0.166 HD
ATOM     87  C   UNL     1      -1.725  -6.475   1.901  1.00  0.00     0.026 A 
ATOM     88  C   UNL     1      -3.467  -4.793   1.706  1.00  0.00     0.001 A 
ATOM     89  C   UNL     1      -3.074  -6.127   1.809  1.00  0.00     0.002 A 
BRANCH  78  90
ATOM     90  C   UNL     1       2.854  -4.071   3.887  1.00  0.00     0.041 A 
ATOM     91  C   UNL     1       2.723  -5.299   4.526  1.00  0.00     0.093 A 
ATOM     92  C   UNL     1       3.480  -3.196   4.859  1.00  0.00     0.009 A 
ATOM     93  N   UNL     1       3.051  -5.160   5.844  1.00  0.00    -0.361 N 
ATOM     94  C   UNL     1       3.581  -3.910   6.054  1.00  0.00     0.046 A 
ATOM     95  C   UNL     1       4.020  -1.884   4.860  1.00  0.00     0.011 A 
ATOM     96  H   UNL     1       2.927  -5.849   6.536  1.00  0.00     0.166 HD
ATOM     97  C   UNL     1       4.162  -3.382   7.213  1.00  0.00     0.026 A 
ATOM     98  C   UNL     1       4.654  -1.364   5.995  1.00  0.00     0.001 A 
ATOM     99  C   UNL     1       4.726  -2.111   7.159  1.00  0.00     0.002 A 
ENDBRANCH  78  90
ENDBRANCH  72  74
ENDBRANCH  71  72
ENDBRANCH  70  71
ENDBRANCH   1  70
TORSDOF 15
