REMARK SMILES O=C(CS[C@@H]1CCS(=O)(=O)C1)Nc1nc(CC(=O)OCCOC(=O)c2ccc(-c3c4nc(c(-c5cccc(S(=O)(=O)[O-])c5F)c5ccc([nH]5)c(-c5cccc(S(=O)(=O)[O-])c5F)c5nc(c(-c6cccc(S(=O)(=O)[O-])c6F)c6ccc3[nH]6)C=C5)C=C4)cc2)cs1
REMARK SMILES IDX 20 1 19 2 17 3 18 4 16 5 15 6 13 7 14 8 89 9 88 10 12 11
REMARK SMILES IDX 1 12 2 13 3 15 4 16 5 17 6 18 11 19 7 20 8 21 9 22 10 23
REMARK SMILES IDX 21 24 22 25 23 26 24 27 25 28 26 29 87 30 27 31 86 32 28 33
REMARK SMILES IDX 29 34 30 35 80 36 31 37 85 38 79 39 81 40 32 41 84 42 78 43
REMARK SMILES IDX 77 44 33 46 65 47 45 48 64 49 46 50 49 51 63 52 82 53 47 54
REMARK SMILES IDX 48 55 62 57 83 58 50 59 34 60 35 61 43 62 36 63 38 64 44 65
REMARK SMILES IDX 37 66 39 67 40 68 41 69 42 70 66 71 67 72 75 73 68 74 70 75
REMARK SMILES IDX 76 76 69 77 71 78 72 79 73 80 74 81 51 82 52 83 60 84 53 85
REMARK SMILES IDX 55 86 61 87 54 88 56 89 57 90 58 91 59 92
REMARK H PARENT 12 14 81 45 49 56
REMARK Flexibility Score: inf
ROOT
ATOM      1  C   UNL     1       0.853   0.810   7.691  1.00  0.00     0.274 C 
ENDROOT
BRANCH   1   2
ATOM      2  O   UNL     1       0.735   0.678   6.262  1.00  0.00    -0.462 OA
BRANCH   2   3
ATOM      3  C   UNL     1      -0.529   0.584   5.766  1.00  0.00     0.312 C 
ATOM      4  O   UNL     1      -1.540   0.519   6.457  1.00  0.00    -0.252 OA
BRANCH   3   5
ATOM      5  C   UNL     1      -0.588   0.537   4.257  1.00  0.00     0.179 C 
BRANCH   5   6
ATOM      6  C   UNL     1       0.636   1.024   3.555  1.00  0.00     0.065 A 
ATOM      7  C   UNL     1       2.208   0.821   2.025  1.00  0.00     0.189 A 
ATOM      8  N   UNL     1       1.149   0.245   2.528  1.00  0.00    -0.224 NA
ATOM      9  S   UNL     1       2.744   2.229   2.820  1.00  0.00    -0.105 S 
ATOM     10  C   UNL     1       1.310   2.216   3.752  1.00  0.00     0.093 A 
BRANCH   7  11
ATOM     11  N   UNL     1       2.928   0.482   0.912  1.00  0.00    -0.301 N 
ATOM     12  O   UNL     1       1.440  -1.124   0.122  1.00  0.00    -0.274 OA
ATOM     13  C   UNL     1       2.466  -0.452   0.013  1.00  0.00     0.236 C 
ATOM     14  H   UNL     1       3.797   0.916   0.751  1.00  0.00     0.172 HD
BRANCH  13  15
ATOM     15  C   UNL     1       3.344  -0.672  -1.207  1.00  0.00     0.170 C 
BRANCH  15  16
ATOM     16  S   UNL     1       4.241   0.796  -1.808  1.00  0.00    -0.148 SA
BRANCH  16  17
ATOM     17  C   UNL     1       2.895   1.749  -2.643  1.00  0.00     0.063 C 
ATOM     18  C   UNL     1       3.517   2.926  -3.423  1.00  0.00     0.031 C 
ATOM     19  C   UNL     1       1.898   2.417  -1.701  1.00  0.00     0.151 C 
ATOM     20  C   UNL     1       3.861   4.045  -2.437  1.00  0.00     0.138 C 
ATOM     21  S   UNL     1       2.771   3.825  -1.047  1.00  0.00     0.151 S 
ATOM     22  O   UNL     1       3.578   3.386   0.073  1.00  0.00    -0.229 OA
ATOM     23  O   UNL     1       1.861   4.945  -0.959  1.00  0.00    -0.229 OA
ENDBRANCH  16  17
ENDBRANCH  15  16
ENDBRANCH  13  15
ENDBRANCH   7  11
ENDBRANCH   5   6
ENDBRANCH   3   5
ENDBRANCH   2   3
ENDBRANCH   1   2
BRANCH   1  24
ATOM     24  C   UNL     1       1.036   2.274   8.081  1.00  0.00     0.275 C 
BRANCH  24  25
ATOM     25  O   UNL     1      -0.114   3.035   7.673  1.00  0.00    -0.458 OA
BRANCH  25  26
ATOM     26  C   UNL     1       0.134   4.096   6.875  1.00  0.00     0.338 C 
ATOM     27  O   UNL     1       1.219   4.505   6.496  1.00  0.00    -0.246 OA
BRANCH  26  28
ATOM     28  C   UNL     1      -1.136   4.716   6.474  1.00  0.00     0.060 A 
ATOM     29  C   UNL     1      -1.952   4.090   5.528  1.00  0.00     0.016 A 
ATOM     30  C   UNL     1      -1.461   5.976   6.971  1.00  0.00     0.016 A 
ATOM     31  C   UNL     1      -3.091   4.742   5.054  1.00  0.00     0.010 A 
ATOM     32  C   UNL     1      -2.628   6.604   6.532  1.00  0.00     0.010 A 
ATOM     33  C   UNL     1      -3.442   6.003   5.556  1.00  0.00    -0.014 A 
BRANCH  33  34
ATOM     34  C   UNL     1      -4.658   6.708   5.072  1.00  0.00     0.031 A 
ATOM     35  C   UNL     1      -4.532   8.007   4.324  1.00  0.00     0.074 A 
ATOM     36  C   UNL     1      -5.876   6.218   5.376  1.00  0.00     0.049 A 
ATOM     37  N   UNL     1      -5.470   8.840   3.953  1.00  0.00    -0.248 NA
ATOM     38  C   UNL     1      -3.171   8.433   3.956  1.00  0.00     0.031 C 
ATOM     39  C   UNL     1      -6.128   4.982   6.117  1.00  0.00     0.029 A 
ATOM     40  N   UNL     1      -7.130   6.725   5.136  1.00  0.00    -0.354 N 
ATOM     41  C   UNL     1      -4.814   9.914   3.363  1.00  0.00     0.074 A 
ATOM     42  C   UNL     1      -3.397   9.624   3.416  1.00  0.00     0.031 C 
ATOM     43  C   UNL     1      -7.450   4.840   6.298  1.00  0.00     0.029 A 
ATOM     44  C   UNL     1      -8.135   5.996   5.727  1.00  0.00     0.049 A 
ATOM     45  H   UNL     1      -7.293   7.531   4.594  1.00  0.00     0.167 HD
ATOM     46  C   UNL     1      -5.346  11.035   2.820  1.00  0.00     0.034 A 
ATOM     47  C   UNL     1      -9.455   6.247   5.835  1.00  0.00     0.034 A 
ATOM     48  C   UNL     1      -6.758  11.293   2.721  1.00  0.00     0.049 A 
ATOM     49  C   UNL     1     -10.019   7.490   5.202  1.00  0.00     0.074 A 
ATOM     50  C   UNL     1      -7.395  12.359   2.108  1.00  0.00     0.029 A 
ATOM     51  N   UNL     1      -7.752  10.488   3.255  1.00  0.00    -0.354 N 
ATOM     52  N   UNL     1      -9.397   8.429   4.532  1.00  0.00    -0.248 NA
ATOM     53  C   UNL     1     -11.470   7.694   5.315  1.00  0.00     0.031 C 
ATOM     54  C   UNL     1      -8.773  12.210   2.294  1.00  0.00     0.029 A 
ATOM     55  C   UNL     1      -8.996  11.039   3.000  1.00  0.00     0.049 A 
ATOM     56  H   UNL     1      -7.595   9.647   3.743  1.00  0.00     0.167 HD
ATOM     57  C   UNL     1     -10.382   9.319   4.120  1.00  0.00     0.074 A 
ATOM     58  C   UNL     1     -11.646   8.792   4.593  1.00  0.00     0.031 C 
ATOM     59  C   UNL     1     -10.251  10.478   3.428  1.00  0.00     0.034 A 
BRANCH  46  60
ATOM     60  C   UNL     1      -4.404  12.068   2.259  1.00  0.00     0.023 A 
ATOM     61  C   UNL     1      -3.752  11.829   1.033  1.00  0.00     0.012 A 
ATOM     62  C   UNL     1      -4.237  13.311   2.901  1.00  0.00     0.148 A 
ATOM     63  C   UNL     1      -2.930  12.803   0.465  1.00  0.00     0.002 A 
ATOM     64  C   UNL     1      -3.449  14.292   2.309  1.00  0.00     0.091 A 
ATOM     65  F   UNL     1      -4.851  13.511   4.076  1.00  0.00    -0.205 F 
ATOM     66  C   UNL     1      -2.789  14.036   1.096  1.00  0.00     0.022 A 
BRANCH  64  67
ATOM     67  S   UNL     1      -3.268  15.940   3.001  1.00  0.00     0.127 S 
ATOM     68  O   UNL     1      -1.874  15.923   3.443  1.00  0.00    -0.237 OA
ATOM     69  O   UNL     1      -3.528  16.792   1.840  1.00  0.00    -0.237 OA
ATOM     70  O   UNL     1      -4.258  16.042   4.064  1.00  0.00    -0.744 OA
ENDBRANCH  64  67
ENDBRANCH  46  60
BRANCH  47  71
ATOM     71  C   UNL     1     -10.336   5.289   6.561  1.00  0.00     0.023 A 
ATOM     72  C   UNL     1     -11.274   4.526   5.841  1.00  0.00     0.012 A 
ATOM     73  C   UNL     1     -10.230   5.112   7.955  1.00  0.00     0.148 A 
ATOM     74  C   UNL     1     -12.112   3.625   6.500  1.00  0.00     0.002 A 
ATOM     75  C   UNL     1     -11.027   4.171   8.596  1.00  0.00     0.091 A 
ATOM     76  F   UNL     1      -9.345   5.862   8.627  1.00  0.00    -0.205 F 
ATOM     77  C   UNL     1     -11.981   3.439   7.874  1.00  0.00     0.022 A 
BRANCH  75  78
ATOM     78  S   UNL     1     -10.825   3.773  10.336  1.00  0.00     0.127 S 
ATOM     79  O   UNL     1     -11.983   4.435  10.931  1.00  0.00    -0.237 OA
ATOM     80  O   UNL     1     -10.889   2.311  10.325  1.00  0.00    -0.237 OA
ATOM     81  O   UNL     1      -9.523   4.310  10.709  1.00  0.00    -0.744 OA
ENDBRANCH  75  78
ENDBRANCH  47  71
BRANCH  59  82
ATOM     82  C   UNL     1     -11.506  11.246   3.109  1.00  0.00     0.023 A 
ATOM     83  C   UNL     1     -12.177  11.945   4.131  1.00  0.00     0.012 A 
ATOM     84  C   UNL     1     -11.978  11.336   1.784  1.00  0.00     0.148 A 
ATOM     85  C   UNL     1     -13.317  12.696   3.846  1.00  0.00     0.002 A 
ATOM     86  C   UNL     1     -13.087  12.124   1.500  1.00  0.00     0.091 A 
ATOM     87  F   UNL     1     -11.337  10.648   0.828  1.00  0.00    -0.205 F 
ATOM     88  C   UNL     1     -13.765  12.795   2.531  1.00  0.00     0.022 A 
BRANCH  86  89
ATOM     89  S   UNL     1     -13.675  12.386  -0.177  1.00  0.00     0.127 S 
ATOM     90  O   UNL     1     -14.890  11.572  -0.198  1.00  0.00    -0.237 OA
ATOM     91  O   UNL     1     -13.908  13.830  -0.205  1.00  0.00    -0.237 OA
ATOM     92  O   UNL     1     -12.603  11.932  -1.053  1.00  0.00    -0.744 OA
ENDBRANCH  86  89
ENDBRANCH  59  82
ENDBRANCH  33  34
ENDBRANCH  26  28
ENDBRANCH  25  26
ENDBRANCH  24  25
ENDBRANCH   1  24
TORSDOF 19
