REMARK SMILES CN(Cc1ccccc1Br)C(=O)N[C@H]1C=C[C@H](C(=O)OCCOC(=O)c2ccc(-c3c4nc(c(-c5cccc(S(=O)(=O)[O-])c5F)c5ccc([nH]5)c(-c5cccc(S(=O)(=O)[O-])c5F)c5nc(c(-c6cccc(S(=O)(=O)[O-])c6F)c6ccc3[nH]6)C=C5)C=C4)cc2)C1
REMARK SMILES IDX 21 1 20 2 18 3 19 4 17 5 14 6 15 7 89 8 16 9 13 10 11 11
REMARK SMILES IDX 12 12 2 14 1 15 3 16 4 17 5 18 9 19 6 20 8 21 10 22 7 23
REMARK SMILES IDX 22 24 23 25 24 26 25 27 26 28 27 29 88 30 28 31 87 32 29 33
REMARK SMILES IDX 30 34 31 35 81 36 32 37 86 38 80 39 82 40 33 41 85 42 79 43
REMARK SMILES IDX 78 44 34 46 66 47 46 48 65 49 47 50 50 51 64 52 83 53 48 54
REMARK SMILES IDX 49 55 63 57 84 58 51 59 35 60 36 61 44 62 37 63 39 64 45 65
REMARK SMILES IDX 38 66 40 67 41 68 42 69 43 70 67 71 68 72 76 73 69 74 71 75
REMARK SMILES IDX 77 76 70 77 72 78 73 79 74 80 75 81 52 82 53 83 61 84 54 85
REMARK SMILES IDX 56 86 62 87 55 88 57 89 58 90 59 91 60 92
REMARK H PARENT 13 13 82 45 50 56
REMARK Flexibility Score: inf
ROOT
ATOM      1  C   UNL     1      -3.822   7.323   0.967  1.00  0.00     0.274 C 
ENDROOT
BRANCH   1   2
ATOM      2  O   UNL     1      -3.369   6.551   2.097  1.00  0.00    -0.462 OA
BRANCH   2   3
ATOM      3  C   UNL     1      -2.122   6.017   1.974  1.00  0.00     0.312 C 
ATOM      4  O   UNL     1      -1.432   6.100   0.965  1.00  0.00    -0.252 OA
BRANCH   3   5
ATOM      5  C   UNL     1      -1.642   5.366   3.274  1.00  0.00     0.124 C 
ATOM      6  C   UNL     1      -0.673   3.306   2.509  1.00  0.00     0.107 C 
ATOM      7  C   UNL     1      -1.905   3.042   3.317  1.00  0.00    -0.006 C 
ATOM      8  C   UNL     1      -0.276   4.673   3.061  1.00  0.00     0.048 C 
ATOM      9  C   UNL     1      -2.477   4.193   3.697  1.00  0.00    -0.014 C 
BRANCH   6  10
ATOM     10  N   UNL     1       0.299   2.270   2.700  1.00  0.00    -0.332 N 
ATOM     11  C   UNL     1       0.700   1.194   1.998  1.00  0.00     0.317 C 
ATOM     12  O   UNL     1       1.499   0.459   2.593  1.00  0.00    -0.249 OA
ATOM     13  H   UNL     1       0.791   2.369   3.547  1.00  0.00     0.165 HD
BRANCH  11  14
ATOM     14  N   UNL     1       0.270   0.885   0.732  1.00  0.00    -0.324 N 
ATOM     15  C   UNL     1       0.869  -0.312   0.155  1.00  0.00     0.149 C 
BRANCH  14  16
ATOM     16  C   UNL     1      -0.573   1.668  -0.184  1.00  0.00     0.157 C 
BRANCH  16  17
ATOM     17  C   UNL     1      -2.058   1.657   0.146  1.00  0.00    -0.014 A 
ATOM     18  C   UNL     1      -2.605   0.669   0.985  1.00  0.00     0.007 A 
ATOM     19  C   UNL     1      -2.917   2.672  -0.317  1.00  0.00     0.022 A 
ATOM     20  C   UNL     1      -3.921   0.763   1.448  1.00  0.00     0.000 A 
ATOM     21  C   UNL     1      -4.227   2.777   0.165  1.00  0.00     0.016 A 
ATOM     22  Br  UNL     1      -2.367   3.963  -1.598  1.00  0.00    -0.050 Br
ATOM     23  C   UNL     1      -4.720   1.835   1.065  1.00  0.00     0.001 A 
ENDBRANCH  16  17
ENDBRANCH  14  16
ENDBRANCH  11  14
ENDBRANCH   6  10
ENDBRANCH   3   5
ENDBRANCH   2   3
ENDBRANCH   1   2
BRANCH   1  24
ATOM     24  C   UNL     1      -3.651   8.828   1.207  1.00  0.00     0.275 C 
BRANCH  24  25
ATOM     25  O   UNL     1      -2.266   9.215   1.266  1.00  0.00    -0.458 OA
BRANCH  25  26
ATOM     26  C   UNL     1      -1.714   9.214   2.504  1.00  0.00     0.338 C 
ATOM     27  O   UNL     1      -2.273   8.966   3.559  1.00  0.00    -0.246 OA
BRANCH  26  28
ATOM     28  C   UNL     1      -0.254   9.358   2.383  1.00  0.00     0.060 A 
ATOM     29  C   UNL     1       0.529   8.268   2.768  1.00  0.00     0.016 A 
ATOM     30  C   UNL     1       0.346  10.533   1.935  1.00  0.00     0.016 A 
ATOM     31  C   UNL     1       1.911   8.314   2.666  1.00  0.00     0.010 A 
ATOM     32  C   UNL     1       1.742  10.594   1.858  1.00  0.00     0.010 A 
ATOM     33  C   UNL     1       2.527   9.481   2.213  1.00  0.00    -0.014 A 
BRANCH  33  34
ATOM     34  C   UNL     1       4.001   9.534   2.141  1.00  0.00     0.031 A 
ATOM     35  C   UNL     1       4.771  10.208   3.232  1.00  0.00     0.074 A 
ATOM     36  C   UNL     1       4.633   8.962   1.100  1.00  0.00     0.049 A 
ATOM     37  N   UNL     1       6.052  10.448   3.307  1.00  0.00    -0.248 NA
ATOM     38  C   UNL     1       3.999  10.666   4.399  1.00  0.00     0.031 C 
ATOM     39  C   UNL     1       3.979   8.229   0.017  1.00  0.00     0.029 A 
ATOM     40  N   UNL     1       5.965   8.931   0.773  1.00  0.00    -0.354 N 
ATOM     41  C   UNL     1       6.239  11.118   4.508  1.00  0.00     0.074 A 
ATOM     42  C   UNL     1       4.941  11.236   5.137  1.00  0.00     0.031 C 
ATOM     43  C   UNL     1       4.907   7.852  -0.877  1.00  0.00     0.029 A 
ATOM     44  C   UNL     1       6.210   8.356  -0.451  1.00  0.00     0.049 A 
ATOM     45  H   UNL     1       6.674   9.286   1.357  1.00  0.00     0.167 HD
ATOM     46  C   UNL     1       7.393  11.588   5.036  1.00  0.00     0.034 A 
ATOM     47  C   UNL     1       7.350   8.286  -1.165  1.00  0.00     0.034 A 
ATOM     48  C   UNL     1       8.680  11.446   4.410  1.00  0.00     0.049 A 
ATOM     49  C   UNL     1       8.605   8.883  -0.588  1.00  0.00     0.074 A 
ATOM     50  C   UNL     1       9.914  11.857   4.877  1.00  0.00     0.029 A 
ATOM     51  N   UNL     1       8.894  10.859   3.172  1.00  0.00    -0.354 N 
ATOM     52  N   UNL     1       8.789   9.443   0.585  1.00  0.00    -0.248 NA
ATOM     53  C   UNL     1       9.812   8.833  -1.425  1.00  0.00     0.031 C 
ATOM     54  C   UNL     1      10.874  11.539   3.909  1.00  0.00     0.029 A 
ATOM     55  C   UNL     1      10.238  10.918   2.846  1.00  0.00     0.049 A 
ATOM     56  H   UNL     1       8.194  10.459   2.607  1.00  0.00     0.167 HD
ATOM     57  C   UNL     1      10.132   9.797   0.633  1.00  0.00     0.074 A 
ATOM     58  C   UNL     1      10.722   9.363  -0.618  1.00  0.00     0.031 C 
ATOM     59  C   UNL     1      10.812  10.444   1.612  1.00  0.00     0.034 A 
BRANCH  46  60
ATOM     60  C   UNL     1       7.316  12.292   6.361  1.00  0.00     0.023 A 
ATOM     61  C   UNL     1       7.162  11.539   7.542  1.00  0.00     0.012 A 
ATOM     62  C   UNL     1       7.437  13.692   6.441  1.00  0.00     0.148 A 
ATOM     63  C   UNL     1       7.108  12.173   8.783  1.00  0.00     0.002 A 
ATOM     64  C   UNL     1       7.416  14.314   7.684  1.00  0.00     0.091 A 
ATOM     65  F   UNL     1       7.552  14.390   5.302  1.00  0.00    -0.205 F 
ATOM     66  C   UNL     1       7.245  13.557   8.855  1.00  0.00     0.022 A 
BRANCH  64  67
ATOM     67  S   UNL     1       7.643  16.085   7.880  1.00  0.00     0.127 S 
ATOM     68  O   UNL     1       6.286  16.520   8.211  1.00  0.00    -0.237 OA
ATOM     69  O   UNL     1       8.593  16.155   8.991  1.00  0.00    -0.237 OA
ATOM     70  O   UNL     1       8.163  16.565   6.608  1.00  0.00    -0.744 OA
ENDBRANCH  64  67
ENDBRANCH  46  60
BRANCH  47  71
ATOM     71  C   UNL     1       7.350   7.634  -2.505  1.00  0.00     0.023 A 
ATOM     72  C   UNL     1       8.035   6.418  -2.684  1.00  0.00     0.012 A 
ATOM     73  C   UNL     1       6.650   8.196  -3.592  1.00  0.00     0.148 A 
ATOM     74  C   UNL     1       8.038   5.782  -3.927  1.00  0.00     0.002 A 
ATOM     75  C   UNL     1       6.612   7.530  -4.811  1.00  0.00     0.091 A 
ATOM     76  F   UNL     1       6.027   9.369  -3.410  1.00  0.00    -0.205 F 
ATOM     77  C   UNL     1       7.318   6.330  -4.986  1.00  0.00     0.022 A 
BRANCH  75  78
ATOM     78  S   UNL     1       5.603   8.102  -6.184  1.00  0.00     0.127 S 
ATOM     79  O   UNL     1       6.609   8.653  -7.087  1.00  0.00    -0.237 OA
ATOM     80  O   UNL     1       4.978   6.860  -6.642  1.00  0.00    -0.237 OA
ATOM     81  O   UNL     1       4.670   9.061  -5.608  1.00  0.00    -0.744 OA
ENDBRANCH  75  78
ENDBRANCH  47  71
BRANCH  59  82
ATOM     82  C   UNL     1      12.271  10.726   1.375  1.00  0.00     0.023 A 
ATOM     83  C   UNL     1      12.637  11.762   0.493  1.00  0.00     0.012 A 
ATOM     84  C   UNL     1      13.270  10.033   2.085  1.00  0.00     0.148 A 
ATOM     85  C   UNL     1      13.979  12.091   0.306  1.00  0.00     0.002 A 
ATOM     86  C   UNL     1      14.602  10.396   1.926  1.00  0.00     0.091 A 
ATOM     87  F   UNL     1      12.899   9.040   2.905  1.00  0.00    -0.205 F 
ATOM     88  C   UNL     1      14.959  11.417   1.031  1.00  0.00     0.022 A 
BRANCH  86  89
ATOM     89  S   UNL     1      15.926   9.647   2.882  1.00  0.00     0.127 S 
ATOM     90  O   UNL     1      16.606   8.840   1.870  1.00  0.00    -0.237 OA
ATOM     91  O   UNL     1      16.680  10.816   3.338  1.00  0.00    -0.237 OA
ATOM     92  O   UNL     1      15.277   8.895   3.947  1.00  0.00    -0.744 OA
ENDBRANCH  86  89
ENDBRANCH  59  82
ENDBRANCH  33  34
ENDBRANCH  26  28
ENDBRANCH  25  26
ENDBRANCH  24  25
ENDBRANCH   1  24
TORSDOF 18
