REMARK SMILES CS(=O)(=O)c1ccc(N2N=C(C(=O)OCCOC(=O)c3ccc(-c4c5nc(c(-c6cccc(S(=O)(=O)[O-])c6F)c6ccc([nH]6)c(-c6cccc(S(=O)(=O)[O-])c6F)c6nc(c(-c7cccc(S(=O)(=O)[O-])c7F)c7ccc4[nH]7)C=C6)C=C5)cc3)C[C@H]2c2cccs2)cc1
REMARK SMILES IDX 16 1 15 2 14 3 12 4 13 5 11 6 9 7 10 8 84 9 83 10 8 11 5 12
REMARK SMILES IDX 6 13 91 14 7 15 90 16 2 17 1 18 3 19 4 20 85 21 86 22 89 23
REMARK SMILES IDX 87 24 88 25 17 26 18 27 19 28 20 29 21 30 82 31 22 32 81 33
REMARK SMILES IDX 23 34 24 35 25 36 75 37 26 38 80 39 74 40 76 41 27 42 79 43
REMARK SMILES IDX 73 44 72 45 28 47 60 48 40 49 59 50 41 51 44 52 58 53 77 54
REMARK SMILES IDX 42 55 43 56 57 58 78 59 45 60 29 61 30 62 38 63 31 64 33 65
REMARK SMILES IDX 39 66 32 67 34 68 35 69 36 70 37 71 61 72 62 73 70 74 63 75
REMARK SMILES IDX 65 76 71 77 64 78 66 79 67 80 68 81 69 82 46 83 47 84 55 85
REMARK SMILES IDX 48 86 50 87 56 88 49 89 51 90 52 91 53 92 54 93
REMARK H PARENT 76 46 44 57
REMARK Flexibility Score: inf
ROOT
ATOM      1  C   UNL     1       4.901   3.355  10.588  1.00  0.00     0.275 C 
ENDROOT
BRANCH   1   2
ATOM      2  C   UNL     1       4.500   4.786  10.227  1.00  0.00     0.275 C 
BRANCH   2   3
ATOM      3  O   UNL     1       3.421   4.774   9.272  1.00  0.00    -0.458 OA
BRANCH   3   4
ATOM      4  C   UNL     1       3.702   5.348   8.082  1.00  0.00     0.354 C 
ATOM      5  O   UNL     1       4.683   5.975   7.771  1.00  0.00    -0.245 OA
BRANCH   4   6
ATOM      6  C   UNL     1       2.589   5.068   7.101  1.00  0.00     0.148 C 
ATOM      7  N   UNL     1       1.607   4.546   5.308  1.00  0.00    -0.256 N 
ATOM      8  N   UNL     1       2.801   4.522   5.944  1.00  0.00    -0.169 NA
ATOM      9  C   UNL     1       0.613   5.377   5.991  1.00  0.00     0.154 C 
ATOM     10  C   UNL     1       1.166   5.379   7.428  1.00  0.00     0.099 C 
BRANCH   7  11
ATOM     11  C   UNL     1       1.421   3.871   4.115  1.00  0.00     0.060 A 
ATOM     12  C   UNL     1       0.893   2.472   1.729  1.00  0.00     0.067 A 
ATOM     13  C   UNL     1       1.149   1.763   2.902  1.00  0.00     0.022 A 
ATOM     14  C   UNL     1       0.951   3.867   1.724  1.00  0.00     0.022 A 
ATOM     15  C   UNL     1       1.428   2.467   4.082  1.00  0.00     0.029 A 
ATOM     16  C   UNL     1       1.210   4.554   2.913  1.00  0.00     0.029 A 
BRANCH  12  17
ATOM     17  S   UNL     1       0.437   1.636   0.227  1.00  0.00     0.175 S 
ATOM     18  C   UNL     1       1.408   0.157   0.149  1.00  0.00     0.163 C 
ATOM     19  O   UNL     1       0.848   2.488  -0.875  1.00  0.00    -0.224 OA
ATOM     20  O   UNL     1      -0.956   1.262   0.387  1.00  0.00    -0.224 OA
ENDBRANCH  12  17
ENDBRANCH   7  11
BRANCH   9  21
ATOM     21  C   UNL     1       0.427   6.766   5.404  1.00  0.00     0.030 A 
ATOM     22  C   UNL     1      -0.535   7.159   4.489  1.00  0.00     0.017 A 
ATOM     23  S   UNL     1       1.500   8.064   5.753  1.00  0.00    -0.147 S 
ATOM     24  C   UNL     1      -0.376   8.510   4.068  1.00  0.00     0.012 A 
ATOM     25  C   UNL     1       0.684   9.122   4.693  1.00  0.00     0.065 A 
ENDBRANCH   9  21
ENDBRANCH   4   6
ENDBRANCH   3   4
ENDBRANCH   2   3
ENDBRANCH   1   2
BRANCH   1  26
ATOM     26  O   UNL     1       5.436   2.669   9.442  1.00  0.00    -0.458 OA
BRANCH  26  27
ATOM     27  C   UNL     1       4.544   1.923   8.748  1.00  0.00     0.338 C 
ATOM     28  O   UNL     1       3.364   1.752   9.005  1.00  0.00    -0.246 OA
BRANCH  27  29
ATOM     29  C   UNL     1       5.187   1.419   7.527  1.00  0.00     0.060 A 
ATOM     30  C   UNL     1       4.984   2.127   6.346  1.00  0.00     0.016 A 
ATOM     31  C   UNL     1       5.913   0.232   7.522  1.00  0.00     0.016 A 
ATOM     32  C   UNL     1       5.459   1.637   5.136  1.00  0.00     0.010 A 
ATOM     33  C   UNL     1       6.442  -0.235   6.312  1.00  0.00     0.010 A 
ATOM     34  C   UNL     1       6.207   0.457   5.110  1.00  0.00    -0.014 A 
BRANCH  34  35
ATOM     35  C   UNL     1       6.756  -0.036   3.824  1.00  0.00     0.031 A 
ATOM     36  C   UNL     1       6.254  -1.317   3.227  1.00  0.00     0.074 A 
ATOM     37  C   UNL     1       7.718   0.673   3.201  1.00  0.00     0.049 A 
ATOM     38  N   UNL     1       6.683  -1.957   2.171  1.00  0.00    -0.248 NA
ATOM     39  C   UNL     1       5.120  -1.968   3.905  1.00  0.00     0.031 C 
ATOM     40  C   UNL     1       8.268   1.945   3.676  1.00  0.00     0.029 A 
ATOM     41  N   UNL     1       8.415   0.419   2.047  1.00  0.00    -0.354 N 
ATOM     42  C   UNL     1       5.914  -3.110   2.086  1.00  0.00     0.074 A 
ATOM     43  C   UNL     1       4.979  -3.077   3.191  1.00  0.00     0.031 C 
ATOM     44  C   UNL     1       9.219   2.357   2.824  1.00  0.00     0.029 A 
ATOM     45  C   UNL     1       9.385   1.356   1.776  1.00  0.00     0.049 A 
ATOM     46  H   UNL     1       8.239  -0.359   1.470  1.00  0.00     0.167 HD
ATOM     47  C   UNL     1       5.977  -4.098   1.164  1.00  0.00     0.034 A 
ATOM     48  C   UNL     1      10.325   1.390   0.812  1.00  0.00     0.034 A 
ATOM     49  C   UNL     1       6.877  -4.101   0.042  1.00  0.00     0.049 A 
ATOM     50  C   UNL     1      10.386   0.267  -0.184  1.00  0.00     0.074 A 
ATOM     51  C   UNL     1       6.978  -5.033  -0.976  1.00  0.00     0.029 A 
ATOM     52  N   UNL     1       7.832  -3.128  -0.209  1.00  0.00    -0.354 N 
ATOM     53  N   UNL     1       9.597  -0.775  -0.299  1.00  0.00    -0.248 NA
ATOM     54  C   UNL     1      11.458   0.324  -1.187  1.00  0.00     0.031 C 
ATOM     55  C   UNL     1       8.003  -4.627  -1.839  1.00  0.00     0.029 A 
ATOM     56  C   UNL     1       8.536  -3.441  -1.359  1.00  0.00     0.049 A 
ATOM     57  H   UNL     1       7.987  -2.332   0.349  1.00  0.00     0.167 HD
ATOM     58  C   UNL     1      10.070  -1.491  -1.391  1.00  0.00     0.074 A 
ATOM     59  C   UNL     1      11.196  -0.749  -1.922  1.00  0.00     0.031 C 
ATOM     60  C   UNL     1       9.628  -2.670  -1.895  1.00  0.00     0.034 A 
BRANCH  47  61
ATOM     61  C   UNL     1       5.020  -5.249   1.309  1.00  0.00     0.023 A 
ATOM     62  C   UNL     1       3.680  -5.089   0.904  1.00  0.00     0.012 A 
ATOM     63  C   UNL     1       5.455  -6.498   1.790  1.00  0.00     0.148 A 
ATOM     64  C   UNL     1       2.782  -6.151   0.993  1.00  0.00     0.002 A 
ATOM     65  C   UNL     1       4.561  -7.561   1.849  1.00  0.00     0.091 A 
ATOM     66  F   UNL     1       6.726  -6.620   2.199  1.00  0.00    -0.205 F 
ATOM     67  C   UNL     1       3.224  -7.388   1.456  1.00  0.00     0.022 A 
BRANCH  65  68
ATOM     68  S   UNL     1       5.059  -9.205   2.378  1.00  0.00     0.127 S 
ATOM     69  O   UNL     1       4.544  -9.242   3.746  1.00  0.00    -0.237 OA
ATOM     70  O   UNL     1       4.345 -10.067   1.435  1.00  0.00    -0.237 OA
ATOM     71  O   UNL     1       6.508  -9.239   2.246  1.00  0.00    -0.744 OA
ENDBRANCH  65  68
ENDBRANCH  47  61
BRANCH  48  72
ATOM     72  C   UNL     1      11.267   2.541   0.741  1.00  0.00     0.023 A 
ATOM     73  C   UNL     1      11.145   3.467  -0.312  1.00  0.00     0.012 A 
ATOM     74  C   UNL     1      12.240   2.757   1.736  1.00  0.00     0.148 A 
ATOM     75  C   UNL     1      11.982   4.582  -0.377  1.00  0.00     0.002 A 
ATOM     76  C   UNL     1      13.034   3.898   1.695  1.00  0.00     0.091 A 
ATOM     77  F   UNL     1      12.364   1.850   2.716  1.00  0.00    -0.205 F 
ATOM     78  C   UNL     1      12.915   4.806   0.632  1.00  0.00     0.022 A 
BRANCH  76  79
ATOM     79  S   UNL     1      14.156   4.317   3.035  1.00  0.00     0.127 S 
ATOM     80  O   UNL     1      15.438   3.857   2.509  1.00  0.00    -0.237 OA
ATOM     81  O   UNL     1      14.012   5.771   3.120  1.00  0.00    -0.237 OA
ATOM     82  O   UNL     1      13.645   3.602   4.197  1.00  0.00    -0.744 OA
ENDBRANCH  76  79
ENDBRANCH  48  72
BRANCH  60  83
ATOM     83  C   UNL     1      10.367  -3.239  -3.074  1.00  0.00     0.023 A 
ATOM     84  C   UNL     1      11.609  -3.870  -2.865  1.00  0.00     0.012 A 
ATOM     85  C   UNL     1       9.804  -3.223  -4.364  1.00  0.00     0.148 A 
ATOM     86  C   UNL     1      12.289  -4.463  -3.928  1.00  0.00     0.002 A 
ATOM     87  C   UNL     1      10.470  -3.849  -5.412  1.00  0.00     0.091 A 
ATOM     88  F   UNL     1       8.631  -2.598  -4.543  1.00  0.00    -0.205 F 
ATOM     89  C   UNL     1      11.715  -4.463  -5.197  1.00  0.00     0.022 A 
BRANCH  87  90
ATOM     90  S   UNL     1       9.765  -3.970  -7.060  1.00  0.00     0.127 S 
ATOM     91  O   UNL     1      10.540  -2.968  -7.790  1.00  0.00    -0.237 OA
ATOM     92  O   UNL     1      10.059  -5.356  -7.426  1.00  0.00    -0.237 OA
ATOM     93  O   UNL     1       8.346  -3.678  -6.906  1.00  0.00    -0.744 OA
ENDBRANCH  87  90
ENDBRANCH  60  83
ENDBRANCH  34  35
ENDBRANCH  27  29
ENDBRANCH  26  27
ENDBRANCH   1  26
TORSDOF 17
