REMARK SMILES O=C(NCCC1=CCCCC1)C1=C(C(=O)OCCOC(=O)c2ccc(-c3c4nc(c(-c5cccc(S(=O)(=O)[O-])c5F)c5ccc([nH]5)c(-c5cccc(S(=O)(=O)[O-])c5F)c5nc(c(-c6cccc(S(=O)(=O)[O-])c6F)c6ccc3[nH]6)C=C5)C=C4)cc2)CCCC1
REMARK SMILES IDX 17 1 16 2 14 3 15 4 13 5 12 6 88 7 85 8 87 9 86 10 2 11 1 12
REMARK SMILES IDX 3 13 4 15 5 16 6 17 7 18 11 19 8 20 10 21 9 22 18 23 19 24
REMARK SMILES IDX 20 25 21 26 22 27 23 28 84 29 24 30 83 31 25 32 26 33 27 34
REMARK SMILES IDX 77 35 28 36 82 37 76 38 78 39 29 40 81 41 75 42 74 43 30 45
REMARK SMILES IDX 62 46 42 47 61 48 43 49 46 50 60 51 79 52 44 53 45 54 59 56
REMARK SMILES IDX 80 57 47 58 31 59 32 60 40 61 33 62 35 63 41 64 34 65 36 66
REMARK SMILES IDX 37 67 38 68 39 69 63 70 64 71 72 72 65 73 67 74 73 75 66 76
REMARK SMILES IDX 68 77 69 78 70 79 71 80 48 81 49 82 57 83 50 84 52 85 58 86
REMARK SMILES IDX 51 87 53 88 54 89 55 90 56 91
REMARK H PARENT 3 14 78 44 46 55
REMARK Flexibility Score: inf
ROOT
ATOM      1  C   UNL     1       3.987  -1.330  -2.927  1.00  0.00     0.275 C 
ENDROOT
BRANCH   1   2
ATOM      2  O   UNL     1       3.575  -0.176  -2.168  1.00  0.00    -0.459 OA
BRANCH   2   3
ATOM      3  C   UNL     1       4.534   0.414  -1.415  1.00  0.00     0.334 C 
ATOM      4  O   UNL     1       5.730   0.162  -1.439  1.00  0.00    -0.247 OA
BRANCH   3   5
ATOM      5  C   UNL     1       3.968   1.438  -0.501  1.00  0.00     0.046 C 
ATOM      6  C   UNL     1       2.935   1.171   0.322  1.00  0.00     0.027 C 
ATOM      7  C   UNL     1       2.325   2.210   1.228  1.00  0.00     0.042 C 
ATOM      8  C   UNL     1       4.697   2.758  -0.462  1.00  0.00     0.044 C 
ATOM      9  C   UNL     1       2.858   3.627   0.993  1.00  0.00     0.005 C 
ATOM     10  C   UNL     1       4.362   3.608   0.762  1.00  0.00     0.005 C 
BRANCH   6  11
ATOM     11  C   UNL     1       2.272  -0.155   0.360  1.00  0.00     0.247 C 
ATOM     12  O   UNL     1       1.060  -0.251   0.183  1.00  0.00    -0.270 OA
ATOM     13  N   UNL     1       3.004  -1.266   0.640  1.00  0.00    -0.352 N 
ATOM     14  H   UNL     1       2.501  -2.109   0.570  1.00  0.00     0.163 HD
BRANCH  13  15
ATOM     15  C   UNL     1       4.403  -1.434   1.029  1.00  0.00     0.120 C 
BRANCH  15  16
ATOM     16  C   UNL     1       4.579  -2.493   2.124  1.00  0.00     0.052 C 
BRANCH  16  17
ATOM     17  C   UNL     1       4.228  -3.893   1.660  1.00  0.00    -0.072 C 
ATOM     18  C   UNL     1       2.958  -4.340   1.669  1.00  0.00    -0.028 C 
ATOM     19  C   UNL     1       5.378  -4.764   1.208  1.00  0.00     0.031 C 
ATOM     20  C   UNL     1       2.557  -5.707   1.207  1.00  0.00     0.027 C 
ATOM     21  C   UNL     1       4.954  -6.084   0.553  1.00  0.00     0.005 C 
ATOM     22  C   UNL     1       3.725  -6.687   1.225  1.00  0.00     0.004 C 
ENDBRANCH  16  17
ENDBRANCH  15  16
ENDBRANCH  13  15
ENDBRANCH   6  11
ENDBRANCH   3   5
ENDBRANCH   2   3
ENDBRANCH   1   2
BRANCH   1  23
ATOM     23  C   UNL     1       4.017  -1.038  -4.424  1.00  0.00     0.275 C 
BRANCH  23  24
ATOM     24  O   UNL     1       5.027  -0.058  -4.708  1.00  0.00    -0.458 OA
BRANCH  24  25
ATOM     25  C   UNL     1       4.561   1.183  -4.974  1.00  0.00     0.338 C 
ATOM     26  O   UNL     1       3.403   1.538  -5.101  1.00  0.00    -0.246 OA
BRANCH  25  27
ATOM     27  C   UNL     1       5.687   2.123  -4.962  1.00  0.00     0.060 A 
ATOM     28  C   UNL     1       6.099   2.618  -3.728  1.00  0.00     0.016 A 
ATOM     29  C   UNL     1       6.233   2.617  -6.140  1.00  0.00     0.016 A 
ATOM     30  C   UNL     1       7.003   3.665  -3.650  1.00  0.00     0.010 A 
ATOM     31  C   UNL     1       7.193   3.631  -6.064  1.00  0.00     0.010 A 
ATOM     32  C   UNL     1       7.554   4.188  -4.820  1.00  0.00    -0.014 A 
BRANCH  32  33
ATOM     33  C   UNL     1       8.427   5.383  -4.751  1.00  0.00     0.031 A 
ATOM     34  C   UNL     1       7.957   6.662  -5.382  1.00  0.00     0.074 A 
ATOM     35  C   UNL     1       9.613   5.329  -4.116  1.00  0.00     0.049 A 
ATOM     36  N   UNL     1       8.624   7.758  -5.626  1.00  0.00    -0.248 NA
ATOM     37  C   UNL     1       6.545   6.710  -5.805  1.00  0.00     0.031 C 
ATOM     38  C   UNL     1      10.142   4.165  -3.404  1.00  0.00     0.029 A 
ATOM     39  N   UNL     1      10.595   6.277  -3.979  1.00  0.00    -0.354 N 
ATOM     40  C   UNL     1       7.741   8.594  -6.299  1.00  0.00     0.074 A 
ATOM     41  C   UNL     1       6.483   7.889  -6.408  1.00  0.00     0.031 C 
ATOM     42  C   UNL     1      11.353   4.464  -2.909  1.00  0.00     0.029 A 
ATOM     43  C   UNL     1      11.717   5.812  -3.332  1.00  0.00     0.049 A 
ATOM     44  H   UNL     1      10.507   7.199  -4.312  1.00  0.00     0.167 HD
ATOM     45  C   UNL     1       7.964   9.839  -6.779  1.00  0.00     0.034 A 
ATOM     46  C   UNL     1      12.918   6.393  -3.144  1.00  0.00     0.034 A 
ATOM     47  C   UNL     1       9.200  10.551  -6.603  1.00  0.00     0.049 A 
ATOM     48  C   UNL     1      13.143   7.774  -3.698  1.00  0.00     0.074 A 
ATOM     49  C   UNL     1       9.538  11.815  -7.049  1.00  0.00     0.029 A 
ATOM     50  N   UNL     1      10.296  10.063  -5.906  1.00  0.00    -0.354 N 
ATOM     51  N   UNL     1      12.303   8.556  -4.333  1.00  0.00    -0.248 NA
ATOM     52  C   UNL     1      14.478   8.357  -3.505  1.00  0.00     0.031 C 
ATOM     53  C   UNL     1      10.841  12.092  -6.620  1.00  0.00     0.029 A 
ATOM     54  C   UNL     1      11.308  11.004  -5.899  1.00  0.00     0.049 A 
ATOM     55  H   UNL     1      10.345   9.177  -5.480  1.00  0.00     0.167 HD
ATOM     56  C   UNL     1      12.997   9.730  -4.594  1.00  0.00     0.074 A 
ATOM     57  C   UNL     1      14.320   9.567  -4.025  1.00  0.00     0.031 C 
ATOM     58  C   UNL     1      12.591  10.836  -5.266  1.00  0.00     0.034 A 
BRANCH  45  59
ATOM     59  C   UNL     1       6.845  10.511  -7.526  1.00  0.00     0.023 A 
ATOM     60  C   UNL     1       5.747  11.037  -6.817  1.00  0.00     0.012 A 
ATOM     61  C   UNL     1       6.898  10.656  -8.926  1.00  0.00     0.148 A 
ATOM     62  C   UNL     1       4.706  11.674  -7.493  1.00  0.00     0.002 A 
ATOM     63  C   UNL     1       5.876  11.326  -9.589  1.00  0.00     0.091 A 
ATOM     64  F   UNL     1       7.938  10.125  -9.585  1.00  0.00    -0.205 F 
ATOM     65  C   UNL     1       4.775  11.827  -8.875  1.00  0.00     0.022 A 
BRANCH  63  66
ATOM     66  S   UNL     1       5.908  11.632 -11.359  1.00  0.00     0.127 S 
ATOM     67  O   UNL     1       4.879  10.709 -11.837  1.00  0.00    -0.237 OA
ATOM     68  O   UNL     1       5.541  13.046 -11.435  1.00  0.00    -0.237 OA
ATOM     69  O   UNL     1       7.266  11.334 -11.793  1.00  0.00    -0.744 OA
ENDBRANCH  63  66
ENDBRANCH  45  59
BRANCH  46  70
ATOM     70  C   UNL     1      13.989   5.676  -2.396  1.00  0.00     0.023 A 
ATOM     71  C   UNL     1      14.399   6.163  -1.140  1.00  0.00     0.012 A 
ATOM     72  C   UNL     1      14.585   4.503  -2.902  1.00  0.00     0.148 A 
ATOM     73  C   UNL     1      15.396   5.509  -0.413  1.00  0.00     0.002 A 
ATOM     74  C   UNL     1      15.534   3.824  -2.146  1.00  0.00     0.091 A 
ATOM     75  F   UNL     1      14.207   4.067  -4.112  1.00  0.00    -0.205 F 
ATOM     76  C   UNL     1      15.953   4.333  -0.909  1.00  0.00     0.022 A 
BRANCH  74  77
ATOM     77  S   UNL     1      16.187   2.229  -2.656  1.00  0.00     0.127 S 
ATOM     78  O   UNL     1      17.484   2.599  -3.214  1.00  0.00    -0.237 OA
ATOM     79  O   UNL     1      16.247   1.499  -1.389  1.00  0.00    -0.237 OA
ATOM     80  O   UNL     1      15.210   1.700  -3.599  1.00  0.00    -0.744 OA
ENDBRANCH  74  77
ENDBRANCH  46  70
BRANCH  58  81
ATOM     81  C   UNL     1      13.572  11.968  -5.389  1.00  0.00     0.023 A 
ATOM     82  C   UNL     1      14.635  11.870  -6.309  1.00  0.00     0.012 A 
ATOM     83  C   UNL     1      13.395  13.156  -4.654  1.00  0.00     0.148 A 
ATOM     84  C   UNL     1      15.523  12.931  -6.477  1.00  0.00     0.002 A 
ATOM     85  C   UNL     1      14.259  14.225  -4.859  1.00  0.00     0.091 A 
ATOM     86  F   UNL     1      12.390  13.218  -3.769  1.00  0.00    -0.205 F 
ATOM     87  C   UNL     1      15.328  14.111  -5.762  1.00  0.00     0.022 A 
BRANCH  85  88
ATOM     88  S   UNL     1      14.025  15.809  -4.046  1.00  0.00     0.127 S 
ATOM     89  O   UNL     1      15.050  15.765  -3.005  1.00  0.00    -0.237 OA
ATOM     90  O   UNL     1      14.294  16.759  -5.127  1.00  0.00    -0.237 OA
ATOM     91  O   UNL     1      12.647  15.813  -3.573  1.00  0.00    -0.744 OA
ENDBRANCH  85  88
ENDBRANCH  58  81
ENDBRANCH  32  33
ENDBRANCH  25  27
ENDBRANCH  24  25
ENDBRANCH  23  24
ENDBRANCH   1  23
TORSDOF 18
