REMARK SMILES Cc1cccc(-c2ncc(C[NH+]3CCC4(CC3)NC(=O)C[C@H]4C(=O)OCCOC(=O)c3ccc(-c4c5nc(c(-c6cccc(S(=O)(=O)[O-])c6F)c6ccc([nH]6)c(-c6cccc(S(=O)(=O)[O-])c6F)c6nc(c(-c7cccc(S(=O)(=O)[O-])c7F)c7ccc4[nH]7)C=C6)C=C5)cc3)cn2)c1
REMARK SMILES IDX 26 1 25 2 23 3 24 4 22 5 12 6 13 7 17 8 14 10 16 11 15 12
REMARK SMILES IDX 18 13 19 14 21 16 20 17 11 18 10 19 7 20 8 21 95 22 9 23
REMARK SMILES IDX 94 24 6 25 1 26 2 27 3 28 96 29 4 30 5 31 27 32 28 33 29 34
REMARK SMILES IDX 30 35 31 36 32 37 93 38 33 39 92 40 34 41 35 42 36 43 86 44
REMARK SMILES IDX 37 45 91 46 85 47 87 48 38 49 90 50 84 51 83 52 39 54 71 55
REMARK SMILES IDX 51 56 70 57 52 58 55 59 69 60 88 61 53 62 54 63 68 65 89 66
REMARK SMILES IDX 56 67 40 68 41 69 49 70 42 71 44 72 50 73 43 74 45 75 46 76
REMARK SMILES IDX 47 77 48 78 72 79 73 80 81 81 74 82 76 83 82 84 75 85 77 86
REMARK SMILES IDX 78 87 79 88 80 89 57 90 58 91 66 92 59 93 61 94 67 95 60 96
REMARK SMILES IDX 62 97 63 98 64 99 65 100
REMARK H PARENT 12 9 18 15 87 53 55 64
REMARK Flexibility Score: inf
ROOT
ATOM      1  C   UNL     1      -0.899   4.566  -4.026  1.00  0.00     0.274 C 
ENDROOT
BRANCH   1   2
ATOM      2  O   UNL     1      -0.129   4.810  -2.815  1.00  0.00    -0.462 OA
BRANCH   2   3
ATOM      3  C   UNL     1      -0.479   5.816  -1.997  1.00  0.00     0.311 C 
ATOM      4  O   UNL     1      -1.423   6.552  -2.247  1.00  0.00    -0.252 OA
BRANCH   3   5
ATOM      5  C   UNL     1       0.151   5.880  -0.626  1.00  0.00     0.134 C 
ATOM      6  N   UNL     1      -3.660   6.000   0.949  1.00  0.00    -0.331 N 
ATOM      7  C   UNL     1      -2.592   6.504   1.810  1.00  0.00     0.264 C 
ATOM      8  C   UNL     1      -3.157   5.709  -0.372  1.00  0.00     0.264 C 
ATOM      9  H   UNL     1      -4.280   6.809   0.946  1.00  0.00     0.348 HD
ATOM     10  C   UNL     1      -1.153   5.925   1.673  1.00  0.00     0.091 C 
ATOM     11  C   UNL     1      -2.054   4.647  -0.293  1.00  0.00     0.091 C 
ATOM     12  C   UNL     1      -0.781   5.157   0.375  1.00  0.00     0.064 C 
ATOM     13  N   UNL     1       0.032   4.017   0.767  1.00  0.00    -0.349 N 
ATOM     14  C   UNL     1       1.316   4.015   0.297  1.00  0.00     0.221 C 
ATOM     15  H   UNL     1      -0.320   3.293   1.334  1.00  0.00     0.164 HD
ATOM     16  C   UNL     1       1.542   5.256  -0.504  1.00  0.00     0.117 C 
ATOM     17  O   UNL     1       2.130   3.146   0.548  1.00  0.00    -0.275 OA
BRANCH   6  18
ATOM     18  C   UNL     1      -4.717   5.106   1.429  1.00  0.00     0.302 C 
BRANCH  18  19
ATOM     19  C   UNL     1      -4.438   3.630   1.297  1.00  0.00     0.043 A 
ATOM     20  C   UNL     1      -3.169   1.288   0.745  1.00  0.00     0.159 A 
ATOM     21  N   UNL     1      -3.008   1.823   1.974  1.00  0.00    -0.236 NA
ATOM     22  N   UNL     1      -4.033   1.754  -0.182  1.00  0.00    -0.236 NA
ATOM     23  C   UNL     1      -3.665   2.973   2.230  1.00  0.00     0.124 A 
ATOM     24  C   UNL     1      -4.648   2.924   0.118  1.00  0.00     0.124 A 
BRANCH  20  25
ATOM     25  C   UNL     1      -2.231   0.223   0.354  1.00  0.00     0.019 A 
ATOM     26  C   UNL     1       1.567  -0.399   0.231  1.00  0.00     0.044 C 
ATOM     27  C   UNL     1       0.081  -0.616   0.134  1.00  0.00    -0.050 A 
ATOM     28  C   UNL     1      -0.416  -1.856  -0.266  1.00  0.00     0.003 A 
ATOM     29  C   UNL     1      -0.832   0.408   0.438  1.00  0.00     0.015 A 
ATOM     30  C   UNL     1      -1.792  -2.056  -0.387  1.00  0.00     0.001 A 
ATOM     31  C   UNL     1      -2.689  -1.022  -0.094  1.00  0.00     0.012 A 
ENDBRANCH  20  25
ENDBRANCH  18  19
ENDBRANCH   6  18
ENDBRANCH   3   5
ENDBRANCH   2   3
ENDBRANCH   1   2
BRANCH   1  32
ATOM     32  C   UNL     1      -2.245   5.285  -4.385  1.00  0.00     0.275 C 
BRANCH  32  33
ATOM     33  O   UNL     1      -2.526   6.709  -4.691  1.00  0.00    -0.458 OA
BRANCH  33  34
ATOM     34  C   UNL     1      -1.909   7.900  -4.422  1.00  0.00     0.338 C 
ATOM     35  O   UNL     1      -2.495   8.957  -4.324  1.00  0.00    -0.246 OA
BRANCH  34  36
ATOM     36  C   UNL     1      -0.446   7.821  -4.413  1.00  0.00     0.060 A 
ATOM     37  C   UNL     1       0.319   8.281  -3.320  1.00  0.00     0.016 A 
ATOM     38  C   UNL     1       0.082   7.030  -5.417  1.00  0.00     0.016 A 
ATOM     39  C   UNL     1       1.596   7.756  -3.128  1.00  0.00     0.010 A 
ATOM     40  C   UNL     1       1.290   6.441  -5.180  1.00  0.00     0.010 A 
ATOM     41  C   UNL     1       2.054   6.808  -4.051  1.00  0.00    -0.014 A 
BRANCH  41  42
ATOM     42  C   UNL     1       3.460   6.559  -4.302  1.00  0.00     0.031 A 
ATOM     43  C   UNL     1       4.214   5.390  -3.838  1.00  0.00     0.074 A 
ATOM     44  C   UNL     1       3.827   7.360  -5.328  1.00  0.00     0.049 A 
ATOM     45  N   UNL     1       5.492   5.425  -3.675  1.00  0.00    -0.248 NA
ATOM     46  C   UNL     1       3.624   4.095  -3.498  1.00  0.00     0.031 C 
ATOM     47  C   UNL     1       4.848   7.219  -6.336  1.00  0.00     0.029 A 
ATOM     48  N   UNL     1       3.212   8.585  -5.641  1.00  0.00    -0.354 N 
ATOM     49  C   UNL     1       5.911   4.120  -3.515  1.00  0.00     0.074 A 
ATOM     50  C   UNL     1       4.715   3.355  -3.248  1.00  0.00     0.031 C 
ATOM     51  C   UNL     1       4.974   8.409  -6.964  1.00  0.00     0.029 A 
ATOM     52  C   UNL     1       4.157   9.389  -6.242  1.00  0.00     0.049 A 
ATOM     53  H   UNL     1       2.274   8.825  -5.464  1.00  0.00     0.167 HD
ATOM     54  C   UNL     1       7.173   3.768  -3.893  1.00  0.00     0.034 A 
ATOM     55  C   UNL     1       4.564  10.524  -5.598  1.00  0.00     0.034 A 
ATOM     56  C   UNL     1       7.786   4.883  -4.628  1.00  0.00     0.049 A 
ATOM     57  C   UNL     1       6.019  10.385  -5.235  1.00  0.00     0.074 A 
ATOM     58  C   UNL     1       7.788   5.154  -5.988  1.00  0.00     0.029 A 
ATOM     59  N   UNL     1       8.175   6.051  -3.988  1.00  0.00    -0.354 N 
ATOM     60  N   UNL     1       6.629   9.239  -5.130  1.00  0.00    -0.248 NA
ATOM     61  C   UNL     1       6.890  11.518  -4.962  1.00  0.00     0.031 C 
ATOM     62  C   UNL     1       8.118   6.519  -6.162  1.00  0.00     0.029 A 
ATOM     63  C   UNL     1       8.335   7.075  -4.913  1.00  0.00     0.049 A 
ATOM     64  H   UNL     1       8.317   6.141  -3.018  1.00  0.00     0.167 HD
ATOM     65  C   UNL     1       7.922   9.441  -4.757  1.00  0.00     0.074 A 
ATOM     66  C   UNL     1       8.048  10.889  -4.697  1.00  0.00     0.031 C 
ATOM     67  C   UNL     1       8.766   8.401  -4.494  1.00  0.00     0.034 A 
BRANCH  54  68
ATOM     68  C   UNL     1       7.690   2.343  -4.018  1.00  0.00     0.023 A 
ATOM     69  C   UNL     1       8.669   2.098  -5.011  1.00  0.00     0.012 A 
ATOM     70  C   UNL     1       7.296   1.227  -3.241  1.00  0.00     0.148 A 
ATOM     71  C   UNL     1       9.157   0.822  -5.300  1.00  0.00     0.002 A 
ATOM     72  C   UNL     1       7.764  -0.060  -3.549  1.00  0.00     0.091 A 
ATOM     73  F   UNL     1       6.503   1.417  -2.179  1.00  0.00    -0.205 F 
ATOM     74  C   UNL     1       8.685  -0.263  -4.585  1.00  0.00     0.022 A 
BRANCH  72  75
ATOM     75  S   UNL     1       7.195  -1.553  -2.714  1.00  0.00     0.127 S 
ATOM     76  O   UNL     1       6.774  -2.393  -3.839  1.00  0.00    -0.237 OA
ATOM     77  O   UNL     1       8.403  -2.017  -2.035  1.00  0.00    -0.237 OA
ATOM     78  O   UNL     1       6.104  -1.138  -1.841  1.00  0.00    -0.744 OA
ENDBRANCH  72  75
ENDBRANCH  54  68
BRANCH  55  79
ATOM     79  C   UNL     1       3.533  11.178  -4.699  1.00  0.00     0.023 A 
ATOM     80  C   UNL     1       2.268  11.508  -5.258  1.00  0.00     0.012 A 
ATOM     81  C   UNL     1       3.647  11.187  -3.295  1.00  0.00     0.148 A 
ATOM     82  C   UNL     1       1.149  11.753  -4.452  1.00  0.00     0.002 A 
ATOM     83  C   UNL     1       2.519  11.418  -2.496  1.00  0.00     0.091 A 
ATOM     84  F   UNL     1       4.836  10.923  -2.739  1.00  0.00    -0.205 F 
ATOM     85  C   UNL     1       1.271  11.694  -3.071  1.00  0.00     0.022 A 
BRANCH  83  86
ATOM     86  S   UNL     1       2.582  11.171  -0.712  1.00  0.00     0.127 S 
ATOM     87  O   UNL     1       1.207  10.785  -0.390  1.00  0.00    -0.237 OA
ATOM     88  O   UNL     1       3.543  10.092  -0.535  1.00  0.00    -0.237 OA
ATOM     89  O   UNL     1       2.979  12.493  -0.239  1.00  0.00    -0.744 OA
ENDBRANCH  83  86
ENDBRANCH  55  79
BRANCH  67  90
ATOM     90  C   UNL     1      10.110   8.552  -3.840  1.00  0.00     0.023 A 
ATOM     91  C   UNL     1      10.387   9.615  -2.962  1.00  0.00     0.012 A 
ATOM     92  C   UNL     1      11.084   7.532  -3.955  1.00  0.00     0.148 A 
ATOM     93  C   UNL     1      11.603   9.704  -2.284  1.00  0.00     0.002 A 
ATOM     94  C   UNL     1      12.237   7.563  -3.183  1.00  0.00     0.091 A 
ATOM     95  F   UNL     1      10.907   6.525  -4.824  1.00  0.00    -0.205 F 
ATOM     96  C   UNL     1      12.519   8.665  -2.373  1.00  0.00     0.022 A 
BRANCH  94  97
ATOM     97  S   UNL     1      13.293   6.114  -3.085  1.00  0.00     0.127 S 
ATOM     98  O   UNL     1      14.194   6.312  -4.217  1.00  0.00    -0.237 OA
ATOM     99  O   UNL     1      13.923   6.266  -1.772  1.00  0.00    -0.237 OA
ATOM    100  O   UNL     1      12.376   4.985  -3.175  1.00  0.00    -0.744 OA
ENDBRANCH  94  97
ENDBRANCH  67  90
ENDBRANCH  41  42
ENDBRANCH  34  36
ENDBRANCH  33  34
ENDBRANCH  32  33
ENDBRANCH   1  32
TORSDOF 17
