REMARK SMILES CCCCCCNC(=O)Oc1cccc(-c2ccc([C@@H](C)C(=O)OCCOC(=O)c3ccc(-c4c5nc(c(-c6cccc(S(=O)(=O)[O-])c6F)c6ccc([nH]6)c(-c6cccc(S(=O)(=O)[O-])c6F)c6nc(c(-c7cccc(S(=O)(=O)[O-])c7F)c7ccc4[nH]7)C=C6)C=C5)cc3)cc2C(F)(F)F)c1
REMARK SMILES IDX 20 1 21 2 19 3 16 4 17 5 94 6 18 7 93 8 15 9 11 10 12 11
REMARK SMILES IDX 99 12 13 13 14 14 10 15 8 16 7 17 9 19 6 20 5 21 4 22 3 23
REMARK SMILES IDX 2 24 1 25 95 26 96 27 97 28 98 29 22 30 23 31 24 32 25 33
REMARK SMILES IDX 26 34 27 35 28 36 29 37 30 38 31 39 92 40 32 41 91 42 33 43
REMARK SMILES IDX 34 44 35 45 85 46 36 47 90 48 84 49 86 50 37 51 89 52 83 53
REMARK SMILES IDX 82 54 38 56 70 57 50 58 69 59 51 60 54 61 68 62 87 63 52 64
REMARK SMILES IDX 53 65 67 67 88 68 55 69 39 70 40 71 48 72 41 73 43 74 49 75
REMARK SMILES IDX 42 76 44 77 45 78 46 79 47 80 71 81 72 82 80 83 73 84 75 85
REMARK SMILES IDX 81 86 74 87 76 88 77 89 78 90 79 91 56 92 57 93 65 94 58 95
REMARK SMILES IDX 60 96 66 97 59 98 61 99 62 100 63 101 64 102
REMARK H PARENT 7 18 86 55 54 66
REMARK Flexibility Score: inf
ROOT
ATOM      1  C   UNL     1      -5.163 -10.610   8.791  1.00  0.00     0.126 C 
ATOM      2  C   UNL     1      -6.517 -11.278   9.026  1.00  0.00     0.025 C 
ENDROOT
BRANCH   1   3
ATOM      3  C   UNL     1      -5.061  -9.994   7.403  1.00  0.00    -0.033 A 
ATOM      4  C   UNL     1      -4.955  -8.754   4.832  1.00  0.00    -0.006 A 
ATOM      5  C   UNL     1      -5.135 -10.145   4.984  1.00  0.00     0.009 A 
ATOM      6  C   UNL     1      -4.809  -7.975   6.000  1.00  0.00     0.064 A 
ATOM      7  C   UNL     1      -5.198 -10.753   6.240  1.00  0.00     0.005 A 
ATOM      8  C   UNL     1      -4.856  -8.612   7.263  1.00  0.00     0.018 A 
BRANCH   4   9
ATOM      9  C   UNL     1      -5.008  -8.187   3.471  1.00  0.00    -0.014 A 
ATOM     10  C   UNL     1      -4.097  -6.863   1.659  1.00  0.00     0.133 A 
ATOM     11  C   UNL     1      -5.257  -7.037   0.906  1.00  0.00     0.047 A 
ATOM     12  C   UNL     1      -3.955  -7.438   2.925  1.00  0.00     0.056 A 
ATOM     13  C   UNL     1      -6.294  -7.805   1.421  1.00  0.00     0.004 A 
ATOM     14  C   UNL     1      -6.172  -8.366   2.694  1.00  0.00     0.009 A 
BRANCH  10  15
ATOM     15  O   UNL     1      -3.165  -5.941   1.150  1.00  0.00    -0.410 OA
BRANCH  15  16
ATOM     16  C   UNL     1      -1.813  -6.245   1.151  1.00  0.00     0.412 C 
ATOM     17  N   UNL     1      -1.032  -5.187   0.770  1.00  0.00    -0.321 N 
ATOM     18  H   UNL     1      -0.060  -5.341   0.747  1.00  0.00     0.167 HD
ATOM     19  O   UNL     1      -1.323  -7.332   1.428  1.00  0.00    -0.224 OA
BRANCH  17  20
ATOM     20  C   UNL     1      -1.488  -3.862   0.396  1.00  0.00     0.119 C 
BRANCH  20  21
ATOM     21  C   UNL     1      -0.894  -2.768   1.283  1.00  0.00     0.021 C 
BRANCH  21  22
ATOM     22  C   UNL     1       0.632  -2.637   1.215  1.00  0.00     0.002 C 
BRANCH  22  23
ATOM     23  C   UNL     1       1.214  -2.374  -0.178  1.00  0.00    -0.000 C 
BRANCH  23  24
ATOM     24  C   UNL     1       0.719  -1.102  -0.870  1.00  0.00    -0.003 C 
ATOM     25  C   UNL     1       1.096   0.172  -0.130  1.00  0.00     0.004 C 
ENDBRANCH  23  24
ENDBRANCH  22  23
ENDBRANCH  21  22
ENDBRANCH  20  21
ENDBRANCH  17  20
ENDBRANCH  15  16
ENDBRANCH  10  15
ENDBRANCH   4   9
BRANCH   6  26
ATOM     26  C   UNL     1      -4.589  -6.476   5.984  1.00  0.00     0.417 C 
ATOM     27  F   UNL     1      -5.061  -5.871   7.116  1.00  0.00    -0.166 F 
ATOM     28  F   UNL     1      -3.270  -6.143   5.917  1.00  0.00    -0.166 F 
ATOM     29  F   UNL     1      -5.201  -5.817   4.962  1.00  0.00    -0.166 F 
ENDBRANCH   6  26
ENDBRANCH   1   3
BRANCH   1  30
ATOM     30  C   UNL     1      -4.042 -11.555   9.205  1.00  0.00     0.313 C 
ATOM     31  O   UNL     1      -3.748 -11.736  10.383  1.00  0.00    -0.252 OA
BRANCH  30  32
ATOM     32  O   UNL     1      -3.454 -12.205   8.167  1.00  0.00    -0.462 OA
BRANCH  32  33
ATOM     33  C   UNL     1      -2.351 -13.074   8.488  1.00  0.00     0.274 C 
BRANCH  33  34
ATOM     34  C   UNL     1      -1.009 -12.423   8.145  1.00  0.00     0.275 C 
BRANCH  34  35
ATOM     35  O   UNL     1      -0.730 -11.305   9.007  1.00  0.00    -0.458 OA
BRANCH  35  36
ATOM     36  C   UNL     1      -1.092 -10.101   8.505  1.00  0.00     0.338 C 
ATOM     37  O   UNL     1      -1.576  -9.876   7.408  1.00  0.00    -0.246 OA
BRANCH  36  38
ATOM     38  C   UNL     1      -0.954  -9.060   9.533  1.00  0.00     0.060 A 
ATOM     39  C   UNL     1      -2.121  -8.440   9.980  1.00  0.00     0.016 A 
ATOM     40  C   UNL     1       0.295  -8.608   9.957  1.00  0.00     0.016 A 
ATOM     41  C   UNL     1      -2.052  -7.332  10.816  1.00  0.00     0.010 A 
ATOM     42  C   UNL     1       0.365  -7.503  10.815  1.00  0.00     0.010 A 
ATOM     43  C   UNL     1      -0.807  -6.838  11.222  1.00  0.00    -0.014 A 
BRANCH  43  44
ATOM     44  C   UNL     1      -0.754  -5.581  12.010  1.00  0.00     0.031 A 
ATOM     45  C   UNL     1      -0.272  -4.311  11.363  1.00  0.00     0.074 A 
ATOM     46  C   UNL     1      -1.171  -5.572  13.290  1.00  0.00     0.049 A 
ATOM     47  N   UNL     1      -0.158  -3.115  11.880  1.00  0.00    -0.248 NA
ATOM     48  C   UNL     1       0.138  -4.395   9.951  1.00  0.00     0.031 C 
ATOM     49  C   UNL     1      -1.656  -6.740  14.028  1.00  0.00     0.029 A 
ATOM     50  N   UNL     1      -1.245  -4.548  14.200  1.00  0.00    -0.354 N 
ATOM     51  C   UNL     1       0.378  -2.317  10.877  1.00  0.00     0.074 A 
ATOM     52  C   UNL     1       0.566  -3.162   9.718  1.00  0.00     0.031 C 
ATOM     53  C   UNL     1      -1.966  -6.368  15.281  1.00  0.00     0.029 A 
ATOM     54  C   UNL     1      -1.680  -4.945  15.442  1.00  0.00     0.049 A 
ATOM     55  H   UNL     1      -1.009  -3.617  13.983  1.00  0.00     0.167 HD
ATOM     56  C   UNL     1       0.669  -0.995  10.912  1.00  0.00     0.034 A 
ATOM     57  C   UNL     1      -1.817  -4.244  16.585  1.00  0.00     0.034 A 
ATOM     58  C   UNL     1       0.421  -0.141  12.043  1.00  0.00     0.049 A 
ATOM     59  C   UNL     1      -1.511  -2.770  16.583  1.00  0.00     0.074 A 
ATOM     60  C   UNL     1       0.615   1.225  12.145  1.00  0.00     0.029 A 
ATOM     61  N   UNL     1      -0.076  -0.568  13.264  1.00  0.00    -0.354 N 
ATOM     62  N   UNL     1      -1.131  -2.007  15.587  1.00  0.00    -0.248 NA
ATOM     63  C   UNL     1      -1.683  -2.053  17.855  1.00  0.00     0.031 C 
ATOM     64  C   UNL     1       0.248   1.623  13.435  1.00  0.00     0.029 A 
ATOM     65  C   UNL     1      -0.185   0.506  14.130  1.00  0.00     0.049 A 
ATOM     66  H   UNL     1      -0.316  -1.497  13.482  1.00  0.00     0.167 HD
ATOM     67  C   UNL     1      -1.041  -0.720  16.105  1.00  0.00     0.074 A 
ATOM     68  C   UNL     1      -1.439  -0.800  17.495  1.00  0.00     0.031 C 
ATOM     69  C   UNL     1      -0.640   0.421  15.493  1.00  0.00     0.034 A 
BRANCH  56  70
ATOM     70  C   UNL     1       1.257  -0.369   9.677  1.00  0.00     0.023 A 
ATOM     71  C   UNL     1       0.422  -0.077   8.581  1.00  0.00     0.012 A 
ATOM     72  C   UNL     1       2.613   0.010   9.637  1.00  0.00     0.148 A 
ATOM     73  C   UNL     1       0.931   0.567   7.454  1.00  0.00     0.002 A 
ATOM     74  C   UNL     1       3.106   0.684   8.526  1.00  0.00     0.091 A 
ATOM     75  F   UNL     1       3.393  -0.294  10.684  1.00  0.00    -0.205 F 
ATOM     76  C   UNL     1       2.268   0.958   7.431  1.00  0.00     0.022 A 
BRANCH  74  77
ATOM     77  S   UNL     1       4.794   1.290   8.425  1.00  0.00     0.127 S 
ATOM     78  O   UNL     1       5.357   0.425   7.389  1.00  0.00    -0.237 OA
ATOM     79  O   UNL     1       4.598   2.681   8.017  1.00  0.00    -0.237 OA
ATOM     80  O   UNL     1       5.364   1.121   9.755  1.00  0.00    -0.744 OA
ENDBRANCH  74  77
ENDBRANCH  56  70
BRANCH  57  81
ATOM     81  C   UNL     1      -2.301  -4.920  17.823  1.00  0.00     0.023 A 
ATOM     82  C   UNL     1      -3.570  -4.600  18.340  1.00  0.00     0.012 A 
ATOM     83  C   UNL     1      -1.514  -5.883  18.485  1.00  0.00     0.148 A 
ATOM     84  C   UNL     1      -4.034  -5.201  19.511  1.00  0.00     0.002 A 
ATOM     85  C   UNL     1      -2.006  -6.519  19.619  1.00  0.00     0.091 A 
ATOM     86  F   UNL     1      -0.296  -6.158  17.997  1.00  0.00    -0.205 F 
ATOM     87  C   UNL     1      -3.258  -6.168  20.144  1.00  0.00     0.022 A 
BRANCH  85  88
ATOM     88  S   UNL     1      -1.113  -7.868  20.401  1.00  0.00     0.127 S 
ATOM     89  O   UNL     1      -0.427  -7.183  21.493  1.00  0.00    -0.237 OA
ATOM     90  O   UNL     1      -2.197  -8.759  20.819  1.00  0.00    -0.237 OA
ATOM     91  O   UNL     1      -0.265  -8.419  19.352  1.00  0.00    -0.744 OA
ENDBRANCH  85  88
ENDBRANCH  57  81
BRANCH  69  92
ATOM     92  C   UNL     1      -0.623   1.683  16.314  1.00  0.00     0.023 A 
ATOM     93  C   UNL     1       0.388   1.868  17.279  1.00  0.00     0.012 A 
ATOM     94  C   UNL     1      -1.556   2.713  16.084  1.00  0.00     0.148 A 
ATOM     95  C   UNL     1       0.452   3.046  18.022  1.00  0.00     0.002 A 
ATOM     96  C   UNL     1      -1.460   3.902  16.799  1.00  0.00     0.091 A 
ATOM     97  F   UNL     1      -2.524   2.512  15.177  1.00  0.00    -0.205 F 
ATOM     98  C   UNL     1      -0.463   4.066  17.774  1.00  0.00     0.022 A 
BRANCH  96  99
ATOM     99  S   UNL     1      -2.542   5.300  16.475  1.00  0.00     0.127 S 
ATOM    100  O   UNL     1      -3.500   5.197  17.574  1.00  0.00    -0.237 OA
ATOM    101  O   UNL     1      -1.625   6.437  16.570  1.00  0.00    -0.237 OA
ATOM    102  O   UNL     1      -3.084   5.078  15.141  1.00  0.00    -0.744 OA
ENDBRANCH  96  99
ENDBRANCH  69  92
ENDBRANCH  43  44
ENDBRANCH  36  38
ENDBRANCH  35  36
ENDBRANCH  34  35
ENDBRANCH  33  34
ENDBRANCH  32  33
ENDBRANCH  30  32
ENDBRANCH   1  30
TORSDOF 24
