REMARK SMILES C[C@@H](Oc1ccc(-c2ccccc2)cc1)C(=O)N1CCC[C@H](C(=O)OCCOC(=O)c2ccc(-c3c4nc(c(-c5cccc(S(=O)(=O)[O-])c5F)c5ccc([nH]5)c(-c5cccc(S(=O)(=O)[O-])c5F)c5nc(c(-c6cccc(S(=O)(=O)[O-])c6F)c6ccc3[nH]6)C=C5)C=C4)cc2)C1
REMARK SMILES IDX 26 1 25 2 23 3 24 4 22 5 18 6 19 7 94 8 20 9 21 10 16 11
REMARK SMILES IDX 17 12 2 13 1 14 3 15 4 16 5 17 15 18 6 19 14 20 7 21 8 22
REMARK SMILES IDX 9 23 13 24 10 25 12 26 11 27 27 28 28 29 29 30 30 31 31 32
REMARK SMILES IDX 32 33 93 34 33 35 92 36 34 37 35 38 36 39 86 40 37 41 91 42
REMARK SMILES IDX 85 43 87 44 38 45 90 46 84 47 83 48 39 50 71 51 51 52 70 53
REMARK SMILES IDX 52 54 55 55 69 56 88 57 53 58 54 59 68 61 89 62 56 63 40 64
REMARK SMILES IDX 41 65 49 66 42 67 44 68 50 69 43 70 45 71 46 72 47 73 48 74
REMARK SMILES IDX 72 75 73 76 81 77 74 78 76 79 82 80 75 81 77 82 78 83 79 84
REMARK SMILES IDX 80 85 57 86 58 87 66 88 59 89 61 90 67 91 60 92 62 93 63 94
REMARK SMILES IDX 64 95 65 96
REMARK H PARENT 87 49 55 60
REMARK Flexibility Score: inf
ROOT
ATOM      1  C   UNL     1      -4.128  -0.344  -1.820  1.00  0.00     0.274 C 
ENDROOT
BRANCH   1   2
ATOM      2  O   UNL     1      -3.832   0.419  -0.635  1.00  0.00    -0.462 OA
BRANCH   2   3
ATOM      3  C   UNL     1      -2.744   1.224  -0.657  1.00  0.00     0.310 C 
ATOM      4  O   UNL     1      -1.961   1.314  -1.597  1.00  0.00    -0.252 OA
BRANCH   3   5
ATOM      5  C   UNL     1      -2.547   2.002   0.637  1.00  0.00     0.119 C 
ATOM      6  N   UNL     1      -1.621   0.122   1.899  1.00  0.00    -0.339 N 
ATOM      7  C   UNL     1      -2.734   0.077   2.841  1.00  0.00     0.119 C 
ATOM      8  C   UNL     1      -1.324   1.444   1.353  1.00  0.00     0.134 C 
ATOM      9  C   UNL     1      -4.005   0.728   2.307  1.00  0.00     0.022 C 
ATOM     10  C   UNL     1      -3.744   2.054   1.591  1.00  0.00     0.019 C 
BRANCH   6  11
ATOM     11  C   UNL     1      -0.889  -1.035   1.647  1.00  0.00     0.263 C 
ATOM     12  O   UNL     1      -1.370  -2.155   1.854  1.00  0.00    -0.271 OA
BRANCH  11  13
ATOM     13  C   UNL     1       0.577  -0.916   1.178  1.00  0.00     0.259 C 
ATOM     14  C   UNL     1       0.735  -0.617  -0.310  1.00  0.00     0.064 C 
BRANCH  13  15
ATOM     15  O   UNL     1       1.172   0.103   1.994  1.00  0.00    -0.481 OA
BRANCH  15  16
ATOM     16  C   UNL     1       2.488  -0.113   2.264  1.00  0.00     0.120 A 
ATOM     17  C   UNL     1       2.863  -0.806   3.411  1.00  0.00     0.047 A 
ATOM     18  C   UNL     1       3.435   0.526   1.477  1.00  0.00     0.047 A 
ATOM     19  C   UNL     1       4.212  -0.852   3.778  1.00  0.00     0.012 A 
ATOM     20  C   UNL     1       4.777   0.473   1.842  1.00  0.00     0.012 A 
ATOM     21  C   UNL     1       5.188  -0.193   3.011  1.00  0.00    -0.018 A 
BRANCH  21  22
ATOM     22  C   UNL     1       6.598  -0.136   3.430  1.00  0.00    -0.018 A 
ATOM     23  C   UNL     1       7.326  -1.295   3.735  1.00  0.00     0.009 A 
ATOM     24  C   UNL     1       7.260   1.102   3.517  1.00  0.00     0.009 A 
ATOM     25  C   UNL     1       8.676  -1.219   4.092  1.00  0.00     0.001 A 
ATOM     26  C   UNL     1       8.607   1.180   3.873  1.00  0.00     0.001 A 
ATOM     27  C   UNL     1       9.316   0.018   4.156  1.00  0.00     0.000 A 
ENDBRANCH  21  22
ENDBRANCH  15  16
ENDBRANCH  13  15
ENDBRANCH  11  13
ENDBRANCH   6  11
ENDBRANCH   3   5
ENDBRANCH   2   3
ENDBRANCH   1   2
BRANCH   1  28
ATOM     28  C   UNL     1      -5.348   0.236  -2.534  1.00  0.00     0.275 C 
BRANCH  28  29
ATOM     29  O   UNL     1      -5.041   1.517  -3.107  1.00  0.00    -0.458 OA
BRANCH  29  30
ATOM     30  C   UNL     1      -5.282   2.578  -2.303  1.00  0.00     0.338 C 
ATOM     31  O   UNL     1      -5.782   2.575  -1.193  1.00  0.00    -0.246 OA
BRANCH  30  32
ATOM     32  C   UNL     1      -4.736   3.784  -2.931  1.00  0.00     0.060 A 
ATOM     33  C   UNL     1      -3.571   4.348  -2.402  1.00  0.00     0.016 A 
ATOM     34  C   UNL     1      -5.421   4.396  -3.977  1.00  0.00     0.016 A 
ATOM     35  C   UNL     1      -3.095   5.555  -2.901  1.00  0.00     0.010 A 
ATOM     36  C   UNL     1      -4.934   5.597  -4.488  1.00  0.00     0.010 A 
ATOM     37  C   UNL     1      -3.783   6.192  -3.939  1.00  0.00    -0.014 A 
BRANCH  37  38
ATOM     38  C   UNL     1      -3.353   7.518  -4.430  1.00  0.00     0.031 A 
ATOM     39  C   UNL     1      -4.206   8.715  -4.129  1.00  0.00     0.074 A 
ATOM     40  C   UNL     1      -2.252   7.627  -5.194  1.00  0.00     0.049 A 
ATOM     41  N   UNL     1      -4.151   9.917  -4.635  1.00  0.00    -0.248 NA
ATOM     42  C   UNL     1      -5.275   8.525  -3.133  1.00  0.00     0.031 C 
ATOM     43  C   UNL     1      -1.338   6.532  -5.519  1.00  0.00     0.029 A 
ATOM     44  N   UNL     1      -1.742   8.705  -5.870  1.00  0.00    -0.354 N 
ATOM     45  C   UNL     1      -5.210  10.612  -4.066  1.00  0.00     0.074 A 
ATOM     46  C   UNL     1      -5.886   9.701  -3.167  1.00  0.00     0.031 C 
ATOM     47  C   UNL     1      -0.397   6.985  -6.362  1.00  0.00     0.029 A 
ATOM     48  C   UNL     1      -0.675   8.383  -6.676  1.00  0.00     0.049 A 
ATOM     49  H   UNL     1      -2.103   9.617  -5.787  1.00  0.00     0.167 HD
ATOM     50  C   UNL     1      -5.580  11.897  -4.276  1.00  0.00     0.034 A 
ATOM     51  C   UNL     1      -0.028   9.123  -7.596  1.00  0.00     0.034 A 
ATOM     52  C   UNL     1      -4.875  12.797  -5.146  1.00  0.00     0.049 A 
ATOM     53  C   UNL     1      -0.469  10.544  -7.825  1.00  0.00     0.074 A 
ATOM     54  C   UNL     1      -5.146  14.127  -5.414  1.00  0.00     0.029 A 
ATOM     55  N   UNL     1      -3.755  12.457  -5.890  1.00  0.00    -0.354 N 
ATOM     56  N   UNL     1      -1.433  11.212  -7.237  1.00  0.00    -0.248 NA
ATOM     57  C   UNL     1       0.277  11.320  -8.825  1.00  0.00     0.031 C 
ATOM     58  C   UNL     1      -4.193  14.588  -6.328  1.00  0.00     0.029 A 
ATOM     59  C   UNL     1      -3.318  13.551  -6.615  1.00  0.00     0.049 A 
ATOM     60  H   UNL     1      -3.332  11.568  -5.901  1.00  0.00     0.167 HD
ATOM     61  C   UNL     1      -1.385  12.496  -7.765  1.00  0.00     0.074 A 
ATOM     62  C   UNL     1      -0.290  12.515  -8.715  1.00  0.00     0.031 C 
ATOM     63  C   UNL     1      -2.181  13.561  -7.500  1.00  0.00     0.034 A 
BRANCH  50  64
ATOM     64  C   UNL     1      -6.788  12.406  -3.537  1.00  0.00     0.023 A 
ATOM     65  C   UNL     1      -6.700  12.676  -2.157  1.00  0.00     0.012 A 
ATOM     66  C   UNL     1      -7.999  12.653  -4.214  1.00  0.00     0.148 A 
ATOM     67  C   UNL     1      -7.805  13.156  -1.455  1.00  0.00     0.002 A 
ATOM     68  C   UNL     1      -9.085  13.170  -3.516  1.00  0.00     0.091 A 
ATOM     69  F   UNL     1      -8.074  12.363  -5.521  1.00  0.00    -0.205 F 
ATOM     70  C   UNL     1      -8.993  13.412  -2.135  1.00  0.00     0.022 A 
BRANCH  68  71
ATOM     71  S   UNL     1     -10.632  13.597  -4.322  1.00  0.00     0.127 S 
ATOM     72  O   UNL     1     -11.496  12.493  -3.907  1.00  0.00    -0.237 OA
ATOM     73  O   UNL     1     -10.956  14.887  -3.711  1.00  0.00    -0.237 OA
ATOM     74  O   UNL     1     -10.334  13.662  -5.746  1.00  0.00    -0.744 OA
ENDBRANCH  68  71
ENDBRANCH  50  64
BRANCH  51  75
ATOM     75  C   UNL     1       1.121   8.539  -8.343  1.00  0.00     0.023 A 
ATOM     76  C   UNL     1       2.423   9.001  -8.070  1.00  0.00     0.012 A 
ATOM     77  C   UNL     1       0.942   7.503  -9.280  1.00  0.00     0.148 A 
ATOM     78  C   UNL     1       3.524   8.457  -8.732  1.00  0.00     0.002 A 
ATOM     79  C   UNL     1       2.048   6.928  -9.897  1.00  0.00     0.091 A 
ATOM     80  F   UNL     1      -0.306   7.088  -9.540  1.00  0.00    -0.205 F 
ATOM     81  C   UNL     1       3.338   7.414  -9.636  1.00  0.00     0.022 A 
BRANCH  79  82
ATOM     82  S   UNL     1       1.915   5.497 -10.975  1.00  0.00     0.127 S 
ATOM     83  O   UNL     1       2.175   6.084 -12.286  1.00  0.00    -0.237 OA
ATOM     84  O   UNL     1       2.979   4.632 -10.465  1.00  0.00    -0.237 OA
ATOM     85  O   UNL     1       0.570   4.975 -10.768  1.00  0.00    -0.744 OA
ENDBRANCH  79  82
ENDBRANCH  51  75
BRANCH  63  86
ATOM     86  C   UNL     1      -1.869  14.858  -8.196  1.00  0.00     0.023 A 
ATOM     87  C   UNL     1      -2.219  15.028  -9.549  1.00  0.00     0.012 A 
ATOM     88  C   UNL     1      -1.326  15.940  -7.476  1.00  0.00     0.148 A 
ATOM     89  C   UNL     1      -2.014  16.253 -10.182  1.00  0.00     0.002 A 
ATOM     90  C   UNL     1      -1.166  17.170  -8.101  1.00  0.00     0.091 A 
ATOM     91  F   UNL     1      -0.983  15.747  -6.194  1.00  0.00    -0.205 F 
ATOM     92  C   UNL     1      -1.502  17.326  -9.456  1.00  0.00     0.022 A 
BRANCH  90  93
ATOM     93  S   UNL     1      -0.604  18.630  -7.218  1.00  0.00     0.127 S 
ATOM     94  O   UNL     1       0.752  18.790  -7.740  1.00  0.00    -0.237 OA
ATOM     95  O   UNL     1      -1.554  19.649  -7.665  1.00  0.00    -0.237 OA
ATOM     96  O   UNL     1      -0.694  18.301  -5.801  1.00  0.00    -0.744 OA
ENDBRANCH  90  93
ENDBRANCH  63  86
ENDBRANCH  37  38
ENDBRANCH  30  32
ENDBRANCH  29  30
ENDBRANCH  28  29
ENDBRANCH   1  28
TORSDOF 19
