REMARK SMILES CC[NH2+][C@]1(C(=O)OCCOC(=O)c2ccc(-c3c4nc(c(-c5cccc(S(=O)(=O)[O-])c5F)c5ccc([nH]5)c(-c5cccc(S(=O)(=O)[O-])c5F)c5nc(c(-c6cccc(S(=O)(=O)[O-])c6F)c6ccc3[nH]6)C=C5)C=C4)cc2)CCC[C@@H]1CC[N@H+]1C[C@H](C)OC[C@@H]1C
REMARK SMILES IDX 8 1 7 2 5 3 6 4 4 5 76 6 79 7 77 8 78 9 3 10 2 13 1 14 80 15
REMARK SMILES IDX 81 16 82 17 83 18 88 19 84 21 87 22 89 23 86 24 85 25 9 26
REMARK SMILES IDX 10 27 11 28 12 29 13 30 14 31 75 32 15 33 74 34 16 35 17 36
REMARK SMILES IDX 18 37 68 38 19 39 73 40 67 41 69 42 20 43 72 44 66 45 65 46
REMARK SMILES IDX 21 48 53 49 33 50 52 51 34 52 37 53 51 54 70 55 35 56 36 57
REMARK SMILES IDX 50 59 71 60 38 61 22 62 23 63 31 64 24 65 26 66 32 67 25 68
REMARK SMILES IDX 27 69 28 70 29 71 30 72 54 73 55 74 63 75 56 76 58 77 64 78
REMARK SMILES IDX 57 79 59 80 60 81 61 82 62 83 39 84 40 85 48 86 41 87 43 88
REMARK SMILES IDX 49 89 42 90 44 91 45 92 46 93 47 94
REMARK H PARENT 3 11 3 12 82 20 69 47 37 58
REMARK Flexibility Score: inf
ROOT
ATOM      1  C   UNL     1       3.666   1.370  -0.802  1.00  0.00     0.274 C 
ENDROOT
BRANCH   1   2
ATOM      2  O   UNL     1       2.899   2.472  -0.281  1.00  0.00    -0.457 OA
BRANCH   2   3
ATOM      3  C   UNL     1       1.797   2.851  -0.986  1.00  0.00     0.368 C 
ATOM      4  O   UNL     1       1.441   2.303  -2.023  1.00  0.00    -0.245 OA
BRANCH   3   5
ATOM      5  C   UNL     1       1.119   4.122  -0.402  1.00  0.00     0.197 C 
ATOM      6  C   UNL     1       1.836   5.350  -1.016  1.00  0.00     0.081 C 
ATOM      7  C   UNL     1      -0.325   4.325  -0.993  1.00  0.00     0.068 C 
ATOM      8  C   UNL     1       0.840   6.487  -0.866  1.00  0.00     0.008 C 
ATOM      9  C   UNL     1      -0.502   5.853  -1.192  1.00  0.00     0.011 C 
BRANCH   5  10
ATOM     10  N   UNL     1       1.092   4.164   1.065  1.00  0.00    -0.332 N 
ATOM     11  H   UNL     1       0.368   4.833   1.327  1.00  0.00     0.347 HD
ATOM     12  H   UNL     1       0.947   3.187   1.322  1.00  0.00     0.347 HD
BRANCH  10  13
ATOM     13  C   UNL     1       2.284   4.528   1.807  1.00  0.00     0.257 C 
ATOM     14  C   UNL     1       2.082   4.199   3.282  1.00  0.00     0.071 C 
ENDBRANCH  10  13
ENDBRANCH   5  10
BRANCH   7  15
ATOM     15  C   UNL     1      -1.629   3.686  -0.447  1.00  0.00     0.072 C 
BRANCH  15  16
ATOM     16  C   UNL     1      -1.739   2.878   0.859  1.00  0.00     0.263 C 
BRANCH  16  17
ATOM     17  N   UNL     1      -1.488   3.482   2.173  1.00  0.00    -0.329 N 
ATOM     18  C   UNL     1      -1.721   4.929   2.263  1.00  0.00     0.294 C 
ATOM     19  C   UNL     1      -2.247   2.774   3.240  1.00  0.00     0.207 C 
ATOM     20  H   UNL     1      -0.485   3.364   2.313  1.00  0.00     0.348 HD
ATOM     21  C   UNL     1      -3.205   5.309   2.306  1.00  0.00     0.170 C 
ATOM     22  C   UNL     1      -3.711   3.279   3.389  1.00  0.00     0.225 C 
ATOM     23  C   UNL     1      -1.491   2.882   4.570  1.00  0.00     0.078 C 
ATOM     24  O   UNL     1      -3.814   4.711   3.460  1.00  0.00    -0.366 OA
ATOM     25  C   UNL     1      -3.355   6.821   2.392  1.00  0.00     0.045 C 
ENDBRANCH  16  17
ENDBRANCH  15  16
ENDBRANCH   7  15
ENDBRANCH   3   5
ENDBRANCH   2   3
ENDBRANCH   1   2
BRANCH   1  26
ATOM     26  C   UNL     1       3.359   0.081  -0.044  1.00  0.00     0.275 C 
BRANCH  26  27
ATOM     27  O   UNL     1       2.091  -0.465  -0.448  1.00  0.00    -0.458 OA
BRANCH  27  28
ATOM     28  C   UNL     1       1.055  -0.198   0.378  1.00  0.00     0.338 C 
ATOM     29  O   UNL     1       1.082   0.422   1.427  1.00  0.00    -0.246 OA
BRANCH  28  30
ATOM     30  C   UNL     1      -0.188  -0.705  -0.222  1.00  0.00     0.060 A 
ATOM     31  C   UNL     1      -0.941   0.166  -1.004  1.00  0.00     0.016 A 
ATOM     32  C   UNL     1      -0.672  -1.975   0.081  1.00  0.00     0.016 A 
ATOM     33  C   UNL     1      -2.221  -0.190  -1.414  1.00  0.00     0.010 A 
ATOM     34  C   UNL     1      -1.918  -2.372  -0.425  1.00  0.00     0.010 A 
ATOM     35  C   UNL     1      -2.715  -1.478  -1.164  1.00  0.00    -0.014 A 
BRANCH  35  36
ATOM     36  C   UNL     1      -4.029  -1.896  -1.730  1.00  0.00     0.031 A 
ATOM     37  C   UNL     1      -5.139  -2.396  -0.844  1.00  0.00     0.074 A 
ATOM     38  C   UNL     1      -4.213  -1.858  -3.067  1.00  0.00     0.049 A 
ATOM     39  N   UNL     1      -6.278  -2.944  -1.183  1.00  0.00    -0.248 NA
ATOM     40  C   UNL     1      -4.944  -2.275   0.610  1.00  0.00     0.031 C 
ATOM     41  C   UNL     1      -3.223  -1.399  -4.043  1.00  0.00     0.029 A 
ATOM     42  N   UNL     1      -5.289  -2.226  -3.839  1.00  0.00    -0.354 N 
ATOM     43  C   UNL     1      -6.905  -3.295   0.007  1.00  0.00     0.074 A 
ATOM     44  C   UNL     1      -6.026  -2.881   1.081  1.00  0.00     0.031 C 
ATOM     45  C   UNL     1      -3.736  -1.499  -5.277  1.00  0.00     0.029 A 
ATOM     46  C   UNL     1      -5.057  -2.108  -5.190  1.00  0.00     0.049 A 
ATOM     47  H   UNL     1      -6.141  -2.543  -3.462  1.00  0.00     0.167 HD
ATOM     48  C   UNL     1      -8.105  -3.899   0.187  1.00  0.00     0.034 A 
ATOM     49  C   UNL     1      -5.793  -2.492  -6.251  1.00  0.00     0.034 A 
ATOM     50  C   UNL     1      -9.008  -4.250  -0.878  1.00  0.00     0.049 A 
ATOM     51  C   UNL     1      -7.117  -3.159  -6.021  1.00  0.00     0.074 A 
ATOM     52  C   UNL     1     -10.274  -4.805  -0.784  1.00  0.00     0.029 A 
ATOM     53  N   UNL     1      -8.749  -4.080  -2.229  1.00  0.00    -0.354 N 
ATOM     54  N   UNL     1      -7.723  -3.415  -4.888  1.00  0.00    -0.248 NA
ATOM     55  C   UNL     1      -7.862  -3.583  -7.214  1.00  0.00     0.031 C 
ATOM     56  C   UNL     1     -10.773  -4.984  -2.079  1.00  0.00     0.029 A 
ATOM     57  C   UNL     1      -9.824  -4.529  -2.979  1.00  0.00     0.049 A 
ATOM     58  H   UNL     1      -7.923  -3.696  -2.602  1.00  0.00     0.167 HD
ATOM     59  C   UNL     1      -8.924  -4.024  -5.230  1.00  0.00     0.074 A 
ATOM     60  C   UNL     1      -8.976  -4.063  -6.678  1.00  0.00     0.031 C 
ATOM     61  C   UNL     1      -9.883  -4.529  -4.418  1.00  0.00     0.034 A 
BRANCH  48  62
ATOM     62  C   UNL     1      -8.540  -4.202   1.597  1.00  0.00     0.023 A 
ATOM     63  C   UNL     1      -9.028  -3.164   2.415  1.00  0.00     0.012 A 
ATOM     64  C   UNL     1      -8.553  -5.527   2.079  1.00  0.00     0.148 A 
ATOM     65  C   UNL     1      -9.503  -3.437   3.698  1.00  0.00     0.002 A 
ATOM     66  C   UNL     1      -9.062  -5.796   3.345  1.00  0.00     0.091 A 
ATOM     67  F   UNL     1      -8.064  -6.498   1.294  1.00  0.00    -0.205 F 
ATOM     68  C   UNL     1      -9.531  -4.752   4.157  1.00  0.00     0.022 A 
BRANCH  66  69
ATOM     69  S   UNL     1      -9.206  -7.466   3.992  1.00  0.00     0.127 S 
ATOM     70  O   UNL     1      -8.117  -7.499   4.967  1.00  0.00    -0.237 OA
ATOM     71  O   UNL     1     -10.547  -7.458   4.578  1.00  0.00    -0.237 OA
ATOM     72  O   UNL     1      -9.053  -8.352   2.847  1.00  0.00    -0.744 OA
ENDBRANCH  66  69
ENDBRANCH  48  62
BRANCH  49  73
ATOM     73  C   UNL     1      -5.278  -2.248  -7.628  1.00  0.00     0.023 A 
ATOM     74  C   UNL     1      -5.904  -1.286  -8.442  1.00  0.00     0.012 A 
ATOM     75  C   UNL     1      -4.132  -2.914  -8.107  1.00  0.00     0.148 A 
ATOM     76  C   UNL     1      -5.405  -1.000  -9.713  1.00  0.00     0.002 A 
ATOM     77  C   UNL     1      -3.602  -2.576  -9.347  1.00  0.00     0.091 A 
ATOM     78  F   UNL     1      -3.565  -3.848  -7.330  1.00  0.00    -0.205 F 
ATOM     79  C   UNL     1      -4.246  -1.631 -10.158  1.00  0.00     0.022 A 
BRANCH  77  80
ATOM     80  S   UNL     1      -2.025  -3.226  -9.910  1.00  0.00     0.127 S 
ATOM     81  O   UNL     1      -2.444  -4.263 -10.848  1.00  0.00    -0.237 OA
ATOM     82  O   UNL     1      -1.408  -2.050 -10.526  1.00  0.00    -0.237 OA
ATOM     83  O   UNL     1      -1.347  -3.687  -8.705  1.00  0.00    -0.744 OA
ENDBRANCH  77  80
ENDBRANCH  49  73
BRANCH  61  84
ATOM     84  C   UNL     1     -11.075  -5.171  -5.076  1.00  0.00     0.023 A 
ATOM     85  C   UNL     1     -10.936  -6.446  -5.661  1.00  0.00     0.012 A 
ATOM     86  C   UNL     1     -12.335  -4.544  -5.072  1.00  0.00     0.148 A 
ATOM     87  C   UNL     1     -12.028  -7.074  -6.259  1.00  0.00     0.002 A 
ATOM     88  C   UNL     1     -13.428  -5.194  -5.634  1.00  0.00     0.091 A 
ATOM     89  F   UNL     1     -12.441  -3.322  -4.530  1.00  0.00    -0.205 F 
ATOM     90  C   UNL     1     -13.274  -6.453  -6.237  1.00  0.00     0.022 A 
BRANCH  88  91
ATOM     91  S   UNL     1     -15.086  -4.504  -5.580  1.00  0.00     0.127 S 
ATOM     92  O   UNL     1     -15.257  -4.028  -6.951  1.00  0.00    -0.237 OA
ATOM     93  O   UNL     1     -15.900  -5.670  -5.233  1.00  0.00    -0.237 OA
ATOM     94  O   UNL     1     -15.052  -3.469  -4.555  1.00  0.00    -0.744 OA
ENDBRANCH  88  91
ENDBRANCH  61  84
ENDBRANCH  35  36
ENDBRANCH  28  30
ENDBRANCH  27  28
ENDBRANCH  26  27
ENDBRANCH   1  26
TORSDOF 19
