REMARK SMILES CCC1(CC)CCN(C(=O)N2CC[C@](C)(C(=O)OCCOC(=O)c3ccc(-c4c5nc(c(-c6cccc(S(=O)(=O)[O-])c6F)c6ccc([nH]6)c(-c6cccc(S(=O)(=O)[O-])c6F)c6nc(c(-c7cccc(S(=O)(=O)[O-])c7F)c7ccc4[nH]7)C=C6)C=C5)cc3)C2)C1
REMARK SMILES IDX 19 1 18 2 16 3 17 4 14 5 11 6 12 7 87 8 13 9 15 10 9 11
REMARK SMILES IDX 10 12 8 13 3 14 6 15 88 16 7 17 2 18 1 19 4 20 5 21 20 22
REMARK SMILES IDX 21 23 22 24 23 25 24 26 25 27 86 28 26 29 85 30 27 31 28 32
REMARK SMILES IDX 29 33 79 34 30 35 84 36 78 37 80 38 31 39 83 40 77 41 76 42
REMARK SMILES IDX 32 44 64 45 44 46 63 47 45 48 48 49 62 50 81 51 46 52 47 53
REMARK SMILES IDX 61 55 82 56 49 57 33 58 34 59 42 60 35 61 37 62 43 63 36 64
REMARK SMILES IDX 38 65 39 66 40 67 41 68 65 69 66 70 74 71 67 72 69 73 75 74
REMARK SMILES IDX 68 75 70 76 71 77 72 78 73 79 50 80 51 81 59 82 52 83 54 84
REMARK SMILES IDX 60 85 53 86 55 87 56 88 57 89 58 90
REMARK H PARENT 80 43 48 54
REMARK Flexibility Score: inf
ROOT
ATOM      1  C   UNL     1      -5.648  -6.360  -1.258  1.00  0.00     0.274 C 
ENDROOT
BRANCH   1   2
ATOM      2  O   UNL     1      -4.429  -6.621  -1.985  1.00  0.00    -0.462 OA
BRANCH   2   3
ATOM      3  C   UNL     1      -3.326  -6.839  -1.214  1.00  0.00     0.313 C 
ATOM      4  O   UNL     1      -3.348  -6.897   0.009  1.00  0.00    -0.252 OA
BRANCH   3   5
ATOM      5  C   UNL     1      -2.066  -7.037  -2.046  1.00  0.00     0.084 C 
ATOM      6  N   UNL     1      -0.287  -5.478  -2.039  1.00  0.00    -0.323 N 
ATOM      7  C   UNL     1      -0.604  -5.722  -3.425  1.00  0.00     0.122 C 
ATOM      8  C   UNL     1      -0.859  -6.523  -1.220  1.00  0.00     0.139 C 
ATOM      9  C   UNL     1      -2.051  -6.158  -3.325  1.00  0.00     0.042 C 
ATOM     10  C   UNL     1      -1.880  -8.508  -2.429  1.00  0.00     0.026 C 
BRANCH   6  11
ATOM     11  C   UNL     1       0.547  -4.542  -1.507  1.00  0.00     0.320 C 
ATOM     12  O   UNL     1       1.263  -4.799  -0.540  1.00  0.00    -0.248 OA
BRANCH  11  13
ATOM     13  N   UNL     1       0.503  -3.283  -2.050  1.00  0.00    -0.324 N 
ATOM     14  C   UNL     1       1.028  -0.951  -2.281  1.00  0.00    -0.011 C 
ATOM     15  C   UNL     1      -0.025  -1.418  -3.317  1.00  0.00     0.030 C 
ATOM     16  C   UNL     1       1.486  -2.292  -1.649  1.00  0.00     0.128 C 
ATOM     17  C   UNL     1      -0.639  -2.641  -2.669  1.00  0.00     0.122 C 
BRANCH  14  18
ATOM     18  C   UNL     1       0.329  -0.016  -1.251  1.00  0.00     0.005 C 
ATOM     19  C   UNL     1       1.122   0.313   0.007  1.00  0.00     0.004 C 
ENDBRANCH  14  18
BRANCH  14  20
ATOM     20  C   UNL     1       2.227  -0.267  -2.984  1.00  0.00     0.005 C 
ATOM     21  C   UNL     1       1.866   0.893  -3.904  1.00  0.00     0.004 C 
ENDBRANCH  14  20
ENDBRANCH  11  13
ENDBRANCH   6  11
ENDBRANCH   3   5
ENDBRANCH   2   3
ENDBRANCH   1   2
BRANCH   1  22
ATOM     22  C   UNL     1      -6.525  -7.605  -1.177  1.00  0.00     0.275 C 
BRANCH  22  23
ATOM     23  O   UNL     1      -5.828  -8.657  -0.490  1.00  0.00    -0.458 OA
BRANCH  23  24
ATOM     24  C   UNL     1      -5.567  -9.759  -1.228  1.00  0.00     0.338 C 
ATOM     25  O   UNL     1      -5.905  -9.973  -2.380  1.00  0.00    -0.246 OA
BRANCH  24  26
ATOM     26  C   UNL     1      -4.756 -10.711  -0.452  1.00  0.00     0.060 A 
ATOM     27  C   UNL     1      -3.483 -10.344  -0.022  1.00  0.00     0.016 A 
ATOM     28  C   UNL     1      -5.195 -12.024  -0.298  1.00  0.00     0.016 A 
ATOM     29  C   UNL     1      -2.594 -11.312   0.438  1.00  0.00     0.010 A 
ATOM     30  C   UNL     1      -4.340 -12.971   0.272  1.00  0.00     0.010 A 
ATOM     31  C   UNL     1      -3.011 -12.640   0.594  1.00  0.00    -0.014 A 
BRANCH  31  32
ATOM     32  C   UNL     1      -2.057 -13.689   1.048  1.00  0.00     0.031 A 
ATOM     33  C   UNL     1      -1.803 -14.901   0.186  1.00  0.00     0.074 A 
ATOM     34  C   UNL     1      -1.429 -13.573   2.236  1.00  0.00     0.049 A 
ATOM     35  N   UNL     1      -1.165 -16.004   0.480  1.00  0.00    -0.248 NA
ATOM     36  C   UNL     1      -2.357 -14.879  -1.179  1.00  0.00     0.031 C 
ATOM     37  C   UNL     1      -1.573 -12.450   3.165  1.00  0.00     0.029 A 
ATOM     38  N   UNL     1      -0.555 -14.419   2.874  1.00  0.00    -0.354 N 
ATOM     39  C   UNL     1      -1.316 -16.837  -0.622  1.00  0.00     0.074 A 
ATOM     40  C   UNL     1      -2.087 -16.106  -1.603  1.00  0.00     0.031 C 
ATOM     41  C   UNL     1      -0.807 -12.669   4.244  1.00  0.00     0.029 A 
ATOM     42  C   UNL     1      -0.173 -13.976   4.119  1.00  0.00     0.049 A 
ATOM     43  H   UNL     1      -0.234 -15.261   2.478  1.00  0.00     0.167 HD
ATOM     44  C   UNL     1      -0.847 -18.095  -0.804  1.00  0.00     0.034 A 
ATOM     45  C   UNL     1       0.573 -14.568   5.072  1.00  0.00     0.034 A 
ATOM     46  C   UNL     1       0.004 -18.782   0.129  1.00  0.00     0.049 A 
ATOM     47  C   UNL     1       1.134 -15.938   4.816  1.00  0.00     0.074 A 
ATOM     48  C   UNL     1       0.567 -20.041   0.013  1.00  0.00     0.029 A 
ATOM     49  N   UNL     1       0.439 -18.258   1.336  1.00  0.00    -0.354 N 
ATOM     50  N   UNL     1       1.017 -16.690   3.748  1.00  0.00    -0.248 NA
ATOM     51  C   UNL     1       1.942 -16.538   5.888  1.00  0.00     0.031 C 
ATOM     52  C   UNL     1       1.349 -20.276   1.149  1.00  0.00     0.029 A 
ATOM     53  C   UNL     1       1.272 -19.163   1.970  1.00  0.00     0.049 A 
ATOM     54  H   UNL     1       0.191 -17.374   1.690  1.00  0.00     0.167 HD
ATOM     55  C   UNL     1       1.749 -17.841   4.012  1.00  0.00     0.074 A 
ATOM     56  C   UNL     1       2.332 -17.675   5.327  1.00  0.00     0.031 C 
ATOM     57  C   UNL     1       1.899 -18.951   3.248  1.00  0.00     0.034 A 
BRANCH  44  58
ATOM     58  C   UNL     1      -1.209 -18.805  -2.080  1.00  0.00     0.023 A 
ATOM     59  C   UNL     1      -0.526 -18.491  -3.271  1.00  0.00     0.012 A 
ATOM     60  C   UNL     1      -2.168 -19.837  -2.082  1.00  0.00     0.148 A 
ATOM     61  C   UNL     1      -0.805 -19.181  -4.450  1.00  0.00     0.002 A 
ATOM     62  C   UNL     1      -2.417 -20.544  -3.253  1.00  0.00     0.091 A 
ATOM     63  F   UNL     1      -2.824 -20.104  -0.943  1.00  0.00    -0.205 F 
ATOM     64  C   UNL     1      -1.740 -20.214  -4.439  1.00  0.00     0.022 A 
BRANCH  62  65
ATOM     65  S   UNL     1      -3.553 -21.935  -3.319  1.00  0.00     0.127 S 
ATOM     66  O   UNL     1      -4.692 -21.352  -4.026  1.00  0.00    -0.237 OA
ATOM     67  O   UNL     1      -2.795 -22.920  -4.092  1.00  0.00    -0.237 OA
ATOM     68  O   UNL     1      -3.800 -22.315  -1.935  1.00  0.00    -0.744 OA
ENDBRANCH  62  65
ENDBRANCH  44  58
BRANCH  45  69
ATOM     69  C   UNL     1       0.851 -13.848   6.347  1.00  0.00     0.023 A 
ATOM     70  C   UNL     1       2.155 -13.383   6.607  1.00  0.00     0.012 A 
ATOM     71  C   UNL     1      -0.170 -13.576   7.277  1.00  0.00     0.148 A 
ATOM     72  C   UNL     1       2.438 -12.679   7.778  1.00  0.00     0.002 A 
ATOM     73  C   UNL     1       0.106 -12.823   8.413  1.00  0.00     0.091 A 
ATOM     74  F   UNL     1      -1.402 -14.047   7.032  1.00  0.00    -0.205 F 
ATOM     75  C   UNL     1       1.412 -12.385   8.674  1.00  0.00     0.022 A 
BRANCH  73  76
ATOM     76  S   UNL     1      -1.208 -12.290   9.515  1.00  0.00     0.127 S 
ATOM     77  O   UNL     1      -1.227 -13.361  10.506  1.00  0.00    -0.237 OA
ATOM     78  O   UNL     1      -0.710 -11.005  10.008  1.00  0.00    -0.237 OA
ATOM     79  O   UNL     1      -2.384 -12.178   8.661  1.00  0.00    -0.744 OA
ENDBRANCH  73  76
ENDBRANCH  45  69
BRANCH  57  80
ATOM     80  C   UNL     1       2.743 -20.065   3.801  1.00  0.00     0.023 A 
ATOM     81  C   UNL     1       2.206 -20.908   4.794  1.00  0.00     0.012 A 
ATOM     82  C   UNL     1       4.028 -20.324   3.291  1.00  0.00     0.148 A 
ATOM     83  C   UNL     1       2.947 -21.980   5.287  1.00  0.00     0.002 A 
ATOM     84  C   UNL     1       4.747 -21.417   3.761  1.00  0.00     0.091 A 
ATOM     85  F   UNL     1       4.532 -19.495   2.364  1.00  0.00    -0.205 F 
ATOM     86  C   UNL     1       4.212 -22.242   4.764  1.00  0.00     0.022 A 
BRANCH  84  87
ATOM     87  S   UNL     1       6.346 -21.860   3.072  1.00  0.00     0.127 S 
ATOM     88  O   UNL     1       7.266 -21.231   4.017  1.00  0.00    -0.237 OA
ATOM     89  O   UNL     1       6.324 -23.323   3.127  1.00  0.00    -0.237 OA
ATOM     90  O   UNL     1       6.351 -21.315   1.721  1.00  0.00    -0.744 OA
ENDBRANCH  84  87
ENDBRANCH  57  80
ENDBRANCH  31  32
ENDBRANCH  24  26
ENDBRANCH  23  24
ENDBRANCH  22  23
ENDBRANCH   1  22
TORSDOF 18
