REMARK SMILES O=C(OCCOC(=O)c1ccc(-c2c3nc(c(-c4cccc(S(=O)(=O)[O-])c4F)c4ccc([nH]4)c(-c4cccc(S(=O)(=O)[O-])c4F)c4nc(c(-c5cccc(S(=O)(=O)[O-])c5F)c5ccc2[nH]5)C=C4)C=C3)cc1)C1=CN(c2ccccc2)C[NH2+][C@H]1c1ccc(NC(=S)NC(=O)c2cc3ccccc3o2)cc1
REMARK SMILES IDX 4 1 3 2 2 3 1 4 72 5 73 6 83 7 74 8 82 9 81 10 84 13 85 14
REMARK SMILES IDX 104 15 86 16 103 17 87 18 88 19 89 21 90 22 91 23 92 24
REMARK SMILES IDX 93 26 94 27 95 28 102 29 96 30 101 31 97 32 100 33 98 34
REMARK SMILES IDX 99 35 75 36 76 37 80 38 77 39 79 40 78 41 5 42 6 43 7 44
REMARK SMILES IDX 8 45 9 46 10 47 71 48 11 49 70 50 12 51 13 52 14 53 64 54
REMARK SMILES IDX 15 55 69 56 63 57 65 58 16 59 68 60 62 61 61 62 17 64 49 65
REMARK SMILES IDX 29 66 48 67 30 68 33 69 47 70 66 71 31 72 32 73 46 75 67 76
REMARK SMILES IDX 34 77 18 78 19 79 27 80 20 81 22 82 28 83 21 84 23 85 24 86
REMARK SMILES IDX 25 87 26 88 50 89 51 90 59 91 52 92 54 93 60 94 53 95 55 96
REMARK SMILES IDX 56 97 57 98 58 99 35 100 36 101 44 102 37 103 39 104 45 105
REMARK SMILES IDX 38 106 40 107 41 108 42 109 43 110
REMARK H PARENT 82 11 82 12 88 20 91 25 65 63 33 74
REMARK Flexibility Score: inf
ROOT
ATOM      1  C   UNL     1       3.944  -1.365   1.099  1.00  0.00     0.275 C 
ENDROOT
BRANCH   1   2
ATOM      2  O   UNL     1       2.739  -0.565   1.175  1.00  0.00    -0.458 OA
BRANCH   2   3
ATOM      3  C   UNL     1       2.609   0.782   1.023  1.00  0.00     0.342 C 
ATOM      4  O   UNL     1       1.863   1.392   1.786  1.00  0.00    -0.246 OA
BRANCH   3   5
ATOM      5  C   UNL     1       3.146   1.480  -0.173  1.00  0.00     0.115 C 
ATOM      6  C   UNL     1       4.344   1.115  -0.656  1.00  0.00     0.109 C 
ATOM      7  C   UNL     1       2.416   2.747  -0.671  1.00  0.00     0.255 C 
ATOM      8  N   UNL     1       5.097   1.703  -1.651  1.00  0.00    -0.300 N 
ATOM      9  N   UNL     1       3.139   3.394  -1.831  1.00  0.00    -0.319 N 
ATOM     10  C   UNL     1       4.557   2.997  -2.121  1.00  0.00     0.393 C 
ATOM     11  H   UNL     1       2.595   3.194  -2.671  1.00  0.00     0.348 HD
ATOM     12  H   UNL     1       3.211   4.374  -1.557  1.00  0.00     0.348 HD
BRANCH   7  13
ATOM     13  C   UNL     1       0.832   2.675  -0.984  1.00  0.00     0.014 A 
ATOM     14  C   UNL     1      -0.023   1.589  -0.685  1.00  0.00     0.012 A 
ATOM     15  C   UNL     1       0.198   3.706  -1.711  1.00  0.00     0.012 A 
ATOM     16  C   UNL     1      -1.130   1.285  -1.519  1.00  0.00     0.026 A 
ATOM     17  C   UNL     1      -1.005   3.478  -2.423  1.00  0.00     0.026 A 
ATOM     18  C   UNL     1      -1.501   2.177  -2.507  1.00  0.00     0.040 A 
BRANCH  18  19
ATOM     19  N   UNL     1      -2.182   1.809  -3.684  1.00  0.00    -0.332 N 
ATOM     20  H   UNL     1      -2.833   2.483  -3.987  1.00  0.00     0.169 HD
BRANCH  19  21
ATOM     21  C   UNL     1      -2.125   0.717  -4.486  1.00  0.00     0.177 C 
ATOM     22  S   UNL     1      -3.428   0.453  -5.518  1.00  0.00    -0.040 S 
BRANCH  21  23
ATOM     23  N   UNL     1      -1.071  -0.201  -4.586  1.00  0.00    -0.296 N 
ATOM     24  C   UNL     1       0.405  -0.839  -4.401  1.00  0.00     0.293 C 
ATOM     25  H   UNL     1      -1.510  -0.919  -5.096  1.00  0.00     0.172 HD
ATOM     26  O   UNL     1      -0.074  -2.022  -4.155  1.00  0.00    -0.265 OA
BRANCH  24  27
ATOM     27  C   UNL     1       2.325  -0.146  -4.508  1.00  0.00     0.193 A 
ATOM     28  C   UNL     1       3.522  -0.036  -3.683  1.00  0.00     0.065 A 
ATOM     29  O   UNL     1       3.039   0.672  -5.657  1.00  0.00    -0.451 OA
ATOM     30  C   UNL     1       4.494  -0.569  -4.550  1.00  0.00     0.021 A 
ATOM     31  C   UNL     1       4.300   0.130  -5.716  1.00  0.00     0.135 A 
ATOM     32  C   UNL     1       5.315  -1.690  -4.554  1.00  0.00     0.012 A 
ATOM     33  C   UNL     1       5.101   0.033  -6.837  1.00  0.00     0.048 A 
ATOM     34  C   UNL     1       6.068  -1.918  -5.701  1.00  0.00     0.001 A 
ATOM     35  C   UNL     1       6.000  -1.043  -6.797  1.00  0.00     0.004 A 
ENDBRANCH  24  27
ENDBRANCH  21  23
ENDBRANCH  19  21
ENDBRANCH  18  19
ENDBRANCH   7  13
BRANCH   8  36
ATOM     36  C   UNL     1       6.266   1.083  -2.217  1.00  0.00     0.046 A 
ATOM     37  C   UNL     1       6.594  -0.280  -1.949  1.00  0.00     0.026 A 
ATOM     38  C   UNL     1       7.137   1.706  -3.123  1.00  0.00     0.026 A 
ATOM     39  C   UNL     1       7.662  -0.978  -2.549  1.00  0.00     0.002 A 
ATOM     40  C   UNL     1       8.213   1.010  -3.737  1.00  0.00     0.002 A 
ATOM     41  C   UNL     1       8.467  -0.332  -3.465  1.00  0.00     0.000 A 
ENDBRANCH   8  36
ENDBRANCH   3   5
ENDBRANCH   2   3
ENDBRANCH   1   2
BRANCH   1  42
ATOM     42  C   UNL     1       3.891  -2.371  -0.067  1.00  0.00     0.275 C 
BRANCH  42  43
ATOM     43  O   UNL     1       3.370  -1.813  -1.296  1.00  0.00    -0.458 OA
BRANCH  43  44
ATOM     44  C   UNL     1       2.322  -2.463  -1.889  1.00  0.00     0.338 C 
ATOM     45  O   UNL     1       1.752  -3.447  -1.454  1.00  0.00    -0.246 OA
BRANCH  44  46
ATOM     46  C   UNL     1       1.860  -1.705  -3.082  1.00  0.00     0.060 A 
ATOM     47  C   UNL     1       1.245  -0.052  -2.707  1.00  0.00     0.016 A 
ATOM     48  C   UNL     1       1.999  -2.208  -4.824  1.00  0.00     0.016 A 
ATOM     49  C   UNL     1       0.813   1.142  -4.027  1.00  0.00     0.010 A 
ATOM     50  C   UNL     1       1.459  -1.073  -6.158  1.00  0.00     0.010 A 
ATOM     51  C   UNL     1       0.861   0.641  -5.786  1.00  0.00    -0.014 A 
BRANCH  51  52
ATOM     52  C   UNL     1       0.647   1.672  -6.867  1.00  0.00     0.031 A 
ATOM     53  C   UNL     1       0.028   1.166  -8.134  1.00  0.00     0.074 A 
ATOM     54  C   UNL     1       1.068   2.965  -6.784  1.00  0.00     0.049 A 
ATOM     55  N   UNL     1      -0.073   1.744  -9.297  1.00  0.00    -0.248 NA
ATOM     56  C   UNL     1      -0.471  -0.219  -8.114  1.00  0.00     0.031 C 
ATOM     57  C   UNL     1       1.759   3.595  -5.653  1.00  0.00     0.029 A 
ATOM     58  N   UNL     1       1.017   4.005  -7.697  1.00  0.00    -0.354 N 
ATOM     59  C   UNL     1      -0.546   0.751 -10.144  1.00  0.00     0.074 A 
ATOM     60  C   UNL     1      -0.589  -0.477  -9.400  1.00  0.00     0.031 C 
ATOM     61  C   UNL     1       2.011   4.891  -5.903  1.00  0.00     0.029 A 
ATOM     62  C   UNL     1       1.603   5.187  -7.262  1.00  0.00     0.049 A 
ATOM     63  H   UNL     1       0.599   3.914  -8.584  1.00  0.00     0.167 HD
ATOM     64  C   UNL     1      -0.967   0.849 -11.421  1.00  0.00     0.034 A 
ATOM     65  C   UNL     1       1.829   6.359  -7.899  1.00  0.00     0.034 A 
ATOM     66  C   UNL     1      -0.927   2.072 -12.148  1.00  0.00     0.049 A 
ATOM     67  C   UNL     1       1.380   6.445  -9.339  1.00  0.00     0.074 A 
ATOM     68  C   UNL     1      -1.295   2.314 -13.453  1.00  0.00     0.029 A 
ATOM     69  N   UNL     1      -0.441   3.257 -11.621  1.00  0.00    -0.354 N 
ATOM     70  N   UNL     1       0.801   5.524 -10.072  1.00  0.00    -0.248 NA
ATOM     71  C   UNL     1       1.585   7.723 -10.037  1.00  0.00     0.031 C 
ATOM     72  C   UNL     1      -0.938   3.631 -13.746  1.00  0.00     0.029 A 
ATOM     73  C   UNL     1      -0.444   4.229 -12.593  1.00  0.00     0.049 A 
ATOM     74  H   UNL     1      -0.139   3.384 -10.693  1.00  0.00     0.167 HD
ATOM     75  C   UNL     1       0.536   6.120 -11.296  1.00  0.00     0.074 A 
ATOM     76  C   UNL     1       0.997   7.490 -11.202  1.00  0.00     0.031 C 
ATOM     77  C   UNL     1      -0.024   5.591 -12.408  1.00  0.00     0.034 A 
BRANCH  64  78
ATOM     78  C   UNL     1      -1.405  -0.429 -12.071  1.00  0.00     0.023 A 
ATOM     79  C   UNL     1      -2.562  -1.107 -11.628  1.00  0.00     0.012 A 
ATOM     80  C   UNL     1      -0.561  -1.034 -13.017  1.00  0.00     0.148 A 
ATOM     81  C   UNL     1      -2.819  -2.410 -12.053  1.00  0.00     0.002 A 
ATOM     82  C   UNL     1      -0.859  -2.304 -13.483  1.00  0.00     0.091 A 
ATOM     83  F   UNL     1       0.544  -0.379 -13.396  1.00  0.00    -0.205 F 
ATOM     84  C   UNL     1      -1.968  -3.007 -12.981  1.00  0.00     0.022 A 
BRANCH  82  85
ATOM     85  S   UNL     1       0.150  -3.131 -14.712  1.00  0.00     0.127 S 
ATOM     86  O   UNL     1       0.473  -4.389 -14.039  1.00  0.00    -0.237 OA
ATOM     87  O   UNL     1      -0.787  -3.256 -15.827  1.00  0.00    -0.237 OA
ATOM     88  O   UNL     1       1.292  -2.260 -14.954  1.00  0.00    -0.744 OA
ENDBRANCH  82  85
ENDBRANCH  64  78
BRANCH  65  89
ATOM     89  C   UNL     1       2.481   7.549  -7.242  1.00  0.00     0.023 A 
ATOM     90  C   UNL     1       1.747   8.749  -7.096  1.00  0.00     0.012 A 
ATOM     91  C   UNL     1       3.835   7.549  -6.843  1.00  0.00     0.148 A 
ATOM     92  C   UNL     1       2.355   9.926  -6.644  1.00  0.00     0.002 A 
ATOM     93  C   UNL     1       4.424   8.714  -6.345  1.00  0.00     0.091 A 
ATOM     94  F   UNL     1       4.535   6.414  -6.976  1.00  0.00    -0.205 F 
ATOM     95  C   UNL     1       3.693   9.909  -6.269  1.00  0.00     0.022 A 
BRANCH  93  96
ATOM     96  S   UNL     1       6.122   8.777  -5.750  1.00  0.00     0.127 S 
ATOM     97  O   UNL     1       6.764   9.617  -6.758  1.00  0.00    -0.237 OA
ATOM     98  O   UNL     1       5.959   9.407  -4.439  1.00  0.00    -0.237 OA
ATOM     99  O   UNL     1       6.572   7.393  -5.700  1.00  0.00    -0.744 OA
ENDBRANCH  93  96
ENDBRANCH  65  89
BRANCH  77 100
ATOM    100  C   UNL     1      -0.239   6.492 -13.583  1.00  0.00     0.023 A 
ATOM    101  C   UNL     1       0.846   6.857 -14.399  1.00  0.00     0.012 A 
ATOM    102  C   UNL     1      -1.557   6.791 -13.976  1.00  0.00     0.148 A 
ATOM    103  C   UNL     1       0.616   7.513 -15.605  1.00  0.00     0.002 A 
ATOM    104  C   UNL     1      -1.780   7.380 -15.207  1.00  0.00     0.091 A 
ATOM    105  F   UNL     1      -2.562   6.438 -13.161  1.00  0.00    -0.205 F 
ATOM    106  C   UNL     1      -0.695   7.752 -16.019  1.00  0.00     0.022 A 
BRANCH 104 107
ATOM    107  S   UNL     1      -3.430   7.582 -15.879  1.00  0.00     0.127 S 
ATOM    108  O   UNL     1      -3.567   9.037 -15.890  1.00  0.00    -0.237 OA
ATOM    109  O   UNL     1      -3.299   6.968 -17.200  1.00  0.00    -0.237 OA
ATOM    110  O   UNL     1      -4.328   6.882 -14.971  1.00  0.00    -0.744 OA
ENDBRANCH 104 107
ENDBRANCH  77 100
ENDBRANCH  51  52
ENDBRANCH  44  46
ENDBRANCH  43  44
ENDBRANCH  42  43
ENDBRANCH   1  42
TORSDOF 20
