REMARK SMILES CC[NH2+][C@@]1(C(=O)OCCOC(=O)c2ccc(-c3c4nc(c(-c5cccc(S(=O)(=O)[O-])c5F)c5ccc([nH]5)c(-c5cccc(S(=O)(=O)[O-])c5F)c5nc(c(-c6cccc(S(=O)(=O)[O-])c6F)c6ccc3[nH]6)C=C5)C=C4)cc2)CC[C@H](Oc2ccc3c(c2)OCO3)C1
REMARK SMILES IDX 9 1 8 2 7 3 5 4 6 5 4 6 76 7 89 8 77 9 78 10 3 11 2 14 1 15
REMARK SMILES IDX 79 16 80 17 81 18 85 19 82 20 84 21 83 22 86 23 88 24 87 25
REMARK SMILES IDX 10 26 11 27 12 28 13 29 14 30 75 31 15 32 74 33 16 34 17 35
REMARK SMILES IDX 18 36 68 37 19 38 73 39 67 40 69 41 20 42 72 43 66 44 65 45
REMARK SMILES IDX 21 47 53 48 33 49 52 50 34 51 37 52 51 53 70 54 35 55 36 56
REMARK SMILES IDX 50 58 71 59 38 60 22 61 23 62 31 63 24 64 26 65 32 66 25 67
REMARK SMILES IDX 27 68 28 69 29 70 30 71 54 72 55 73 63 74 56 75 58 76 64 77
REMARK SMILES IDX 57 78 59 79 60 80 61 81 62 82 39 83 40 84 48 85 41 86 43 87
REMARK SMILES IDX 49 88 42 89 44 90 45 91 46 92 47 93
REMARK H PARENT 3 12 3 13 69 46 37 57
REMARK Flexibility Score: inf
ROOT
ATOM      1  C   UNL     1      -3.732   2.715   0.267  1.00  0.00     0.275 C 
ENDROOT
BRANCH   1   2
ATOM      2  C   UNL     1      -2.775   3.799   0.752  1.00  0.00     0.274 C 
BRANCH   2   3
ATOM      3  O   UNL     1      -1.683   3.861  -0.170  1.00  0.00    -0.457 OA
BRANCH   3   4
ATOM      4  C   UNL     1      -0.488   4.228   0.344  1.00  0.00     0.368 C 
ATOM      5  O   UNL     1      -0.335   4.684   1.474  1.00  0.00    -0.245 OA
BRANCH   4   6
ATOM      6  C   UNL     1       0.692   3.898  -0.624  1.00  0.00     0.198 C 
ATOM      7  C   UNL     1       1.713   5.036  -0.525  1.00  0.00     0.085 C 
ATOM      8  C   UNL     1       0.352   4.013  -2.125  1.00  0.00     0.126 C 
ATOM      9  C   UNL     1       0.999   6.185  -1.251  1.00  0.00     0.052 C 
ATOM     10  C   UNL     1       0.152   5.519  -2.352  1.00  0.00     0.180 C 
BRANCH   6  11
ATOM     11  N   UNL     1       1.234   2.545  -0.380  1.00  0.00    -0.332 N 
ATOM     12  H   UNL     1       0.713   1.888  -0.961  1.00  0.00     0.347 HD
ATOM     13  H   UNL     1       2.227   2.597  -0.605  1.00  0.00     0.347 HD
BRANCH  11  14
ATOM     14  C   UNL     1       1.161   2.077   1.004  1.00  0.00     0.257 C 
ATOM     15  C   UNL     1       1.646   0.644   1.083  1.00  0.00     0.071 C 
ENDBRANCH  11  14
ENDBRANCH   6  11
BRANCH  10  16
ATOM     16  O   UNL     1      -1.249   5.674  -2.191  1.00  0.00    -0.490 OA
BRANCH  16  17
ATOM     17  C   UNL     1      -1.899   6.855  -2.216  1.00  0.00     0.123 A 
ATOM     18  C   UNL     1      -1.354   8.111  -2.503  1.00  0.00     0.050 A 
ATOM     19  C   UNL     1      -3.257   6.715  -1.910  1.00  0.00     0.097 A 
ATOM     20  C   UNL     1      -2.172   9.250  -2.470  1.00  0.00     0.054 A 
ATOM     21  C   UNL     1      -4.039   7.840  -1.911  1.00  0.00     0.169 A 
ATOM     22  C   UNL     1      -3.512   9.078  -2.186  1.00  0.00     0.166 A 
ATOM     23  O   UNL     1      -5.378   7.876  -1.681  1.00  0.00    -0.453 OA
ATOM     24  O   UNL     1      -4.467  10.048  -2.172  1.00  0.00    -0.454 OA
ATOM     25  C   UNL     1      -5.656   9.233  -2.068  1.00  0.00     0.468 C 
ENDBRANCH  16  17
ENDBRANCH  10  16
ENDBRANCH   4   6
ENDBRANCH   3   4
ENDBRANCH   2   3
ENDBRANCH   1   2
BRANCH   1  26
ATOM     26  O   UNL     1      -3.019   1.484   0.039  1.00  0.00    -0.458 OA
BRANCH  26  27
ATOM     27  C   UNL     1      -2.552   1.306  -1.229  1.00  0.00     0.338 C 
ATOM     28  O   UNL     1      -2.759   2.017  -2.193  1.00  0.00    -0.246 OA
BRANCH  27  29
ATOM     29  C   UNL     1      -1.673   0.117  -1.259  1.00  0.00     0.060 A 
ATOM     30  C   UNL     1      -0.480   0.167  -1.991  1.00  0.00     0.016 A 
ATOM     31  C   UNL     1      -2.034  -1.053  -0.585  1.00  0.00     0.016 A 
ATOM     32  C   UNL     1       0.372  -0.940  -2.015  1.00  0.00     0.010 A 
ATOM     33  C   UNL     1      -1.195  -2.167  -0.631  1.00  0.00     0.010 A 
ATOM     34  C   UNL     1       0.015  -2.116  -1.339  1.00  0.00    -0.014 A 
BRANCH  34  35
ATOM     35  C   UNL     1       0.852  -3.332  -1.466  1.00  0.00     0.031 A 
ATOM     36  C   UNL     1       0.632  -4.228  -2.645  1.00  0.00     0.074 A 
ATOM     37  C   UNL     1       1.766  -3.651  -0.531  1.00  0.00     0.049 A 
ATOM     38  N   UNL     1       1.247  -5.334  -2.965  1.00  0.00    -0.248 NA
ATOM     39  C   UNL     1      -0.435  -3.833  -3.580  1.00  0.00     0.031 C 
ATOM     40  C   UNL     1       2.030  -2.881   0.678  1.00  0.00     0.029 A 
ATOM     41  N   UNL     1       2.629  -4.715  -0.439  1.00  0.00    -0.354 N 
ATOM     42  C   UNL     1       0.633  -5.781  -4.125  1.00  0.00     0.074 A 
ATOM     43  C   UNL     1      -0.402  -4.826  -4.457  1.00  0.00     0.031 C 
ATOM     44  C   UNL     1       2.999  -3.480   1.388  1.00  0.00     0.029 A 
ATOM     45  C   UNL     1       3.385  -4.714   0.713  1.00  0.00     0.049 A 
ATOM     46  H   UNL     1       2.701  -5.412  -1.129  1.00  0.00     0.167 HD
ATOM     47  C   UNL     1       0.904  -6.893  -4.846  1.00  0.00     0.034 A 
ATOM     48  C   UNL     1       4.263  -5.621   1.185  1.00  0.00     0.034 A 
ATOM     49  C   UNL     1       1.903  -7.861  -4.486  1.00  0.00     0.049 A 
ATOM     50  C   UNL     1       4.524  -6.862   0.373  1.00  0.00     0.074 A 
ATOM     51  C   UNL     1       2.266  -9.012  -5.161  1.00  0.00     0.029 A 
ATOM     52  N   UNL     1       2.674  -7.812  -3.334  1.00  0.00    -0.354 N 
ATOM     53  N   UNL     1       4.030  -7.205  -0.792  1.00  0.00    -0.248 NA
ATOM     54  C   UNL     1       5.476  -7.835   0.930  1.00  0.00     0.031 C 
ATOM     55  C   UNL     1       3.225  -9.681  -4.395  1.00  0.00     0.029 A 
ATOM     56  C   UNL     1       3.498  -8.921  -3.269  1.00  0.00     0.049 A 
ATOM     57  H   UNL     1       2.639  -7.093  -2.661  1.00  0.00     0.167 HD
ATOM     58  C   UNL     1       4.633  -8.413  -1.123  1.00  0.00     0.074 A 
ATOM     59  C   UNL     1       5.548  -8.730  -0.046  1.00  0.00     0.031 C 
ATOM     60  C   UNL     1       4.438  -9.196  -2.212  1.00  0.00     0.034 A 
BRANCH  47  61
ATOM     61  C   UNL     1       0.091  -7.121  -6.090  1.00  0.00     0.023 A 
ATOM     62  C   UNL     1       0.300  -6.307  -7.222  1.00  0.00     0.012 A 
ATOM     63  C   UNL     1      -0.859  -8.158  -6.146  1.00  0.00     0.148 A 
ATOM     64  C   UNL     1      -0.450  -6.500  -8.381  1.00  0.00     0.002 A 
ATOM     65  C   UNL     1      -1.569  -8.374  -7.319  1.00  0.00     0.091 A 
ATOM     66  F   UNL     1      -1.057  -8.903  -5.050  1.00  0.00    -0.205 F 
ATOM     67  C   UNL     1      -1.377  -7.538  -8.432  1.00  0.00     0.022 A 
BRANCH  65  68
ATOM     68  S   UNL     1      -2.732  -9.728  -7.512  1.00  0.00     0.127 S 
ATOM     69  O   UNL     1      -4.000  -9.011  -7.645  1.00  0.00    -0.237 OA
ATOM     70  O   UNL     1      -2.259 -10.363  -8.742  1.00  0.00    -0.237 OA
ATOM     71  O   UNL     1      -2.605 -10.545  -6.314  1.00  0.00    -0.744 OA
ENDBRANCH  65  68
ENDBRANCH  47  61
BRANCH  48  72
ATOM     72  C   UNL     1       4.965  -5.399   2.484  1.00  0.00     0.023 A 
ATOM     73  C   UNL     1       6.362  -5.216   2.499  1.00  0.00     0.012 A 
ATOM     74  C   UNL     1       4.261  -5.382   3.704  1.00  0.00     0.148 A 
ATOM     75  C   UNL     1       7.049  -5.063   3.705  1.00  0.00     0.002 A 
ATOM     76  C   UNL     1       4.943  -5.168   4.897  1.00  0.00     0.091 A 
ATOM     77  F   UNL     1       2.935  -5.575   3.675  1.00  0.00    -0.205 F 
ATOM     78  C   UNL     1       6.339  -5.030   4.902  1.00  0.00     0.022 A 
BRANCH  76  79
ATOM     79  S   UNL     1       4.097  -4.983   6.471  1.00  0.00     0.127 S 
ATOM     80  O   UNL     1       4.492  -6.205   7.167  1.00  0.00    -0.237 OA
ATOM     81  O   UNL     1       4.697  -3.755   6.992  1.00  0.00    -0.237 OA
ATOM     82  O   UNL     1       2.682  -4.869   6.146  1.00  0.00    -0.744 OA
ENDBRANCH  76  79
ENDBRANCH  48  72
BRANCH  60  83
ATOM     83  C   UNL     1       5.264 -10.450  -2.327  1.00  0.00     0.023 A 
ATOM     84  C   UNL     1       5.010 -11.549  -1.483  1.00  0.00     0.012 A 
ATOM     85  C   UNL     1       6.244 -10.562  -3.333  1.00  0.00     0.148 A 
ATOM     86  C   UNL     1       5.743 -12.728  -1.617  1.00  0.00     0.002 A 
ATOM     87  C   UNL     1       6.930 -11.758  -3.498  1.00  0.00     0.091 A 
ATOM     88  F   UNL     1       6.483  -9.498  -4.114  1.00  0.00    -0.205 F 
ATOM     89  C   UNL     1       6.691 -12.837  -2.632  1.00  0.00     0.022 A 
BRANCH  87  90
ATOM     90  S   UNL     1       8.092 -12.024  -4.840  1.00  0.00     0.127 S 
ATOM     91  O   UNL     1       9.367 -12.075  -4.125  1.00  0.00    -0.237 OA
ATOM     92  O   UNL     1       7.646 -13.306  -5.385  1.00  0.00    -0.237 OA
ATOM     93  O   UNL     1       7.931 -10.893  -5.745  1.00  0.00    -0.744 OA
ENDBRANCH  87  90
ENDBRANCH  60  83
ENDBRANCH  34  35
ENDBRANCH  27  29
ENDBRANCH  26  27
ENDBRANCH   1  26
TORSDOF 18
