REMARK SMILES Cc1nn(C)c(C)c1CN(C)C(=O)[C@@H]1CC=CC[C@@H]1C(=O)OCCOC(=O)c1ccc(-c2c3nc(c(-c4cccc(S(=O)(=O)[O-])c4F)c4ccc([nH]4)c(-c4cccc(S(=O)(=O)[O-])c4F)c4nc(c(-c5cccc(S(=O)(=O)[O-])c5F)c5ccc2[nH]5)C=C4)C=C3)cc1
REMARK SMILES IDX 23 1 22 2 20 3 21 4 19 5 14 6 15 7 16 8 18 9 17 10 12 11
REMARK SMILES IDX 13 12 10 13 11 14 9 15 8 16 1 17 2 18 3 19 4 20 6 21 5 22
REMARK SMILES IDX 7 23 24 24 25 25 26 26 27 27 28 28 29 29 90 30 30 31 89 32
REMARK SMILES IDX 31 33 32 34 33 35 83 36 34 37 88 38 82 39 84 40 35 41 87 42
REMARK SMILES IDX 81 43 80 44 36 46 68 47 48 48 67 49 49 50 52 51 66 52 85 53
REMARK SMILES IDX 50 54 51 55 65 57 86 58 53 59 37 60 38 61 46 62 39 63 41 64
REMARK SMILES IDX 47 65 40 66 42 67 43 68 44 69 45 70 69 71 70 72 78 73 71 74
REMARK SMILES IDX 73 75 79 76 72 77 74 78 75 79 76 80 77 81 54 82 55 83 63 84
REMARK SMILES IDX 56 85 58 86 64 87 57 88 59 89 60 90 61 91 62 92
REMARK H PARENT 84 45 52 56
REMARK Flexibility Score: inf
ROOT
ATOM      1  C   UNL     1       3.505   3.546   7.237  1.00  0.00     0.274 C 
ENDROOT
BRANCH   1   2
ATOM      2  O   UNL     1       3.162   3.026   5.929  1.00  0.00    -0.462 OA
BRANCH   2   3
ATOM      3  C   UNL     1       1.827   2.961   5.636  1.00  0.00     0.310 C 
ATOM      4  O   UNL     1       0.956   3.399   6.375  1.00  0.00    -0.252 OA
BRANCH   3   5
ATOM      5  C   UNL     1       1.587   2.148   4.355  1.00  0.00     0.115 C 
ATOM      6  C   UNL     1       0.419   2.630   3.463  1.00  0.00     0.097 C 
ATOM      7  C   UNL     1      -0.916   2.625   4.237  1.00  0.00     0.041 C 
ATOM      8  C   UNL     1      -1.105   1.341   5.005  1.00  0.00    -0.030 C 
ATOM      9  C   UNL     1       1.302   0.686   4.757  1.00  0.00     0.043 C 
ATOM     10  C   UNL     1      -0.117   0.456   5.212  1.00  0.00    -0.030 C 
BRANCH   6  11
ATOM     11  C   UNL     1       0.694   3.949   2.741  1.00  0.00     0.226 C 
ATOM     12  O   UNL     1      -0.099   4.880   2.827  1.00  0.00    -0.275 OA
BRANCH  11  13
ATOM     13  N   UNL     1       1.797   3.983   1.894  1.00  0.00    -0.341 N 
ATOM     14  C   UNL     1       1.944   2.941   0.900  1.00  0.00     0.147 C 
BRANCH  13  15
ATOM     15  C   UNL     1       2.626   5.193   1.754  1.00  0.00     0.158 C 
BRANCH  15  16
ATOM     16  C   UNL     1       1.896   6.425   1.355  1.00  0.00     0.015 A 
ATOM     17  C   UNL     1       3.090   8.265   2.835  1.00  0.00     0.069 C 
ATOM     18  C   UNL     1       2.082   7.742   1.879  1.00  0.00     0.065 A 
ATOM     19  N   UNL     1       1.203   8.602   1.361  1.00  0.00    -0.178 NA
ATOM     20  N   UNL     1       0.413   7.838   0.593  1.00  0.00    -0.272 N 
ATOM     21  C   UNL     1       0.933   6.593   0.370  1.00  0.00     0.040 A 
ATOM     22  C   UNL     1      -0.849   8.367   0.136  1.00  0.00     0.174 C 
ATOM     23  C   UNL     1       0.409   5.679  -0.666  1.00  0.00     0.067 C 
ENDBRANCH  15  16
ENDBRANCH  13  15
ENDBRANCH  11  13
ENDBRANCH   6  11
ENDBRANCH   3   5
ENDBRANCH   2   3
ENDBRANCH   1   2
BRANCH   1  24
ATOM     24  C   UNL     1       3.916   5.028   7.251  1.00  0.00     0.275 C 
BRANCH  24  25
ATOM     25  O   UNL     1       2.800   5.946   7.203  1.00  0.00    -0.458 OA
BRANCH  25  26
ATOM     26  C   UNL     1       2.403   6.205   5.938  1.00  0.00     0.338 C 
ATOM     27  O   UNL     1       2.910   5.704   4.944  1.00  0.00    -0.246 OA
BRANCH  26  28
ATOM     28  C   UNL     1       1.233   7.098   5.816  1.00  0.00     0.060 A 
ATOM     29  C   UNL     1       0.164   6.552   5.129  1.00  0.00     0.016 A 
ATOM     30  C   UNL     1       1.264   8.476   6.037  1.00  0.00     0.016 A 
ATOM     31  C   UNL     1      -0.775   7.368   4.508  1.00  0.00     0.010 A 
ATOM     32  C   UNL     1       0.243   9.298   5.498  1.00  0.00     0.010 A 
ATOM     33  C   UNL     1      -0.764   8.761   4.676  1.00  0.00    -0.014 A 
BRANCH  33  34
ATOM     34  C   UNL     1      -1.847   9.542   3.992  1.00  0.00     0.031 A 
ATOM     35  C   UNL     1      -1.576  10.530   2.878  1.00  0.00     0.074 A 
ATOM     36  C   UNL     1      -3.132   9.218   4.252  1.00  0.00     0.049 A 
ATOM     37  N   UNL     1      -2.418  11.004   1.985  1.00  0.00    -0.248 NA
ATOM     38  C   UNL     1      -0.201  11.012   2.699  1.00  0.00     0.031 C 
ATOM     39  C   UNL     1      -3.571   8.272   5.282  1.00  0.00     0.029 A 
ATOM     40  N   UNL     1      -4.304   9.626   3.660  1.00  0.00    -0.354 N 
ATOM     41  C   UNL     1      -1.651  11.724   1.073  1.00  0.00     0.074 A 
ATOM     42  C   UNL     1      -0.296  11.720   1.578  1.00  0.00     0.031 C 
ATOM     43  C   UNL     1      -4.905   8.165   5.244  1.00  0.00     0.029 A 
ATOM     44  C   UNL     1      -5.427   9.080   4.234  1.00  0.00     0.049 A 
ATOM     45  H   UNL     1      -4.336  10.248   2.898  1.00  0.00     0.167 HD
ATOM     46  C   UNL     1      -2.025  12.250  -0.121  1.00  0.00     0.034 A 
ATOM     47  C   UNL     1      -6.736   9.311   4.014  1.00  0.00     0.034 A 
ATOM     48  C   UNL     1      -3.387  12.356  -0.578  1.00  0.00     0.049 A 
ATOM     49  C   UNL     1      -7.144  10.222   2.895  1.00  0.00     0.074 A 
ATOM     50  C   UNL     1      -3.860  12.915  -1.754  1.00  0.00     0.029 A 
ATOM     51  N   UNL     1      -4.498  11.962   0.148  1.00  0.00    -0.354 N 
ATOM     52  N   UNL     1      -6.404  10.732   1.942  1.00  0.00    -0.248 NA
ATOM     53  C   UNL     1      -8.568  10.573   2.805  1.00  0.00     0.031 C 
ATOM     54  C   UNL     1      -5.261  12.914  -1.709  1.00  0.00     0.029 A 
ATOM     55  C   UNL     1      -5.657  12.332  -0.518  1.00  0.00     0.049 A 
ATOM     56  H   UNL     1      -4.470  11.488   1.010  1.00  0.00     0.167 HD
ATOM     57  C   UNL     1      -7.273  11.441   1.123  1.00  0.00     0.074 A 
ATOM     58  C   UNL     1      -8.600  11.279   1.682  1.00  0.00     0.031 C 
ATOM     59  C   UNL     1      -6.987  12.165   0.013  1.00  0.00     0.034 A 
BRANCH  46  60
ATOM     60  C   UNL     1      -0.942  12.681  -1.078  1.00  0.00     0.023 A 
ATOM     61  C   UNL     1      -0.421  11.720  -1.970  1.00  0.00     0.012 A 
ATOM     62  C   UNL     1      -0.522  14.017  -1.191  1.00  0.00     0.148 A 
ATOM     63  C   UNL     1       0.522  12.066  -2.936  1.00  0.00     0.002 A 
ATOM     64  C   UNL     1       0.400  14.364  -2.177  1.00  0.00     0.091 A 
ATOM     65  F   UNL     1      -1.031  14.920  -0.342  1.00  0.00    -0.205 F 
ATOM     66  C   UNL     1       0.927  13.391  -3.044  1.00  0.00     0.022 A 
BRANCH  64  67
ATOM     67  S   UNL     1       0.939  16.056  -2.450  1.00  0.00     0.127 S 
ATOM     68  O   UNL     1       2.320  16.007  -1.970  1.00  0.00    -0.237 OA
ATOM     69  O   UNL     1       0.803  16.196  -3.900  1.00  0.00    -0.237 OA
ATOM     70  O   UNL     1       0.037  16.894  -1.672  1.00  0.00    -0.744 OA
ENDBRANCH  64  67
ENDBRANCH  46  60
BRANCH  47  71
ATOM     71  C   UNL     1      -7.748   8.701   4.923  1.00  0.00     0.023 A 
ATOM     72  C   UNL     1      -8.688   7.776   4.437  1.00  0.00     0.012 A 
ATOM     73  C   UNL     1      -7.750   9.026   6.295  1.00  0.00     0.148 A 
ATOM     74  C   UNL     1      -9.616   7.192   5.303  1.00  0.00     0.002 A 
ATOM     75  C   UNL     1      -8.625   8.388   7.162  1.00  0.00     0.091 A 
ATOM     76  F   UNL     1      -6.883   9.951   6.734  1.00  0.00    -0.205 F 
ATOM     77  C   UNL     1      -9.572   7.482   6.666  1.00  0.00     0.022 A 
BRANCH  75  78
ATOM     78  S   UNL     1      -8.507   8.604   8.941  1.00  0.00     0.127 S 
ATOM     79  O   UNL     1      -9.580   9.560   9.199  1.00  0.00    -0.237 OA
ATOM     80  O   UNL     1      -8.756   7.249   9.435  1.00  0.00    -0.237 OA
ATOM     81  O   UNL     1      -7.151   9.082   9.181  1.00  0.00    -0.744 OA
ENDBRANCH  75  78
ENDBRANCH  47  71
BRANCH  59  82
ATOM     82  C   UNL     1      -8.134  12.850  -0.683  1.00  0.00     0.023 A 
ATOM     83  C   UNL     1      -8.749  13.963  -0.075  1.00  0.00     0.012 A 
ATOM     84  C   UNL     1      -8.587  12.419  -1.945  1.00  0.00     0.148 A 
ATOM     85  C   UNL     1      -9.819  14.611  -0.692  1.00  0.00     0.002 A 
ATOM     86  C   UNL     1      -9.622  13.101  -2.577  1.00  0.00     0.091 A 
ATOM     87  F   UNL     1      -8.014  11.342  -2.501  1.00  0.00    -0.205 F 
ATOM     88  C   UNL     1     -10.248  14.188  -1.947  1.00  0.00     0.022 A 
BRANCH  86  89
ATOM     89  S   UNL     1     -10.162  12.675  -4.237  1.00  0.00     0.127 S 
ATOM     90  O   UNL     1     -11.339  11.852  -3.969  1.00  0.00    -0.237 OA
ATOM     91  O   UNL     1     -10.455  13.984  -4.822  1.00  0.00    -0.237 OA
ATOM     92  O   UNL     1      -9.033  11.987  -4.850  1.00  0.00    -0.744 OA
ENDBRANCH  86  89
ENDBRANCH  59  82
ENDBRANCH  33  34
ENDBRANCH  26  28
ENDBRANCH  25  26
ENDBRANCH  24  25
ENDBRANCH   1  24
TORSDOF 18
