REMARK SMILES CSCC[C@H](NC(=O)N[C@@H]1CCCCC1(C)C)C(=O)OCCOC(=O)c1ccc(-c2c3nc(c(-c4cccc(S(=O)(=O)[O-])c4F)c4ccc([nH]4)c(-c4cccc(S(=O)(=O)[O-])c4F)c4nc(c(-c5cccc(S(=O)(=O)[O-])c5F)c5ccc2[nH]5)C=C4)C=C3)cc1
REMARK SMILES IDX 21 1 20 2 18 3 19 4 5 5 4 6 3 7 2 8 1 9 6 10 7 11 8 13 9 14
REMARK SMILES IDX 10 16 11 17 15 18 12 19 14 20 16 21 17 22 13 23 22 24 23 25
REMARK SMILES IDX 24 26 25 27 26 28 27 29 88 30 28 31 87 32 29 33 30 34 31 35
REMARK SMILES IDX 81 36 32 37 86 38 80 39 82 40 33 41 85 42 79 43 78 44 34 46
REMARK SMILES IDX 66 47 46 48 65 49 47 50 50 51 64 52 83 53 48 54 49 55 63 57
REMARK SMILES IDX 84 58 51 59 35 60 36 61 44 62 37 63 39 64 45 65 38 66 40 67
REMARK SMILES IDX 41 68 42 69 43 70 67 71 68 72 76 73 69 74 71 75 77 76 70 77
REMARK SMILES IDX 72 78 73 79 74 80 75 81 52 82 53 83 61 84 54 85 56 86 62 87
REMARK SMILES IDX 55 88 57 89 58 90 59 91 60 92
REMARK H PARENT 6 12 9 15 82 45 50 56
REMARK Flexibility Score: inf
ROOT
ATOM      1  C   UNL     1      -0.606   6.242  -1.853  1.00  0.00     0.274 C 
ENDROOT
BRANCH   1   2
ATOM      2  O   UNL     1       0.022   4.969  -2.104  1.00  0.00    -0.461 OA
BRANCH   2   3
ATOM      3  C   UNL     1       0.447   4.320  -0.980  1.00  0.00     0.328 C 
ATOM      4  O   UNL     1       0.267   4.745   0.156  1.00  0.00    -0.250 OA
BRANCH   3   5
ATOM      5  C   UNL     1       1.393   3.152  -1.291  1.00  0.00     0.194 C 
BRANCH   5   6
ATOM      6  C   UNL     1       2.753   3.780  -1.662  1.00  0.00     0.048 C 
BRANCH   6   7
ATOM      7  C   UNL     1       3.387   4.680  -0.593  1.00  0.00     0.072 C 
BRANCH   7   8
ATOM      8  S   UNL     1       3.889   3.824   0.936  1.00  0.00    -0.165 SA
ATOM      9  C   UNL     1       2.487   4.222   2.023  1.00  0.00     0.085 C 
ENDBRANCH   7   8
ENDBRANCH   6   7
ENDBRANCH   5   6
BRANCH   5  10
ATOM     10  N   UNL     1       0.894   2.327  -2.400  1.00  0.00    -0.325 N 
ATOM     11  C   UNL     1       0.740   1.020  -2.644  1.00  0.00     0.315 C 
ATOM     12  H   UNL     1       0.594   2.878  -3.159  1.00  0.00     0.166 HD
ATOM     13  O   UNL     1       0.271   0.706  -3.742  1.00  0.00    -0.249 OA
ATOM     14  N   UNL     1       1.059   0.021  -1.810  1.00  0.00    -0.335 N 
ATOM     15  H   UNL     1       0.874  -0.862  -2.204  1.00  0.00     0.165 HD
BRANCH  14  16
ATOM     16  C   UNL     1       1.615  -0.085  -0.457  1.00  0.00     0.089 C 
ATOM     17  C   UNL     1       3.096   0.333  -0.467  1.00  0.00     0.025 C 
ATOM     18  C   UNL     1       1.440  -1.511   0.199  1.00  0.00    -0.015 C 
ATOM     19  C   UNL     1       4.031  -0.715  -1.053  1.00  0.00     0.002 C 
ATOM     20  C   UNL     1       2.482  -2.529  -0.334  1.00  0.00     0.008 C 
ATOM     21  C   UNL     1       1.599  -1.365   1.734  1.00  0.00     0.013 C 
ATOM     22  C   UNL     1       0.047  -2.130  -0.048  1.00  0.00     0.013 C 
ATOM     23  C   UNL     1       3.917  -2.023  -0.297  1.00  0.00     0.001 C 
ENDBRANCH  14  16
ENDBRANCH   5  10
ENDBRANCH   3   5
ENDBRANCH   2   3
ENDBRANCH   1   2
BRANCH   1  24
ATOM     24  C   UNL     1      -2.130   6.157  -1.706  1.00  0.00     0.275 C 
BRANCH  24  25
ATOM     25  O   UNL     1      -2.537   5.288  -0.635  1.00  0.00    -0.458 OA
BRANCH  25  26
ATOM     26  C   UNL     1      -2.642   3.989  -0.994  1.00  0.00     0.338 C 
ATOM     27  O   UNL     1      -2.480   3.537  -2.126  1.00  0.00    -0.246 OA
BRANCH  26  28
ATOM     28  C   UNL     1      -2.817   3.117   0.178  1.00  0.00     0.060 A 
ATOM     29  C   UNL     1      -2.007   1.980   0.255  1.00  0.00     0.016 A 
ATOM     30  C   UNL     1      -3.832   3.326   1.115  1.00  0.00     0.016 A 
ATOM     31  C   UNL     1      -2.249   1.018   1.228  1.00  0.00     0.010 A 
ATOM     32  C   UNL     1      -4.089   2.341   2.078  1.00  0.00     0.010 A 
ATOM     33  C   UNL     1      -3.332   1.157   2.102  1.00  0.00    -0.014 A 
BRANCH  33  34
ATOM     34  C   UNL     1      -3.778  -0.034   2.867  1.00  0.00     0.031 A 
ATOM     35  C   UNL     1      -4.941  -0.836   2.341  1.00  0.00     0.074 A 
ATOM     36  C   UNL     1      -3.121  -0.449   3.965  1.00  0.00     0.049 A 
ATOM     37  N   UNL     1      -5.508  -1.902   2.842  1.00  0.00    -0.248 NA
ATOM     38  C   UNL     1      -5.543  -0.374   1.078  1.00  0.00     0.031 C 
ATOM     39  C   UNL     1      -1.953   0.206   4.550  1.00  0.00     0.029 A 
ATOM     40  N   UNL     1      -3.355  -1.522   4.788  1.00  0.00    -0.354 N 
ATOM     41  C   UNL     1      -6.553  -2.216   1.981  1.00  0.00     0.074 A 
ATOM     42  C   UNL     1      -6.546  -1.226   0.926  1.00  0.00     0.031 C 
ATOM     43  C   UNL     1      -1.585  -0.468   5.654  1.00  0.00     0.029 A 
ATOM     44  C   UNL     1      -2.502  -1.588   5.863  1.00  0.00     0.049 A 
ATOM     45  H   UNL     1      -4.066  -2.183   4.623  1.00  0.00     0.167 HD
ATOM     46  C   UNL     1      -7.432  -3.244   2.048  1.00  0.00     0.034 A 
ATOM     47  C   UNL     1      -2.475  -2.445   6.904  1.00  0.00     0.034 A 
ATOM     48  C   UNL     1      -7.418  -4.256   3.067  1.00  0.00     0.049 A 
ATOM     49  C   UNL     1      -3.471  -3.576   6.959  1.00  0.00     0.074 A 
ATOM     50  C   UNL     1      -8.264  -5.343   3.212  1.00  0.00     0.029 A 
ATOM     51  N   UNL     1      -6.509  -4.314   4.110  1.00  0.00    -0.354 N 
ATOM     52  N   UNL     1      -4.402  -3.902   6.096  1.00  0.00    -0.248 NA
ATOM     53  C   UNL     1      -3.388  -4.479   8.118  1.00  0.00     0.031 C 
ATOM     54  C   UNL     1      -7.866  -6.057   4.347  1.00  0.00     0.029 A 
ATOM     55  C   UNL     1      -6.767  -5.420   4.901  1.00  0.00     0.049 A 
ATOM     56  H   UNL     1      -5.786  -3.665   4.266  1.00  0.00     0.167 HD
ATOM     57  C   UNL     1      -4.986  -5.066   6.585  1.00  0.00     0.074 A 
ATOM     58  C   UNL     1      -4.292  -5.400   7.810  1.00  0.00     0.031 C 
ATOM     59  C   UNL     1      -6.017  -5.785   6.075  1.00  0.00     0.034 A 
BRANCH  46  60
ATOM     60  C   UNL     1      -8.470  -3.338   0.964  1.00  0.00     0.023 A 
ATOM     61  C   UNL     1      -8.101  -3.808  -0.312  1.00  0.00     0.012 A 
ATOM     62  C   UNL     1      -9.813  -3.002   1.218  1.00  0.00     0.148 A 
ATOM     63  C   UNL     1      -9.050  -3.916  -1.329  1.00  0.00     0.002 A 
ATOM     64  C   UNL     1     -10.760  -3.148   0.210  1.00  0.00     0.091 A 
ATOM     65  F   UNL     1     -10.137  -2.529   2.430  1.00  0.00    -0.205 F 
ATOM     66  C   UNL     1     -10.379  -3.597  -1.065  1.00  0.00     0.022 A 
BRANCH  64  67
ATOM     67  S   UNL     1     -12.507  -2.825   0.481  1.00  0.00     0.127 S 
ATOM     68  O   UNL     1     -12.675  -1.533  -0.184  1.00  0.00    -0.237 OA
ATOM     69  O   UNL     1     -13.142  -3.950  -0.205  1.00  0.00    -0.237 OA
ATOM     70  O   UNL     1     -12.690  -2.818   1.925  1.00  0.00    -0.744 OA
ENDBRANCH  64  67
ENDBRANCH  46  60
BRANCH  47  71
ATOM     71  C   UNL     1      -1.440  -2.296   7.965  1.00  0.00     0.023 A 
ATOM     72  C   UNL     1      -0.421  -3.262   8.079  1.00  0.00     0.012 A 
ATOM     73  C   UNL     1      -1.456  -1.207   8.857  1.00  0.00     0.148 A 
ATOM     74  C   UNL     1       0.544  -3.162   9.082  1.00  0.00     0.002 A 
ATOM     75  C   UNL     1      -0.461  -1.085   9.819  1.00  0.00     0.091 A 
ATOM     76  F   UNL     1      -2.448  -0.311   8.750  1.00  0.00    -0.205 F 
ATOM     77  C   UNL     1       0.531  -2.069   9.944  1.00  0.00     0.022 A 
BRANCH  75  78
ATOM     78  S   UNL     1      -0.335   0.355  10.886  1.00  0.00     0.127 S 
ATOM     79  O   UNL     1      -0.836  -0.168  12.155  1.00  0.00    -0.237 OA
ATOM     80  O   UNL     1       1.101   0.633  10.858  1.00  0.00    -0.237 OA
ATOM     81  O   UNL     1      -1.153   1.380  10.251  1.00  0.00    -0.744 OA
ENDBRANCH  75  78
ENDBRANCH  47  71
BRANCH  59  82
ATOM     82  C   UNL     1      -6.436  -7.033   6.807  1.00  0.00     0.023 A 
ATOM     83  C   UNL     1      -7.156  -6.928   8.013  1.00  0.00     0.012 A 
ATOM     84  C   UNL     1      -6.186  -8.308   6.261  1.00  0.00     0.148 A 
ATOM     85  C   UNL     1      -7.596  -8.072   8.678  1.00  0.00     0.002 A 
ATOM     86  C   UNL     1      -6.664  -9.442   6.908  1.00  0.00     0.091 A 
ATOM     87  F   UNL     1      -5.479  -8.393   5.124  1.00  0.00    -0.205 F 
ATOM     88  C   UNL     1      -7.361  -9.327   8.121  1.00  0.00     0.022 A 
BRANCH  86  89
ATOM     89  S   UNL     1      -6.478 -11.084   6.202  1.00  0.00     0.127 S 
ATOM     90  O   UNL     1      -5.301 -11.584   6.908  1.00  0.00    -0.237 OA
ATOM     91  O   UNL     1      -7.734 -11.736   6.575  1.00  0.00    -0.237 OA
ATOM     92  O   UNL     1      -6.318 -10.876   4.768  1.00  0.00    -0.744 OA
ENDBRANCH  86  89
ENDBRANCH  59  82
ENDBRANCH  33  34
ENDBRANCH  26  28
ENDBRANCH  25  26
ENDBRANCH  24  25
ENDBRANCH   1  24
TORSDOF 19
