REMARK SMILES NC(=O)c1ccc(C(=O)OCCOC(=O)c2ccc(-c3c4nc(c(-c5cccc(S(=O)(=O)[O-])c5F)c5ccc([nH]5)c(-c5cccc(S(=O)(=O)[O-])c5F)c5nc(c(-c6cccc(S(=O)(=O)[O-])c6F)c6ccc3[nH]6)C=C5)C=C4)cc2)c(F)c1
REMARK SMILES IDX 12 1 11 2 10 3 8 4 9 5 7 6 4 7 5 8 81 9 6 10 79 11 80 12
REMARK SMILES IDX 2 13 1 14 3 17 13 18 14 19 15 20 16 21 17 22 78 23 18 24
REMARK SMILES IDX 77 25 19 26 20 27 21 28 71 29 22 30 76 31 70 32 72 33 23 34
REMARK SMILES IDX 75 35 69 36 68 37 24 39 56 40 36 41 55 42 37 43 40 44 54 45
REMARK SMILES IDX 73 46 38 47 39 48 53 50 74 51 41 52 25 53 26 54 34 55 27 56
REMARK SMILES IDX 29 57 35 58 28 59 30 60 31 61 32 62 33 63 57 64 58 65 66 66
REMARK SMILES IDX 59 67 61 68 67 69 60 70 62 71 63 72 64 73 65 74 42 75 43 76
REMARK SMILES IDX 51 77 44 78 46 79 52 80 45 81 47 82 48 83 49 84 50 85
REMARK H PARENT 1 15 1 16 72 38 40 49
REMARK Flexibility Score: inf
ROOT
ATOM      1  C   UNL     1       4.909  -1.944  -7.696  1.00  0.00     0.275 C 
ENDROOT
BRANCH   1   2
ATOM      2  C   UNL     1       3.441  -2.364  -7.750  1.00  0.00     0.275 C 
BRANCH   2   3
ATOM      3  O   UNL     1       2.712  -1.817  -6.632  1.00  0.00    -0.458 OA
BRANCH   3   4
ATOM      4  C   UNL     1       2.261  -2.705  -5.715  1.00  0.00     0.341 C 
ATOM      5  O   UNL     1       2.434  -3.914  -5.726  1.00  0.00    -0.246 OA
BRANCH   4   6
ATOM      6  C   UNL     1       1.624  -2.014  -4.575  1.00  0.00     0.095 A 
ATOM      7  C   UNL     1       0.544  -0.720  -2.339  1.00  0.00     0.042 A 
ATOM      8  C   UNL     1       1.269  -1.904  -2.171  1.00  0.00     0.015 A 
ATOM      9  C   UNL     1       0.316  -0.213  -3.624  1.00  0.00     0.054 A 
ATOM     10  C   UNL     1       1.782  -2.562  -3.291  1.00  0.00     0.019 A 
ATOM     11  C   UNL     1       0.869  -0.854  -4.731  1.00  0.00     0.138 A 
ATOM     12  F   UNL     1       0.625  -0.344  -5.947  1.00  0.00    -0.206 F 
BRANCH   7  13
ATOM     13  C   UNL     1      -0.030   0.002  -1.179  1.00  0.00     0.248 C 
ATOM     14  N   UNL     1       0.723   0.031  -0.041  1.00  0.00    -0.366 N 
ATOM     15  H   UNL     1       0.387   0.497   0.759  1.00  0.00     0.159 HD
ATOM     16  H   UNL     1       1.601  -0.414  -0.019  1.00  0.00     0.159 HD
ATOM     17  O   UNL     1      -1.109   0.571  -1.258  1.00  0.00    -0.270 OA
ENDBRANCH   7  13
ENDBRANCH   4   6
ENDBRANCH   3   4
ENDBRANCH   2   3
ENDBRANCH   1   2
BRANCH   1  18
ATOM     18  O   UNL     1       5.548  -2.549  -6.557  1.00  0.00    -0.458 OA
BRANCH  18  19
ATOM     19  C   UNL     1       5.955  -1.693  -5.592  1.00  0.00     0.338 C 
ATOM     20  O   UNL     1       5.904  -0.475  -5.603  1.00  0.00    -0.246 OA
BRANCH  19  21
ATOM     21  C   UNL     1       6.396  -2.457  -4.417  1.00  0.00     0.060 A 
ATOM     22  C   UNL     1       5.417  -2.926  -3.546  1.00  0.00     0.016 A 
ATOM     23  C   UNL     1       7.744  -2.575  -4.090  1.00  0.00     0.016 A 
ATOM     24  C   UNL     1       5.772  -3.446  -2.305  1.00  0.00     0.010 A 
ATOM     25  C   UNL     1       8.104  -3.165  -2.870  1.00  0.00     0.010 A 
ATOM     26  C   UNL     1       7.123  -3.565  -1.943  1.00  0.00    -0.014 A 
BRANCH  26  27
ATOM     27  C   UNL     1       7.486  -4.040  -0.576  1.00  0.00     0.031 A 
ATOM     28  C   UNL     1       8.254  -3.142   0.364  1.00  0.00     0.074 A 
ATOM     29  C   UNL     1       7.097  -5.260  -0.149  1.00  0.00     0.049 A 
ATOM     30  N   UNL     1       8.716  -3.402   1.560  1.00  0.00    -0.248 NA
ATOM     31  C   UNL     1       8.545  -1.775  -0.100  1.00  0.00     0.031 C 
ATOM     32  C   UNL     1       6.336  -6.226  -0.942  1.00  0.00     0.029 A 
ATOM     33  N   UNL     1       7.278  -5.893   1.057  1.00  0.00    -0.354 N 
ATOM     34  C   UNL     1       9.406  -2.264   1.961  1.00  0.00     0.074 A 
ATOM     35  C   UNL     1       9.299  -1.305   0.884  1.00  0.00     0.031 C 
ATOM     36  C   UNL     1       6.083  -7.310  -0.193  1.00  0.00     0.029 A 
ATOM     37  C   UNL     1       6.722  -7.151   1.111  1.00  0.00     0.049 A 
ATOM     38  H   UNL     1       7.761  -5.486   1.812  1.00  0.00     0.167 HD
ATOM     39  C   UNL     1      10.053  -2.028   3.127  1.00  0.00     0.034 A 
ATOM     40  C   UNL     1       6.739  -8.085   2.084  1.00  0.00     0.034 A 
ATOM     41  C   UNL     1      10.093  -2.946   4.233  1.00  0.00     0.049 A 
ATOM     42  C   UNL     1       7.459  -7.796   3.373  1.00  0.00     0.074 A 
ATOM     43  C   UNL     1      10.691  -2.770   5.469  1.00  0.00     0.029 A 
ATOM     44  N   UNL     1       9.502  -4.199   4.248  1.00  0.00    -0.354 N 
ATOM     45  N   UNL     1       8.062  -6.694   3.747  1.00  0.00    -0.248 NA
ATOM     46  C   UNL     1       7.495  -8.870   4.377  1.00  0.00     0.031 C 
ATOM     47  C   UNL     1      10.471  -3.922   6.228  1.00  0.00     0.029 A 
ATOM     48  C   UNL     1       9.720  -4.807   5.472  1.00  0.00     0.049 A 
ATOM     49  H   UNL     1       9.001  -4.597   3.500  1.00  0.00     0.167 HD
ATOM     50  C   UNL     1       8.534  -6.935   5.033  1.00  0.00     0.074 A 
ATOM     51  C   UNL     1       8.125  -8.279   5.385  1.00  0.00     0.031 C 
ATOM     52  C   UNL     1       9.258  -6.121   5.837  1.00  0.00     0.034 A 
BRANCH  39  53
ATOM     53  C   UNL     1      10.746  -0.702   3.301  1.00  0.00     0.023 A 
ATOM     54  C   UNL     1       9.983   0.453   3.563  1.00  0.00     0.012 A 
ATOM     55  C   UNL     1      12.153  -0.621   3.312  1.00  0.00     0.148 A 
ATOM     56  C   UNL     1      10.609   1.673   3.815  1.00  0.00     0.002 A 
ATOM     57  C   UNL     1      12.770   0.590   3.606  1.00  0.00     0.091 A 
ATOM     58  F   UNL     1      12.860  -1.728   3.044  1.00  0.00    -0.205 F 
ATOM     59  C   UNL     1      12.000   1.739   3.849  1.00  0.00     0.022 A 
BRANCH  57  60
ATOM     60  S   UNL     1      14.553   0.758   3.756  1.00  0.00     0.127 S 
ATOM     61  O   UNL     1      14.877   1.537   2.561  1.00  0.00    -0.237 OA
ATOM     62  O   UNL     1      14.688   1.490   5.016  1.00  0.00    -0.237 OA
ATOM     63  O   UNL     1      15.084  -0.597   3.781  1.00  0.00    -0.744 OA
ENDBRANCH  57  60
ENDBRANCH  39  53
BRANCH  40  64
ATOM     64  C   UNL     1       6.012  -9.373   1.882  1.00  0.00     0.023 A 
ATOM     65  C   UNL     1       4.852  -9.637   2.635  1.00  0.00     0.012 A 
ATOM     66  C   UNL     1       6.421 -10.301   0.905  1.00  0.00     0.148 A 
ATOM     67  C   UNL     1       4.117 -10.804   2.423  1.00  0.00     0.002 A 
ATOM     68  C   UNL     1       5.649 -11.429   0.654  1.00  0.00     0.091 A 
ATOM     69  F   UNL     1       7.544 -10.047   0.219  1.00  0.00    -0.205 F 
ATOM     70  C   UNL     1       4.505 -11.691   1.421  1.00  0.00     0.022 A 
BRANCH  68  71
ATOM     71  S   UNL     1       5.989 -12.536  -0.720  1.00  0.00     0.127 S 
ATOM     72  O   UNL     1       6.498 -13.719  -0.033  1.00  0.00    -0.237 OA
ATOM     73  O   UNL     1       4.663 -12.691  -1.319  1.00  0.00    -0.237 OA
ATOM     74  O   UNL     1       6.945 -11.829  -1.562  1.00  0.00    -0.744 OA
ENDBRANCH  68  71
ENDBRANCH  40  64
BRANCH  52  75
ATOM     75  C   UNL     1       9.655  -6.628   7.198  1.00  0.00     0.023 A 
ATOM     76  C   UNL     1      10.718  -7.544   7.312  1.00  0.00     0.012 A 
ATOM     77  C   UNL     1       9.075  -6.088   8.363  1.00  0.00     0.148 A 
ATOM     78  C   UNL     1      11.195  -7.921   8.567  1.00  0.00     0.002 A 
ATOM     79  C   UNL     1       9.584  -6.435   9.609  1.00  0.00     0.091 A 
ATOM     80  F   UNL     1       8.056  -5.227   8.228  1.00  0.00    -0.205 F 
ATOM     81  C   UNL     1      10.639  -7.356   9.713  1.00  0.00     0.022 A 
BRANCH  79  82
ATOM     82  S   UNL     1       9.001  -5.688  11.136  1.00  0.00     0.127 S 
ATOM     83  O   UNL     1       8.350  -6.820  11.792  1.00  0.00    -0.237 OA
ATOM     84  O   UNL     1      10.249  -5.253  11.763  1.00  0.00    -0.237 OA
ATOM     85  O   UNL     1       8.110  -4.604  10.741  1.00  0.00    -0.744 OA
ENDBRANCH  79  82
ENDBRANCH  52  75
ENDBRANCH  26  27
ENDBRANCH  19  21
ENDBRANCH  18  19
ENDBRANCH   1  18
TORSDOF 15
