REMARK SMILES N#Cc1ccc(Sc2csc(C(=O)OCCOC(=O)c3ccc(-c4c5nc(c(-c6cccc(S(=O)(=O)[O-])c6F)c6ccc([nH]6)c(-c6cccc(S(=O)(=O)[O-])c6F)c6nc(c(-c7cccc(S(=O)(=O)[O-])c7F)c7ccc4[nH]7)C=C6)C=C5)cc3)c2)c(F)c1
REMARK SMILES IDX 15 1 14 2 12 3 13 4 11 5 8 6 9 7 83 8 10 9 7 10 6 11 3 12
REMARK SMILES IDX 4 13 86 14 5 15 84 16 85 17 2 18 1 19 16 20 17 21 18 22
REMARK SMILES IDX 19 23 20 24 21 25 82 26 22 27 81 28 23 29 24 30 25 31 75 32
REMARK SMILES IDX 26 33 80 34 74 35 76 36 27 37 79 38 73 39 72 40 28 42 60 43
REMARK SMILES IDX 40 44 59 45 41 46 44 47 58 48 77 49 42 50 43 51 57 53 78 54
REMARK SMILES IDX 45 55 29 56 30 57 38 58 31 59 33 60 39 61 32 62 34 63 35 64
REMARK SMILES IDX 36 65 37 66 61 67 62 68 70 69 63 70 65 71 71 72 64 73 66 74
REMARK SMILES IDX 67 75 68 76 69 77 46 78 47 79 55 80 48 81 50 82 56 83 49 84
REMARK SMILES IDX 51 85 52 86 53 87 54 88
REMARK H PARENT 76 41 44 52
REMARK Flexibility Score: inf
ROOT
ATOM      1  C   UNL     1       5.770   7.129  -3.133  1.00  0.00     0.275 C 
ENDROOT
BRANCH   1   2
ATOM      2  O   UNL     1       5.260   5.997  -2.399  1.00  0.00    -0.458 OA
BRANCH   2   3
ATOM      3  C   UNL     1       5.336   6.079  -1.035  1.00  0.00     0.348 C 
ATOM      4  O   UNL     1       5.822   7.030  -0.436  1.00  0.00    -0.245 OA
BRANCH   3   5
ATOM      5  C   UNL     1       4.730   4.906  -0.422  1.00  0.00     0.113 A 
ATOM      6  C   UNL     1       3.788   2.801  -0.037  1.00  0.00     0.024 A 
ATOM      7  C   UNL     1       3.639   3.376   1.201  1.00  0.00     0.081 A 
ATOM      8  C   UNL     1       4.381   3.690  -0.982  1.00  0.00     0.043 A 
ATOM      9  S   UNL     1       4.378   4.916   1.264  1.00  0.00    -0.136 S 
BRANCH   6  10
ATOM     10  S   UNL     1       3.457   1.131  -0.435  1.00  0.00    -0.086 SA
BRANCH  10  11
ATOM     11  C   UNL     1       1.726   0.821  -0.162  1.00  0.00     0.048 A 
ATOM     12  C   UNL     1      -1.000   0.099   0.008  1.00  0.00     0.055 A 
ATOM     13  C   UNL     1      -0.624   1.447  -0.037  1.00  0.00     0.021 A 
ATOM     14  C   UNL     1      -0.017  -0.888  -0.001  1.00  0.00     0.060 A 
ATOM     15  C   UNL     1       0.732   1.806  -0.125  1.00  0.00     0.020 A 
ATOM     16  C   UNL     1       1.323  -0.522  -0.083  1.00  0.00     0.138 A 
ATOM     17  F   UNL     1       2.234  -1.509  -0.117  1.00  0.00    -0.206 F 
BRANCH  12  18
ATOM     18  C   UNL     1      -2.385  -0.282   0.024  1.00  0.00     0.099 C 
ATOM     19  N   UNL     1      -3.489  -0.626   0.011  1.00  0.00    -0.192 NA
ENDBRANCH  12  18
ENDBRANCH  10  11
ENDBRANCH   6  10
ENDBRANCH   3   5
ENDBRANCH   2   3
ENDBRANCH   1   2
BRANCH   1  20
ATOM     20  C   UNL     1       4.654   8.066  -3.613  1.00  0.00     0.275 C 
BRANCH  20  21
ATOM     21  O   UNL     1       4.018   8.756  -2.521  1.00  0.00    -0.458 OA
BRANCH  21  22
ATOM     22  C   UNL     1       2.891   8.164  -2.064  1.00  0.00     0.338 C 
ATOM     23  O   UNL     1       2.374   7.145  -2.495  1.00  0.00    -0.246 OA
BRANCH  22  24
ATOM     24  C   UNL     1       2.426   8.809  -0.827  1.00  0.00     0.060 A 
ATOM     25  C   UNL     1       2.588   8.077   0.344  1.00  0.00     0.016 A 
ATOM     26  C   UNL     1       1.707  10.002  -0.813  1.00  0.00     0.016 A 
ATOM     27  C   UNL     1       1.991   8.486   1.527  1.00  0.00     0.010 A 
ATOM     28  C   UNL     1       1.141  10.443   0.395  1.00  0.00     0.010 A 
ATOM     29  C   UNL     1       1.251   9.672   1.569  1.00  0.00    -0.014 A 
BRANCH  29  30
ATOM     30  C   UNL     1       0.573  10.044   2.841  1.00  0.00     0.031 A 
ATOM     31  C   UNL     1      -0.929  10.109   2.917  1.00  0.00     0.074 A 
ATOM     32  C   UNL     1       1.308  10.263   3.950  1.00  0.00     0.049 A 
ATOM     33  N   UNL     1      -1.691  10.430   3.931  1.00  0.00    -0.248 NA
ATOM     34  C   UNL     1      -1.675   9.774   1.693  1.00  0.00     0.031 C 
ATOM     35  C   UNL     1       2.771  10.207   4.017  1.00  0.00     0.029 A 
ATOM     36  N   UNL     1       0.930  10.573   5.233  1.00  0.00    -0.354 N 
ATOM     37  C   UNL     1      -2.998  10.391   3.458  1.00  0.00     0.074 A 
ATOM     38  C   UNL     1      -2.926  10.016   2.062  1.00  0.00     0.031 C 
ATOM     39  C   UNL     1       3.164  10.460   5.274  1.00  0.00     0.029 A 
ATOM     40  C   UNL     1       1.992  10.763   6.087  1.00  0.00     0.049 A 
ATOM     41  H   UNL     1      -0.010  10.652   5.515  1.00  0.00     0.167 HD
ATOM     42  C   UNL     1      -4.152  10.636   4.125  1.00  0.00     0.034 A 
ATOM     43  C   UNL     1       2.026  11.171   7.370  1.00  0.00     0.034 A 
ATOM     44  C   UNL     1      -4.221  10.976   5.522  1.00  0.00     0.049 A 
ATOM     45  C   UNL     1       0.732  11.458   8.078  1.00  0.00     0.074 A 
ATOM     46  C   UNL     1      -5.346  11.203   6.296  1.00  0.00     0.029 A 
ATOM     47  N   UNL     1      -3.125  11.149   6.354  1.00  0.00    -0.354 N 
ATOM     48  N   UNL     1      -0.496  11.345   7.633  1.00  0.00    -0.248 NA
ATOM     49  C   UNL     1       0.827  11.905   9.475  1.00  0.00     0.031 C 
ATOM     50  C   UNL     1      -4.928  11.557   7.584  1.00  0.00     0.029 A 
ATOM     51  C   UNL     1      -3.545  11.497   7.627  1.00  0.00     0.049 A 
ATOM     52  H   UNL     1      -2.186  11.041   6.079  1.00  0.00     0.167 HD
ATOM     53  C   UNL     1      -1.320  11.676   8.702  1.00  0.00     0.074 A 
ATOM     54  C   UNL     1      -0.451  11.965   9.824  1.00  0.00     0.031 C 
ATOM     55  C   UNL     1      -2.674  11.745   8.748  1.00  0.00     0.034 A 
BRANCH  42  56
ATOM     56  C   UNL     1      -5.444  10.553   3.349  1.00  0.00     0.023 A 
ATOM     57  C   UNL     1      -5.934   9.304   2.919  1.00  0.00     0.012 A 
ATOM     58  C   UNL     1      -6.200  11.715   3.095  1.00  0.00     0.148 A 
ATOM     59  C   UNL     1      -7.136   9.217   2.215  1.00  0.00     0.002 A 
ATOM     60  C   UNL     1      -7.420  11.615   2.437  1.00  0.00     0.091 A 
ATOM     61  F   UNL     1      -5.710  12.897   3.496  1.00  0.00    -0.205 F 
ATOM     62  C   UNL     1      -7.882  10.369   1.984  1.00  0.00     0.022 A 
BRANCH  60  63
ATOM     63  S   UNL     1      -8.494  13.028   2.163  1.00  0.00     0.127 S 
ATOM     64  O   UNL     1      -8.426  13.173   0.710  1.00  0.00    -0.237 OA
ATOM     65  O   UNL     1      -9.777  12.540   2.668  1.00  0.00    -0.237 OA
ATOM     66  O   UNL     1      -7.918  14.127   2.925  1.00  0.00    -0.744 OA
ENDBRANCH  60  63
ENDBRANCH  42  56
BRANCH  43  67
ATOM     67  C   UNL     1       3.334  11.335   8.068  1.00  0.00     0.023 A 
ATOM     68  C   UNL     1       3.668  10.487   9.141  1.00  0.00     0.012 A 
ATOM     69  C   UNL     1       4.252  12.324   7.663  1.00  0.00     0.148 A 
ATOM     70  C   UNL     1       4.878  10.643   9.819  1.00  0.00     0.002 A 
ATOM     71  C   UNL     1       5.481  12.432   8.301  1.00  0.00     0.091 A 
ATOM     72  F   UNL     1       3.909  13.132   6.649  1.00  0.00    -0.205 F 
ATOM     73  C   UNL     1       5.788  11.607   9.393  1.00  0.00     0.022 A 
BRANCH  71  74
ATOM     74  S   UNL     1       6.763  13.555   7.736  1.00  0.00     0.127 S 
ATOM     75  O   UNL     1       6.820  14.519   8.832  1.00  0.00    -0.237 OA
ATOM     76  O   UNL     1       7.920  12.664   7.638  1.00  0.00    -0.237 OA
ATOM     77  O   UNL     1       6.297  14.079   6.460  1.00  0.00    -0.744 OA
ENDBRANCH  71  74
ENDBRANCH  43  67
BRANCH  55  78
ATOM     78  C   UNL     1      -3.305  12.101  10.069  1.00  0.00     0.023 A 
ATOM     79  C   UNL     1      -3.177  13.404  10.591  1.00  0.00     0.012 A 
ATOM     80  C   UNL     1      -4.065  11.147  10.776  1.00  0.00     0.148 A 
ATOM     81  C   UNL     1      -3.753  13.738  11.816  1.00  0.00     0.002 A 
ATOM     82  C   UNL     1      -4.684  11.503  11.967  1.00  0.00     0.091 A 
ATOM     83  F   UNL     1      -4.162   9.907  10.274  1.00  0.00    -0.205 F 
ATOM     84  C   UNL     1      -4.514  12.792  12.498  1.00  0.00     0.022 A 
BRANCH  82  85
ATOM     85  S   UNL     1      -5.765  10.383  12.863  1.00  0.00     0.127 S 
ATOM     86  O   UNL     1      -4.956  10.065  14.039  1.00  0.00    -0.237 OA
ATOM     87  O   UNL     1      -6.929  11.227  13.133  1.00  0.00    -0.237 OA
ATOM     88  O   UNL     1      -6.022   9.266  11.963  1.00  0.00    -0.744 OA
ENDBRANCH  82  85
ENDBRANCH  55  78
ENDBRANCH  29  30
ENDBRANCH  22  24
ENDBRANCH  21  22
ENDBRANCH  20  21
ENDBRANCH   1  20
TORSDOF 17
