REMARK SMILES Cc1nc(Nc2ccc(C(=O)OCCOC(=O)c3ccc(-c4c5nc(c(-c6cccc(S(=O)(=O)[O-])c6F)c6ccc([nH]6)c(-c6cccc(S(=O)(=O)[O-])c6F)c6nc(c(-c7cccc(S(=O)(=O)[O-])c7F)c7ccc4[nH]7)C=C6)C=C5)cc3)cc2)c2c(C)c(C)sc2n1
REMARK SMILES IDX 14 1 13 2 12 3 10 4 11 5 9 6 6 7 7 8 82 9 8 10 81 11 5 12
REMARK SMILES IDX 4 14 1 15 2 16 3 17 90 18 89 19 83 20 88 21 84 22 86 23
REMARK SMILES IDX 85 24 87 25 15 26 16 27 17 28 18 29 19 30 80 31 20 32 79 33
REMARK SMILES IDX 21 34 22 35 23 36 73 37 24 38 78 39 72 40 74 41 25 42 77 43
REMARK SMILES IDX 71 44 70 45 26 47 58 48 38 49 57 50 39 51 42 52 56 53 75 54
REMARK SMILES IDX 40 55 41 56 55 58 76 59 43 60 27 61 28 62 36 63 29 64 31 65
REMARK SMILES IDX 37 66 30 67 32 68 33 69 34 70 35 71 59 72 60 73 68 74 61 75
REMARK SMILES IDX 63 76 69 77 62 78 64 79 65 80 66 81 67 82 44 83 45 84 53 85
REMARK SMILES IDX 46 86 48 87 54 88 47 89 49 90 50 91 51 92 52 93
REMARK H PARENT 5 13 74 46 42 57
REMARK Flexibility Score: inf
ROOT
ATOM      1  C   UNL     1      -6.860  10.180   1.351  1.00  0.00     0.275 C 
ENDROOT
BRANCH   1   2
ATOM      2  C   UNL     1      -5.471  10.172   0.701  1.00  0.00     0.275 C 
BRANCH   2   3
ATOM      3  O   UNL     1      -5.129   8.873   0.187  1.00  0.00    -0.458 OA
BRANCH   3   4
ATOM      4  C   UNL     1      -4.500   8.090   1.089  1.00  0.00     0.338 C 
ATOM      5  O   UNL     1      -4.050   8.454   2.173  1.00  0.00    -0.246 OA
BRANCH   4   6
ATOM      6  C   UNL     1      -4.426   6.677   0.672  1.00  0.00     0.060 A 
ATOM      7  C   UNL     1      -3.454   4.100   0.289  1.00  0.00     0.040 A 
ATOM      8  C   UNL     1      -4.064   4.420   1.493  1.00  0.00     0.027 A 
ATOM      9  C   UNL     1      -3.516   5.004  -0.785  1.00  0.00     0.027 A 
ATOM     10  C   UNL     1      -4.468   5.727   1.698  1.00  0.00     0.018 A 
ATOM     11  C   UNL     1      -4.041   6.292  -0.610  1.00  0.00     0.018 A 
BRANCH   7  12
ATOM     12  N   UNL     1      -2.612   2.990   0.279  1.00  0.00    -0.340 N 
ATOM     13  H   UNL     1      -3.067   2.120   0.345  1.00  0.00     0.168 HD
BRANCH  12  14
ATOM     14  C   UNL     1      -1.217   2.927   0.190  1.00  0.00     0.143 A 
ATOM     15  C   UNL     1       1.028   0.033  -0.110  1.00  0.00     0.090 C 
ATOM     16  C   UNL     1       0.565   1.455  -0.137  1.00  0.00     0.129 A 
ATOM     17  N   UNL     1      -0.736   1.663   0.108  1.00  0.00    -0.215 NA
ATOM     18  N   UNL     1       1.466   2.396  -0.429  1.00  0.00    -0.222 NA
ATOM     19  C   UNL     1       0.989   3.639  -0.261  1.00  0.00     0.129 A 
ATOM     20  C   UNL     1      -0.283   3.998   0.164  1.00  0.00     0.057 A 
ATOM     21  S   UNL     1       1.975   4.979  -0.625  1.00  0.00    -0.120 S 
ATOM     22  C   UNL     1      -0.248   5.399   0.568  1.00  0.00    -0.024 A 
ATOM     23  C   UNL     1       0.819   6.070  -0.013  1.00  0.00     0.007 A 
ATOM     24  C   UNL     1      -1.161   6.092   1.520  1.00  0.00     0.046 C 
ATOM     25  C   UNL     1       1.071   7.542  -0.044  1.00  0.00     0.057 C 
ENDBRANCH  12  14
ENDBRANCH   7  12
ENDBRANCH   4   6
ENDBRANCH   3   4
ENDBRANCH   2   3
ENDBRANCH   1   2
BRANCH   1  26
ATOM     26  O   UNL     1      -6.984   9.235   2.434  1.00  0.00    -0.458 OA
BRANCH  26  27
ATOM     27  C   UNL     1      -7.533   8.057   2.046  1.00  0.00     0.338 C 
ATOM     28  O   UNL     1      -7.815   7.748   0.898  1.00  0.00    -0.246 OA
BRANCH  27  29
ATOM     29  C   UNL     1      -7.746   7.106   3.149  1.00  0.00     0.060 A 
ATOM     30  C   UNL     1      -6.693   6.681   3.960  1.00  0.00     0.016 A 
ATOM     31  C   UNL     1      -8.963   6.423   3.159  1.00  0.00     0.016 A 
ATOM     32  C   UNL     1      -6.796   5.455   4.622  1.00  0.00     0.010 A 
ATOM     33  C   UNL     1      -9.093   5.247   3.889  1.00  0.00     0.010 A 
ATOM     34  C   UNL     1      -7.988   4.717   4.564  1.00  0.00    -0.014 A 
BRANCH  34  35
ATOM     35  C   UNL     1      -8.071   3.488   5.385  1.00  0.00     0.031 A 
ATOM     36  C   UNL     1      -8.915   3.760   6.601  1.00  0.00     0.074 A 
ATOM     37  C   UNL     1      -8.131   2.244   4.853  1.00  0.00     0.049 A 
ATOM     38  N   UNL     1     -10.213   3.841   6.557  1.00  0.00    -0.248 NA
ATOM     39  C   UNL     1      -8.332   4.307   7.825  1.00  0.00     0.031 C 
ATOM     40  C   UNL     1      -8.834   1.894   3.612  1.00  0.00     0.029 A 
ATOM     41  N   UNL     1      -7.799   1.020   5.409  1.00  0.00    -0.354 N 
ATOM     42  C   UNL     1     -10.623   4.512   7.698  1.00  0.00     0.074 A 
ATOM     43  C   UNL     1      -9.420   4.777   8.456  1.00  0.00     0.031 C 
ATOM     44  C   UNL     1      -9.044   0.562   3.591  1.00  0.00     0.029 A 
ATOM     45  C   UNL     1      -8.394  -0.057   4.746  1.00  0.00     0.049 A 
ATOM     46  H   UNL     1      -7.207   0.919   6.189  1.00  0.00     0.167 HD
ATOM     47  C   UNL     1     -11.928   4.805   7.955  1.00  0.00     0.034 A 
ATOM     48  C   UNL     1      -8.803  -1.207   5.359  1.00  0.00     0.034 A 
ATOM     49  C   UNL     1     -12.868   4.283   7.002  1.00  0.00     0.049 A 
ATOM     50  C   UNL     1     -10.132  -0.760   5.919  1.00  0.00     0.074 A 
ATOM     51  C   UNL     1     -13.692   4.741   5.999  1.00  0.00     0.029 A 
ATOM     52  N   UNL     1     -13.082   2.927   7.022  1.00  0.00    -0.354 N 
ATOM     53  N   UNL     1     -11.244  -0.605   5.246  1.00  0.00    -0.248 NA
ATOM     54  C   UNL     1     -10.098  -0.061   7.202  1.00  0.00     0.031 C 
ATOM     55  C   UNL     1     -14.003   3.591   5.199  1.00  0.00     0.029 A 
ATOM     56  C   UNL     1     -13.326   2.501   5.745  1.00  0.00     0.049 A 
ATOM     57  H   UNL     1     -13.064   2.355   7.823  1.00  0.00     0.167 HD
ATOM     58  C   UNL     1     -11.896   0.473   5.857  1.00  0.00     0.074 A 
ATOM     59  C   UNL     1     -11.150   0.733   7.073  1.00  0.00     0.031 C 
ATOM     60  C   UNL     1     -12.888   1.205   5.261  1.00  0.00     0.034 A 
BRANCH  47  61
ATOM     61  C   UNL     1     -12.434   5.344   9.243  1.00  0.00     0.023 A 
ATOM     62  C   UNL     1     -12.982   4.386  10.122  1.00  0.00     0.012 A 
ATOM     63  C   UNL     1     -12.578   6.710   9.539  1.00  0.00     0.148 A 
ATOM     64  C   UNL     1     -13.714   4.766  11.240  1.00  0.00     0.002 A 
ATOM     65  C   UNL     1     -13.301   7.086  10.673  1.00  0.00     0.091 A 
ATOM     66  F   UNL     1     -12.054   7.612   8.696  1.00  0.00    -0.205 F 
ATOM     67  C   UNL     1     -13.881   6.116  11.511  1.00  0.00     0.022 A 
BRANCH  65  68
ATOM     68  S   UNL     1     -13.588   8.796  11.152  1.00  0.00     0.127 S 
ATOM     69  O   UNL     1     -15.036   8.919  10.992  1.00  0.00    -0.237 OA
ATOM     70  O   UNL     1     -13.127   8.802  12.541  1.00  0.00    -0.237 OA
ATOM     71  O   UNL     1     -12.787   9.607  10.245  1.00  0.00    -0.744 OA
ENDBRANCH  65  68
ENDBRANCH  47  61
BRANCH  48  72
ATOM     72  C   UNL     1      -7.748  -1.938   6.143  1.00  0.00     0.023 A 
ATOM     73  C   UNL     1      -6.553  -2.245   5.447  1.00  0.00     0.012 A 
ATOM     74  C   UNL     1      -7.818  -2.316   7.497  1.00  0.00     0.148 A 
ATOM     75  C   UNL     1      -5.435  -2.775   6.094  1.00  0.00     0.002 A 
ATOM     76  C   UNL     1      -6.676  -2.770   8.159  1.00  0.00     0.091 A 
ATOM     77  F   UNL     1      -8.988  -2.239   8.139  1.00  0.00    -0.205 F 
ATOM     78  C   UNL     1      -5.483  -2.997   7.462  1.00  0.00     0.022 A 
BRANCH  76  79
ATOM     79  S   UNL     1      -6.612  -2.976   9.946  1.00  0.00     0.127 S 
ATOM     80  O   UNL     1      -6.102  -4.339  10.079  1.00  0.00    -0.237 OA
ATOM     81  O   UNL     1      -5.668  -1.924  10.320  1.00  0.00    -0.237 OA
ATOM     82  O   UNL     1      -7.975  -2.776  10.416  1.00  0.00    -0.744 OA
ENDBRANCH  76  79
ENDBRANCH  48  72
BRANCH  60  83
ATOM     83  C   UNL     1     -13.429   0.678   3.961  1.00  0.00     0.023 A 
ATOM     84  C   UNL     1     -14.070  -0.576   3.965  1.00  0.00     0.012 A 
ATOM     85  C   UNL     1     -13.404   1.426   2.765  1.00  0.00     0.148 A 
ATOM     86  C   UNL     1     -14.692  -1.069   2.820  1.00  0.00     0.002 A 
ATOM     87  C   UNL     1     -14.072   0.953   1.639  1.00  0.00     0.091 A 
ATOM     88  F   UNL     1     -12.739   2.591   2.741  1.00  0.00    -0.205 F 
ATOM     89  C   UNL     1     -14.710  -0.296   1.663  1.00  0.00     0.022 A 
BRANCH  87  90
ATOM     90  S   UNL     1     -14.239   1.907   0.124  1.00  0.00     0.127 S 
ATOM     91  O   UNL     1     -13.632   1.018  -0.867  1.00  0.00    -0.237 OA
ATOM     92  O   UNL     1     -15.693   2.039   0.011  1.00  0.00    -0.237 OA
ATOM     93  O   UNL     1     -13.528   3.158   0.345  1.00  0.00    -0.744 OA
ENDBRANCH  87  90
ENDBRANCH  60  83
ENDBRANCH  34  35
ENDBRANCH  27  29
ENDBRANCH  26  27
ENDBRANCH   1  26
TORSDOF 16
