REMARK SMILES O=C(Cn1nc(-c2ccco2)ccc1=O)OCCOC(=O)c1ccc(-c2c3nc(c(-c4cccc(S(=O)(=O)[O-])c4F)c4ccc([nH]4)c(-c4cccc(S(=O)(=O)[O-])c4F)c4nc(c(-c5cccc(S(=O)(=O)[O-])c5F)c5ccc2[nH]5)C=C4)C=C3)cc1
REMARK SMILES IDX 18 1 17 2 16 3 2 4 1 5 3 6 4 7 5 8 14 9 6 10 13 11 15 12
REMARK SMILES IDX 12 13 7 14 8 15 11 16 9 17 10 18 19 19 20 20 21 21 22 22
REMARK SMILES IDX 23 23 84 24 24 25 83 26 25 27 26 28 27 29 77 30 28 31 82 32
REMARK SMILES IDX 76 33 78 34 29 35 81 36 75 37 74 38 30 40 62 41 42 42 61 43
REMARK SMILES IDX 43 44 46 45 60 46 79 47 44 48 45 49 59 51 80 52 47 53 31 54
REMARK SMILES IDX 32 55 40 56 33 57 35 58 41 59 34 60 36 61 37 62 38 63 39 64
REMARK SMILES IDX 63 65 64 66 72 67 65 68 67 69 73 70 66 71 68 72 69 73 70 74
REMARK SMILES IDX 71 75 48 76 49 77 57 78 50 79 52 80 58 81 51 82 53 83 54 84
REMARK SMILES IDX 55 85 56 86
REMARK H PARENT 78 39 46 50
REMARK Flexibility Score: inf
ROOT
ATOM      1  C   UNL     1       4.235   1.866   1.147  1.00  0.00     0.275 C 
ENDROOT
BRANCH   1   2
ATOM      2  C   UNL     1       4.155   1.116  -0.181  1.00  0.00     0.274 C 
BRANCH   2   3
ATOM      3  O   UNL     1       2.790   0.787  -0.519  1.00  0.00    -0.461 OA
BRANCH   3   4
ATOM      4  C   UNL     1       2.313  -0.484  -0.594  1.00  0.00     0.328 C 
ATOM      5  O   UNL     1       1.355  -0.733  -1.325  1.00  0.00    -0.250 OA
BRANCH   4   6
ATOM      6  C   UNL     1       2.983  -1.559   0.247  1.00  0.00     0.270 C 
BRANCH   6   7
ATOM      7  N   UNL     1       3.755  -2.489  -0.559  1.00  0.00    -0.218 N 
ATOM      8  N   UNL     1       4.707  -1.923  -1.371  1.00  0.00    -0.166 NA
ATOM      9  C   UNL     1       3.589  -3.855  -0.398  1.00  0.00     0.267 A 
ATOM     10  C   UNL     1       5.401  -2.703  -2.135  1.00  0.00     0.126 A 
ATOM     11  C   UNL     1       4.404  -4.708  -1.294  1.00  0.00     0.076 A 
ATOM     12  O   UNL     1       2.848  -4.381   0.425  1.00  0.00    -0.268 OA
ATOM     13  C   UNL     1       5.262  -4.170  -2.166  1.00  0.00     0.040 A 
BRANCH  10  14
ATOM     14  C   UNL     1       6.386  -2.074  -2.973  1.00  0.00     0.154 A 
ATOM     15  C   UNL     1       7.386  -1.172  -2.663  1.00  0.00     0.052 A 
ATOM     16  O   UNL     1       6.334  -2.260  -4.325  1.00  0.00    -0.463 OA
ATOM     17  C   UNL     1       7.958  -0.766  -3.890  1.00  0.00     0.043 A 
ATOM     18  C   UNL     1       7.265  -1.435  -4.872  1.00  0.00     0.196 A 
ENDBRANCH  10  14
ENDBRANCH   6   7
ENDBRANCH   4   6
ENDBRANCH   3   4
ENDBRANCH   2   3
ENDBRANCH   1   2
BRANCH   1  19
ATOM     19  O   UNL     1       3.931   0.974   2.233  1.00  0.00    -0.458 OA
BRANCH  19  20
ATOM     20  C   UNL     1       2.633   0.946   2.628  1.00  0.00     0.338 C 
ATOM     21  O   UNL     1       1.747   1.695   2.252  1.00  0.00    -0.246 OA
BRANCH  20  22
ATOM     22  C   UNL     1       2.402  -0.275   3.438  1.00  0.00     0.060 A 
ATOM     23  C   UNL     1       3.421  -0.852   4.204  1.00  0.00     0.016 A 
ATOM     24  C   UNL     1       1.143  -0.885   3.374  1.00  0.00     0.016 A 
ATOM     25  C   UNL     1       3.172  -2.029   4.912  1.00  0.00     0.010 A 
ATOM     26  C   UNL     1       0.893  -2.059   4.091  1.00  0.00     0.010 A 
ATOM     27  C   UNL     1       1.903  -2.633   4.875  1.00  0.00    -0.014 A 
BRANCH  27  28
ATOM     28  C   UNL     1       1.608  -3.761   5.790  1.00  0.00     0.031 A 
ATOM     29  C   UNL     1       1.530  -5.180   5.314  1.00  0.00     0.074 A 
ATOM     30  C   UNL     1       1.407  -3.476   7.092  1.00  0.00     0.049 A 
ATOM     31  N   UNL     1       1.432  -6.270   6.031  1.00  0.00    -0.248 NA
ATOM     32  C   UNL     1       1.558  -5.412   3.863  1.00  0.00     0.031 C 
ATOM     33  C   UNL     1       1.389  -2.126   7.660  1.00  0.00     0.029 A 
ATOM     34  N   UNL     1       1.190  -4.295   8.170  1.00  0.00    -0.354 N 
ATOM     35  C   UNL     1       1.377  -7.320   5.124  1.00  0.00     0.074 A 
ATOM     36  C   UNL     1       1.436  -6.734   3.801  1.00  0.00     0.031 C 
ATOM     37  C   UNL     1       1.202  -2.211   8.985  1.00  0.00     0.029 A 
ATOM     38  C   UNL     1       1.083  -3.617   9.361  1.00  0.00     0.049 A 
ATOM     39  H   UNL     1       1.119  -5.274   8.098  1.00  0.00     0.167 HD
ATOM     40  C   UNL     1       1.309  -8.649   5.379  1.00  0.00     0.034 A 
ATOM     41  C   UNL     1       0.931  -4.071  10.620  1.00  0.00     0.034 A 
ATOM     42  C   UNL     1       1.284  -9.226   6.698  1.00  0.00     0.049 A 
ATOM     43  C   UNL     1       0.898  -5.549  10.874  1.00  0.00     0.074 A 
ATOM     44  C   UNL     1       1.318 -10.566   7.047  1.00  0.00     0.029 A 
ATOM     45  N   UNL     1       1.202  -8.509   7.880  1.00  0.00    -0.354 N 
ATOM     46  N   UNL     1       1.028  -6.530  10.017  1.00  0.00    -0.248 NA
ATOM     47  C   UNL     1       0.731  -5.984  12.269  1.00  0.00     0.031 C 
ATOM     48  C   UNL     1       1.243 -10.660   8.439  1.00  0.00     0.029 A 
ATOM     49  C   UNL     1       1.172  -9.377   8.958  1.00  0.00     0.049 A 
ATOM     50  H   UNL     1       1.170  -7.527   7.945  1.00  0.00     0.167 HD
ATOM     51  C   UNL     1       0.985  -7.698  10.768  1.00  0.00     0.074 A 
ATOM     52  C   UNL     1       0.825  -7.303  12.152  1.00  0.00     0.031 C 
ATOM     53  C   UNL     1       1.061  -8.980  10.338  1.00  0.00     0.034 A 
BRANCH  40  54
ATOM     54  C   UNL     1       1.338  -9.601   4.216  1.00  0.00     0.023 A 
ATOM     55  C   UNL     1       2.576  -9.896   3.612  1.00  0.00     0.012 A 
ATOM     56  C   UNL     1       0.186 -10.310   3.823  1.00  0.00     0.148 A 
ATOM     57  C   UNL     1       2.669 -10.879   2.628  1.00  0.00     0.002 A 
ATOM     58  C   UNL     1       0.291 -11.307   2.860  1.00  0.00     0.091 A 
ATOM     59  F   UNL     1      -0.980 -10.009   4.411  1.00  0.00    -0.205 F 
ATOM     60  C   UNL     1       1.530 -11.591   2.261  1.00  0.00     0.022 A 
BRANCH  58  61
ATOM     61  S   UNL     1      -1.099 -12.331   2.359  1.00  0.00     0.127 S 
ATOM     62  O   UNL     1      -1.288 -11.911   0.971  1.00  0.00    -0.237 OA
ATOM     63  O   UNL     1      -0.559 -13.681   2.518  1.00  0.00    -0.237 OA
ATOM     64  O   UNL     1      -2.192 -12.000   3.262  1.00  0.00    -0.744 OA
ENDBRANCH  58  61
ENDBRANCH  40  54
BRANCH  41  65
ATOM     65  C   UNL     1       0.918  -3.093  11.739  1.00  0.00     0.023 A 
ATOM     66  C   UNL     1       2.080  -2.935  12.519  1.00  0.00     0.012 A 
ATOM     67  C   UNL     1      -0.193  -2.262  11.972  1.00  0.00     0.148 A 
ATOM     68  C   UNL     1       2.133  -1.966  13.519  1.00  0.00     0.002 A 
ATOM     69  C   UNL     1      -0.120  -1.274  12.946  1.00  0.00     0.091 A 
ATOM     70  F   UNL     1      -1.283  -2.435  11.211  1.00  0.00    -0.205 F 
ATOM     71  C   UNL     1       1.039  -1.130  13.726  1.00  0.00     0.022 A 
BRANCH  69  72
ATOM     72  S   UNL     1      -1.434  -0.081  13.220  1.00  0.00     0.127 S 
ATOM     73  O   UNL     1      -1.836  -0.390  14.590  1.00  0.00    -0.237 OA
ATOM     74  O   UNL     1      -0.723   1.187  13.057  1.00  0.00    -0.237 OA
ATOM     75  O   UNL     1      -2.436  -0.351  12.199  1.00  0.00    -0.744 OA
ENDBRANCH  69  72
ENDBRANCH  41  65
BRANCH  53  76
ATOM     76  C   UNL     1       0.983 -10.079  11.362  1.00  0.00     0.023 A 
ATOM     77  C   UNL     1      -0.275 -10.461  11.867  1.00  0.00     0.012 A 
ATOM     78  C   UNL     1       2.129 -10.818  11.716  1.00  0.00     0.148 A 
ATOM     79  C   UNL     1      -0.391 -11.563  12.713  1.00  0.00     0.002 A 
ATOM     80  C   UNL     1       2.001 -11.935  12.533  1.00  0.00     0.091 A 
ATOM     81  F   UNL     1       3.315 -10.428  11.227  1.00  0.00    -0.205 F 
ATOM     82  C   UNL     1       0.743 -12.306  13.035  1.00  0.00     0.022 A 
BRANCH  80  83
ATOM     83  S   UNL     1       3.387 -13.001  12.947  1.00  0.00     0.127 S 
ATOM     84  O   UNL     1       3.488 -12.811  14.393  1.00  0.00    -0.237 OA
ATOM     85  O   UNL     1       2.898 -14.316  12.536  1.00  0.00    -0.237 OA
ATOM     86  O   UNL     1       4.523 -12.506  12.180  1.00  0.00    -0.744 OA
ENDBRANCH  80  83
ENDBRANCH  53  76
ENDBRANCH  27  28
ENDBRANCH  20  22
ENDBRANCH  19  20
ENDBRANCH   1  19
TORSDOF 16
