REMARK SMILES O=C(OCCOC(=O)[C@H]1[C@H]2CC[C@H](CC2)[C@@H]1C(=O)Nc1ccc(Cc2ccncc2)cc1)c1ccc(-c2c3nc(c(-c4cccc(S(=O)(=O)[O-])c4F)c4ccc([nH]4)c(-c4cccc(S(=O)(=O)[O-])c4F)c4nc(c(-c5cccc(S(=O)(=O)[O-])c5F)c5ccc2[nH]5)C=C4)C=C3)cc1
REMARK SMILES IDX 5 1 4 2 3 3 2 4 1 5 33 6 34 7 95 8 35 9 94 10 36 11 37 12
REMARK SMILES IDX 38 13 88 14 39 15 93 16 87 17 89 18 40 19 92 20 86 21 85 22
REMARK SMILES IDX 41 24 73 25 53 26 72 27 54 28 57 29 71 30 90 31 55 32 56 33
REMARK SMILES IDX 70 35 91 36 58 37 42 38 43 39 51 40 44 41 46 42 52 43 45 44
REMARK SMILES IDX 47 45 48 46 49 47 50 48 74 49 75 50 83 51 76 52 78 53 84 54
REMARK SMILES IDX 77 55 79 56 80 57 81 58 82 59 59 60 60 61 68 62 61 63 63 64
REMARK SMILES IDX 69 65 62 66 64 67 65 68 66 69 67 70 6 71 7 72 8 73 9 74
REMARK SMILES IDX 10 75 16 76 15 77 11 78 13 79 14 80 12 81 17 82 18 83 19 84
REMARK SMILES IDX 20 86 21 87 32 88 22 89 31 90 23 91 24 92 25 93 26 94 30 95
REMARK SMILES IDX 27 96 29 97 28 98
REMARK H PARENT 89 23 57 34 19 85
REMARK Flexibility Score: inf
ROOT
ATOM      1  C   UNL     1       4.293   1.002   1.813  1.00  0.00     0.274 C 
ENDROOT
BRANCH   1   2
ATOM      2  C   UNL     1       4.421   1.599   0.399  1.00  0.00     0.275 C 
BRANCH   2   3
ATOM      3  O   UNL     1       3.604   1.010  -0.614  1.00  0.00    -0.458 OA
BRANCH   3   4
ATOM      4  C   UNL     1       3.766  -0.174  -1.241  1.00  0.00     0.338 C 
ATOM      5  O   UNL     1       2.921  -0.501  -2.075  1.00  0.00    -0.246 OA
BRANCH   4   6
ATOM      6  C   UNL     1       4.840  -1.164  -0.887  1.00  0.00     0.060 A 
ATOM      7  C   UNL     1       6.020  -0.952  -0.157  1.00  0.00     0.016 A 
ATOM      8  C   UNL     1       4.551  -2.477  -1.250  1.00  0.00     0.016 A 
ATOM      9  C   UNL     1       6.770  -2.021   0.376  1.00  0.00     0.010 A 
ATOM     10  C   UNL     1       5.273  -3.530  -0.694  1.00  0.00     0.010 A 
ATOM     11  C   UNL     1       6.353  -3.334   0.197  1.00  0.00    -0.014 A 
BRANCH  11  12
ATOM     12  C   UNL     1       6.912  -4.507   0.964  1.00  0.00     0.031 A 
ATOM     13  C   UNL     1       7.151  -5.792   0.206  1.00  0.00     0.074 A 
ATOM     14  C   UNL     1       7.018  -4.543   2.322  1.00  0.00     0.049 A 
ATOM     15  N   UNL     1       7.418  -6.984   0.668  1.00  0.00    -0.248 NA
ATOM     16  C   UNL     1       7.010  -5.747  -1.266  1.00  0.00     0.031 C 
ATOM     17  C   UNL     1       6.758  -3.447   3.265  1.00  0.00     0.029 A 
ATOM     18  N   UNL     1       7.269  -5.610   3.170  1.00  0.00    -0.354 N 
ATOM     19  C   UNL     1       7.511  -7.781  -0.461  1.00  0.00     0.074 A 
ATOM     20  C   UNL     1       6.967  -7.033  -1.565  1.00  0.00     0.031 C 
ATOM     21  C   UNL     1       6.719  -3.928   4.526  1.00  0.00     0.029 A 
ATOM     22  C   UNL     1       7.003  -5.354   4.505  1.00  0.00     0.049 A 
ATOM     23  H   UNL     1       7.609  -6.477   2.850  1.00  0.00     0.167 HD
ATOM     24  C   UNL     1       8.228  -8.913  -0.635  1.00  0.00     0.034 A 
ATOM     25  C   UNL     1       6.994  -6.173   5.582  1.00  0.00     0.034 A 
ATOM     26  C   UNL     1       8.891  -9.594   0.428  1.00  0.00     0.049 A 
ATOM     27  C   UNL     1       7.628  -7.536   5.419  1.00  0.00     0.074 A 
ATOM     28  C   UNL     1       9.784 -10.643   0.366  1.00  0.00     0.029 A 
ATOM     29  N   UNL     1       8.716  -9.281   1.763  1.00  0.00    -0.354 N 
ATOM     30  N   UNL     1       8.036  -8.126   4.323  1.00  0.00    -0.248 NA
ATOM     31  C   UNL     1       7.953  -8.276   6.651  1.00  0.00     0.031 C 
ATOM     32  C   UNL     1      10.129 -10.987   1.677  1.00  0.00     0.029 A 
ATOM     33  C   UNL     1       9.467 -10.132   2.545  1.00  0.00     0.049 A 
ATOM     34  H   UNL     1       8.142  -8.558   2.105  1.00  0.00     0.167 HD
ATOM     35  C   UNL     1       8.783  -9.223   4.739  1.00  0.00     0.074 A 
ATOM     36  C   UNL     1       8.727  -9.246   6.184  1.00  0.00     0.031 C 
ATOM     37  C   UNL     1       9.485 -10.102   3.983  1.00  0.00     0.034 A 
BRANCH  24  38
ATOM     38  C   UNL     1       8.487  -9.309  -2.060  1.00  0.00     0.023 A 
ATOM     39  C   UNL     1       9.290  -8.460  -2.860  1.00  0.00     0.012 A 
ATOM     40  C   UNL     1       7.912 -10.455  -2.624  1.00  0.00     0.148 A 
ATOM     41  C   UNL     1       9.449  -8.702  -4.219  1.00  0.00     0.002 A 
ATOM     42  C   UNL     1       8.121 -10.720  -3.971  1.00  0.00     0.091 A 
ATOM     43  F   UNL     1       7.149 -11.236  -1.847  1.00  0.00    -0.205 F 
ATOM     44  C   UNL     1       8.867  -9.836  -4.773  1.00  0.00     0.022 A 
BRANCH  42  45
ATOM     45  S   UNL     1       7.469 -12.179  -4.783  1.00  0.00     0.127 S 
ATOM     46  O   UNL     1       6.606 -11.588  -5.804  1.00  0.00    -0.237 OA
ATOM     47  O   UNL     1       8.686 -12.804  -5.296  1.00  0.00    -0.237 OA
ATOM     48  O   UNL     1       6.772 -12.938  -3.752  1.00  0.00    -0.744 OA
ENDBRANCH  42  45
ENDBRANCH  24  38
BRANCH  25  49
ATOM     49  C   UNL     1       6.592  -5.726   6.959  1.00  0.00     0.023 A 
ATOM     50  C   UNL     1       7.604  -5.372   7.877  1.00  0.00     0.012 A 
ATOM     51  C   UNL     1       5.258  -5.802   7.416  1.00  0.00     0.148 A 
ATOM     52  C   UNL     1       7.311  -5.165   9.227  1.00  0.00     0.002 A 
ATOM     53  C   UNL     1       4.969  -5.569   8.764  1.00  0.00     0.091 A 
ATOM     54  F   UNL     1       4.304  -6.148   6.540  1.00  0.00    -0.205 F 
ATOM     55  C   UNL     1       5.997  -5.268   9.671  1.00  0.00     0.022 A 
BRANCH  53  56
ATOM     56  S   UNL     1       3.312  -5.664   9.465  1.00  0.00     0.127 S 
ATOM     57  O   UNL     1       3.436  -6.795  10.379  1.00  0.00    -0.237 OA
ATOM     58  O   UNL     1       3.185  -4.362  10.117  1.00  0.00    -0.237 OA
ATOM     59  O   UNL     1       2.416  -5.875   8.331  1.00  0.00    -0.744 OA
ENDBRANCH  53  56
ENDBRANCH  25  49
BRANCH  37  60
ATOM     60  C   UNL     1      10.351 -11.113   4.677  1.00  0.00     0.023 A 
ATOM     61  C   UNL     1       9.773 -12.194   5.365  1.00  0.00     0.012 A 
ATOM     62  C   UNL     1      11.752 -11.048   4.532  1.00  0.00     0.148 A 
ATOM     63  C   UNL     1      10.579 -13.187   5.917  1.00  0.00     0.002 A 
ATOM     64  C   UNL     1      12.543 -12.074   5.026  1.00  0.00     0.091 A 
ATOM     65  F   UNL     1      12.282  -9.994   3.893  1.00  0.00    -0.205 F 
ATOM     66  C   UNL     1      11.959 -13.138   5.731  1.00  0.00     0.022 A 
BRANCH  64  67
ATOM     67  S   UNL     1      14.309 -12.158   4.711  1.00  0.00     0.127 S 
ATOM     68  O   UNL     1      14.862 -11.850   6.029  1.00  0.00    -0.237 OA
ATOM     69  O   UNL     1      14.481 -13.548   4.286  1.00  0.00    -0.237 OA
ATOM     70  O   UNL     1      14.580 -11.173   3.673  1.00  0.00    -0.744 OA
ENDBRANCH  64  67
ENDBRANCH  37  60
ENDBRANCH  11  12
ENDBRANCH   4   6
ENDBRANCH   3   4
ENDBRANCH   2   3
ENDBRANCH   1   2
BRANCH   1  71
ATOM     71  O   UNL     1       3.832  -0.370   1.908  1.00  0.00    -0.462 OA
BRANCH  71  72
ATOM     72  C   UNL     1       2.480  -0.475   1.998  1.00  0.00     0.310 C 
ATOM     73  O   UNL     1       1.763   0.515   1.870  1.00  0.00    -0.252 OA
BRANCH  72  74
ATOM     74  C   UNL     1       1.897  -1.861   2.329  1.00  0.00     0.115 C 
ATOM     75  C   UNL     1       2.162  -3.043   1.376  1.00  0.00     0.004 C 
ATOM     76  C   UNL     1       2.085  -2.308   3.789  1.00  0.00     0.096 C 
ATOM     77  C   UNL     1       3.510  -3.658   1.710  1.00  0.00     0.005 C 
ATOM     78  C   UNL     1       1.141  -4.183   1.624  1.00  0.00     0.005 C 
ATOM     79  C   UNL     1       2.262  -3.860   3.854  1.00  0.00     0.002 C 
ATOM     80  C   UNL     1       3.559  -4.194   3.131  1.00  0.00     0.005 C 
ATOM     81  C   UNL     1       1.160  -4.611   3.101  1.00  0.00     0.005 C 
BRANCH  76  82
ATOM     82  C   UNL     1       1.106  -1.849   4.886  1.00  0.00     0.228 C 
ATOM     83  O   UNL     1       1.560  -1.625   6.017  1.00  0.00    -0.274 OA
ATOM     84  N   UNL     1      -0.253  -1.717   4.752  1.00  0.00    -0.326 N 
ATOM     85  H   UNL     1      -0.808  -1.956   5.529  1.00  0.00     0.169 HD
BRANCH  84  86
ATOM     86  C   UNL     1      -0.914  -1.271   3.603  1.00  0.00     0.041 A 
ATOM     87  C   UNL     1      -0.862   0.085   3.286  1.00  0.00     0.026 A 
ATOM     88  C   UNL     1      -1.418  -2.189   2.685  1.00  0.00     0.026 A 
ATOM     89  C   UNL     1      -1.079   0.482   1.966  1.00  0.00     0.006 A 
ATOM     90  C   UNL     1      -1.610  -1.794   1.358  1.00  0.00     0.006 A 
ATOM     91  C   UNL     1      -1.340  -0.474   0.975  1.00  0.00    -0.043 A 
BRANCH  91  92
ATOM     92  C   UNL     1      -1.270  -0.094  -0.488  1.00  0.00     0.071 C 
BRANCH  92  93
ATOM     93  C   UNL     1      -2.639   0.079  -1.083  1.00  0.00    -0.041 A 
ATOM     94  C   UNL     1      -3.524   1.010  -0.535  1.00  0.00     0.024 A 
ATOM     95  C   UNL     1      -3.072  -0.718  -2.142  1.00  0.00     0.024 A 
ATOM     96  C   UNL     1      -4.812   1.069  -1.028  1.00  0.00     0.111 A 
ATOM     97  C   UNL     1      -4.380  -0.574  -2.575  1.00  0.00     0.111 A 
ATOM     98  N   UNL     1      -5.264   0.299  -2.041  1.00  0.00    -0.265 NA
ENDBRANCH  92  93
ENDBRANCH  91  92
ENDBRANCH  84  86
ENDBRANCH  76  82
ENDBRANCH  72  74
ENDBRANCH  71  72
ENDBRANCH   1  71
TORSDOF 18
