REMARK SMILES Cc1nonc1CSCC(=O)OCCOC(=O)c1ccc(-c2c3nc(c(-c4cccc(S(=O)(=O)[O-])c4F)c4ccc([nH]4)c(-c4cccc(S(=O)(=O)[O-])c4F)c4nc(c(-c5cccc(S(=O)(=O)[O-])c5F)c5ccc2[nH]5)C=C4)C=C3)cc1
REMARK SMILES IDX 13 1 12 2 10 3 11 4 9 5 8 6 7 7 6 8 1 9 2 10 3 11 4 12 5 13
REMARK SMILES IDX 14 14 15 15 16 16 17 17 18 18 19 19 80 20 20 21 79 22 21 23
REMARK SMILES IDX 22 24 23 25 73 26 24 27 78 28 72 29 74 30 25 31 77 32 71 33
REMARK SMILES IDX 70 34 26 36 58 37 38 38 57 39 39 40 42 41 56 42 75 43 40 44
REMARK SMILES IDX 41 45 55 47 76 48 43 49 27 50 28 51 36 52 29 53 31 54 37 55
REMARK SMILES IDX 30 56 32 57 33 58 34 59 35 60 59 61 60 62 68 63 61 64 63 65
REMARK SMILES IDX 69 66 62 67 64 68 65 69 66 70 67 71 44 72 45 73 53 74 46 75
REMARK SMILES IDX 48 76 54 77 47 78 49 79 50 80 51 81 52 82
REMARK H PARENT 74 35 42 46
REMARK Flexibility Score: inf
ROOT
ATOM      1  C   UNL     1       3.468   4.196  -3.073  1.00  0.00     0.274 C 
ENDROOT
BRANCH   1   2
ATOM      2  O   UNL     1       2.133   4.123  -2.531  1.00  0.00    -0.461 OA
BRANCH   2   3
ATOM      3  C   UNL     1       1.245   3.397  -3.258  1.00  0.00     0.316 C 
ATOM      4  O   UNL     1       1.542   2.778  -4.277  1.00  0.00    -0.251 OA
BRANCH   3   5
ATOM      5  C   UNL     1      -0.175   3.402  -2.743  1.00  0.00     0.192 C 
BRANCH   5   6
ATOM      6  S   UNL     1      -0.527   4.374  -1.247  1.00  0.00    -0.144 SA
BRANCH   6   7
ATOM      7  C   UNL     1       0.080   3.257   0.065  1.00  0.00     0.132 C 
BRANCH   7   8
ATOM      8  C   UNL     1      -0.493   1.881   0.126  1.00  0.00     0.117 A 
ATOM      9  C   UNL     1       1.196   0.618   1.690  1.00  0.00     0.073 C 
ATOM     10  C   UNL     1       0.002   0.760   0.830  1.00  0.00     0.106 A 
ATOM     11  N   UNL     1      -0.804  -0.284   0.629  1.00  0.00    -0.055 NA
ATOM     12  O   UNL     1      -1.823   0.193  -0.182  1.00  0.00    -0.244 OA
ATOM     13  N   UNL     1      -1.640   1.539  -0.473  1.00  0.00    -0.054 NA
ENDBRANCH   7   8
ENDBRANCH   6   7
ENDBRANCH   5   6
ENDBRANCH   3   5
ENDBRANCH   2   3
ENDBRANCH   1   2
BRANCH   1  14
ATOM     14  C   UNL     1       4.428   3.238  -2.370  1.00  0.00     0.275 C 
BRANCH  14  15
ATOM     15  O   UNL     1       4.008   1.871  -2.515  1.00  0.00    -0.458 OA
BRANCH  15  16
ATOM     16  C   UNL     1       3.377   1.359  -1.436  1.00  0.00     0.338 C 
ATOM     17  O   UNL     1       3.143   1.923  -0.380  1.00  0.00    -0.246 OA
BRANCH  16  18
ATOM     18  C   UNL     1       2.947  -0.019  -1.690  1.00  0.00     0.060 A 
ATOM     19  C   UNL     1       1.671  -0.251  -2.208  1.00  0.00     0.016 A 
ATOM     20  C   UNL     1       3.738  -1.074  -1.233  1.00  0.00     0.016 A 
ATOM     21  C   UNL     1       1.163  -1.549  -2.234  1.00  0.00     0.010 A 
ATOM     22  C   UNL     1       3.238  -2.376  -1.288  1.00  0.00     0.010 A 
ATOM     23  C   UNL     1       1.939  -2.618  -1.765  1.00  0.00    -0.014 A 
BRANCH  23  24
ATOM     24  C   UNL     1       1.409  -4.000  -1.804  1.00  0.00     0.031 A 
ATOM     25  C   UNL     1       0.941  -4.679  -0.550  1.00  0.00     0.074 A 
ATOM     26  C   UNL     1       1.394  -4.654  -2.978  1.00  0.00     0.049 A 
ATOM     27  N   UNL     1       0.515  -5.906  -0.392  1.00  0.00    -0.248 NA
ATOM     28  C   UNL     1       0.954  -3.881   0.686  1.00  0.00     0.031 C 
ATOM     29  C   UNL     1       1.837  -4.094  -4.255  1.00  0.00     0.029 A 
ATOM     30  N   UNL     1       1.020  -5.937  -3.284  1.00  0.00    -0.354 N 
ATOM     31  C   UNL     1       0.221  -6.035   0.959  1.00  0.00     0.074 A 
ATOM     32  C   UNL     1       0.533  -4.765   1.582  1.00  0.00     0.031 C 
ATOM     33  C   UNL     1       1.737  -5.038  -5.203  1.00  0.00     0.029 A 
ATOM     34  C   UNL     1       1.247  -6.273  -4.596  1.00  0.00     0.049 A 
ATOM     35  H   UNL     1       0.627  -6.557  -2.627  1.00  0.00     0.167 HD
ATOM     36  C   UNL     1      -0.292  -7.105   1.612  1.00  0.00     0.034 A 
ATOM     37  C   UNL     1       1.101  -7.449  -5.236  1.00  0.00     0.034 A 
ATOM     38  C   UNL     1      -0.642  -8.350   0.979  1.00  0.00     0.049 A 
ATOM     39  C   UNL     1       0.565  -8.631  -4.481  1.00  0.00     0.074 A 
ATOM     40  C   UNL     1      -1.239  -9.465   1.543  1.00  0.00     0.029 A 
ATOM     41  N   UNL     1      -0.424  -8.648  -0.357  1.00  0.00    -0.354 N 
ATOM     42  N   UNL     1       0.175  -8.700  -3.232  1.00  0.00    -0.248 NA
ATOM     43  C   UNL     1       0.426  -9.890  -5.226  1.00  0.00     0.031 C 
ATOM     44  C   UNL     1      -1.376 -10.440   0.547  1.00  0.00     0.029 A 
ATOM     45  C   UNL     1      -0.858  -9.933  -0.634  1.00  0.00     0.049 A 
ATOM     46  H   UNL     1      -0.019  -8.035  -1.013  1.00  0.00     0.167 HD
ATOM     47  C   UNL     1      -0.270 -10.002  -3.042  1.00  0.00     0.074 A 
ATOM     48  C   UNL     1      -0.122 -10.683  -4.313  1.00  0.00     0.031 C 
ATOM     49  C   UNL     1      -0.739 -10.586  -1.912  1.00  0.00     0.034 A 
BRANCH  36  50
ATOM     50  C   UNL     1      -0.580  -6.957   3.080  1.00  0.00     0.023 A 
ATOM     51  C   UNL     1      -1.764  -6.306   3.479  1.00  0.00     0.012 A 
ATOM     52  C   UNL     1       0.265  -7.518   4.056  1.00  0.00     0.148 A 
ATOM     53  C   UNL     1      -2.100  -6.208   4.829  1.00  0.00     0.002 A 
ATOM     54  C   UNL     1      -0.088  -7.436   5.399  1.00  0.00     0.091 A 
ATOM     55  F   UNL     1       1.403  -8.105   3.660  1.00  0.00    -0.205 F 
ATOM     56  C   UNL     1      -1.269  -6.782   5.787  1.00  0.00     0.022 A 
BRANCH  54  57
ATOM     57  S   UNL     1       0.905  -8.193   6.692  1.00  0.00     0.127 S 
ATOM     58  O   UNL     1       1.691  -7.055   7.166  1.00  0.00    -0.237 OA
ATOM     59  O   UNL     1      -0.107  -8.668   7.636  1.00  0.00    -0.237 OA
ATOM     60  O   UNL     1       1.656  -9.254   6.035  1.00  0.00    -0.744 OA
ENDBRANCH  54  57
ENDBRANCH  36  50
BRANCH  37  61
ATOM     61  C   UNL     1       1.431  -7.530  -6.684  1.00  0.00     0.023 A 
ATOM     62  C   UNL     1       0.390  -7.613  -7.626  1.00  0.00     0.012 A 
ATOM     63  C   UNL     1       2.762  -7.429  -7.135  1.00  0.00     0.148 A 
ATOM     64  C   UNL     1       0.669  -7.596  -8.993  1.00  0.00     0.002 A 
ATOM     65  C   UNL     1       3.028  -7.357  -8.497  1.00  0.00     0.091 A 
ATOM     66  F   UNL     1       3.745  -7.379  -6.224  1.00  0.00    -0.205 F 
ATOM     67  C   UNL     1       1.984  -7.450  -9.429  1.00  0.00     0.022 A 
BRANCH  65  68
ATOM     68  S   UNL     1       4.686  -7.015  -9.099  1.00  0.00     0.127 S 
ATOM     69  O   UNL     1       5.226  -8.358  -9.285  1.00  0.00    -0.237 OA
ATOM     70  O   UNL     1       4.430  -6.278 -10.338  1.00  0.00    -0.237 OA
ATOM     71  O   UNL     1       5.300  -6.209  -8.051  1.00  0.00    -0.744 OA
ENDBRANCH  65  68
ENDBRANCH  37  61
BRANCH  49  72
ATOM     72  C   UNL     1      -1.110 -12.041  -1.992  1.00  0.00     0.023 A 
ATOM     73  C   UNL     1      -0.086 -13.008  -1.954  1.00  0.00     0.012 A 
ATOM     74  C   UNL     1      -2.453 -12.455  -2.043  1.00  0.00     0.148 A 
ATOM     75  C   UNL     1      -0.395 -14.367  -1.984  1.00  0.00     0.002 A 
ATOM     76  C   UNL     1      -2.755 -13.813  -2.042  1.00  0.00     0.091 A 
ATOM     77  F   UNL     1      -3.414 -11.521  -2.106  1.00  0.00    -0.205 F 
ATOM     78  C   UNL     1      -1.728 -14.770  -2.018  1.00  0.00     0.022 A 
BRANCH  76  79
ATOM     79  S   UNL     1      -4.455 -14.395  -2.013  1.00  0.00     0.127 S 
ATOM     80  O   UNL     1      -4.742 -14.559  -3.436  1.00  0.00    -0.237 OA
ATOM     81  O   UNL     1      -4.355 -15.649  -1.265  1.00  0.00    -0.237 OA
ATOM     82  O   UNL     1      -5.204 -13.351  -1.326  1.00  0.00    -0.744 OA
ENDBRANCH  76  79
ENDBRANCH  49  72
ENDBRANCH  23  24
ENDBRANCH  16  18
ENDBRANCH  15  16
ENDBRANCH  14  15
ENDBRANCH   1  14
TORSDOF 17
