REMARK SMILES CCC[C@@H](CNC(=O)NCc1c(C)nn(C)c1C)C(=O)OCCOC(=O)c1ccc(-c2c3nc(c(-c4cccc(S(=O)(=O)[O-])c4F)c4ccc([nH]4)c(-c4cccc(S(=O)(=O)[O-])c4F)c4nc(c(-c5cccc(S(=O)(=O)[O-])c5F)c5ccc2[nH]5)C=C4)C=C3)cc1
REMARK SMILES IDX 22 1 21 2 19 3 20 4 4 5 3 6 2 7 1 8 5 9 6 10 7 11 8 13 9 14
REMARK SMILES IDX 10 16 11 17 12 18 17 19 13 20 14 21 15 22 18 23 16 24 23 25
REMARK SMILES IDX 24 26 25 27 26 28 27 29 28 30 89 31 29 32 88 33 30 34 31 35
REMARK SMILES IDX 32 36 82 37 33 38 87 39 81 40 83 41 34 42 86 43 80 44 79 45
REMARK SMILES IDX 35 47 67 48 47 49 66 50 48 51 51 52 65 53 84 54 49 55 50 56
REMARK SMILES IDX 64 58 85 59 52 60 36 61 37 62 45 63 38 64 40 65 46 66 39 67
REMARK SMILES IDX 41 68 42 69 43 70 44 71 68 72 69 73 77 74 70 75 72 76 78 77
REMARK SMILES IDX 71 78 73 79 74 80 75 81 76 82 53 83 54 84 62 85 55 86 57 87
REMARK SMILES IDX 63 88 56 89 58 90 59 91 60 92 61 93
REMARK H PARENT 6 12 9 15 83 46 51 57
REMARK Flexibility Score: inf
ROOT
ATOM      1  C   UNL     1       1.165  -2.466   5.820  1.00  0.00     0.274 C 
ENDROOT
BRANCH   1   2
ATOM      2  O   UNL     1       0.749  -2.283   4.453  1.00  0.00    -0.462 OA
BRANCH   2   3
ATOM      3  C   UNL     1       0.432  -1.010   4.097  1.00  0.00     0.310 C 
ATOM      4  O   UNL     1       0.506  -0.042   4.845  1.00  0.00    -0.252 OA
BRANCH   3   5
ATOM      5  C   UNL     1      -0.067  -0.895   2.665  1.00  0.00     0.118 C 
BRANCH   5   6
ATOM      6  C   UNL     1       0.632  -1.885   1.714  1.00  0.00     0.017 C 
BRANCH   6   7
ATOM      7  C   UNL     1       0.483  -1.575   0.218  1.00  0.00    -0.002 C 
ATOM      8  C   UNL     1       0.997  -0.201  -0.187  1.00  0.00     0.004 C 
ENDBRANCH   6   7
ENDBRANCH   5   6
BRANCH   5   9
ATOM      9  C   UNL     1      -1.597  -0.940   2.596  1.00  0.00     0.133 C 
BRANCH   9  10
ATOM     10  N   UNL     1      -2.185  -2.014   3.370  1.00  0.00    -0.337 N 
ATOM     11  C   UNL     1      -2.741  -2.079   4.585  1.00  0.00     0.315 C 
ATOM     12  H   UNL     1      -2.172  -2.880   2.903  1.00  0.00     0.165 HD
ATOM     13  O   UNL     1      -3.120  -3.185   4.981  1.00  0.00    -0.249 OA
ATOM     14  N   UNL     1      -2.934  -1.030   5.389  1.00  0.00    -0.334 N 
ATOM     15  H   UNL     1      -3.389  -1.280   6.225  1.00  0.00     0.165 HD
BRANCH  14  16
ATOM     16  C   UNL     1      -2.637   0.383   5.331  1.00  0.00     0.157 C 
BRANCH  16  17
ATOM     17  C   UNL     1      -3.762   1.216   4.804  1.00  0.00     0.015 A 
ATOM     18  C   UNL     1      -3.662   2.630   4.600  1.00  0.00     0.065 A 
ATOM     19  C   UNL     1      -5.065   0.911   4.417  1.00  0.00     0.040 A 
ATOM     20  C   UNL     1      -2.494   3.527   4.813  1.00  0.00     0.069 C 
ATOM     21  N   UNL     1      -4.809   3.155   4.169  1.00  0.00    -0.178 NA
ATOM     22  N   UNL     1      -5.649   2.115   4.106  1.00  0.00    -0.272 N 
ATOM     23  C   UNL     1      -5.827  -0.362   4.330  1.00  0.00     0.067 C 
ATOM     24  C   UNL     1      -7.025   2.389   3.762  1.00  0.00     0.174 C 
ENDBRANCH  16  17
ENDBRANCH  14  16
ENDBRANCH   9  10
ENDBRANCH   5   9
ENDBRANCH   3   5
ENDBRANCH   2   3
ENDBRANCH   1   2
BRANCH   1  25
ATOM     25  C   UNL     1       2.688  -2.421   5.977  1.00  0.00     0.275 C 
BRANCH  25  26
ATOM     26  O   UNL     1       3.221  -1.113   5.704  1.00  0.00    -0.458 OA
BRANCH  26  27
ATOM     27  C   UNL     1       3.645  -0.919   4.435  1.00  0.00     0.338 C 
ATOM     28  O   UNL     1       3.667  -1.742   3.531  1.00  0.00    -0.246 OA
BRANCH  27  29
ATOM     29  C   UNL     1       3.975   0.497   4.227  1.00  0.00     0.060 A 
ATOM     30  C   UNL     1       3.167   1.246   3.366  1.00  0.00     0.016 A 
ATOM     31  C   UNL     1       5.123   1.054   4.788  1.00  0.00     0.016 A 
ATOM     32  C   UNL     1       3.503   2.558   3.052  1.00  0.00     0.010 A 
ATOM     33  C   UNL     1       5.466   2.370   4.467  1.00  0.00     0.010 A 
ATOM     34  C   UNL     1       4.668   3.120   3.584  1.00  0.00    -0.014 A 
BRANCH  34  35
ATOM     35  C   UNL     1       5.105   4.465   3.147  1.00  0.00     0.031 A 
ATOM     36  C   UNL     1       6.234   4.585   2.164  1.00  0.00     0.074 A 
ATOM     37  C   UNL     1       4.501   5.563   3.635  1.00  0.00     0.049 A 
ATOM     38  N   UNL     1       6.850   5.656   1.741  1.00  0.00    -0.248 NA
ATOM     39  C   UNL     1       6.737   3.329   1.581  1.00  0.00     0.031 C 
ATOM     40  C   UNL     1       3.374   5.562   4.569  1.00  0.00     0.029 A 
ATOM     41  N   UNL     1       4.769   6.893   3.432  1.00  0.00    -0.354 N 
ATOM     42  C   UNL     1       7.839   5.205   0.875  1.00  0.00     0.074 A 
ATOM     43  C   UNL     1       7.739   3.763   0.829  1.00  0.00     0.031 C 
ATOM     44  C   UNL     1       3.065   6.832   4.880  1.00  0.00     0.029 A 
ATOM     45  C   UNL     1       3.994   7.730   4.199  1.00  0.00     0.049 A 
ATOM     46  H   UNL     1       5.451   7.216   2.800  1.00  0.00     0.167 HD
ATOM     47  C   UNL     1       8.740   5.932   0.175  1.00  0.00     0.034 A 
ATOM     48  C   UNL     1       4.049   9.068   4.353  1.00  0.00     0.034 A 
ATOM     49  C   UNL     1       8.811   7.367   0.201  1.00  0.00     0.049 A 
ATOM     50  C   UNL     1       5.076   9.849   3.576  1.00  0.00     0.074 A 
ATOM     51  C   UNL     1       9.683   8.199  -0.478  1.00  0.00     0.029 A 
ATOM     52  N   UNL     1       7.973   8.184   0.944  1.00  0.00    -0.354 N 
ATOM     53  N   UNL     1       5.961   9.416   2.710  1.00  0.00    -0.248 NA
ATOM     54  C   UNL     1       5.097  11.305   3.777  1.00  0.00     0.031 C 
ATOM     55  C   UNL     1       9.372   9.522  -0.144  1.00  0.00     0.029 A 
ATOM     56  C   UNL     1       8.301   9.512   0.735  1.00  0.00     0.049 A 
ATOM     57  H   UNL     1       7.250   7.867   1.532  1.00  0.00     0.167 HD
ATOM     58  C   UNL     1       6.619  10.546   2.239  1.00  0.00     0.074 A 
ATOM     59  C   UNL     1       6.019  11.685   2.902  1.00  0.00     0.031 C 
ATOM     60  C   UNL     1       7.641  10.634   1.352  1.00  0.00     0.034 A 
BRANCH  47  61
ATOM     61  C   UNL     1       9.703   5.186  -0.708  1.00  0.00     0.023 A 
ATOM     62  C   UNL     1       9.253   4.669  -1.939  1.00  0.00     0.012 A 
ATOM     63  C   UNL     1      11.058   5.046  -0.351  1.00  0.00     0.148 A 
ATOM     64  C   UNL     1      10.132   4.003  -2.792  1.00  0.00     0.002 A 
ATOM     65  C   UNL     1      11.936   4.413  -1.223  1.00  0.00     0.091 A 
ATOM     66  F   UNL     1      11.459   5.523   0.836  1.00  0.00    -0.205 F 
ATOM     67  C   UNL     1      11.474   3.885  -2.440  1.00  0.00     0.022 A 
BRANCH  65  68
ATOM     68  S   UNL     1      13.695   4.267  -0.886  1.00  0.00     0.127 S 
ATOM     69  O   UNL     1      13.816   2.848  -0.556  1.00  0.00    -0.237 OA
ATOM     70  O   UNL     1      14.289   4.648  -2.168  1.00  0.00    -0.237 OA
ATOM     71  O   UNL     1      13.970   5.191   0.206  1.00  0.00    -0.744 OA
ENDBRANCH  65  68
ENDBRANCH  47  61
BRANCH  48  72
ATOM     72  C   UNL     1       3.082   9.757   5.253  1.00  0.00     0.023 A 
ATOM     73  C   UNL     1       2.087  10.582   4.695  1.00  0.00     0.012 A 
ATOM     74  C   UNL     1       3.125   9.584   6.650  1.00  0.00     0.148 A 
ATOM     75  C   UNL     1       1.170  11.243   5.512  1.00  0.00     0.002 A 
ATOM     76  C   UNL     1       2.175  10.202   7.455  1.00  0.00     0.091 A 
ATOM     77  F   UNL     1       4.094   8.816   7.168  1.00  0.00    -0.205 F 
ATOM     78  C   UNL     1       1.205  11.044   6.890  1.00  0.00     0.022 A 
BRANCH  76  79
ATOM     79  S   UNL     1       2.080   9.888   9.221  1.00  0.00     0.127 S 
ATOM     80  O   UNL     1       2.750  11.062   9.772  1.00  0.00    -0.237 OA
ATOM     81  O   UNL     1       0.635   9.838   9.452  1.00  0.00    -0.237 OA
ATOM     82  O   UNL     1       2.756   8.612   9.418  1.00  0.00    -0.744 OA
ENDBRANCH  76  79
ENDBRANCH  48  72
BRANCH  60  83
ATOM     83  C   UNL     1       8.152  12.007   1.009  1.00  0.00     0.023 A 
ATOM     84  C   UNL     1       8.974  12.691   1.925  1.00  0.00     0.012 A 
ATOM     85  C   UNL     1       7.891  12.577  -0.252  1.00  0.00     0.148 A 
ATOM     86  C   UNL     1       9.513  13.935   1.599  1.00  0.00     0.002 A 
ATOM     87  C   UNL     1       8.465  13.798  -0.586  1.00  0.00     0.091 A 
ATOM     88  F   UNL     1       7.088  11.918  -1.100  1.00  0.00    -0.205 F 
ATOM     89  C   UNL     1       9.269  14.482   0.340  1.00  0.00     0.022 A 
BRANCH  87  90
ATOM     90  S   UNL     1       8.275  14.529  -2.216  1.00  0.00     0.127 S 
ATOM     91  O   UNL     1       7.281  15.570  -1.963  1.00  0.00    -0.237 OA
ATOM     92  O   UNL     1       9.622  15.027  -2.497  1.00  0.00    -0.237 OA
ATOM     93  O   UNL     1       7.843  13.444  -3.089  1.00  0.00    -0.744 OA
ENDBRANCH  87  90
ENDBRANCH  60  83
ENDBRANCH  34  35
ENDBRANCH  27  29
ENDBRANCH  26  27
ENDBRANCH  25  26
ENDBRANCH   1  25
TORSDOF 20
