REMARK SMILES CC(=O)Nc1cc(NC(C)=O)cc(C(=O)Nc2ccc(Br)cc2C(=O)OCCOC(=O)c2ccc(-c3c4nc(c(-c5cccc(S(=O)(=O)[O-])c5F)c5ccc([nH]5)c(-c5cccc(S(=O)(=O)[O-])c5F)c5nc(c(-c6cccc(S(=O)(=O)[O-])c6F)c6ccc3[nH]6)C=C5)C=C4)cc2)c1
REMARK SMILES IDX 27 1 26 2 24 3 25 4 23 5 17 6 18 7 19 8 22 9 20 10 21 11
REMARK SMILES IDX 16 12 14 13 15 14 13 16 5 17 6 18 95 19 7 20 12 21 4 22 1 23
REMARK SMILES IDX 2 24 3 25 8 27 9 28 10 30 11 31 28 32 29 33 30 34 31 35
REMARK SMILES IDX 32 36 33 37 94 38 34 39 93 40 35 41 36 42 37 43 87 44 38 45
REMARK SMILES IDX 92 46 86 47 88 48 39 49 91 50 85 51 84 52 40 54 72 55 52 56
REMARK SMILES IDX 71 57 53 58 56 59 70 60 89 61 54 62 55 63 69 65 90 66 57 67
REMARK SMILES IDX 41 68 42 69 50 70 43 71 45 72 51 73 44 74 46 75 47 76 48 77
REMARK SMILES IDX 49 78 73 79 74 80 82 81 75 82 77 83 83 84 76 85 78 86 79 87
REMARK SMILES IDX 80 88 81 89 58 90 59 91 67 92 60 93 62 94 68 95 61 96 63 97
REMARK SMILES IDX 64 98 65 99 66 100
REMARK H PARENT 16 15 4 26 8 29 88 53 56 64
REMARK Flexibility Score: inf
ROOT
ATOM      1  C   UNL     1       5.561  -3.129  -2.861  1.00  0.00     0.275 C 
ENDROOT
BRANCH   1   2
ATOM      2  O   UNL     1       5.548  -2.193  -1.761  1.00  0.00    -0.458 OA
BRANCH   2   3
ATOM      3  C   UNL     1       4.363  -2.122  -1.112  1.00  0.00     0.340 C 
ATOM      4  O   UNL     1       3.395  -2.827  -1.337  1.00  0.00    -0.246 OA
BRANCH   3   5
ATOM      5  C   UNL     1       4.319  -1.052  -0.094  1.00  0.00     0.084 A 
ATOM      6  C   UNL     1       4.583   0.299  -0.368  1.00  0.00     0.056 A 
ATOM      7  C   UNL     1       4.558   1.217   0.699  1.00  0.00     0.028 A 
ATOM      8  C   UNL     1       4.131   0.835   1.975  1.00  0.00     0.018 A 
ATOM      9  C   UNL     1       3.906  -1.429   1.197  1.00  0.00     0.033 A 
ATOM     10  C   UNL     1       3.781  -0.486   2.211  1.00  0.00     0.018 A 
ATOM     11  Br  UNL     1       3.096  -1.000   3.894  1.00  0.00    -0.051 Br
BRANCH   6  12
ATOM     12  N   UNL     1       4.818   0.870  -1.637  1.00  0.00    -0.321 N 
ATOM     13  C   UNL     1       4.318   0.587  -2.894  1.00  0.00     0.255 C 
ATOM     14  O   UNL     1       4.884   1.064  -3.878  1.00  0.00    -0.269 OA
ATOM     15  H   UNL     1       5.462   1.614  -1.625  1.00  0.00     0.170 HD
BRANCH  13  16
ATOM     16  C   UNL     1       3.071  -0.201  -3.106  1.00  0.00     0.044 A 
ATOM     17  C   UNL     1       1.038  -1.197  -2.260  1.00  0.00     0.044 A 
ATOM     18  C   UNL     1       0.979  -1.998  -3.412  1.00  0.00     0.052 A 
ATOM     19  C   UNL     1       2.038  -0.233  -2.160  1.00  0.00     0.040 A 
ATOM     20  C   UNL     1       1.922  -1.878  -4.437  1.00  0.00     0.044 A 
ATOM     21  C   UNL     1       2.978  -0.979  -4.270  1.00  0.00     0.040 A 
BRANCH  17  22
ATOM     22  N   UNL     1       0.192  -1.574  -1.198  1.00  0.00    -0.326 N 
ATOM     23  C   UNL     1       0.239   0.384   0.343  1.00  0.00     0.114 C 
ATOM     24  C   UNL     1      -0.039  -1.058   0.042  1.00  0.00     0.221 C 
ATOM     25  O   UNL     1      -0.519  -1.788   0.911  1.00  0.00    -0.275 OA
ATOM     26  H   UNL     1      -0.343  -2.377  -1.392  1.00  0.00     0.169 HD
ENDBRANCH  17  22
BRANCH  20  27
ATOM     27  N   UNL     1       1.912  -2.663  -5.612  1.00  0.00    -0.326 N 
ATOM     28  C   UNL     1       0.970  -3.610  -5.975  1.00  0.00     0.221 C 
ATOM     29  H   UNL     1       2.656  -2.520  -6.242  1.00  0.00     0.169 HD
ATOM     30  C   UNL     1       1.268  -4.276  -7.296  1.00  0.00     0.114 C 
ATOM     31  O   UNL     1      -0.038  -3.918  -5.350  1.00  0.00    -0.275 OA
ENDBRANCH  20  27
ENDBRANCH  13  16
ENDBRANCH   6  12
ENDBRANCH   3   5
ENDBRANCH   2   3
ENDBRANCH   1   2
BRANCH   1  32
ATOM     32  C   UNL     1       6.027  -4.537  -2.479  1.00  0.00     0.275 C 
BRANCH  32  33
ATOM     33  O   UNL     1       5.048  -5.251  -1.702  1.00  0.00    -0.458 OA
BRANCH  33  34
ATOM     34  C   UNL     1       5.217  -5.142  -0.367  1.00  0.00     0.338 C 
ATOM     35  O   UNL     1       6.107  -4.532   0.209  1.00  0.00    -0.246 OA
BRANCH  34  36
ATOM     36  C   UNL     1       4.131  -5.792   0.379  1.00  0.00     0.060 A 
ATOM     37  C   UNL     1       3.081  -4.992   0.820  1.00  0.00     0.016 A 
ATOM     38  C   UNL     1       4.300  -7.070   0.901  1.00  0.00     0.016 A 
ATOM     39  C   UNL     1       2.320  -5.369   1.912  1.00  0.00     0.010 A 
ATOM     40  C   UNL     1       3.441  -7.506   1.917  1.00  0.00     0.010 A 
ATOM     41  C   UNL     1       2.497  -6.628   2.485  1.00  0.00    -0.014 A 
BRANCH  41  42
ATOM     42  C   UNL     1       1.769  -6.973   3.733  1.00  0.00     0.031 A 
ATOM     43  C   UNL     1       2.551  -7.354   4.962  1.00  0.00     0.074 A 
ATOM     44  C   UNL     1       0.424  -6.909   3.777  1.00  0.00     0.049 A 
ATOM     45  N   UNL     1       2.128  -7.879   6.082  1.00  0.00    -0.248 NA
ATOM     46  C   UNL     1       4.008  -7.138   4.918  1.00  0.00     0.031 C 
ATOM     47  C   UNL     1      -0.445  -6.489   2.675  1.00  0.00     0.029 A 
ATOM     48  N   UNL     1      -0.451  -7.204   4.792  1.00  0.00    -0.354 N 
ATOM     49  C   UNL     1       3.269  -8.144   6.831  1.00  0.00     0.074 A 
ATOM     50  C   UNL     1       4.403  -7.711   6.045  1.00  0.00     0.031 C 
ATOM     51  C   UNL     1      -1.723  -6.540   3.075  1.00  0.00     0.029 A 
ATOM     52  C   UNL     1      -1.770  -7.084   4.425  1.00  0.00     0.049 A 
ATOM     53  H   UNL     1      -0.162  -7.475   5.693  1.00  0.00     0.167 HD
ATOM     54  C   UNL     1       3.358  -8.696   8.065  1.00  0.00     0.034 A 
ATOM     55  C   UNL     1      -2.895  -7.424   5.081  1.00  0.00     0.034 A 
ATOM     56  C   UNL     1       2.213  -9.039   8.865  1.00  0.00     0.049 A 
ATOM     57  C   UNL     1      -2.770  -8.021   6.453  1.00  0.00     0.074 A 
ATOM     58  C   UNL     1       2.181  -9.576  10.140  1.00  0.00     0.029 A 
ATOM     59  N   UNL     1       0.894  -8.858   8.474  1.00  0.00    -0.354 N 
ATOM     60  N   UNL     1      -1.687  -8.267   7.151  1.00  0.00    -0.248 NA
ATOM     61  C   UNL     1      -4.021  -8.369   7.138  1.00  0.00     0.031 C 
ATOM     62  C   UNL     1       0.842  -9.736  10.511  1.00  0.00     0.029 A 
ATOM     63  C   UNL     1       0.039  -9.268   9.482  1.00  0.00     0.049 A 
ATOM     64  H   UNL     1       0.608  -8.492   7.606  1.00  0.00     0.167 HD
ATOM     65  C   UNL     1      -2.126  -8.768   8.370  1.00  0.00     0.074 A 
ATOM     66  C   UNL     1      -3.575  -8.768   8.321  1.00  0.00     0.031 C 
ATOM     67  C   UNL     1      -1.399  -9.205   9.428  1.00  0.00     0.034 A 
BRANCH  54  68
ATOM     68  C   UNL     1       4.734  -8.962   8.620  1.00  0.00     0.023 A 
ATOM     69  C   UNL     1       5.556  -7.892   9.030  1.00  0.00     0.012 A 
ATOM     70  C   UNL     1       5.202 -10.284   8.768  1.00  0.00     0.148 A 
ATOM     71  C   UNL     1       6.833  -8.130   9.538  1.00  0.00     0.002 A 
ATOM     72  C   UNL     1       6.456 -10.516   9.321  1.00  0.00     0.091 A 
ATOM     73  F   UNL     1       4.418 -11.289   8.353  1.00  0.00    -0.205 F 
ATOM     74  C   UNL     1       7.279  -9.441   9.693  1.00  0.00     0.022 A 
BRANCH  72  75
ATOM     75  S   UNL     1       7.086 -12.169   9.637  1.00  0.00     0.127 S 
ATOM     76  O   UNL     1       8.146 -12.278   8.635  1.00  0.00    -0.237 OA
ATOM     77  O   UNL     1       7.562 -12.058  11.016  1.00  0.00    -0.237 OA
ATOM     78  O   UNL     1       5.959 -13.072   9.454  1.00  0.00    -0.744 OA
ENDBRANCH  72  75
ENDBRANCH  54  68
BRANCH  55  79
ATOM     79  C   UNL     1      -4.225  -7.204   4.444  1.00  0.00     0.023 A 
ATOM     80  C   UNL     1      -5.095  -6.233   4.975  1.00  0.00     0.012 A 
ATOM     81  C   UNL     1      -4.615  -7.920   3.295  1.00  0.00     0.148 A 
ATOM     82  C   UNL     1      -6.340  -5.999   4.389  1.00  0.00     0.002 A 
ATOM     83  C   UNL     1      -5.830  -7.640   2.681  1.00  0.00     0.091 A 
ATOM     84  F   UNL     1      -3.780  -8.853   2.813  1.00  0.00    -0.205 F 
ATOM     85  C   UNL     1      -6.702  -6.692   3.237  1.00  0.00     0.022 A 
BRANCH  83  86
ATOM     86  S   UNL     1      -6.317  -8.389   1.123  1.00  0.00     0.127 S 
ATOM     87  O   UNL     1      -7.381  -9.295   1.546  1.00  0.00    -0.237 OA
ATOM     88  O   UNL     1      -6.768  -7.227   0.355  1.00  0.00    -0.237 OA
ATOM     89  O   UNL     1      -5.116  -9.025   0.599  1.00  0.00    -0.744 OA
ENDBRANCH  83  86
ENDBRANCH  55  79
BRANCH  67  90
ATOM     90  C   UNL     1      -2.162  -9.666  10.640  1.00  0.00     0.023 A 
ATOM     91  C   UNL     1      -2.865 -10.886  10.610  1.00  0.00     0.012 A 
ATOM     92  C   UNL     1      -2.137  -8.909  11.828  1.00  0.00     0.148 A 
ATOM     93  C   UNL     1      -3.568 -11.325  11.731  1.00  0.00     0.002 A 
ATOM     94  C   UNL     1      -2.796  -9.378  12.956  1.00  0.00     0.091 A 
ATOM     95  F   UNL     1      -1.480  -7.740  11.829  1.00  0.00    -0.205 F 
ATOM     96  C   UNL     1      -3.524 -10.577  12.906  1.00  0.00     0.022 A 
BRANCH  94  97
ATOM     97  S   UNL     1      -2.706  -8.530  14.537  1.00  0.00     0.127 S 
ATOM     98  O   UNL     1      -4.024  -7.905  14.616  1.00  0.00    -0.237 OA
ATOM     99  O   UNL     1      -2.499  -9.637  15.473  1.00  0.00    -0.237 OA
ATOM    100  O   UNL     1      -1.579  -7.612  14.434  1.00  0.00    -0.744 OA
ENDBRANCH  94  97
ENDBRANCH  67  90
ENDBRANCH  41  42
ENDBRANCH  34  36
ENDBRANCH  33  34
ENDBRANCH  32  33
ENDBRANCH   1  32
TORSDOF 18
