REMARK SMILES O=C(Cc1ccccc1Nc1c(F)cccc1C(F)(F)F)OCCOC(=O)c1ccc(-c2c3nc(c(-c4cccc(S(=O)(=O)[O-])c4F)c4ccc([nH]4)c(-c4cccc(S(=O)(=O)[O-])c4F)c4nc(c(-c5cccc(S(=O)(=O)[O-])c5F)c5ccc2[nH]5)C=C4)C=C3)cc1
REMARK SMILES IDX 23 1 22 2 2 3 1 4 3 5 4 6 5 7 9 8 6 9 8 10 7 11 10 12 11 14
REMARK SMILES IDX 12 15 17 16 13 17 14 18 16 19 15 20 18 21 19 22 20 23 21 24
REMARK SMILES IDX 24 25 25 26 26 27 27 28 28 29 29 30 90 31 30 32 89 33 31 34
REMARK SMILES IDX 32 35 33 36 83 37 34 38 88 39 82 40 84 41 35 42 87 43 81 44
REMARK SMILES IDX 80 45 36 47 68 48 48 49 67 50 49 51 52 52 66 53 85 54 50 55
REMARK SMILES IDX 51 56 65 58 86 59 53 60 37 61 38 62 46 63 39 64 41 65 47 66
REMARK SMILES IDX 40 67 42 68 43 69 44 70 45 71 69 72 70 73 78 74 71 75 73 76
REMARK SMILES IDX 79 77 72 78 74 79 75 80 76 81 77 82 54 83 55 84 63 85 56 86
REMARK SMILES IDX 58 87 64 88 57 89 59 90 60 91 61 92 62 93
REMARK H PARENT 10 13 84 46 52 57
REMARK Flexibility Score: inf
ROOT
ATOM      1  C   UNL     1       4.550  -0.161  -0.793  1.00  0.00     0.274 C 
ENDROOT
BRANCH   1   2
ATOM      2  O   UNL     1       3.197  -0.666  -0.763  1.00  0.00    -0.462 OA
BRANCH   2   3
ATOM      3  C   UNL     1       2.410  -0.723   0.338  1.00  0.00     0.310 C 
ATOM      4  O   UNL     1       1.300  -1.252   0.269  1.00  0.00    -0.252 OA
BRANCH   3   5
ATOM      5  C   UNL     1       2.914  -0.139   1.634  1.00  0.00     0.160 C 
BRANCH   5   6
ATOM      6  C   UNL     1       3.797  -1.022   2.486  1.00  0.00    -0.013 A 
ATOM      7  C   UNL     1       3.649  -2.421   2.441  1.00  0.00     0.006 A 
ATOM      8  C   UNL     1       4.716  -0.448   3.398  1.00  0.00     0.042 A 
ATOM      9  C   UNL     1       4.413  -3.246   3.262  1.00  0.00     0.000 A 
ATOM     10  C   UNL     1       5.451  -1.300   4.233  1.00  0.00     0.026 A 
ATOM     11  C   UNL     1       5.309  -2.686   4.163  1.00  0.00     0.002 A 
BRANCH   8  12
ATOM     12  N   UNL     1       4.896   0.955   3.443  1.00  0.00    -0.352 N 
ATOM     13  H   UNL     1       4.193   1.475   2.990  1.00  0.00     0.167 HD
BRANCH  12  14
ATOM     14  C   UNL     1       5.920   1.734   4.031  1.00  0.00     0.087 A 
ATOM     15  C   UNL     1       5.512   2.782   4.884  1.00  0.00     0.147 A 
ATOM     16  C   UNL     1       7.298   1.503   3.882  1.00  0.00     0.082 A 
ATOM     17  F   UNL     1       4.202   3.060   4.982  1.00  0.00    -0.205 F 
ATOM     18  C   UNL     1       6.411   3.535   5.629  1.00  0.00     0.041 A 
ATOM     19  C   UNL     1       8.205   2.255   4.668  1.00  0.00     0.015 A 
ATOM     20  C   UNL     1       7.766   3.255   5.538  1.00  0.00     0.004 A 
BRANCH  16  21
ATOM     21  C   UNL     1       7.881   0.525   2.892  1.00  0.00     0.418 C 
ATOM     22  F   UNL     1       9.077   0.969   2.387  1.00  0.00    -0.166 F 
ATOM     23  F   UNL     1       8.173  -0.688   3.439  1.00  0.00    -0.166 F 
ATOM     24  F   UNL     1       7.122   0.285   1.786  1.00  0.00    -0.166 F 
ENDBRANCH  16  21
ENDBRANCH  12  14
ENDBRANCH   8  12
ENDBRANCH   5   6
ENDBRANCH   3   5
ENDBRANCH   2   3
ENDBRANCH   1   2
BRANCH   1  25
ATOM     25  C   UNL     1       4.602   1.250  -1.385  1.00  0.00     0.275 C 
BRANCH  25  26
ATOM     26  O   UNL     1       4.073   2.204  -0.446  1.00  0.00    -0.458 OA
BRANCH  26  27
ATOM     27  C   UNL     1       2.779   2.563  -0.630  1.00  0.00     0.338 C 
ATOM     28  O   UNL     1       2.074   2.277  -1.583  1.00  0.00    -0.246 OA
BRANCH  27  29
ATOM     29  C   UNL     1       2.270   3.196   0.611  1.00  0.00     0.060 A 
ATOM     30  C   UNL     1       0.948   2.926   0.986  1.00  0.00     0.016 A 
ATOM     31  C   UNL     1       3.077   3.998   1.427  1.00  0.00     0.016 A 
ATOM     32  C   UNL     1       0.422   3.485   2.151  1.00  0.00     0.010 A 
ATOM     33  C   UNL     1       2.548   4.557   2.596  1.00  0.00     0.010 A 
ATOM     34  C   UNL     1       1.209   4.328   2.950  1.00  0.00    -0.014 A 
BRANCH  34  35
ATOM     35  C   UNL     1       0.580   5.051   4.083  1.00  0.00     0.031 A 
ATOM     36  C   UNL     1       0.143   6.479   3.894  1.00  0.00     0.074 A 
ATOM     37  C   UNL     1       0.371   4.442   5.265  1.00  0.00     0.049 A 
ATOM     38  N   UNL     1      -0.530   7.252   4.706  1.00  0.00    -0.248 NA
ATOM     39  C   UNL     1       0.517   7.121   2.623  1.00  0.00     0.031 C 
ATOM     40  C   UNL     1       0.789   3.083   5.604  1.00  0.00     0.029 A 
ATOM     41  N   UNL     1      -0.239   4.901   6.406  1.00  0.00    -0.354 N 
ATOM     42  C   UNL     1      -0.673   8.464   4.044  1.00  0.00     0.074 A 
ATOM     43  C   UNL     1       0.024   8.341   2.781  1.00  0.00     0.031 C 
ATOM     44  C   UNL     1       0.440   2.824   6.876  1.00  0.00     0.029 A 
ATOM     45  C   UNL     1      -0.234   3.994   7.439  1.00  0.00     0.049 A 
ATOM     46  H   UNL     1      -0.643   5.796   6.478  1.00  0.00     0.167 HD
ATOM     47  C   UNL     1      -1.352   9.571   4.430  1.00  0.00     0.034 A 
ATOM     48  C   UNL     1      -0.722   4.094   8.692  1.00  0.00     0.034 A 
ATOM     49  C   UNL     1      -2.046   9.703   5.682  1.00  0.00     0.049 A 
ATOM     50  C   UNL     1      -1.478   5.334   9.099  1.00  0.00     0.074 A 
ATOM     51  C   UNL     1      -2.790  10.775   6.145  1.00  0.00     0.029 A 
ATOM     52  N   UNL     1      -2.075   8.739   6.677  1.00  0.00    -0.354 N 
ATOM     53  N   UNL     1      -1.751   6.406   8.395  1.00  0.00    -0.248 NA
ATOM     54  C   UNL     1      -2.039   5.354  10.459  1.00  0.00     0.031 C 
ATOM     55  C   UNL     1      -3.257  10.463   7.428  1.00  0.00     0.029 A 
ATOM     56  C   UNL     1      -2.818   9.191   7.755  1.00  0.00     0.049 A 
ATOM     57  H   UNL     1      -1.631   7.862   6.625  1.00  0.00     0.167 HD
ATOM     58  C   UNL     1      -2.538   7.211   9.212  1.00  0.00     0.074 A 
ATOM     59  C   UNL     1      -2.726   6.489  10.453  1.00  0.00     0.031 C 
ATOM     60  C   UNL     1      -3.044   8.446   8.966  1.00  0.00     0.034 A 
BRANCH  47  61
ATOM     61  C   UNL     1      -1.429  10.709   3.449  1.00  0.00     0.023 A 
ATOM     62  C   UNL     1      -2.268  10.584   2.322  1.00  0.00     0.012 A 
ATOM     63  C   UNL     1      -0.725  11.909   3.659  1.00  0.00     0.148 A 
ATOM     64  C   UNL     1      -2.385  11.626   1.404  1.00  0.00     0.002 A 
ATOM     65  C   UNL     1      -0.876  12.959   2.759  1.00  0.00     0.091 A 
ATOM     66  F   UNL     1       0.085  11.998   4.723  1.00  0.00    -0.205 F 
ATOM     67  C   UNL     1      -1.698  12.816   1.628  1.00  0.00     0.022 A 
BRANCH  65  68
ATOM     68  S   UNL     1      -0.085  14.554   2.990  1.00  0.00     0.127 S 
ATOM     69  O   UNL     1       0.933  14.533   1.942  1.00  0.00    -0.237 OA
ATOM     70  O   UNL     1      -1.189  15.484   2.750  1.00  0.00    -0.237 OA
ATOM     71  O   UNL     1       0.423  14.556   4.355  1.00  0.00    -0.744 OA
ENDBRANCH  65  68
ENDBRANCH  47  61
BRANCH  48  72
ATOM     72  C   UNL     1      -0.567   2.958   9.644  1.00  0.00     0.023 A 
ATOM     73  C   UNL     1      -1.696   2.208  10.027  1.00  0.00     0.012 A 
ATOM     74  C   UNL     1       0.693   2.620  10.174  1.00  0.00     0.148 A 
ATOM     75  C   UNL     1      -1.580   1.167  10.949  1.00  0.00     0.002 A 
ATOM     76  C   UNL     1       0.811   1.549  11.052  1.00  0.00     0.091 A 
ATOM     77  F   UNL     1       1.753   3.359   9.816  1.00  0.00    -0.205 F 
ATOM     78  C   UNL     1      -0.326   0.832  11.454  1.00  0.00     0.022 A 
BRANCH  76  79
ATOM     79  S   UNL     1       2.404   0.978  11.656  1.00  0.00     0.127 S 
ATOM     80  O   UNL     1       2.397   1.470  13.031  1.00  0.00    -0.237 OA
ATOM     81  O   UNL     1       2.280  -0.474  11.520  1.00  0.00    -0.237 OA
ATOM     82  O   UNL     1       3.393   1.578  10.770  1.00  0.00    -0.744 OA
ENDBRANCH  76  79
ENDBRANCH  48  72
BRANCH  60  83
ATOM     83  C   UNL     1      -3.865   9.096  10.052  1.00  0.00     0.023 A 
ATOM     84  C   UNL     1      -3.228   9.570  11.216  1.00  0.00     0.012 A 
ATOM     85  C   UNL     1      -5.252   9.293   9.897  1.00  0.00     0.148 A 
ATOM     86  C   UNL     1      -3.962  10.193  12.225  1.00  0.00     0.002 A 
ATOM     87  C   UNL     1      -5.970   9.957  10.887  1.00  0.00     0.091 A 
ATOM     88  F   UNL     1      -5.848   8.820   8.793  1.00  0.00    -0.205 F 
ATOM     89  C   UNL     1      -5.330  10.396  12.056  1.00  0.00     0.022 A 
BRANCH  87  90
ATOM     90  S   UNL     1      -7.716  10.339  10.706  1.00  0.00     0.127 S 
ATOM     91  O   UNL     1      -8.338   9.293  11.515  1.00  0.00    -0.237 OA
ATOM     92  O   UNL     1      -7.806  11.685  11.276  1.00  0.00    -0.237 OA
ATOM     93  O   UNL     1      -7.987  10.277   9.275  1.00  0.00    -0.744 OA
ENDBRANCH  87  90
ENDBRANCH  60  83
ENDBRANCH  34  35
ENDBRANCH  27  29
ENDBRANCH  26  27
ENDBRANCH  25  26
ENDBRANCH   1  25
TORSDOF 18
