REMARK SMILES Cc1ccc(-c2cc(OCC(=O)OCCOC(=O)c3ccc(-c4c5nc(c(-c6cccc(S(=O)(=O)[O-])c6F)c6ccc([nH]6)c(-c6cccc(S(=O)(=O)[O-])c6F)c6nc(c(-c7cccc(S(=O)(=O)[O-])c7F)c7ccc4[nH]7)C=C6)C=C5)cc3)nc(NCc3ccc4c(c3)OCO4)n2)cc1
REMARK SMILES IDX 14 1 13 2 11 3 12 4 10 5 9 6 8 7 6 8 7 9 95 10 83 11 82 12
REMARK SMILES IDX 5 13 1 14 2 15 3 16 97 17 4 18 96 19 84 20 85 22 86 23 87 24
REMARK SMILES IDX 91 25 88 26 90 27 89 28 92 29 94 30 93 31 15 32 16 33 17 34
REMARK SMILES IDX 18 35 19 36 20 37 81 38 21 39 80 40 22 41 23 42 24 43 74 44
REMARK SMILES IDX 25 45 79 46 73 47 75 48 26 49 78 50 72 51 71 52 27 54 59 55
REMARK SMILES IDX 39 56 58 57 40 58 43 59 57 60 76 61 41 62 42 63 56 65 77 66
REMARK SMILES IDX 44 67 28 68 29 69 37 70 30 71 32 72 38 73 31 74 33 75 34 76
REMARK SMILES IDX 35 77 36 78 60 79 61 80 69 81 62 82 64 83 70 84 63 85 65 86
REMARK SMILES IDX 66 87 67 88 68 89 45 90 46 91 54 92 47 93 49 94 55 95 48 96
REMARK SMILES IDX 50 97 51 98 52 99 53 100
REMARK H PARENT 84 21 75 53 43 64
REMARK Flexibility Score: inf
ROOT
ATOM      1  C   UNL     1      -3.069   5.671  -0.941  1.00  0.00     0.274 C 
ENDROOT
BRANCH   1   2
ATOM      2  O   UNL     1      -4.199   5.135  -1.647  1.00  0.00    -0.460 OA
BRANCH   2   3
ATOM      3  C   UNL     1      -4.045   3.854  -2.340  1.00  0.00     0.344 C 
ATOM      4  O   UNL     1      -2.850   3.842  -2.748  1.00  0.00    -0.248 OA
BRANCH   3   5
ATOM      5  C   UNL     1      -5.562   2.279  -2.287  1.00  0.00     0.353 C 
BRANCH   5   6
ATOM      6  O   UNL     1      -5.642   0.708  -1.998  1.00  0.00    -0.466 OA
BRANCH   6   7
ATOM      7  C   UNL     1      -5.199   0.113  -0.810  1.00  0.00     0.219 A 
ATOM      8  C   UNL     1      -3.338  -0.677   0.370  1.00  0.00     0.080 A 
ATOM      9  C   UNL     1      -3.951  -0.487  -0.851  1.00  0.00     0.097 A 
ATOM     10  N   UNL     1      -4.036  -0.601   1.507  1.00  0.00    -0.213 NA
ATOM     11  C   UNL     1      -5.341  -0.316   1.423  1.00  0.00     0.226 A 
ATOM     12  N   UNL     1      -5.939   0.175   0.317  1.00  0.00    -0.177 NA
BRANCH   8  13
ATOM     13  C   UNL     1      -1.871  -0.726   0.526  1.00  0.00     0.000 A 
ATOM     14  C   UNL     1       2.402  -0.206   0.025  1.00  0.00     0.044 C 
ATOM     15  C   UNL     1       0.941  -0.425   0.284  1.00  0.00    -0.051 A 
ATOM     16  C   UNL     1       0.305  -1.609  -0.111  1.00  0.00     0.004 A 
ATOM     17  C   UNL     1       0.185   0.548   0.930  1.00  0.00     0.004 A 
ATOM     18  C   UNL     1      -1.090  -1.742  -0.025  1.00  0.00     0.010 A 
ATOM     19  C   UNL     1      -1.190   0.357   1.117  1.00  0.00     0.010 A 
ENDBRANCH   8  13
BRANCH  11  20
ATOM     20  N   UNL     1      -6.106  -0.598   2.537  1.00  0.00    -0.350 N 
ATOM     21  H   UNL     1      -6.948  -0.117   2.707  1.00  0.00     0.164 HD
BRANCH  20  22
ATOM     22  C   UNL     1      -5.634  -1.629   3.454  1.00  0.00     0.152 C 
BRANCH  22  23
ATOM     23  C   UNL     1      -6.013  -3.047   3.046  1.00  0.00    -0.025 A 
ATOM     24  C   UNL     1      -5.394  -4.148   3.703  1.00  0.00     0.009 A 
ATOM     25  C   UNL     1      -6.923  -3.308   2.009  1.00  0.00     0.056 A 
ATOM     26  C   UNL     1      -5.616  -5.470   3.288  1.00  0.00     0.051 A 
ATOM     27  C   UNL     1      -7.084  -4.610   1.594  1.00  0.00     0.166 A 
ATOM     28  C   UNL     1      -6.436  -5.661   2.201  1.00  0.00     0.165 A 
ATOM     29  O   UNL     1      -7.811  -5.010   0.514  1.00  0.00    -0.454 OA
ATOM     30  O   UNL     1      -6.661  -6.838   1.552  1.00  0.00    -0.454 OA
ATOM     31  C   UNL     1      -7.266  -6.330   0.342  1.00  0.00     0.468 C 
ENDBRANCH  22  23
ENDBRANCH  20  22
ENDBRANCH  11  20
ENDBRANCH   6   7
ENDBRANCH   5   6
ENDBRANCH   3   5
ENDBRANCH   2   3
ENDBRANCH   1   2
BRANCH   1  32
ATOM     32  C   UNL     1      -2.900   4.952   0.406  1.00  0.00     0.275 C 
BRANCH  32  33
ATOM     33  O   UNL     1      -2.288   3.644   0.408  1.00  0.00    -0.458 OA
BRANCH  33  34
ATOM     34  C   UNL     1      -2.533   2.633  -0.444  1.00  0.00     0.338 C 
ATOM     35  O   UNL     1      -1.602   1.987  -0.913  1.00  0.00    -0.246 OA
BRANCH  34  36
ATOM     36  C   UNL     1      -3.896   2.365  -1.006  1.00  0.00     0.060 A 
ATOM     37  C   UNL     1      -3.596   1.824  -2.729  1.00  0.00     0.016 A 
ATOM     38  C   UNL     1      -5.265   3.495  -0.659  1.00  0.00     0.016 A 
ATOM     39  C   UNL     1      -4.411   2.645  -4.074  1.00  0.00     0.010 A 
ATOM     40  C   UNL     1      -6.110   4.296  -2.070  1.00  0.00     0.010 A 
ATOM     41  C   UNL     1      -5.553   3.946  -3.745  1.00  0.00    -0.014 A 
BRANCH  41  42
ATOM     42  C   UNL     1      -5.389   5.161  -4.577  1.00  0.00     0.031 A 
ATOM     43  C   UNL     1      -6.635   5.620  -5.179  1.00  0.00     0.074 A 
ATOM     44  C   UNL     1      -4.223   5.877  -4.651  1.00  0.00     0.049 A 
ATOM     45  N   UNL     1      -6.694   6.387  -6.201  1.00  0.00    -0.248 NA
ATOM     46  C   UNL     1      -7.938   5.115  -4.751  1.00  0.00     0.031 C 
ATOM     47  C   UNL     1      -4.073   7.317  -4.883  1.00  0.00     0.029 A 
ATOM     48  N   UNL     1      -2.886   5.493  -4.508  1.00  0.00    -0.354 N 
ATOM     49  C   UNL     1      -8.008   6.782  -6.295  1.00  0.00     0.074 A 
ATOM     50  C   UNL     1      -8.751   5.807  -5.548  1.00  0.00     0.031 C 
ATOM     51  C   UNL     1      -2.772   7.628  -5.054  1.00  0.00     0.029 A 
ATOM     52  C   UNL     1      -2.022   6.391  -5.121  1.00  0.00     0.049 A 
ATOM     53  H   UNL     1      -2.593   4.683  -4.030  1.00  0.00     0.167 HD
ATOM     54  C   UNL     1      -8.255   8.028  -6.777  1.00  0.00     0.034 A 
ATOM     55  C   UNL     1      -1.081   6.065  -6.060  1.00  0.00     0.034 A 
ATOM     56  C   UNL     1      -6.984   8.644  -7.220  1.00  0.00     0.049 A 
ATOM     57  C   UNL     1      -1.525   6.617  -7.414  1.00  0.00     0.074 A 
ATOM     58  C   UNL     1      -6.115   9.557  -6.643  1.00  0.00     0.029 A 
ATOM     59  N   UNL     1      -6.256   8.016  -8.227  1.00  0.00    -0.354 N 
ATOM     60  N   UNL     1      -2.617   7.309  -7.594  1.00  0.00    -0.248 NA
ATOM     61  C   UNL     1      -0.809   6.409  -8.668  1.00  0.00     0.031 C 
ATOM     62  C   UNL     1      -4.859   9.462  -7.316  1.00  0.00     0.029 A 
ATOM     63  C   UNL     1      -4.964   8.511  -8.318  1.00  0.00     0.049 A 
ATOM     64  H   UNL     1      -6.616   7.305  -8.805  1.00  0.00     0.167 HD
ATOM     65  C   UNL     1      -2.862   7.495  -8.926  1.00  0.00     0.074 A 
ATOM     66  C   UNL     1      -1.651   6.979  -9.550  1.00  0.00     0.031 C 
ATOM     67  C   UNL     1      -4.062   8.007  -9.365  1.00  0.00     0.034 A 
BRANCH  54  68
ATOM     68  C   UNL     1      -9.543   8.807  -6.557  1.00  0.00     0.023 A 
ATOM     69  C   UNL     1      -9.469  10.203  -6.747  1.00  0.00     0.012 A 
ATOM     70  C   UNL     1     -10.810   8.310  -6.152  1.00  0.00     0.148 A 
ATOM     71  C   UNL     1     -10.550  11.058  -6.512  1.00  0.00     0.002 A 
ATOM     72  C   UNL     1     -11.886   9.165  -5.887  1.00  0.00     0.091 A 
ATOM     73  F   UNL     1     -11.027   6.998  -6.067  1.00  0.00    -0.205 F 
ATOM     74  C   UNL     1     -11.757  10.542  -6.069  1.00  0.00     0.022 A 
BRANCH  72  75
ATOM     75  S   UNL     1     -13.479   8.578  -5.272  1.00  0.00     0.127 S 
ATOM     76  O   UNL     1     -13.693   9.434  -4.103  1.00  0.00    -0.237 OA
ATOM     77  O   UNL     1     -14.371   8.855  -6.396  1.00  0.00    -0.237 OA
ATOM     78  O   UNL     1     -13.303   7.167  -4.948  1.00  0.00    -0.744 OA
ENDBRANCH  72  75
ENDBRANCH  54  68
BRANCH  55  79
ATOM     79  C   UNL     1      -0.439   4.726  -5.851  1.00  0.00     0.023 A 
ATOM     80  C   UNL     1       0.238   4.505  -4.627  1.00  0.00     0.012 A 
ATOM     81  C   UNL     1      -0.908   3.621  -6.565  1.00  0.00     0.148 A 
ATOM     82  C   UNL     1       0.198   3.247  -4.017  1.00  0.00     0.002 A 
ATOM     83  C   UNL     1      -1.005   2.391  -5.930  1.00  0.00     0.091 A 
ATOM     84  F   UNL     1      -1.342   3.783  -7.821  1.00  0.00    -0.205 F 
ATOM     85  C   UNL     1      -0.487   2.206  -4.640  1.00  0.00     0.022 A 
BRANCH  83  86
ATOM     86  S   UNL     1      -2.090   1.162  -6.668  1.00  0.00     0.127 S 
ATOM     87  O   UNL     1      -2.425   0.295  -5.538  1.00  0.00    -0.237 OA
ATOM     88  O   UNL     1      -3.212   1.954  -7.159  1.00  0.00    -0.237 OA
ATOM     89  O   UNL     1      -1.235   0.556  -7.682  1.00  0.00    -0.744 OA
ENDBRANCH  83  86
ENDBRANCH  55  79
BRANCH  67  90
ATOM     90  C   UNL     1      -4.531   8.101 -10.820  1.00  0.00     0.023 A 
ATOM     91  C   UNL     1      -3.808   7.557 -11.893  1.00  0.00     0.012 A 
ATOM     92  C   UNL     1      -5.775   8.707 -11.167  1.00  0.00     0.148 A 
ATOM     93  C   UNL     1      -4.237   7.659 -13.221  1.00  0.00     0.002 A 
ATOM     94  C   UNL     1      -6.262   8.691 -12.470  1.00  0.00     0.091 A 
ATOM     95  F   UNL     1      -6.490   9.369 -10.251  1.00  0.00    -0.205 F 
ATOM     96  C   UNL     1      -5.476   8.204 -13.509  1.00  0.00     0.022 A 
BRANCH  94  97
ATOM     97  S   UNL     1      -7.937   9.209 -12.867  1.00  0.00     0.127 S 
ATOM     98  O   UNL     1      -7.700  10.494 -13.522  1.00  0.00    -0.237 OA
ATOM     99  O   UNL     1      -8.379   8.139 -13.763  1.00  0.00    -0.237 OA
ATOM    100  O   UNL     1      -8.652   9.263 -11.600  1.00  0.00    -0.744 OA
ENDBRANCH  94  97
ENDBRANCH  67  90
ENDBRANCH  41  42
ENDBRANCH  34  36
ENDBRANCH  33  34
ENDBRANCH  32  33
ENDBRANCH   1  32
TORSDOF 20
