REMARK SMILES Cc1nc2cc(C(=O)OCCOC(=O)c3ccc(-c4c5nc(c(-c6cccc(S(=O)(=O)[O-])c6F)c6ccc([nH]6)c(-c6cccc(S(=O)(=O)[O-])c6F)c6nc(c(-c7cccc(S(=O)(=O)[O-])c7F)c7ccc4[nH]7)C=C6)C=C5)cc3)ccc2n1CCC[NH+]1CCOCC1
REMARK SMILES IDX 10 1 9 2 7 3 8 4 6 5 1 6 2 7 3 8 81 9 4 10 80 11 5 12 79 13
REMARK SMILES IDX 78 14 82 15 83 16 84 17 85 18 86 19 90 20 87 22 89 23 88 24
REMARK SMILES IDX 11 25 12 26 13 27 14 28 15 29 16 30 77 31 17 32 76 33 18 34
REMARK SMILES IDX 19 35 20 36 70 37 21 38 75 39 69 40 71 41 22 42 74 43 68 44
REMARK SMILES IDX 67 45 23 47 55 48 35 49 54 50 36 51 39 52 53 53 72 54 37 55
REMARK SMILES IDX 38 56 52 58 73 59 40 60 24 61 25 62 33 63 26 64 28 65 34 66
REMARK SMILES IDX 27 67 29 68 30 69 31 70 32 71 56 72 57 73 65 74 58 75 60 76
REMARK SMILES IDX 66 77 59 78 61 79 62 80 63 81 64 82 41 83 42 84 50 85 43 86
REMARK SMILES IDX 45 87 51 88 44 89 46 90 47 91 48 92 49 93
REMARK H PARENT 85 21 71 46 39 57
REMARK Flexibility Score: inf
ROOT
ATOM      1  C   UNL     1      -1.863   8.118  -4.580  1.00  0.00     0.275 C 
ENDROOT
BRANCH   1   2
ATOM      2  O   UNL     1      -0.981   7.380  -3.698  1.00  0.00    -0.458 OA
BRANCH   2   3
ATOM      3  C   UNL     1      -1.522   7.006  -2.508  1.00  0.00     0.338 C 
ATOM      4  O   UNL     1      -2.651   7.260  -2.120  1.00  0.00    -0.246 OA
BRANCH   3   5
ATOM      5  C   UNL     1      -0.630   6.047  -1.815  1.00  0.00     0.062 A 
ATOM      6  C   UNL     1       0.751   0.402  -1.017  1.00  0.00     0.088 C 
ATOM      7  C   UNL     1       0.433   1.821  -0.748  1.00  0.00     0.106 A 
ATOM      8  N   UNL     1      -0.655   2.401  -1.193  1.00  0.00    -0.233 NA
ATOM      9  N   UNL     1       1.252   2.753  -0.135  1.00  0.00    -0.328 N 
ATOM     10  C   UNL     1      -0.386   3.732  -1.171  1.00  0.00     0.090 A 
ATOM     11  C   UNL     1       0.849   4.000  -0.598  1.00  0.00     0.068 A 
ATOM     12  C   UNL     1      -1.135   4.764  -1.727  1.00  0.00     0.046 A 
ATOM     13  C   UNL     1       1.370   5.310  -0.606  1.00  0.00     0.029 A 
ATOM     14  C   UNL     1       0.619   6.324  -1.265  1.00  0.00     0.018 A 
BRANCH   9  15
ATOM     15  C   UNL     1       2.350   2.454   0.773  1.00  0.00     0.130 C 
BRANCH  15  16
ATOM     16  C   UNL     1       1.899   1.947   2.150  1.00  0.00     0.083 C 
BRANCH  16  17
ATOM     17  C   UNL     1       1.724   0.428   2.321  1.00  0.00     0.264 C 
BRANCH  17  18
ATOM     18  N   UNL     1       3.010  -0.311   2.287  1.00  0.00    -0.331 N 
ATOM     19  C   UNL     1       3.096  -1.287   1.173  1.00  0.00     0.291 C 
ATOM     20  C   UNL     1       3.176  -1.090   3.546  1.00  0.00     0.291 C 
ATOM     21  H   UNL     1       3.733   0.397   2.164  1.00  0.00     0.348 HD
ATOM     22  C   UNL     1       2.194  -2.528   1.313  1.00  0.00     0.221 C 
ATOM     23  C   UNL     1       2.279  -2.342   3.642  1.00  0.00     0.221 C 
ATOM     24  O   UNL     1       2.514  -3.217   2.529  1.00  0.00    -0.370 OA
ENDBRANCH  17  18
ENDBRANCH  16  17
ENDBRANCH  15  16
ENDBRANCH   9  15
ENDBRANCH   3   5
ENDBRANCH   2   3
ENDBRANCH   1   2
BRANCH   1  25
ATOM     25  C   UNL     1      -1.806   7.541  -6.000  1.00  0.00     0.275 C 
BRANCH  25  26
ATOM     26  O   UNL     1      -2.648   6.381  -6.042  1.00  0.00    -0.458 OA
BRANCH  26  27
ATOM     27  C   UNL     1      -2.037   5.199  -6.329  1.00  0.00     0.338 C 
ATOM     28  O   UNL     1      -1.009   5.034  -6.925  1.00  0.00    -0.246 OA
BRANCH  27  29
ATOM     29  C   UNL     1      -2.722   4.197  -5.475  1.00  0.00     0.060 A 
ATOM     30  C   UNL     1      -4.080   4.305  -5.136  1.00  0.00     0.016 A 
ATOM     31  C   UNL     1      -1.901   3.296  -4.816  1.00  0.00     0.016 A 
ATOM     32  C   UNL     1      -4.569   3.663  -3.996  1.00  0.00     0.010 A 
ATOM     33  C   UNL     1      -2.414   2.627  -3.716  1.00  0.00     0.010 A 
ATOM     34  C   UNL     1      -3.704   2.897  -3.220  1.00  0.00    -0.014 A 
BRANCH  34  35
ATOM     35  C   UNL     1      -4.130   2.306  -1.938  1.00  0.00     0.031 A 
ATOM     36  C   UNL     1      -4.284   0.837  -2.008  1.00  0.00     0.074 A 
ATOM     37  C   UNL     1      -4.238   2.885  -0.715  1.00  0.00     0.049 A 
ATOM     38  N   UNL     1      -5.392   0.195  -2.198  1.00  0.00    -0.248 NA
ATOM     39  C   UNL     1      -3.082  -0.004  -2.023  1.00  0.00     0.031 C 
ATOM     40  C   UNL     1      -3.904   4.244  -0.282  1.00  0.00     0.029 A 
ATOM     41  N   UNL     1      -4.570   2.285   0.476  1.00  0.00    -0.354 N 
ATOM     42  C   UNL     1      -5.031  -1.140  -2.147  1.00  0.00     0.074 A 
ATOM     43  C   UNL     1      -3.600  -1.197  -2.309  1.00  0.00     0.031 C 
ATOM     44  C   UNL     1      -3.755   4.275   1.066  1.00  0.00     0.029 A 
ATOM     45  C   UNL     1      -4.204   3.009   1.613  1.00  0.00     0.049 A 
ATOM     46  H   UNL     1      -5.028   1.415   0.524  1.00  0.00     0.167 HD
ATOM     47  C   UNL     1      -5.858  -2.103  -1.665  1.00  0.00     0.034 A 
ATOM     48  C   UNL     1      -4.282   2.586   2.901  1.00  0.00     0.034 A 
ATOM     49  C   UNL     1      -7.173  -1.622  -1.363  1.00  0.00     0.049 A 
ATOM     50  C   UNL     1      -5.339   1.547   2.918  1.00  0.00     0.074 A 
ATOM     51  C   UNL     1      -8.200  -1.028  -2.065  1.00  0.00     0.029 A 
ATOM     52  N   UNL     1      -7.417  -1.389  -0.032  1.00  0.00    -0.354 N 
ATOM     53  N   UNL     1      -6.606   1.786   2.723  1.00  0.00    -0.248 NA
ATOM     54  C   UNL     1      -4.960   0.142   2.924  1.00  0.00     0.031 C 
ATOM     55  C   UNL     1      -8.836  -0.149  -1.139  1.00  0.00     0.029 A 
ATOM     56  C   UNL     1      -8.173  -0.254   0.085  1.00  0.00     0.049 A 
ATOM     57  H   UNL     1      -7.099  -1.946   0.715  1.00  0.00     0.167 HD
ATOM     58  C   UNL     1      -7.083   0.624   2.141  1.00  0.00     0.074 A 
ATOM     59  C   UNL     1      -6.092  -0.393   2.462  1.00  0.00     0.031 C 
ATOM     60  C   UNL     1      -8.068   0.668   1.199  1.00  0.00     0.034 A 
BRANCH  47  61
ATOM     61  C   UNL     1      -5.336  -3.386  -1.100  1.00  0.00     0.023 A 
ATOM     62  C   UNL     1      -6.133  -4.537  -1.191  1.00  0.00     0.012 A 
ATOM     63  C   UNL     1      -4.153  -3.458  -0.333  1.00  0.00     0.148 A 
ATOM     64  C   UNL     1      -5.732  -5.733  -0.589  1.00  0.00     0.002 A 
ATOM     65  C   UNL     1      -3.704  -4.668   0.166  1.00  0.00     0.091 A 
ATOM     66  F   UNL     1      -3.513  -2.328   0.003  1.00  0.00    -0.205 F 
ATOM     67  C   UNL     1      -4.499  -5.810   0.057  1.00  0.00     0.022 A 
BRANCH  65  68
ATOM     68  S   UNL     1      -2.064  -4.811   0.883  1.00  0.00     0.127 S 
ATOM     69  O   UNL     1      -2.362  -4.763   2.310  1.00  0.00    -0.237 OA
ATOM     70  O   UNL     1      -1.625  -6.112   0.377  1.00  0.00    -0.237 OA
ATOM     71  O   UNL     1      -1.317  -3.681   0.337  1.00  0.00    -0.744 OA
ENDBRANCH  65  68
ENDBRANCH  47  61
BRANCH  48  72
ATOM     72  C   UNL     1      -3.545   2.914   4.154  1.00  0.00     0.023 A 
ATOM     73  C   UNL     1      -4.111   2.518   5.391  1.00  0.00     0.012 A 
ATOM     74  C   UNL     1      -2.188   3.301   4.152  1.00  0.00     0.148 A 
ATOM     75  C   UNL     1      -3.343   2.422   6.557  1.00  0.00     0.002 A 
ATOM     76  C   UNL     1      -1.427   3.216   5.324  1.00  0.00     0.091 A 
ATOM     77  F   UNL     1      -1.615   3.655   2.994  1.00  0.00    -0.205 F 
ATOM     78  C   UNL     1      -1.997   2.756   6.520  1.00  0.00     0.022 A 
BRANCH  76  79
ATOM     79  S   UNL     1       0.329   3.610   5.364  1.00  0.00     0.127 S 
ATOM     80  O   UNL     1       0.482   4.250   6.672  1.00  0.00    -0.237 OA
ATOM     81  O   UNL     1       0.939   2.287   5.261  1.00  0.00    -0.237 OA
ATOM     82  O   UNL     1       0.555   4.504   4.235  1.00  0.00    -0.744 OA
ENDBRANCH  76  79
ENDBRANCH  48  72
BRANCH  60  83
ATOM     83  C   UNL     1      -8.930   1.901   1.132  1.00  0.00     0.023 A 
ATOM     84  C   UNL     1      -8.425   3.155   0.736  1.00  0.00     0.012 A 
ATOM     85  C   UNL     1     -10.316   1.746   1.310  1.00  0.00     0.148 A 
ATOM     86  C   UNL     1      -9.287   4.236   0.529  1.00  0.00     0.002 A 
ATOM     87  C   UNL     1     -11.173   2.810   1.062  1.00  0.00     0.091 A 
ATOM     88  F   UNL     1     -10.774   0.541   1.683  1.00  0.00    -0.205 F 
ATOM     89  C   UNL     1     -10.662   4.060   0.678  1.00  0.00     0.022 A 
BRANCH  87  90
ATOM     90  S   UNL     1     -12.958   2.627   1.120  1.00  0.00     0.127 S 
ATOM     91  O   UNL     1     -13.317   3.469   2.259  1.00  0.00    -0.237 OA
ATOM     92  O   UNL     1     -13.366   3.154  -0.183  1.00  0.00    -0.237 OA
ATOM     93  O   UNL     1     -13.216   1.203   1.297  1.00  0.00    -0.744 OA
ENDBRANCH  87  90
ENDBRANCH  60  83
ENDBRANCH  34  35
ENDBRANCH  27  29
ENDBRANCH  26  27
ENDBRANCH  25  26
ENDBRANCH   1  25
TORSDOF 18
