REMARK SMILES COc1cccc(CSc2nc3ccccc3c(=O)n2CCC(=O)OCCOC(=O)c2ccc(-c3c4nc(c(-c5cccc(S(=O)(=O)[O-])c5F)c5ccc([nH]5)c(-c5cccc(S(=O)(=O)[O-])c5F)c5nc(c(-c6cccc(S(=O)(=O)[O-])c6F)c6ccc3[nH]6)C=C5)C=C4)cc2)c1
REMARK SMILES IDX 25 1 23 2 24 3 22 4 21 5 20 6 10 7 11 8 12 9 18 10 13 11
REMARK SMILES IDX 17 12 19 13 14 14 16 15 15 16 9 17 8 18 7 19 3 20 4 21 94 22
REMARK SMILES IDX 5 23 6 24 2 25 1 26 26 27 27 28 28 29 29 30 30 31 31 32
REMARK SMILES IDX 32 33 93 34 33 35 92 36 34 37 35 38 36 39 86 40 37 41 91 42
REMARK SMILES IDX 85 43 87 44 38 45 90 46 84 47 83 48 39 50 71 51 51 52 70 53
REMARK SMILES IDX 52 54 55 55 69 56 88 57 53 58 54 59 68 61 89 62 56 63 40 64
REMARK SMILES IDX 41 65 49 66 42 67 44 68 50 69 43 70 45 71 46 72 47 73 48 74
REMARK SMILES IDX 72 75 73 76 81 77 74 78 76 79 82 80 75 81 77 82 78 83 79 84
REMARK SMILES IDX 80 85 57 86 58 87 66 88 59 89 61 90 67 91 60 92 62 93 63 94
REMARK SMILES IDX 64 95 65 96
REMARK H PARENT 87 49 55 60
REMARK Flexibility Score: inf
ROOT
ATOM      1  O   UNL     1       5.663  -1.562  -4.240  1.00  0.00    -0.462 OA
ENDROOT
BRANCH   1   2
ATOM      2  C   UNL     1       6.274  -1.948  -3.095  1.00  0.00     0.307 C 
ATOM      3  O   UNL     1       7.471  -2.194  -2.995  1.00  0.00    -0.252 OA
BRANCH   2   4
ATOM      4  C   UNL     1       5.346  -1.962  -1.901  1.00  0.00     0.144 C 
BRANCH   4   5
ATOM      5  C   UNL     1       3.868  -2.333  -2.082  1.00  0.00     0.140 C 
BRANCH   5   6
ATOM      6  N   UNL     1       3.571  -3.563  -2.805  1.00  0.00    -0.286 N 
ATOM      7  C   UNL     1       3.753  -3.766  -4.152  1.00  0.00     0.171 A 
ATOM      8  N   UNL     1       4.329  -4.844  -4.595  1.00  0.00    -0.224 NA
ATOM      9  C   UNL     1       4.562  -5.880  -3.677  1.00  0.00     0.079 A 
ATOM     10  C   UNL     1       3.238  -4.673  -2.039  1.00  0.00     0.262 A 
ATOM     11  C   UNL     1       5.408  -6.942  -3.986  1.00  0.00     0.029 A 
ATOM     12  C   UNL     1       3.817  -5.944  -2.502  1.00  0.00     0.066 A 
ATOM     13  O   UNL     1       2.583  -4.637  -1.003  1.00  0.00    -0.269 OA
ATOM     14  C   UNL     1       5.429  -8.082  -3.172  1.00  0.00     0.002 A 
ATOM     15  C   UNL     1       3.766  -7.102  -1.724  1.00  0.00     0.016 A 
ATOM     16  C   UNL     1       4.570  -8.183  -2.074  1.00  0.00     0.001 A 
BRANCH   7  17
ATOM     17  S   UNL     1       3.042  -2.773  -5.404  1.00  0.00    -0.083 SA
BRANCH  17  18
ATOM     18  C   UNL     1       2.528  -1.150  -4.827  1.00  0.00     0.113 C 
BRANCH  18  19
ATOM     19  C   UNL     1       1.173  -1.083  -4.170  1.00  0.00    -0.034 A 
ATOM     20  C   UNL     1      -0.228  -0.672  -2.215  1.00  0.00     0.119 A 
ATOM     21  C   UNL     1      -1.336  -1.114  -2.935  1.00  0.00     0.046 A 
ATOM     22  C   UNL     1       1.008  -0.602  -2.856  1.00  0.00     0.051 A 
ATOM     23  C   UNL     1      -1.215  -1.476  -4.276  1.00  0.00     0.004 A 
ATOM     24  C   UNL     1       0.035  -1.470  -4.887  1.00  0.00     0.005 A 
BRANCH  20  25
ATOM     25  O   UNL     1      -0.477  -0.366  -0.906  1.00  0.00    -0.497 OA
ATOM     26  C   UNL     1       0.603   0.116  -0.117  1.00  0.00     0.278 C 
ENDBRANCH  20  25
ENDBRANCH  18  19
ENDBRANCH  17  18
ENDBRANCH   7  17
ENDBRANCH   5   6
ENDBRANCH   4   5
ENDBRANCH   2   4
ENDBRANCH   1   2
BRANCH   1  27
ATOM     27  C   UNL     1       6.527  -1.461  -5.393  1.00  0.00     0.274 C 
BRANCH  27  28
ATOM     28  C   UNL     1       5.806  -0.771  -6.566  1.00  0.00     0.275 C 
BRANCH  28  29
ATOM     29  O   UNL     1       4.899   0.286  -6.194  1.00  0.00    -0.458 OA
BRANCH  29  30
ATOM     30  C   UNL     1       5.364   1.204  -5.322  1.00  0.00     0.338 C 
ATOM     31  O   UNL     1       6.507   1.308  -4.904  1.00  0.00    -0.246 OA
BRANCH  30  32
ATOM     32  C   UNL     1       4.235   1.969  -4.766  1.00  0.00     0.060 A 
ATOM     33  C   UNL     1       4.087   1.983  -3.376  1.00  0.00     0.016 A 
ATOM     34  C   UNL     1       3.408   2.747  -5.579  1.00  0.00     0.016 A 
ATOM     35  C   UNL     1       3.169   2.851  -2.787  1.00  0.00     0.010 A 
ATOM     36  C   UNL     1       2.543   3.673  -4.982  1.00  0.00     0.010 A 
ATOM     37  C   UNL     1       2.475   3.781  -3.582  1.00  0.00    -0.014 A 
BRANCH  37  38
ATOM     38  C   UNL     1       1.968   5.031  -2.945  1.00  0.00     0.031 A 
ATOM     39  C   UNL     1       0.520   5.419  -2.932  1.00  0.00     0.074 A 
ATOM     40  C   UNL     1       2.889   5.875  -2.429  1.00  0.00     0.049 A 
ATOM     41  N   UNL     1      -0.032   6.488  -2.415  1.00  0.00    -0.248 NA
ATOM     42  C   UNL     1      -0.428   4.509  -3.588  1.00  0.00     0.031 C 
ATOM     43  C   UNL     1       4.340   5.656  -2.459  1.00  0.00     0.029 A 
ATOM     44  N   UNL     1       2.757   7.083  -1.792  1.00  0.00    -0.354 N 
ATOM     45  C   UNL     1      -1.387   6.403  -2.706  1.00  0.00     0.074 A 
ATOM     46  C   UNL     1      -1.571   5.172  -3.452  1.00  0.00     0.031 C 
ATOM     47  C   UNL     1       4.957   6.672  -1.844  1.00  0.00     0.029 A 
ATOM     48  C   UNL     1       3.959   7.647  -1.429  1.00  0.00     0.049 A 
ATOM     49  H   UNL     1       1.886   7.506  -1.612  1.00  0.00     0.167 HD
ATOM     50  C   UNL     1      -2.382   7.263  -2.373  1.00  0.00     0.034 A 
ATOM     51  C   UNL     1       4.243   8.827  -0.846  1.00  0.00     0.034 A 
ATOM     52  C   UNL     1      -2.194   8.482  -1.621  1.00  0.00     0.049 A 
ATOM     53  C   UNL     1       3.117   9.740  -0.464  1.00  0.00     0.074 A 
ATOM     54  C   UNL     1      -3.156   9.375  -1.177  1.00  0.00     0.029 A 
ATOM     55  N   UNL     1      -0.969   8.993  -1.217  1.00  0.00    -0.354 N 
ATOM     56  N   UNL     1       1.828   9.565  -0.615  1.00  0.00    -0.248 NA
ATOM     57  C   UNL     1       3.483  10.999   0.197  1.00  0.00     0.031 C 
ATOM     58  C   UNL     1      -2.512  10.439  -0.534  1.00  0.00     0.029 A 
ATOM     59  C   UNL     1      -1.150  10.193  -0.542  1.00  0.00     0.049 A 
ATOM     60  H   UNL     1      -0.098   8.567  -1.385  1.00  0.00     0.167 HD
ATOM     61  C   UNL     1       1.226  10.679  -0.046  1.00  0.00     0.074 A 
ATOM     62  C   UNL     1       2.292  11.503   0.486  1.00  0.00     0.031 C 
ATOM     63  C   UNL     1      -0.091  10.997   0.015  1.00  0.00     0.034 A 
BRANCH  50  64
ATOM     64  C   UNL     1      -3.788   6.909  -2.789  1.00  0.00     0.023 A 
ATOM     65  C   UNL     1      -4.462   5.854  -2.140  1.00  0.00     0.012 A 
ATOM     66  C   UNL     1      -4.473   7.670  -3.758  1.00  0.00     0.148 A 
ATOM     67  C   UNL     1      -5.781   5.543  -2.469  1.00  0.00     0.002 A 
ATOM     68  C   UNL     1      -5.802   7.382  -4.050  1.00  0.00     0.091 A 
ATOM     69  F   UNL     1      -3.814   8.661  -4.376  1.00  0.00    -0.205 F 
ATOM     70  C   UNL     1      -6.454   6.312  -3.414  1.00  0.00     0.022 A 
BRANCH  68  71
ATOM     71  S   UNL     1      -6.781   8.364  -5.193  1.00  0.00     0.127 S 
ATOM     72  O   UNL     1      -6.931   7.443  -6.319  1.00  0.00    -0.237 OA
ATOM     73  O   UNL     1      -8.007   8.595  -4.429  1.00  0.00    -0.237 OA
ATOM     74  O   UNL     1      -6.000   9.562  -5.465  1.00  0.00    -0.744 OA
ENDBRANCH  68  71
ENDBRANCH  50  64
BRANCH  51  75
ATOM     75  C   UNL     1       5.659   9.188  -0.554  1.00  0.00     0.023 A 
ATOM     76  C   UNL     1       6.100   9.242   0.782  1.00  0.00     0.012 A 
ATOM     77  C   UNL     1       6.576   9.442  -1.592  1.00  0.00     0.148 A 
ATOM     78  C   UNL     1       7.421   9.575   1.080  1.00  0.00     0.002 A 
ATOM     79  C   UNL     1       7.905   9.710  -1.291  1.00  0.00     0.091 A 
ATOM     80  F   UNL     1       6.133   9.395  -2.857  1.00  0.00    -0.205 F 
ATOM     81  C   UNL     1       8.326   9.797   0.045  1.00  0.00     0.022 A 
BRANCH  79  82
ATOM     82  S   UNL     1       9.165   9.866  -2.561  1.00  0.00     0.127 S 
ATOM     83  O   UNL     1       9.463  11.294  -2.511  1.00  0.00    -0.237 OA
ATOM     84  O   UNL     1      10.222   8.996  -2.044  1.00  0.00    -0.237 OA
ATOM     85  O   UNL     1       8.544   9.390  -3.789  1.00  0.00    -0.744 OA
ENDBRANCH  79  82
ENDBRANCH  51  75
BRANCH  63  86
ATOM     86  C   UNL     1      -0.453  12.286   0.709  1.00  0.00     0.023 A 
ATOM     87  C   UNL     1      -0.121  13.522   0.117  1.00  0.00     0.012 A 
ATOM     88  C   UNL     1      -1.133  12.275   1.942  1.00  0.00     0.148 A 
ATOM     89  C   UNL     1      -0.413  14.723   0.765  1.00  0.00     0.002 A 
ATOM     90  C   UNL     1      -1.469  13.476   2.557  1.00  0.00     0.091 A 
ATOM     91  F   UNL     1      -1.421  11.092   2.505  1.00  0.00    -0.205 F 
ATOM     92  C   UNL     1      -1.095  14.700   1.979  1.00  0.00     0.022 A 
BRANCH  90  93
ATOM     93  S   UNL     1      -2.426  13.542   4.075  1.00  0.00     0.127 S 
ATOM     94  O   UNL     1      -1.400  13.879   5.061  1.00  0.00    -0.237 OA
ATOM     95  O   UNL     1      -3.379  14.617   3.796  1.00  0.00    -0.237 OA
ATOM     96  O   UNL     1      -3.031  12.225   4.222  1.00  0.00    -0.744 OA
ENDBRANCH  90  93
ENDBRANCH  63  86
ENDBRANCH  37  38
ENDBRANCH  30  32
ENDBRANCH  29  30
ENDBRANCH  28  29
ENDBRANCH  27  28
ENDBRANCH   1  27
TORSDOF 20
