REMARK SMILES O=C(CCCN1C(=O)C(=O)/C(=C(\[O-])c2ccccc2)[C@H]1c1ccc([N+](=O)[O-])cc1)OCCOC(=O)c1ccc(-c2c3nc(c(-c4cccc(S(=O)(=O)[O-])c4F)c4ccc([nH]4)c(-c4cccc(S(=O)(=O)[O-])c4F)c4nc(c(-c5cccc(S(=O)(=O)[O-])c5F)c5ccc2[nH]5)C=C4)C=C3)cc1
REMARK SMILES IDX 31 1 30 2 2 3 1 4 3 5 4 6 5 7 6 8 7 9 20 10 8 11 9 12 11 13
REMARK SMILES IDX 10 14 12 15 13 16 21 17 22 18 29 19 23 20 28 21 24 22 25 23
REMARK SMILES IDX 26 24 27 25 14 26 15 27 19 28 16 29 18 30 17 31 32 32 33 33
REMARK SMILES IDX 34 34 35 35 36 36 37 37 98 38 38 39 97 40 39 41 40 42 41 43
REMARK SMILES IDX 91 44 42 45 96 46 90 47 92 48 43 49 95 50 89 51 88 52 44 54
REMARK SMILES IDX 76 55 56 56 75 57 57 58 60 59 74 60 93 61 58 62 59 63 73 65
REMARK SMILES IDX 94 66 61 67 45 68 46 69 54 70 47 71 49 72 55 73 48 74 50 75
REMARK SMILES IDX 51 76 52 77 53 78 77 79 78 80 86 81 79 82 81 83 87 84 80 85
REMARK SMILES IDX 82 86 83 87 84 88 85 89 62 90 63 91 71 92 64 93 66 94 72 95
REMARK SMILES IDX 65 96 67 97 68 98 69 99 70 100
REMARK H PARENT 92 53 60 64
REMARK Flexibility Score: inf
ROOT
ATOM      1  C   UNL     1       3.030  -1.443   0.079  1.00  0.00     0.274 C 
ENDROOT
BRANCH   1   2
ATOM      2  O   UNL     1       2.015  -0.502   0.445  1.00  0.00    -0.462 OA
BRANCH   2   3
ATOM      3  C   UNL     1       2.378   0.724   0.911  1.00  0.00     0.305 C 
ATOM      4  O   UNL     1       1.782   1.226   1.858  1.00  0.00    -0.252 OA
BRANCH   3   5
ATOM      5  C   UNL     1       3.461   1.472   0.154  1.00  0.00     0.124 C 
BRANCH   5   6
ATOM      6  C   UNL     1       4.660   1.891   1.007  1.00  0.00     0.033 C 
BRANCH   6   7
ATOM      7  C   UNL     1       5.773   0.838   1.180  1.00  0.00     0.121 C 
BRANCH   7   8
ATOM      8  N   UNL     1       6.307   0.222  -0.040  1.00  0.00    -0.325 N 
ATOM      9  C   UNL     1       6.569   0.933  -1.196  1.00  0.00     0.295 C 
ATOM     10  C   UNL     1       6.684  -1.194  -0.144  1.00  0.00     0.150 C 
ATOM     11  O   UNL     1       6.479   2.123  -1.405  1.00  0.00    -0.265 OA
ATOM     12  C   UNL     1       6.905  -0.097  -2.268  1.00  0.00     0.248 C 
ATOM     13  C   UNL     1       6.860  -1.426  -1.626  1.00  0.00     0.025 C 
ATOM     14  O   UNL     1       7.107   0.108  -3.448  1.00  0.00    -0.283 OA
ATOM     15  C   UNL     1       6.921  -2.555  -2.357  1.00  0.00    -0.092 C 
ATOM     16  O   UNL     1       7.071  -2.558  -3.732  1.00  0.00    -0.872 OA
BRANCH  10  17
ATOM     17  C   UNL     1       7.844  -1.631   0.748  1.00  0.00    -0.020 A 
ATOM     18  C   UNL     1       9.092  -2.033   0.237  1.00  0.00     0.013 A 
ATOM     19  C   UNL     1       7.617  -1.793   2.130  1.00  0.00     0.013 A 
ATOM     20  C   UNL     1      10.031  -2.678   1.051  1.00  0.00     0.086 A 
ATOM     21  C   UNL     1       8.563  -2.401   2.959  1.00  0.00     0.086 A 
ATOM     22  C   UNL     1       9.752  -2.879   2.405  1.00  0.00     0.269 A 
BRANCH  22  23
ATOM     23  N   UNL     1      10.683  -3.645   3.240  1.00  0.00     0.062 N 
ATOM     24  O   UNL     1      11.612  -4.239   2.673  1.00  0.00    -0.258 OA
ATOM     25  O   UNL     1      10.472  -3.676   4.461  1.00  0.00    -0.258 OA
ENDBRANCH  22  23
ENDBRANCH  10  17
BRANCH  15  26
ATOM     26  C   UNL     1       6.919  -3.912  -1.781  1.00  0.00    -0.033 A 
ATOM     27  C   UNL     1       8.070  -4.701  -1.905  1.00  0.00     0.007 A 
ATOM     28  C   UNL     1       5.803  -4.463  -1.142  1.00  0.00     0.007 A 
ATOM     29  C   UNL     1       8.111  -5.993  -1.375  1.00  0.00     0.001 A 
ATOM     30  C   UNL     1       5.837  -5.758  -0.621  1.00  0.00     0.001 A 
ATOM     31  C   UNL     1       6.994  -6.521  -0.731  1.00  0.00     0.000 A 
ENDBRANCH  15  26
ENDBRANCH   7   8
ENDBRANCH   6   7
ENDBRANCH   5   6
ENDBRANCH   3   5
ENDBRANCH   2   3
ENDBRANCH   1   2
BRANCH   1  32
ATOM     32  C   UNL     1       3.029  -1.812  -1.404  1.00  0.00     0.275 C 
BRANCH  32  33
ATOM     33  O   UNL     1       2.908  -0.658  -2.225  1.00  0.00    -0.458 OA
BRANCH  33  34
ATOM     34  C   UNL     1       1.628  -0.386  -2.573  1.00  0.00     0.338 C 
ATOM     35  O   UNL     1       0.659  -1.110  -2.423  1.00  0.00    -0.246 OA
BRANCH  34  36
ATOM     36  C   UNL     1       1.555   1.029  -2.961  1.00  0.00     0.060 A 
ATOM     37  C   UNL     1       0.467   1.758  -2.477  1.00  0.00     0.016 A 
ATOM     38  C   UNL     1       2.539   1.634  -3.751  1.00  0.00     0.016 A 
ATOM     39  C   UNL     1       0.326   3.092  -2.829  1.00  0.00     0.010 A 
ATOM     40  C   UNL     1       2.400   2.976  -4.097  1.00  0.00     0.010 A 
ATOM     41  C   UNL     1       1.274   3.696  -3.666  1.00  0.00    -0.014 A 
BRANCH  41  42
ATOM     42  C   UNL     1       1.008   5.054  -4.177  1.00  0.00     0.031 A 
ATOM     43  C   UNL     1       0.422   5.210  -5.549  1.00  0.00     0.074 A 
ATOM     44  C   UNL     1       1.265   6.123  -3.404  1.00  0.00     0.049 A 
ATOM     45  N   UNL     1       0.031   6.298  -6.157  1.00  0.00    -0.248 NA
ATOM     46  C   UNL     1       0.247   3.981  -6.343  1.00  0.00     0.031 C 
ATOM     47  C   UNL     1       1.858   6.077  -2.067  1.00  0.00     0.029 A 
ATOM     48  N   UNL     1       1.074   7.458  -3.643  1.00  0.00    -0.354 N 
ATOM     49  C   UNL     1      -0.422   5.891  -7.404  1.00  0.00     0.074 A 
ATOM     50  C   UNL     1      -0.245   4.458  -7.478  1.00  0.00     0.031 C 
ATOM     51  C   UNL     1       2.008   7.333  -1.614  1.00  0.00     0.029 A 
ATOM     52  C   UNL     1       1.530   8.267  -2.630  1.00  0.00     0.049 A 
ATOM     53  H   UNL     1       0.652   7.805  -4.462  1.00  0.00     0.167 HD
ATOM     54  C   UNL     1      -0.957   6.645  -8.391  1.00  0.00     0.034 A 
ATOM     55  C   UNL     1       1.566   9.611  -2.546  1.00  0.00     0.034 A 
ATOM     56  C   UNL     1      -1.143   8.067  -8.299  1.00  0.00     0.049 A 
ATOM     57  C   UNL     1       0.977  10.424  -3.671  1.00  0.00     0.074 A 
ATOM     58  C   UNL     1      -1.748   8.914  -9.209  1.00  0.00     0.029 A 
ATOM     59  N   UNL     1      -0.705   8.853  -7.245  1.00  0.00    -0.354 N 
ATOM     60  N   UNL     1       0.383  10.012  -4.765  1.00  0.00    -0.248 NA
ATOM     61  C   UNL     1       1.034  11.886  -3.534  1.00  0.00     0.031 C 
ATOM     62  C   UNL     1      -1.643  10.220  -8.721  1.00  0.00     0.029 A 
ATOM     63  C   UNL     1      -0.996  10.182  -7.496  1.00  0.00     0.049 A 
ATOM     64  H   UNL     1      -0.253   8.516  -6.439  1.00  0.00     0.167 HD
ATOM     65  C   UNL     1      -0.026  11.161  -5.433  1.00  0.00     0.074 A 
ATOM     66  C   UNL     1       0.359  12.284  -4.604  1.00  0.00     0.031 C 
ATOM     67  C   UNL     1      -0.644  11.280  -6.635  1.00  0.00     0.034 A 
BRANCH  54  68
ATOM     68  C   UNL     1      -1.410   5.951  -9.644  1.00  0.00     0.023 A 
ATOM     69  C   UNL     1      -2.606   5.205  -9.632  1.00  0.00     0.012 A 
ATOM     70  C   UNL     1      -0.701   6.107 -10.851  1.00  0.00     0.148 A 
ATOM     71  C   UNL     1      -3.083   4.612 -10.800  1.00  0.00     0.002 A 
ATOM     72  C   UNL     1      -1.202   5.546 -12.018  1.00  0.00     0.091 A 
ATOM     73  F   UNL     1       0.445   6.802 -10.832  1.00  0.00    -0.205 F 
ATOM     74  C   UNL     1      -2.388   4.793 -11.994  1.00  0.00     0.022 A 
BRANCH  72  75
ATOM     75  S   UNL     1      -0.422   5.775 -13.620  1.00  0.00     0.127 S 
ATOM     76  O   UNL     1       0.014   4.415 -13.933  1.00  0.00    -0.237 OA
ATOM     77  O   UNL     1      -1.536   6.261 -14.434  1.00  0.00    -0.237 OA
ATOM     78  O   UNL     1       0.650   6.738 -13.413  1.00  0.00    -0.744 OA
ENDBRANCH  72  75
ENDBRANCH  54  68
BRANCH  55  79
ATOM     79  C   UNL     1       2.154  10.273  -1.348  1.00  0.00     0.023 A 
ATOM     80  C   UNL     1       1.324  11.000  -0.473  1.00  0.00     0.012 A 
ATOM     81  C   UNL     1       3.533  10.189  -1.073  1.00  0.00     0.148 A 
ATOM     82  C   UNL     1       1.863  11.665   0.630  1.00  0.00     0.002 A 
ATOM     83  C   UNL     1       4.054  10.807   0.057  1.00  0.00     0.091 A 
ATOM     84  F   UNL     1       4.312   9.511  -1.928  1.00  0.00    -0.205 F 
ATOM     85  C   UNL     1       3.224  11.561   0.900  1.00  0.00     0.022 A 
BRANCH  83  86
ATOM     86  S   UNL     1       5.773  10.616   0.543  1.00  0.00     0.127 S 
ATOM     87  O   UNL     1       6.341  11.902   0.148  1.00  0.00    -0.237 OA
ATOM     88  O   UNL     1       5.663  10.409   1.988  1.00  0.00    -0.237 OA
ATOM     89  O   UNL     1       6.255   9.452  -0.189  1.00  0.00    -0.744 OA
ENDBRANCH  83  86
ENDBRANCH  55  79
BRANCH  67  90
ATOM     90  C   UNL     1      -0.949  12.671  -7.127  1.00  0.00     0.023 A 
ATOM     91  C   UNL     1       0.102  13.488  -7.587  1.00  0.00     0.012 A 
ATOM     92  C   UNL     1      -2.277  13.133  -7.214  1.00  0.00     0.148 A 
ATOM     93  C   UNL     1      -0.161  14.757  -8.099  1.00  0.00     0.002 A 
ATOM     94  C   UNL     1      -2.535  14.379  -7.772  1.00  0.00     0.091 A 
ATOM     95  F   UNL     1      -3.260  12.344  -6.758  1.00  0.00    -0.205 F 
ATOM     96  C   UNL     1      -1.478  15.197  -8.204  1.00  0.00     0.022 A 
BRANCH  94  97
ATOM     97  S   UNL     1      -4.204  14.990  -8.037  1.00  0.00     0.127 S 
ATOM     98  O   UNL     1      -4.297  16.046  -7.030  1.00  0.00    -0.237 OA
ATOM     99  O   UNL     1      -4.144  15.468  -9.419  1.00  0.00    -0.237 OA
ATOM    100  O   UNL     1      -5.087  13.850  -7.830  1.00  0.00    -0.744 OA
ENDBRANCH  94  97
ENDBRANCH  67  90
ENDBRANCH  41  42
ENDBRANCH  34  36
ENDBRANCH  33  34
ENDBRANCH  32  33
ENDBRANCH   1  32
TORSDOF 20
