REMARK SMILES O=C(OCCOC(=O)[C@@H](Cc1ccc(O)cc1)Nc1c2ccccc2nc2ccccc12)c1ccc(-c2c3nc(c(-c4cccc(S(=O)(=O)[O-])c4F)c4ccc([nH]4)c(-c4cccc(S(=O)(=O)[O-])c4F)c4nc(c(-c5cccc(S(=O)(=O)[O-])c5F)c5ccc2[nH]5)C=C4)C=C3)cc1
REMARK SMILES IDX 4 1 3 2 2 3 1 4 33 5 34 6 95 7 35 8 94 9 36 10 37 11 38 12
REMARK SMILES IDX 88 13 39 14 93 15 87 16 89 17 40 18 92 19 86 20 85 21 41 23
REMARK SMILES IDX 73 24 53 25 72 26 54 27 57 28 71 29 90 30 55 31 56 32 70 34
REMARK SMILES IDX 91 35 58 36 42 37 43 38 51 39 44 40 46 41 52 42 45 43 47 44
REMARK SMILES IDX 48 45 49 46 50 47 74 48 75 49 83 50 76 51 78 52 84 53 77 54
REMARK SMILES IDX 79 55 80 56 81 57 82 58 59 59 60 60 68 61 61 62 63 63 69 64
REMARK SMILES IDX 62 65 64 66 65 67 66 68 67 69 5 70 6 71 7 72 8 73 9 74 10 75
REMARK SMILES IDX 11 76 12 77 17 78 13 79 16 80 14 81 15 82 18 84 19 86 20 87
REMARK SMILES IDX 32 88 21 89 25 90 27 91 31 92 22 93 24 94 26 95 28 96 30 97
REMARK SMILES IDX 23 98 29 99
REMARK H PARENT 89 22 57 33 15 83 18 85
REMARK Flexibility Score: inf
ROOT
ATOM      1  C   UNL     1       3.909   0.420  -1.006  1.00  0.00     0.275 C 
ENDROOT
BRANCH   1   2
ATOM      2  O   UNL     1       2.532  -0.030  -0.852  1.00  0.00    -0.458 OA
BRANCH   2   3
ATOM      3  C   UNL     1       1.986  -1.230  -0.516  1.00  0.00     0.338 C 
ATOM      4  O   UNL     1       0.836  -1.482  -0.870  1.00  0.00    -0.246 OA
BRANCH   3   5
ATOM      5  C   UNL     1       2.619  -2.167   0.463  1.00  0.00     0.060 A 
ATOM      6  C   UNL     1       3.913  -2.652   0.357  1.00  0.00     0.016 A 
ATOM      7  C   UNL     1       1.850  -2.610   1.562  1.00  0.00     0.016 A 
ATOM      8  C   UNL     1       4.479  -3.357   1.445  1.00  0.00     0.010 A 
ATOM      9  C   UNL     1       2.422  -3.331   2.647  1.00  0.00     0.010 A 
ATOM     10  C   UNL     1       3.784  -3.621   2.664  1.00  0.00    -0.014 A 
BRANCH  10  11
ATOM     11  C   UNL     1       4.577  -4.130   3.878  1.00  0.00     0.031 A 
ATOM     12  C   UNL     1       5.475  -5.309   3.642  1.00  0.00     0.074 A 
ATOM     13  C   UNL     1       4.781  -3.464   5.054  1.00  0.00     0.049 A 
ATOM     14  N   UNL     1       6.581  -5.646   4.251  1.00  0.00    -0.248 NA
ATOM     15  C   UNL     1       5.096  -6.176   2.519  1.00  0.00     0.031 C 
ATOM     16  C   UNL     1       4.065  -2.290   5.530  1.00  0.00     0.029 A 
ATOM     17  N   UNL     1       5.780  -3.606   6.019  1.00  0.00    -0.354 N 
ATOM     18  C   UNL     1       7.045  -6.757   3.571  1.00  0.00     0.074 A 
ATOM     19  C   UNL     1       6.137  -6.989   2.463  1.00  0.00     0.031 C 
ATOM     20  C   UNL     1       4.733  -1.711   6.543  1.00  0.00     0.029 A 
ATOM     21  C   UNL     1       5.869  -2.544   6.916  1.00  0.00     0.049 A 
ATOM     22  H   UNL     1       6.372  -4.391   6.062  1.00  0.00     0.167 HD
ATOM     23  C   UNL     1       8.092  -7.563   3.855  1.00  0.00     0.034 A 
ATOM     24  C   UNL     1       6.731  -2.262   7.928  1.00  0.00     0.034 A 
ATOM     25  C   UNL     1       8.903  -7.515   5.035  1.00  0.00     0.049 A 
ATOM     26  C   UNL     1       7.803  -3.266   8.299  1.00  0.00     0.074 A 
ATOM     27  C   UNL     1       9.829  -8.450   5.465  1.00  0.00     0.029 A 
ATOM     28  N   UNL     1       8.850  -6.533   6.004  1.00  0.00    -0.354 N 
ATOM     29  N   UNL     1       8.252  -4.290   7.619  1.00  0.00    -0.248 NA
ATOM     30  C   UNL     1       8.470  -3.087   9.605  1.00  0.00     0.031 C 
ATOM     31  C   UNL     1      10.308  -8.054   6.717  1.00  0.00     0.029 A 
ATOM     32  C   UNL     1       9.722  -6.843   7.037  1.00  0.00     0.049 A 
ATOM     33  H   UNL     1       8.279  -5.732   5.968  1.00  0.00     0.167 HD
ATOM     34  C   UNL     1       9.236  -4.875   8.416  1.00  0.00     0.074 A 
ATOM     35  C   UNL     1       9.378  -4.051   9.593  1.00  0.00     0.031 C 
ATOM     36  C   UNL     1       9.921  -6.023   8.202  1.00  0.00     0.034 A 
BRANCH  23  37
ATOM     37  C   UNL     1       8.309  -8.682   2.889  1.00  0.00     0.023 A 
ATOM     38  C   UNL     1       8.969  -8.438   1.670  1.00  0.00     0.012 A 
ATOM     39  C   UNL     1       7.790  -9.955   3.176  1.00  0.00     0.148 A 
ATOM     40  C   UNL     1       9.083  -9.456   0.728  1.00  0.00     0.002 A 
ATOM     41  C   UNL     1       7.937 -10.970   2.248  1.00  0.00     0.091 A 
ATOM     42  F   UNL     1       7.127 -10.128   4.328  1.00  0.00    -0.205 F 
ATOM     43  C   UNL     1       8.573 -10.720   1.019  1.00  0.00     0.022 A 
BRANCH  41  44
ATOM     44  S   UNL     1       7.334 -12.630   2.545  1.00  0.00     0.127 S 
ATOM     45  O   UNL     1       6.293 -12.748   1.525  1.00  0.00    -0.237 OA
ATOM     46  O   UNL     1       8.531 -13.432   2.297  1.00  0.00    -0.237 OA
ATOM     47  O   UNL     1       6.857 -12.647   3.920  1.00  0.00    -0.744 OA
ENDBRANCH  41  44
ENDBRANCH  23  37
BRANCH  24  48
ATOM     48  C   UNL     1       6.632  -1.013   8.775  1.00  0.00     0.023 A 
ATOM     49  C   UNL     1       7.767  -0.183   8.950  1.00  0.00     0.012 A 
ATOM     50  C   UNL     1       5.481  -0.724   9.533  1.00  0.00     0.148 A 
ATOM     51  C   UNL     1       7.771   0.853   9.893  1.00  0.00     0.002 A 
ATOM     52  C   UNL     1       5.464   0.362  10.406  1.00  0.00     0.091 A 
ATOM     53  F   UNL     1       4.431  -1.550   9.434  1.00  0.00    -0.205 F 
ATOM     54  C   UNL     1       6.615   1.133  10.613  1.00  0.00     0.022 A 
BRANCH  52  55
ATOM     55  S   UNL     1       3.972   0.864  11.271  1.00  0.00     0.127 S 
ATOM     56  O   UNL     1       4.250   0.416  12.633  1.00  0.00    -0.237 OA
ATOM     57  O   UNL     1       3.986   2.315  11.084  1.00  0.00    -0.237 OA
ATOM     58  O   UNL     1       2.885   0.177  10.586  1.00  0.00    -0.744 OA
ENDBRANCH  52  55
ENDBRANCH  24  48
BRANCH  36  59
ATOM     59  C   UNL     1      10.910  -6.489   9.245  1.00  0.00     0.023 A 
ATOM     60  C   UNL     1      10.456  -6.930  10.505  1.00  0.00     0.012 A 
ATOM     61  C   UNL     1      12.284  -6.577   8.946  1.00  0.00     0.148 A 
ATOM     62  C   UNL     1      11.353  -7.418  11.457  1.00  0.00     0.002 A 
ATOM     63  C   UNL     1      13.166  -7.114   9.879  1.00  0.00     0.091 A 
ATOM     64  F   UNL     1      12.707  -6.138   7.751  1.00  0.00    -0.205 F 
ATOM     65  C   UNL     1      12.704  -7.523  11.140  1.00  0.00     0.022 A 
BRANCH  63  66
ATOM     66  S   UNL     1      14.906  -7.383   9.518  1.00  0.00     0.127 S 
ATOM     67  O   UNL     1      15.543  -6.359  10.344  1.00  0.00    -0.237 OA
ATOM     68  O   UNL     1      15.111  -8.756   9.982  1.00  0.00    -0.237 OA
ATOM     69  O   UNL     1      15.049  -7.204   8.080  1.00  0.00    -0.744 OA
ENDBRANCH  63  66
ENDBRANCH  36  59
ENDBRANCH  10  11
ENDBRANCH   3   5
ENDBRANCH   2   3
ENDBRANCH   1   2
BRANCH   1  70
ATOM     70  C   UNL     1       4.147   1.754  -0.276  1.00  0.00     0.274 C 
BRANCH  70  71
ATOM     71  O   UNL     1       4.277   1.485   1.121  1.00  0.00    -0.461 OA
BRANCH  71  72
ATOM     72  C   UNL     1       3.212   1.687   1.944  1.00  0.00     0.329 C 
ATOM     73  O   UNL     1       2.331   2.519   1.734  1.00  0.00    -0.250 OA
BRANCH  72  74
ATOM     74  C   UNL     1       3.179   0.592   3.017  1.00  0.00     0.194 C 
BRANCH  74  75
ATOM     75  C   UNL     1       4.361  -0.385   2.853  1.00  0.00     0.072 C 
BRANCH  75  76
ATOM     76  C   UNL     1       5.842  -0.189   3.094  1.00  0.00    -0.045 A 
ATOM     77  C   UNL     1       6.638  -1.355   3.061  1.00  0.00     0.007 A 
ATOM     78  C   UNL     1       6.504   1.028   3.170  1.00  0.00     0.007 A 
ATOM     79  C   UNL     1       8.024  -1.340   3.028  1.00  0.00     0.046 A 
ATOM     80  C   UNL     1       7.910   1.059   3.136  1.00  0.00     0.046 A 
ATOM     81  C   UNL     1       8.654  -0.118   3.042  1.00  0.00     0.115 A 
BRANCH  81  82
ATOM     82  O   UNL     1      10.011  -0.045   2.948  1.00  0.00    -0.508 OA
ATOM     83  H   UNL     1      10.519  -0.829   2.884  1.00  0.00     0.293 HD
ENDBRANCH  81  82
ENDBRANCH  75  76
ENDBRANCH  74  75
BRANCH  74  84
ATOM     84  N   UNL     1       3.064   1.011   4.403  1.00  0.00    -0.371 N 
ATOM     85  H   UNL     1       3.917   1.122   4.881  1.00  0.00     0.161 HD
BRANCH  84  86
ATOM     86  C   UNL     1       1.916   1.280   5.160  1.00  0.00     0.054 A 
ATOM     87  C   UNL     1       0.853   0.351   5.427  1.00  0.00     0.024 A 
ATOM     88  C   UNL     1       1.935   2.501   5.882  1.00  0.00     0.024 A 
ATOM     89  C   UNL     1       0.668  -0.924   4.832  1.00  0.00     0.012 A 
ATOM     90  C   UNL     1      -0.092   0.715   6.417  1.00  0.00     0.073 A 
ATOM     91  C   UNL     1       0.939   2.729   6.846  1.00  0.00     0.073 A 
ATOM     92  C   UNL     1       2.927   3.488   5.678  1.00  0.00     0.012 A 
ATOM     93  C   UNL     1      -0.362  -1.798   5.203  1.00  0.00     0.001 A 
ATOM     94  C   UNL     1      -1.109  -0.165   6.777  1.00  0.00     0.029 A 
ATOM     95  N   UNL     1      -0.061   1.873   7.077  1.00  0.00    -0.248 NA
ATOM     96  C   UNL     1       1.003   3.886   7.609  1.00  0.00     0.029 A 
ATOM     97  C   UNL     1       2.962   4.650   6.439  1.00  0.00     0.001 A 
ATOM     98  C   UNL     1      -1.254  -1.418   6.188  1.00  0.00     0.002 A 
ATOM     99  C   UNL     1       2.004   4.841   7.421  1.00  0.00     0.002 A 
ENDBRANCH  84  86
ENDBRANCH  74  84
ENDBRANCH  72  74
ENDBRANCH  71  72
ENDBRANCH  70  71
ENDBRANCH   1  70
TORSDOF 19
