REMARK SMILES CC(C)[C@@H](CNC(=O)NC[C@@]1(C)CCCO1)C(=O)OCCOC(=O)c1ccc(-c2c3nc(c(-c4cccc(S(=O)(=O)[O-])c4F)c4ccc([nH]4)c(-c4cccc(S(=O)(=O)[O-])c4F)c4nc(c(-c5cccc(S(=O)(=O)[O-])c5F)c5ccc2[nH]5)C=C4)C=C3)cc1
REMARK SMILES IDX 20 1 19 2 17 3 18 4 4 5 2 6 1 7 3 8 5 9 6 10 7 11 8 13 9 14
REMARK SMILES IDX 10 16 11 17 12 18 13 19 16 20 14 21 15 22 21 23 22 24 23 25
REMARK SMILES IDX 24 26 25 27 26 28 87 29 27 30 86 31 28 32 29 33 30 34 80 35
REMARK SMILES IDX 31 36 85 37 79 38 81 39 32 40 84 41 78 42 77 43 33 45 65 46
REMARK SMILES IDX 45 47 64 48 46 49 49 50 63 51 82 52 47 53 48 54 62 56 83 57
REMARK SMILES IDX 50 58 34 59 35 60 43 61 36 62 38 63 44 64 37 65 39 66 40 67
REMARK SMILES IDX 41 68 42 69 66 70 67 71 75 72 68 73 70 74 76 75 69 76 71 77
REMARK SMILES IDX 72 78 73 79 74 80 51 81 52 82 60 83 53 84 55 85 61 86 54 87
REMARK SMILES IDX 56 88 57 89 58 90 59 91
REMARK H PARENT 6 12 9 15 81 44 49 55
REMARK Flexibility Score: inf
ROOT
ATOM      1  C   UNL     1      -1.505  -2.710  -4.123  1.00  0.00     0.274 C 
ENDROOT
BRANCH   1   2
ATOM      2  O   UNL     1      -0.751  -1.891  -3.208  1.00  0.00    -0.462 OA
BRANCH   2   3
ATOM      3  C   UNL     1      -1.417  -1.517  -2.085  1.00  0.00     0.311 C 
ATOM      4  O   UNL     1      -2.565  -1.851  -1.811  1.00  0.00    -0.252 OA
BRANCH   3   5
ATOM      5  C   UNL     1      -0.625  -0.575  -1.194  1.00  0.00     0.121 C 
BRANCH   5   6
ATOM      6  C   UNL     1       0.920  -0.719  -1.260  1.00  0.00    -0.001 C 
ATOM      7  C   UNL     1       1.614   0.207  -0.248  1.00  0.00     0.008 C 
ATOM      8  C   UNL     1       1.368  -2.157  -0.952  1.00  0.00     0.008 C 
ENDBRANCH   5   6
BRANCH   5   9
ATOM      9  C   UNL     1      -1.158   0.847  -1.427  1.00  0.00     0.133 C 
BRANCH   9  10
ATOM     10  N   UNL     1      -1.162   1.258  -2.814  1.00  0.00    -0.337 N 
ATOM     11  C   UNL     1      -2.127   1.504  -3.707  1.00  0.00     0.314 C 
ATOM     12  H   UNL     1      -0.257   1.385  -3.181  1.00  0.00     0.165 HD
ATOM     13  O   UNL     1      -1.774   1.936  -4.809  1.00  0.00    -0.249 OA
ATOM     14  N   UNL     1      -3.430   1.315  -3.500  1.00  0.00    -0.335 N 
ATOM     15  H   UNL     1      -3.962   1.648  -4.259  1.00  0.00     0.165 HD
BRANCH  14  16
ATOM     16  C   UNL     1      -4.290   0.754  -2.461  1.00  0.00     0.152 C 
BRANCH  16  17
ATOM     17  C   UNL     1      -5.194   1.799  -1.749  1.00  0.00     0.083 C 
ATOM     18  C   UNL     1      -6.673   1.471  -2.004  1.00  0.00     0.044 C 
ATOM     19  C   UNL     1      -4.913   1.893  -0.245  1.00  0.00     0.039 C 
ATOM     20  O   UNL     1      -4.977   3.131  -2.276  1.00  0.00    -0.373 OA
ATOM     21  C   UNL     1      -5.221   3.336   0.069  1.00  0.00     0.031 C 
ATOM     22  C   UNL     1      -4.745   4.032  -1.186  1.00  0.00     0.161 C 
ENDBRANCH  16  17
ENDBRANCH  14  16
ENDBRANCH   9  10
ENDBRANCH   5   9
ENDBRANCH   3   5
ENDBRANCH   2   3
ENDBRANCH   1   2
BRANCH   1  23
ATOM     23  C   UNL     1      -1.358  -4.200  -3.809  1.00  0.00     0.275 C 
BRANCH  23  24
ATOM     24  O   UNL     1      -1.875  -4.492  -2.499  1.00  0.00    -0.458 OA
BRANCH  24  25
ATOM     25  C   UNL     1      -1.033  -5.112  -1.649  1.00  0.00     0.338 C 
ATOM     26  O   UNL     1       0.095  -5.529  -1.892  1.00  0.00    -0.246 OA
BRANCH  25  27
ATOM     27  C   UNL     1      -1.651  -5.220  -0.321  1.00  0.00     0.060 A 
ATOM     28  C   UNL     1      -1.782  -4.083   0.482  1.00  0.00     0.016 A 
ATOM     29  C   UNL     1      -1.987  -6.477   0.179  1.00  0.00     0.016 A 
ATOM     30  C   UNL     1      -2.215  -4.201   1.801  1.00  0.00     0.010 A 
ATOM     31  C   UNL     1      -2.452  -6.592   1.491  1.00  0.00     0.010 A 
ATOM     32  C   UNL     1      -2.538  -5.460   2.320  1.00  0.00    -0.014 A 
BRANCH  32  33
ATOM     33  C   UNL     1      -2.889  -5.607   3.753  1.00  0.00     0.031 A 
ATOM     34  C   UNL     1      -1.913  -6.259   4.692  1.00  0.00     0.074 A 
ATOM     35  C   UNL     1      -4.079  -5.170   4.205  1.00  0.00     0.049 A 
ATOM     36  N   UNL     1      -2.059  -6.560   5.956  1.00  0.00    -0.248 NA
ATOM     37  C   UNL     1      -0.601  -6.626   4.134  1.00  0.00     0.031 C 
ATOM     38  C   UNL     1      -5.102  -4.516   3.390  1.00  0.00     0.029 A 
ATOM     39  N   UNL     1      -4.634  -5.230   5.458  1.00  0.00    -0.354 N 
ATOM     40  C   UNL     1      -0.880  -7.191   6.333  1.00  0.00     0.074 A 
ATOM     41  C   UNL     1      -0.026  -7.228   5.166  1.00  0.00     0.031 C 
ATOM     42  C   UNL     1      -6.169  -4.247   4.162  1.00  0.00     0.029 A 
ATOM     43  C   UNL     1      -5.918  -4.740   5.514  1.00  0.00     0.049 A 
ATOM     44  H   UNL     1      -4.159  -5.589   6.243  1.00  0.00     0.167 HD
ATOM     45  C   UNL     1      -0.534  -7.682   7.546  1.00  0.00     0.034 A 
ATOM     46  C   UNL     1      -6.797  -4.710   6.534  1.00  0.00     0.034 A 
ATOM     47  C   UNL     1      -1.365  -7.602   8.717  1.00  0.00     0.049 A 
ATOM     48  C   UNL     1      -6.382  -5.252   7.875  1.00  0.00     0.074 A 
ATOM     49  C   UNL     1      -1.088  -8.039  10.000  1.00  0.00     0.029 A 
ATOM     50  N   UNL     1      -2.632  -7.042   8.748  1.00  0.00    -0.354 N 
ATOM     51  N   UNL     1      -5.230  -5.764   8.236  1.00  0.00    -0.248 NA
ATOM     52  C   UNL     1      -7.378  -5.191   8.955  1.00  0.00     0.031 C 
ATOM     53  C   UNL     1      -2.191  -7.742  10.809  1.00  0.00     0.029 A 
ATOM     54  C   UNL     1      -3.152  -7.119  10.029  1.00  0.00     0.049 A 
ATOM     55  H   UNL     1      -3.095  -6.648   7.974  1.00  0.00     0.167 HD
ATOM     56  C   UNL     1      -5.353  -6.063   9.588  1.00  0.00     0.074 A 
ATOM     57  C   UNL     1      -6.684  -5.651   9.988  1.00  0.00     0.031 C 
ATOM     58  C   UNL     1      -4.456  -6.648  10.420  1.00  0.00     0.034 A 
BRANCH  45  59
ATOM     59  C   UNL     1       0.825  -8.313   7.678  1.00  0.00     0.023 A 
ATOM     60  C   UNL     1       1.963  -7.488   7.770  1.00  0.00     0.012 A 
ATOM     61  C   UNL     1       0.973  -9.711   7.758  1.00  0.00     0.148 A 
ATOM     62  C   UNL     1       3.232  -8.046   7.918  1.00  0.00     0.002 A 
ATOM     63  C   UNL     1       2.239 -10.258   7.938  1.00  0.00     0.091 A 
ATOM     64  F   UNL     1      -0.118 -10.480   7.636  1.00  0.00    -0.205 F 
ATOM     65  C   UNL     1       3.369  -9.428   8.012  1.00  0.00     0.022 A 
BRANCH  63  66
ATOM     66  S   UNL     1       2.498 -12.026   8.130  1.00  0.00     0.127 S 
ATOM     67  O   UNL     1       2.964 -12.404   6.798  1.00  0.00    -0.237 OA
ATOM     68  O   UNL     1       3.525 -12.081   9.172  1.00  0.00    -0.237 OA
ATOM     69  O   UNL     1       1.208 -12.571   8.529  1.00  0.00    -0.744 OA
ENDBRANCH  63  66
ENDBRANCH  45  59
BRANCH  46  70
ATOM     70  C   UNL     1      -8.140  -4.097   6.333  1.00  0.00     0.023 A 
ATOM     71  C   UNL     1      -8.434  -2.865   6.947  1.00  0.00     0.012 A 
ATOM     72  C   UNL     1      -9.107  -4.699   5.504  1.00  0.00     0.148 A 
ATOM     73  C   UNL     1      -9.671  -2.250   6.753  1.00  0.00     0.002 A 
ATOM     74  C   UNL     1     -10.317  -4.054   5.271  1.00  0.00     0.091 A 
ATOM     75  F   UNL     1      -8.822  -5.886   4.949  1.00  0.00    -0.205 F 
ATOM     76  C   UNL     1     -10.607  -2.837   5.904  1.00  0.00     0.022 A 
BRANCH  74  77
ATOM     77  S   UNL     1     -11.507  -4.680   4.079  1.00  0.00     0.127 S 
ATOM     78  O   UNL     1     -12.472  -5.354   4.943  1.00  0.00    -0.237 OA
ATOM     79  O   UNL     1     -11.995  -3.450   3.452  1.00  0.00    -0.237 OA
ATOM     80  O   UNL     1     -10.736  -5.535   3.185  1.00  0.00    -0.744 OA
ENDBRANCH  74  77
ENDBRANCH  46  70
BRANCH  58  81
ATOM     81  C   UNL     1      -4.872  -6.863  11.849  1.00  0.00     0.023 A 
ATOM     82  C   UNL     1      -5.750  -7.920  12.160  1.00  0.00     0.012 A 
ATOM     83  C   UNL     1      -4.344  -6.073  12.887  1.00  0.00     0.148 A 
ATOM     84  C   UNL     1      -6.114  -8.172  13.482  1.00  0.00     0.002 A 
ATOM     85  C   UNL     1      -4.683  -6.353  14.206  1.00  0.00     0.091 A 
ATOM     86  F   UNL     1      -3.529  -5.055  12.570  1.00  0.00    -0.205 F 
ATOM     87  C   UNL     1      -5.572  -7.397  14.505  1.00  0.00     0.022 A 
BRANCH  85  88
ATOM     88  S   UNL     1      -3.956  -5.446  15.577  1.00  0.00     0.127 S 
ATOM     89  O   UNL     1      -4.968  -4.423  15.831  1.00  0.00    -0.237 OA
ATOM     90  O   UNL     1      -3.850  -6.470  16.619  1.00  0.00    -0.237 OA
ATOM     91  O   UNL     1      -2.672  -4.964  15.084  1.00  0.00    -0.744 OA
ENDBRANCH  85  88
ENDBRANCH  58  81
ENDBRANCH  32  33
ENDBRANCH  25  27
ENDBRANCH  24  25
ENDBRANCH  23  24
ENDBRANCH   1  23
TORSDOF 19
