REMARK SMILES C[C@@H]1CC[C@@H](C(=O)OCCOC(=O)c2ccc(-c3c4nc(c(-c5cccc(S(=O)(=O)[O-])c5F)c5ccc([nH]5)c(-c5cccc(S(=O)(=O)[O-])c5F)c5nc(c(-c6cccc(S(=O)(=O)[O-])c6F)c6ccc3[nH]6)C=C5)C=C4)cc2)[C@H]2C(=O)N(c3ccccc3)C(=O)[C@@H]21
REMARK SMILES IDX 10 1 9 2 8 3 6 4 7 5 5 6 1 7 2 8 3 9 89 10 4 11 77 12 87 13
REMARK SMILES IDX 78 14 80 15 88 16 79 17 81 18 82 19 86 20 83 21 85 22 84 23
REMARK SMILES IDX 11 24 12 25 13 26 14 27 15 28 76 29 16 30 75 31 17 32 18 33
REMARK SMILES IDX 19 34 69 35 20 36 74 37 68 38 70 39 21 40 73 41 67 42 66 43
REMARK SMILES IDX 22 45 54 46 34 47 53 48 35 49 38 50 52 51 71 52 36 53 37 54
REMARK SMILES IDX 51 56 72 57 39 58 23 59 24 60 32 61 25 62 27 63 33 64 26 65
REMARK SMILES IDX 28 66 29 67 30 68 31 69 55 70 56 71 64 72 57 73 59 74 65 75
REMARK SMILES IDX 58 76 60 77 61 78 62 79 63 80 40 81 41 82 49 83 42 84 44 85
REMARK SMILES IDX 50 86 43 87 45 88 46 89 47 90 48 91
REMARK H PARENT 70 44 38 55
REMARK Flexibility Score: inf
ROOT
ATOM      1  C   UNL     1      -2.082   3.936   4.460  1.00  0.00     0.275 C 
ENDROOT
BRANCH   1   2
ATOM      2  C   UNL     1      -0.836   4.327   3.664  1.00  0.00     0.274 C 
BRANCH   2   3
ATOM      3  O   UNL     1      -0.239   3.196   2.986  1.00  0.00    -0.462 OA
BRANCH   3   4
ATOM      4  C   UNL     1       0.898   2.700   3.534  1.00  0.00     0.309 C 
ATOM      5  O   UNL     1       1.417   3.149   4.551  1.00  0.00    -0.252 OA
BRANCH   4   6
ATOM      6  C   UNL     1       1.585   1.633   2.689  1.00  0.00     0.112 C 
ATOM      7  C   UNL     1       1.421   0.213  -0.822  1.00  0.00     0.008 C 
ATOM      8  C   UNL     1       0.532   1.268  -0.150  1.00  0.00    -0.001 C 
ATOM      9  C   UNL     1       1.366   2.513   0.250  1.00  0.00     0.005 C 
ATOM     10  C   UNL     1      -0.189   0.766   1.098  1.00  0.00     0.095 C 
ATOM     11  C   UNL     1       2.274   2.324   1.488  1.00  0.00     0.016 C 
ATOM     12  C   UNL     1       0.817   0.425   2.173  1.00  0.00     0.106 C 
ATOM     13  C   UNL     1      -1.038  -0.486   1.044  1.00  0.00     0.237 C 
ATOM     14  C   UNL     1       0.089  -0.566   3.036  1.00  0.00     0.238 C 
ATOM     15  N   UNL     1      -0.995  -1.025   2.315  1.00  0.00    -0.250 N 
ATOM     16  O   UNL     1      -1.661  -0.858   0.067  1.00  0.00    -0.274 OA
ATOM     17  O   UNL     1       0.586  -1.052   4.040  1.00  0.00    -0.274 OA
BRANCH  15  18
ATOM     18  C   UNL     1      -1.796  -2.100   2.743  1.00  0.00     0.052 A 
ATOM     19  C   UNL     1      -1.629  -3.385   2.226  1.00  0.00     0.027 A 
ATOM     20  C   UNL     1      -2.778  -1.879   3.714  1.00  0.00     0.027 A 
ATOM     21  C   UNL     1      -2.421  -4.437   2.703  1.00  0.00     0.002 A 
ATOM     22  C   UNL     1      -3.579  -2.923   4.179  1.00  0.00     0.002 A 
ATOM     23  C   UNL     1      -3.395  -4.206   3.676  1.00  0.00     0.000 A 
ENDBRANCH  15  18
ENDBRANCH   4   6
ENDBRANCH   3   4
ENDBRANCH   2   3
ENDBRANCH   1   2
BRANCH   1  24
ATOM     24  O   UNL     1      -1.761   3.000   5.504  1.00  0.00    -0.458 OA
BRANCH  24  25
ATOM     25  C   UNL     1      -1.879   1.712   5.115  1.00  0.00     0.338 C 
ATOM     26  O   UNL     1      -2.239   1.324   4.013  1.00  0.00    -0.246 OA
BRANCH  25  27
ATOM     27  C   UNL     1      -1.404   0.780   6.146  1.00  0.00     0.060 A 
ATOM     28  C   UNL     1      -0.031   0.587   6.271  1.00  0.00     0.016 A 
ATOM     29  C   UNL     1      -2.301  -0.105   6.748  1.00  0.00     0.016 A 
ATOM     30  C   UNL     1       0.446  -0.567   6.884  1.00  0.00     0.010 A 
ATOM     31  C   UNL     1      -1.813  -1.223   7.433  1.00  0.00     0.010 A 
ATOM     32  C   UNL     1      -0.435  -1.487   7.468  1.00  0.00    -0.014 A 
BRANCH  32  33
ATOM     33  C   UNL     1       0.103  -2.667   8.188  1.00  0.00     0.031 A 
ATOM     34  C   UNL     1      -0.195  -4.073   7.748  1.00  0.00     0.074 A 
ATOM     35  C   UNL     1       0.839  -2.443   9.292  1.00  0.00     0.049 A 
ATOM     36  N   UNL     1       0.018  -5.197   8.383  1.00  0.00    -0.248 NA
ATOM     37  C   UNL     1      -0.821  -4.244   6.429  1.00  0.00     0.031 C 
ATOM     38  C   UNL     1       1.194  -1.118   9.806  1.00  0.00     0.029 A 
ATOM     39  N   UNL     1       1.385  -3.312  10.199  1.00  0.00    -0.354 N 
ATOM     40  C   UNL     1      -0.511  -6.202   7.579  1.00  0.00     0.074 A 
ATOM     41  C   UNL     1      -1.033  -5.555   6.394  1.00  0.00     0.031 C 
ATOM     42  C   UNL     1       1.871  -1.258  10.951  1.00  0.00     0.029 A 
ATOM     43  C   UNL     1       1.932  -2.674  11.286  1.00  0.00     0.049 A 
ATOM     44  H   UNL     1       1.386  -4.290  10.084  1.00  0.00     0.167 HD
ATOM     45  C   UNL     1      -0.545  -7.536   7.814  1.00  0.00     0.034 A 
ATOM     46  C   UNL     1       2.376  -3.162  12.458  1.00  0.00     0.034 A 
ATOM     47  C   UNL     1       0.073  -8.166   8.956  1.00  0.00     0.049 A 
ATOM     48  C   UNL     1       2.365  -4.642  12.673  1.00  0.00     0.074 A 
ATOM     49  C   UNL     1       0.180  -9.518   9.240  1.00  0.00     0.029 A 
ATOM     50  N   UNL     1       0.697  -7.491   9.993  1.00  0.00    -0.354 N 
ATOM     51  N   UNL     1       1.928  -5.584  11.872  1.00  0.00    -0.248 NA
ATOM     52  C   UNL     1       2.933  -5.133  13.933  1.00  0.00     0.031 C 
ATOM     53  C   UNL     1       0.859  -9.658  10.455  1.00  0.00     0.029 A 
ATOM     54  C   UNL     1       1.185  -8.395  10.923  1.00  0.00     0.049 A 
ATOM     55  H   UNL     1       0.782  -6.513  10.060  1.00  0.00     0.167 HD
ATOM     56  C   UNL     1       2.179  -6.782  12.524  1.00  0.00     0.074 A 
ATOM     57  C   UNL     1       2.837  -6.446  13.773  1.00  0.00     0.031 C 
ATOM     58  C   UNL     1       1.872  -8.043  12.138  1.00  0.00     0.034 A 
BRANCH  45  59
ATOM     59  C   UNL     1      -1.232  -8.438   6.819  1.00  0.00     0.023 A 
ATOM     60  C   UNL     1      -0.584  -8.778   5.616  1.00  0.00     0.012 A 
ATOM     61  C   UNL     1      -2.455  -9.064   7.144  1.00  0.00     0.148 A 
ATOM     62  C   UNL     1      -1.143  -9.720   4.750  1.00  0.00     0.002 A 
ATOM     63  C   UNL     1      -2.987 -10.027   6.294  1.00  0.00     0.091 A 
ATOM     64  F   UNL     1      -3.067  -8.716   8.286  1.00  0.00    -0.205 F 
ATOM     65  C   UNL     1      -2.334 -10.354   5.095  1.00  0.00     0.022 A 
BRANCH  63  66
ATOM     66  S   UNL     1      -4.475 -10.957   6.689  1.00  0.00     0.127 S 
ATOM     67  O   UNL     1      -5.436 -10.391   5.744  1.00  0.00    -0.237 OA
ATOM     68  O   UNL     1      -4.070 -12.332   6.395  1.00  0.00    -0.237 OA
ATOM     69  O   UNL     1      -4.751 -10.695   8.095  1.00  0.00    -0.744 OA
ENDBRANCH  63  66
ENDBRANCH  45  59
BRANCH  46  70
ATOM     70  C   UNL     1       2.862  -2.208  13.490  1.00  0.00     0.023 A 
ATOM     71  C   UNL     1       4.239  -2.115  13.756  1.00  0.00     0.012 A 
ATOM     72  C   UNL     1       1.976  -1.308  14.116  1.00  0.00     0.148 A 
ATOM     73  C   UNL     1       4.725  -1.146  14.634  1.00  0.00     0.002 A 
ATOM     74  C   UNL     1       2.474  -0.302  14.934  1.00  0.00     0.091 A 
ATOM     75  F   UNL     1       0.663  -1.421  13.864  1.00  0.00    -0.205 F 
ATOM     76  C   UNL     1       3.847  -0.228  15.207  1.00  0.00     0.022 A 
BRANCH  74  77
ATOM     77  S   UNL     1       1.410   1.012  15.543  1.00  0.00     0.127 S 
ATOM     78  O   UNL     1       1.018   0.503  16.854  1.00  0.00    -0.237 OA
ATOM     79  O   UNL     1       2.314   2.163  15.575  1.00  0.00    -0.237 OA
ATOM     80  O   UNL     1       0.349   1.125  14.549  1.00  0.00    -0.744 OA
ENDBRANCH  74  77
ENDBRANCH  46  70
BRANCH  58  81
ATOM     81  C   UNL     1       2.249  -9.153  13.079  1.00  0.00     0.023 A 
ATOM     82  C   UNL     1       1.484  -9.358  14.244  1.00  0.00     0.012 A 
ATOM     83  C   UNL     1       3.331 -10.008  12.799  1.00  0.00     0.148 A 
ATOM     84  C   UNL     1       1.810 -10.379  15.134  1.00  0.00     0.002 A 
ATOM     85  C   UNL     1       3.627 -11.049  13.671  1.00  0.00     0.091 A 
ATOM     86  F   UNL     1       4.062  -9.780  11.697  1.00  0.00    -0.205 F 
ATOM     87  C   UNL     1       2.874 -11.230  14.843  1.00  0.00     0.022 A 
BRANCH  85  88
ATOM     88  S   UNL     1       4.934 -12.232  13.329  1.00  0.00     0.127 S 
ATOM     89  O   UNL     1       6.021 -11.726  14.164  1.00  0.00    -0.237 OA
ATOM     90  O   UNL     1       4.348 -13.493  13.790  1.00  0.00    -0.237 OA
ATOM     91  O   UNL     1       5.157 -12.167  11.891  1.00  0.00    -0.744 OA
ENDBRANCH  85  88
ENDBRANCH  58  81
ENDBRANCH  32  33
ENDBRANCH  25  27
ENDBRANCH  24  25
ENDBRANCH   1  24
TORSDOF 15
