REMARK SMILES Cc1cc(C(=O)OCCOC(=O)c2ccc(-c3c4nc(c(-c5cccc(S(=O)(=O)[O-])c5F)c5ccc([nH]5)c(-c5cccc(S(=O)(=O)[O-])c5F)c5nc(c(-c6cccc(S(=O)(=O)[O-])c6F)c6ccc3[nH]6)C=C5)C=C4)cc2)ccc1NC(=O)N1C[C@@H](C)[C@H](C)C1
REMARK SMILES IDX 9 1 8 2 7 3 5 4 6 5 4 6 1 7 2 8 3 9 78 10 77 11 76 12 79 13
REMARK SMILES IDX 80 14 81 16 82 17 83 18 88 19 84 20 86 21 85 22 87 23 10 24
REMARK SMILES IDX 11 25 12 26 13 27 14 28 75 29 15 30 74 31 16 32 17 33 18 34
REMARK SMILES IDX 68 35 19 36 73 37 67 38 69 39 20 40 72 41 66 42 65 43 21 45
REMARK SMILES IDX 53 46 33 47 52 48 34 49 37 50 51 51 70 52 35 53 36 54 50 56
REMARK SMILES IDX 71 57 38 58 22 59 23 60 31 61 24 62 26 63 32 64 25 65 27 66
REMARK SMILES IDX 28 67 29 68 30 69 54 70 55 71 63 72 56 73 58 74 64 75 57 76
REMARK SMILES IDX 59 77 60 78 61 79 62 80 39 81 40 82 48 83 41 84 43 85 49 86
REMARK SMILES IDX 42 87 44 88 45 89 46 90 47 91
REMARK H PARENT 79 15 69 44 37 55
REMARK Flexibility Score: inf
ROOT
ATOM      1  C   UNL     1      -3.816  -4.293  -2.916  1.00  0.00     0.275 C 
ENDROOT
BRANCH   1   2
ATOM      2  C   UNL     1      -4.248  -2.983  -2.229  1.00  0.00     0.275 C 
BRANCH   2   3
ATOM      3  O   UNL     1      -3.257  -2.053  -1.801  1.00  0.00    -0.458 OA
BRANCH   3   4
ATOM      4  C   UNL     1      -2.320  -1.645  -2.685  1.00  0.00     0.338 C 
ATOM      5  O   UNL     1      -2.150  -2.027  -3.816  1.00  0.00    -0.246 OA
BRANCH   4   6
ATOM      6  C   UNL     1      -1.588  -0.549  -2.022  1.00  0.00     0.060 A 
ATOM      7  C   UNL     1       1.873   0.227  -0.674  1.00  0.00     0.046 C 
ATOM      8  C   UNL     1       0.431   0.429  -1.071  1.00  0.00    -0.027 A 
ATOM      9  C   UNL     1      -0.228  -0.636  -1.725  1.00  0.00     0.021 A 
ATOM     10  C   UNL     1      -0.283   1.614  -0.781  1.00  0.00     0.045 A 
ATOM     11  C   UNL     1      -1.638   1.676  -1.134  1.00  0.00     0.027 A 
ATOM     12  C   UNL     1      -2.300   0.600  -1.712  1.00  0.00     0.018 A 
BRANCH  10  13
ATOM     13  N   UNL     1       0.409   2.736  -0.252  1.00  0.00    -0.308 N 
ATOM     14  C   UNL     1      -0.014   4.028  -0.117  1.00  0.00     0.321 C 
ATOM     15  H   UNL     1       1.325   2.557   0.061  1.00  0.00     0.171 HD
ATOM     16  O   UNL     1       0.765   4.948  -0.374  1.00  0.00    -0.248 OA
ATOM     17  N   UNL     1      -1.305   4.259   0.247  1.00  0.00    -0.324 N 
ATOM     18  C   UNL     1      -2.102   5.294  -0.369  1.00  0.00     0.125 C 
ATOM     19  C   UNL     1      -1.928   3.731   1.451  1.00  0.00     0.125 C 
ATOM     20  C   UNL     1      -3.388   5.372   0.457  1.00  0.00     0.010 C 
ATOM     21  C   UNL     1      -3.407   4.060   1.272  1.00  0.00     0.010 C 
ATOM     22  C   UNL     1      -4.626   5.535  -0.416  1.00  0.00     0.010 C 
ATOM     23  C   UNL     1      -4.150   4.194   2.593  1.00  0.00     0.010 C 
ENDBRANCH  10  13
ENDBRANCH   4   6
ENDBRANCH   3   4
ENDBRANCH   2   3
ENDBRANCH   1   2
BRANCH   1  24
ATOM     24  O   UNL     1      -2.439  -4.774  -2.942  1.00  0.00    -0.458 OA
BRANCH  24  25
ATOM     25  C   UNL     1      -1.464  -4.838  -2.005  1.00  0.00     0.338 C 
ATOM     26  O   UNL     1      -0.351  -5.285  -2.248  1.00  0.00    -0.246 OA
BRANCH  25  27
ATOM     27  C   UNL     1      -1.785  -4.328  -0.674  1.00  0.00     0.060 A 
ATOM     28  C   UNL     1      -0.906  -3.451  -0.016  1.00  0.00     0.016 A 
ATOM     29  C   UNL     1      -3.006  -4.685  -0.121  1.00  0.00     0.016 A 
ATOM     30  C   UNL     1      -1.288  -2.868   1.188  1.00  0.00     0.010 A 
ATOM     31  C   UNL     1      -3.455  -3.993   0.971  1.00  0.00     0.010 A 
ATOM     32  C   UNL     1      -2.557  -3.172   1.677  1.00  0.00    -0.014 A 
BRANCH  32  33
ATOM     33  C   UNL     1      -2.870  -3.174   3.097  1.00  0.00     0.031 A 
ATOM     34  C   UNL     1      -3.501  -2.058   3.794  1.00  0.00     0.074 A 
ATOM     35  C   UNL     1      -2.798  -4.432   3.591  1.00  0.00     0.049 A 
ATOM     36  N   UNL     1      -3.620  -2.019   5.073  1.00  0.00    -0.248 NA
ATOM     37  C   UNL     1      -4.017  -0.873   3.125  1.00  0.00     0.031 C 
ATOM     38  C   UNL     1      -3.474  -5.051   4.709  1.00  0.00     0.029 A 
ATOM     39  N   UNL     1      -1.958  -5.444   3.099  1.00  0.00    -0.354 N 
ATOM     40  C   UNL     1      -4.472  -0.980   5.381  1.00  0.00     0.074 A 
ATOM     41  C   UNL     1      -4.574  -0.222   4.156  1.00  0.00     0.031 C 
ATOM     42  C   UNL     1      -2.853  -6.216   4.981  1.00  0.00     0.029 A 
ATOM     43  C   UNL     1      -1.637  -6.262   4.172  1.00  0.00     0.049 A 
ATOM     44  H   UNL     1      -1.655  -5.553   2.169  1.00  0.00     0.167 HD
ATOM     45  C   UNL     1      -5.100  -1.010   6.593  1.00  0.00     0.034 A 
ATOM     46  C   UNL     1      -0.348  -6.327   4.623  1.00  0.00     0.034 A 
ATOM     47  C   UNL     1      -4.595  -2.149   7.388  1.00  0.00     0.049 A 
ATOM     48  C   UNL     1      -0.258  -5.779   6.033  1.00  0.00     0.074 A 
ATOM     49  C   UNL     1      -5.084  -3.431   7.583  1.00  0.00     0.029 A 
ATOM     50  N   UNL     1      -3.274  -2.163   7.829  1.00  0.00    -0.354 N 
ATOM     51  N   UNL     1      -1.201  -5.082   6.605  1.00  0.00    -0.248 NA
ATOM     52  C   UNL     1       0.902  -5.958   6.896  1.00  0.00     0.031 C 
ATOM     53  C   UNL     1      -4.001  -4.248   8.016  1.00  0.00     0.029 A 
ATOM     54  C   UNL     1      -2.869  -3.458   8.134  1.00  0.00     0.049 A 
ATOM     55  H   UNL     1      -2.704  -1.364   7.914  1.00  0.00     0.167 HD
ATOM     56  C   UNL     1      -0.776  -4.633   7.819  1.00  0.00     0.074 A 
ATOM     57  C   UNL     1       0.523  -5.268   7.986  1.00  0.00     0.031 C 
ATOM     58  C   UNL     1      -1.493  -3.728   8.553  1.00  0.00     0.034 A 
BRANCH  45  59
ATOM     59  C   UNL     1      -6.359  -0.243   6.998  1.00  0.00     0.023 A 
ATOM     60  C   UNL     1      -6.994  -0.654   8.196  1.00  0.00     0.012 A 
ATOM     61  C   UNL     1      -7.024   0.782   6.282  1.00  0.00     0.148 A 
ATOM     62  C   UNL     1      -8.228  -0.144   8.620  1.00  0.00     0.002 A 
ATOM     63  C   UNL     1      -8.260   1.294   6.701  1.00  0.00     0.091 A 
ATOM     64  F   UNL     1      -6.476   1.296   5.183  1.00  0.00    -0.205 F 
ATOM     65  C   UNL     1      -8.870   0.823   7.865  1.00  0.00     0.022 A 
BRANCH  63  66
ATOM     66  S   UNL     1      -9.159   2.558   5.776  1.00  0.00     0.127 S 
ATOM     67  O   UNL     1     -10.389   1.853   5.412  1.00  0.00    -0.237 OA
ATOM     68  O   UNL     1      -9.335   3.612   6.775  1.00  0.00    -0.237 OA
ATOM     69  O   UNL     1      -8.315   2.925   4.646  1.00  0.00    -0.744 OA
ENDBRANCH  63  66
ENDBRANCH  45  59
BRANCH  46  70
ATOM     70  C   UNL     1       0.700  -6.125   3.554  1.00  0.00     0.023 A 
ATOM     71  C   UNL     1       0.658  -6.985   2.424  1.00  0.00     0.012 A 
ATOM     72  C   UNL     1       1.459  -4.944   3.452  1.00  0.00     0.148 A 
ATOM     73  C   UNL     1       1.251  -6.625   1.208  1.00  0.00     0.002 A 
ATOM     74  C   UNL     1       2.048  -4.592   2.232  1.00  0.00     0.091 A 
ATOM     75  F   UNL     1       1.550  -4.135   4.516  1.00  0.00    -0.205 F 
ATOM     76  C   UNL     1       1.928  -5.418   1.106  1.00  0.00     0.022 A 
BRANCH  74  77
ATOM     77  S   UNL     1       2.830  -2.983   2.034  1.00  0.00     0.127 S 
ATOM     78  O   UNL     1       2.845  -2.795   0.582  1.00  0.00    -0.237 OA
ATOM     79  O   UNL     1       1.929  -2.072   2.728  1.00  0.00    -0.237 OA
ATOM     80  O   UNL     1       4.139  -3.204   2.637  1.00  0.00    -0.744 OA
ENDBRANCH  74  77
ENDBRANCH  46  70
BRANCH  58  81
ATOM     81  C   UNL     1      -0.930  -3.003   9.751  1.00  0.00     0.023 A 
ATOM     82  C   UNL     1       0.450  -2.758   9.890  1.00  0.00     0.012 A 
ATOM     83  C   UNL     1      -1.789  -2.401  10.699  1.00  0.00     0.148 A 
ATOM     84  C   UNL     1       0.964  -2.029  10.965  1.00  0.00     0.002 A 
ATOM     85  C   UNL     1      -1.282  -1.569  11.690  1.00  0.00     0.091 A 
ATOM     86  F   UNL     1      -3.109  -2.637  10.652  1.00  0.00    -0.205 F 
ATOM     87  C   UNL     1       0.096  -1.414  11.854  1.00  0.00     0.022 A 
BRANCH  85  88
ATOM     88  S   UNL     1      -2.390  -0.536  12.657  1.00  0.00     0.127 S 
ATOM     89  O   UNL     1      -2.716  -1.406  13.784  1.00  0.00    -0.237 OA
ATOM     90  O   UNL     1      -1.543   0.609  12.996  1.00  0.00    -0.237 OA
ATOM     91  O   UNL     1      -3.482  -0.217  11.747  1.00  0.00    -0.744 OA
ENDBRANCH  85  88
ENDBRANCH  58  81
ENDBRANCH  32  33
ENDBRANCH  25  27
ENDBRANCH  24  25
ENDBRANCH   1  24
TORSDOF 15
