REMARK SMILES [NH3+][C@H](Cc1cnc2ccccc2c1)C(=O)OCCOC(=O)c1ccc(-c2c3nc(c(-c4cccc(S(=O)(=O)[O-])c4F)c4ccc([nH]4)c(-c4cccc(S(=O)(=O)[O-])c4F)c4nc(c(-c5cccc(S(=O)(=O)[O-])c5F)c5ccc2[nH]5)C=C4)C=C3)cc1
REMARK SMILES IDX 18 1 17 2 16 3 14 4 15 5 2 6 1 7 3 11 4 12 5 13 13 14 6 15
REMARK SMILES IDX 12 16 7 17 11 18 8 19 10 20 9 21 19 22 20 23 21 24 22 25
REMARK SMILES IDX 23 26 84 27 24 28 83 29 25 30 26 31 27 32 77 33 28 34 82 35
REMARK SMILES IDX 76 36 78 37 29 38 81 39 75 40 74 41 30 43 62 44 42 45 61 46
REMARK SMILES IDX 43 47 46 48 60 49 79 50 44 51 45 52 59 54 80 55 47 56 31 57
REMARK SMILES IDX 32 58 40 59 33 60 35 61 41 62 34 63 36 64 37 65 38 66 39 67
REMARK SMILES IDX 63 68 64 69 72 70 65 71 67 72 73 73 66 74 68 75 69 76 70 77
REMARK SMILES IDX 71 78 48 79 49 80 57 81 50 82 52 83 58 84 51 85 53 86 54 87
REMARK SMILES IDX 55 88 56 89
REMARK H PARENT 1 8 1 9 1 10 78 42 46 53
REMARK Flexibility Score: inf
ROOT
ATOM      1  C   UNL     1      -3.664  -0.352   0.623  1.00  0.00     0.275 C 
ENDROOT
BRANCH   1   2
ATOM      2  C   UNL     1      -3.102   0.982   1.118  1.00  0.00     0.274 C 
BRANCH   2   3
ATOM      3  O   UNL     1      -1.705   1.078   0.784  1.00  0.00    -0.458 OA
BRANCH   3   4
ATOM      4  C   UNL     1      -0.797   1.190   1.782  1.00  0.00     0.365 C 
ATOM      5  O   UNL     1      -1.085   1.207   2.973  1.00  0.00    -0.245 OA
BRANCH   4   6
ATOM      6  C   UNL     1       0.653   1.333   1.254  1.00  0.00     0.296 C 
BRANCH   6   7
ATOM      7  N   UNL     1       1.171   2.704   1.468  1.00  0.00    -0.346 N 
ATOM      8  H   UNL     1       0.944   3.010   2.414  1.00  0.00     0.345 HD
ATOM      9  H   UNL     1       0.743   3.339   0.794  1.00  0.00     0.345 HD
ATOM     10  H   UNL     1       2.183   2.709   1.343  1.00  0.00     0.345 HD
ENDBRANCH   6   7
BRANCH   6  11
ATOM     11  C   UNL     1       0.957   0.791  -0.164  1.00  0.00     0.114 C 
BRANCH  11  12
ATOM     12  C   UNL     1       0.216   1.287  -1.385  1.00  0.00    -0.022 A 
ATOM     13  C   UNL     1      -0.624   2.391  -1.414  1.00  0.00     0.115 A 
ATOM     14  C   UNL     1       0.306   0.548  -2.571  1.00  0.00     0.016 A 
ATOM     15  N   UNL     1      -1.429   2.723  -2.451  1.00  0.00    -0.256 NA
ATOM     16  C   UNL     1      -0.510   0.859  -3.669  1.00  0.00     0.000 A 
ATOM     17  C   UNL     1      -1.401   1.940  -3.539  1.00  0.00     0.070 A 
ATOM     18  C   UNL     1      -0.487   0.102  -4.853  1.00  0.00     0.010 A 
ATOM     19  C   UNL     1      -2.296   2.186  -4.570  1.00  0.00     0.029 A 
ATOM     20  C   UNL     1      -1.381   0.383  -5.885  1.00  0.00     0.001 A 
ATOM     21  C   UNL     1      -2.302   1.413  -5.734  1.00  0.00     0.002 A 
ENDBRANCH  11  12
ENDBRANCH   6  11
ENDBRANCH   4   6
ENDBRANCH   3   4
ENDBRANCH   2   3
ENDBRANCH   1   2
BRANCH   1  22
ATOM     22  O   UNL     1      -3.166  -1.430   1.435  1.00  0.00    -0.458 OA
BRANCH  22  23
ATOM     23  C   UNL     1      -1.983  -1.948   1.028  1.00  0.00     0.338 C 
ATOM     24  O   UNL     1      -1.389  -1.713  -0.010  1.00  0.00    -0.246 OA
BRANCH  23  25
ATOM     25  C   UNL     1      -1.383  -2.713   2.132  1.00  0.00     0.060 A 
ATOM     26  C   UNL     1      -0.072  -2.392   2.491  1.00  0.00     0.016 A 
ATOM     27  C   UNL     1      -2.069  -3.741   2.781  1.00  0.00     0.016 A 
ATOM     28  C   UNL     1       0.569  -3.107   3.494  1.00  0.00     0.010 A 
ATOM     29  C   UNL     1      -1.423  -4.461   3.791  1.00  0.00     0.010 A 
ATOM     30  C   UNL     1      -0.096  -4.156   4.141  1.00  0.00    -0.014 A 
BRANCH  30  31
ATOM     31  C   UNL     1       0.641  -4.951   5.149  1.00  0.00     0.031 A 
ATOM     32  C   UNL     1       1.141  -6.323   4.800  1.00  0.00     0.074 A 
ATOM     33  C   UNL     1       0.901  -4.414   6.355  1.00  0.00     0.049 A 
ATOM     34  N   UNL     1       1.844  -7.152   5.526  1.00  0.00    -0.248 NA
ATOM     35  C   UNL     1       0.810  -6.828   3.458  1.00  0.00     0.031 C 
ATOM     36  C   UNL     1       0.456  -3.093   6.801  1.00  0.00     0.029 A 
ATOM     37  N   UNL     1       1.596  -4.914   7.425  1.00  0.00    -0.354 N 
ATOM     38  C   UNL     1       2.026  -8.284   4.740  1.00  0.00     0.074 A 
ATOM     39  C   UNL     1       1.343  -8.042   3.487  1.00  0.00     0.031 C 
ATOM     40  C   UNL     1       0.879  -2.892   8.060  1.00  0.00     0.029 A 
ATOM     41  C   UNL     1       1.606  -4.075   8.513  1.00  0.00     0.049 A 
ATOM     42  H   UNL     1       2.046  -5.790   7.415  1.00  0.00     0.167 HD
ATOM     43  C   UNL     1       2.718  -9.411   5.029  1.00  0.00     0.034 A 
ATOM     44  C   UNL     1       2.132  -4.247   9.741  1.00  0.00     0.034 A 
ATOM     45  C   UNL     1       3.407  -9.639   6.271  1.00  0.00     0.049 A 
ATOM     46  C   UNL     1       2.900  -5.508  10.032  1.00  0.00     0.074 A 
ATOM     47  C   UNL     1       4.148 -10.742   6.657  1.00  0.00     0.029 A 
ATOM     48  N   UNL     1       3.437  -8.747   7.334  1.00  0.00    -0.354 N 
ATOM     49  N   UNL     1       3.150  -6.524   9.241  1.00  0.00    -0.248 NA
ATOM     50  C   UNL     1       3.492  -5.630  11.372  1.00  0.00     0.031 C 
ATOM     51  C   UNL     1       4.616 -10.522   7.958  1.00  0.00     0.029 A 
ATOM     52  C   UNL     1       4.183  -9.273   8.375  1.00  0.00     0.049 A 
ATOM     53  H   UNL     1       2.992  -7.869   7.346  1.00  0.00     0.167 HD
ATOM     54  C   UNL     1       3.943  -7.396   9.978  1.00  0.00     0.074 A 
ATOM     55  C   UNL     1       4.164  -6.768  11.266  1.00  0.00     0.031 C 
ATOM     56  C   UNL     1       4.426  -8.615   9.633  1.00  0.00     0.034 A 
BRANCH  43  57
ATOM     57  C   UNL     1       2.796 -10.471   3.962  1.00  0.00     0.023 A 
ATOM     58  C   UNL     1       3.620 -10.261   2.837  1.00  0.00     0.012 A 
ATOM     59  C   UNL     1       2.100 -11.689   4.090  1.00  0.00     0.148 A 
ATOM     60  C   UNL     1       3.729 -11.233   1.843  1.00  0.00     0.002 A 
ATOM     61  C   UNL     1       2.245 -12.670   3.115  1.00  0.00     0.091 A 
ATOM     62  F   UNL     1       1.305 -11.861   5.155  1.00  0.00    -0.205 F 
ATOM     63  C   UNL     1       3.050 -12.440   1.987  1.00  0.00     0.022 A 
BRANCH  61  64
ATOM     64  S   UNL     1       1.467 -14.284   3.239  1.00  0.00     0.127 S 
ATOM     65  O   UNL     1       0.458 -14.207   2.184  1.00  0.00    -0.237 OA
ATOM     66  O   UNL     1       2.583 -15.186   2.950  1.00  0.00    -0.237 OA
ATOM     67  O   UNL     1       0.946 -14.377   4.595  1.00  0.00    -0.744 OA
ENDBRANCH  61  64
ENDBRANCH  43  57
BRANCH  44  68
ATOM     68  C   UNL     1       1.977  -3.182  10.772  1.00  0.00     0.023 A 
ATOM     69  C   UNL     1       3.101  -2.447  11.194  1.00  0.00     0.012 A 
ATOM     70  C   UNL     1       0.714  -2.879  11.317  1.00  0.00     0.148 A 
ATOM     71  C   UNL     1       2.974  -1.450  12.163  1.00  0.00     0.002 A 
ATOM     72  C   UNL     1       0.586  -1.846  12.238  1.00  0.00     0.091 A 
ATOM     73  F   UNL     1      -0.341  -3.605  10.920  1.00  0.00    -0.205 F 
ATOM     74  C   UNL     1       1.717  -1.141  12.675  1.00  0.00     0.022 A 
BRANCH  72  75
ATOM     75  S   UNL     1      -1.016  -1.301  12.841  1.00  0.00     0.127 S 
ATOM     76  O   UNL     1      -1.039  -1.870  14.186  1.00  0.00    -0.237 OA
ATOM     77  O   UNL     1      -0.883   0.156  12.791  1.00  0.00    -0.237 OA
ATOM     78  O   UNL     1      -1.989  -1.843  11.902  1.00  0.00    -0.744 OA
ENDBRANCH  72  75
ENDBRANCH  44  68
BRANCH  56  79
ATOM     79  C   UNL     1       5.249  -9.345  10.663  1.00  0.00     0.023 A 
ATOM     80  C   UNL     1       4.619  -9.890  11.800  1.00  0.00     0.012 A 
ATOM     81  C   UNL     1       6.635  -9.528  10.487  1.00  0.00     0.148 A 
ATOM     82  C   UNL     1       5.361 -10.568  12.766  1.00  0.00     0.002 A 
ATOM     83  C   UNL     1       7.360 -10.246  11.431  1.00  0.00     0.091 A 
ATOM     84  F   UNL     1       7.222  -8.985   9.411  1.00  0.00    -0.205 F 
ATOM     85  C   UNL     1       6.728 -10.755  12.577  1.00  0.00     0.022 A 
BRANCH  83  86
ATOM     86  S   UNL     1       9.106 -10.609  11.217  1.00  0.00     0.127 S 
ATOM     87  O   UNL     1       9.727  -9.621  12.098  1.00  0.00    -0.237 OA
ATOM     88  O   UNL     1       9.201 -11.991  11.690  1.00  0.00    -0.237 OA
ATOM     89  O   UNL     1       9.373 -10.443   9.795  1.00  0.00    -0.744 OA
ENDBRANCH  83  86
ENDBRANCH  56  79
ENDBRANCH  30  31
ENDBRANCH  23  25
ENDBRANCH  22  23
ENDBRANCH   1  22
TORSDOF 17
