REMARK SMILES Cc1ccc(C(=O)N2CCCC[C@@H]2C(=O)OCCOC(=O)c2ccc(-c3c4nc(c(-c5cccc(S(=O)(=O)[O-])c5F)c5ccc([nH]5)c(-c5cccc(S(=O)(=O)[O-])c5F)c5nc(c(-c6cccc(S(=O)(=O)[O-])c6F)c6ccc3[nH]6)C=C5)C=C4)cc2)cc1S(=O)(=O)N1CCCCC1
REMARK SMILES IDX 17 1 16 2 14 3 15 4 13 5 8 6 9 7 10 8 12 9 11 10 6 11 7 12
REMARK SMILES IDX 5 13 1 14 2 15 3 16 86 17 4 18 85 19 87 20 88 21 89 22 90 23
REMARK SMILES IDX 91 24 95 25 92 26 94 27 93 28 18 29 19 30 20 31 21 32 22 33
REMARK SMILES IDX 23 34 84 35 24 36 83 37 25 38 26 39 27 40 77 41 28 42 82 43
REMARK SMILES IDX 76 44 78 45 29 46 81 47 75 48 74 49 30 51 62 52 42 53 61 54
REMARK SMILES IDX 43 55 46 56 60 57 79 58 44 59 45 60 59 62 80 63 47 64 31 65
REMARK SMILES IDX 32 66 40 67 33 68 35 69 41 70 34 71 36 72 37 73 38 74 39 75
REMARK SMILES IDX 63 76 64 77 72 78 65 79 67 80 73 81 66 82 68 83 69 84 70 85
REMARK SMILES IDX 71 86 48 87 49 88 57 89 50 90 52 91 58 92 51 93 53 94 54 95
REMARK SMILES IDX 55 96 56 97
REMARK H PARENT 78 50 46 61
REMARK Flexibility Score: inf
ROOT
ATOM      1  C   UNL     1      -4.415  -0.856  -5.105  1.00  0.00     0.274 C 
ENDROOT
BRANCH   1   2
ATOM      2  O   UNL     1      -4.774  -0.274  -3.752  1.00  0.00    -0.461 OA
BRANCH   2   3
ATOM      3  C   UNL     1      -5.307   0.947  -3.496  1.00  0.00     0.328 C 
ATOM      4  O   UNL     1      -5.790   1.579  -4.439  1.00  0.00    -0.250 OA
BRANCH   3   5
ATOM      5  C   UNL     1      -5.235   1.652  -1.884  1.00  0.00     0.195 C 
ATOM      6  N   UNL     1      -4.488   1.394  -0.328  1.00  0.00    -0.325 N 
ATOM      7  C   UNL     1      -5.259   1.811   0.866  1.00  0.00     0.121 C 
ATOM      8  C   UNL     1      -6.674   2.327   0.670  1.00  0.00     0.022 C 
ATOM      9  C   UNL     1      -6.650   2.246  -1.746  1.00  0.00     0.037 C 
ATOM     10  C   UNL     1      -6.739   3.184  -0.568  1.00  0.00     0.005 C 
BRANCH   6  11
ATOM     11  C   UNL     1      -2.830   1.394   0.153  1.00  0.00     0.254 C 
ATOM     12  O   UNL     1      -2.768   1.660   1.375  1.00  0.00    -0.269 OA
BRANCH  11  13
ATOM     13  C   UNL     1      -1.243   0.708  -0.882  1.00  0.00     0.041 A 
ATOM     14  C   UNL     1       1.022  -1.095   2.662  1.00  0.00     0.046 C 
ATOM     15  C   UNL     1      -0.217  -0.907   1.922  1.00  0.00    -0.031 A 
ATOM     16  C   UNL     1      -0.791  -2.146   0.593  1.00  0.00     0.005 A 
ATOM     17  C   UNL     1      -0.028   0.855   1.722  1.00  0.00     0.086 A 
ATOM     18  C   UNL     1      -1.143  -1.311  -1.107  1.00  0.00     0.014 A 
ATOM     19  C   UNL     1      -0.554   1.539   0.464  1.00  0.00     0.035 A 
BRANCH  17  20
ATOM     20  S   UNL     1       1.551   2.109   2.486  1.00  0.00     0.243 S 
ATOM     21  O   UNL     1       1.079   3.482   2.425  1.00  0.00    -0.207 OA
ATOM     22  O   UNL     1       1.858   1.537   3.788  1.00  0.00    -0.207 OA
BRANCH  20  23
ATOM     23  N   UNL     1       3.374   2.145   1.534  1.00  0.00    -0.198 NA
ATOM     24  C   UNL     1       4.405   2.470   2.608  1.00  0.00     0.102 C 
ATOM     25  C   UNL     1       3.816   3.250   0.457  1.00  0.00     0.102 C 
ATOM     26  C   UNL     1       5.867   2.443   2.025  1.00  0.00     0.017 C 
ATOM     27  C   UNL     1       5.116   2.764  -0.308  1.00  0.00     0.017 C 
ATOM     28  C   UNL     1       6.026   1.950   0.584  1.00  0.00     0.003 C 
ENDBRANCH  20  23
ENDBRANCH  17  20
ENDBRANCH  11  13
ENDBRANCH   6  11
ENDBRANCH   3   5
ENDBRANCH   2   3
ENDBRANCH   1   2
BRANCH   1  29
ATOM     29  C   UNL     1      -3.610  -0.089  -6.238  1.00  0.00     0.275 C 
BRANCH  29  30
ATOM     30  O   UNL     1      -2.172   0.137  -6.191  1.00  0.00    -0.458 OA
BRANCH  30  31
ATOM     31  C   UNL     1      -1.754   1.149  -5.414  1.00  0.00     0.338 C 
ATOM     32  O   UNL     1      -1.362   2.241  -5.783  1.00  0.00    -0.246 OA
BRANCH  31  33
ATOM     33  C   UNL     1      -1.999   0.711  -4.050  1.00  0.00     0.060 A 
ATOM     34  C   UNL     1      -2.481   1.698  -3.305  1.00  0.00     0.016 A 
ATOM     35  C   UNL     1      -2.131  -0.659  -3.618  1.00  0.00     0.016 A 
ATOM     36  C   UNL     1      -2.898   1.200  -2.100  1.00  0.00     0.010 A 
ATOM     37  C   UNL     1      -2.896  -1.160  -2.408  1.00  0.00     0.010 A 
ATOM     38  C   UNL     1      -2.994  -0.305  -1.272  1.00  0.00    -0.014 A 
BRANCH  38  39
ATOM     39  C   UNL     1      -1.811  -0.515   0.385  1.00  0.00     0.031 A 
ATOM     40  C   UNL     1      -2.796  -1.545   1.443  1.00  0.00     0.074 A 
ATOM     41  C   UNL     1       0.094  -0.539  -0.027  1.00  0.00     0.049 A 
ATOM     42  N   UNL     1      -2.344  -2.327   2.413  1.00  0.00    -0.248 NA
ATOM     43  C   UNL     1      -4.163  -1.905   1.069  1.00  0.00     0.031 C 
ATOM     44  C   UNL     1       1.061  -2.067  -0.430  1.00  0.00     0.029 A 
ATOM     45  N   UNL     1       0.907  -0.004  -1.167  1.00  0.00    -0.354 N 
ATOM     46  C   UNL     1      -3.083  -3.498   2.349  1.00  0.00     0.074 A 
ATOM     47  C   UNL     1      -4.336  -3.037   1.773  1.00  0.00     0.031 C 
ATOM     48  C   UNL     1       2.046  -1.948  -1.306  1.00  0.00     0.029 A 
ATOM     49  C   UNL     1       2.182  -0.579  -1.352  1.00  0.00     0.049 A 
ATOM     50  H   UNL     1       0.570   0.710  -1.755  1.00  0.00     0.167 HD
ATOM     51  C   UNL     1      -2.519  -4.765   2.423  1.00  0.00     0.034 A 
ATOM     52  C   UNL     1       3.186   0.063  -0.745  1.00  0.00     0.034 A 
ATOM     53  C   UNL     1      -0.986  -4.829   2.348  1.00  0.00     0.049 A 
ATOM     54  C   UNL     1       3.518  -0.945   0.746  1.00  0.00     0.074 A 
ATOM     55  C   UNL     1      -0.137  -5.536   1.489  1.00  0.00     0.029 A 
ATOM     56  N   UNL     1      -0.106  -4.013   3.080  1.00  0.00    -0.354 N 
ATOM     57  N   UNL     1       3.146  -2.243   1.033  1.00  0.00    -0.248 NA
ATOM     58  C   UNL     1       4.352  -0.603   1.922  1.00  0.00     0.031 C 
ATOM     59  C   UNL     1       1.218  -5.112   1.663  1.00  0.00     0.029 A 
ATOM     60  C   UNL     1       1.265  -4.167   2.663  1.00  0.00     0.049 A 
ATOM     61  H   UNL     1      -0.394  -3.403   3.798  1.00  0.00     0.167 HD
ATOM     62  C   UNL     1       3.268  -2.580   2.452  1.00  0.00     0.074 A 
ATOM     63  C   UNL     1       4.193  -1.553   2.869  1.00  0.00     0.031 C 
ATOM     64  C   UNL     1       2.402  -3.378   3.291  1.00  0.00     0.034 A 
BRANCH  51  65
ATOM     65  C   UNL     1      -3.308  -6.128   2.323  1.00  0.00     0.023 A 
ATOM     66  C   UNL     1      -2.563  -7.311   2.575  1.00  0.00     0.012 A 
ATOM     67  C   UNL     1      -4.686  -6.367   2.058  1.00  0.00     0.148 A 
ATOM     68  C   UNL     1      -3.108  -8.606   2.538  1.00  0.00     0.002 A 
ATOM     69  C   UNL     1      -5.251  -7.657   2.082  1.00  0.00     0.091 A 
ATOM     70  F   UNL     1      -5.500  -5.370   1.732  1.00  0.00    -0.205 F 
ATOM     71  C   UNL     1      -4.460  -8.781   2.308  1.00  0.00     0.022 A 
BRANCH  69  72
ATOM     72  S   UNL     1      -7.022  -7.966   1.859  1.00  0.00     0.127 S 
ATOM     73  O   UNL     1      -7.037  -8.839   0.685  1.00  0.00    -0.237 OA
ATOM     74  O   UNL     1      -7.383  -8.630   3.112  1.00  0.00    -0.237 OA
ATOM     75  O   UNL     1      -7.649  -6.666   1.655  1.00  0.00    -0.744 OA
ENDBRANCH  69  72
ENDBRANCH  51  65
BRANCH  52  76
ATOM     76  C   UNL     1       2.638   1.543  -1.518  1.00  0.00     0.023 A 
ATOM     77  C   UNL     1       2.747   1.589  -2.951  1.00  0.00     0.012 A 
ATOM     78  C   UNL     1       1.599   2.499  -1.111  1.00  0.00     0.148 A 
ATOM     79  C   UNL     1       1.903   2.404  -3.786  1.00  0.00     0.002 A 
ATOM     80  C   UNL     1       0.788   3.358  -1.916  1.00  0.00     0.091 A 
ATOM     81  F   UNL     1       1.422   2.645   0.175  1.00  0.00    -0.205 F 
ATOM     82  C   UNL     1       0.931   3.265  -3.277  1.00  0.00     0.022 A 
BRANCH  80  83
ATOM     83  S   UNL     1      -0.369   4.711  -1.315  1.00  0.00     0.127 S 
ATOM     84  O   UNL     1       0.574   5.746  -0.910  1.00  0.00    -0.237 OA
ATOM     85  O   UNL     1      -1.148   5.013  -2.518  1.00  0.00    -0.237 OA
ATOM     86  O   UNL     1      -1.236   4.197  -0.273  1.00  0.00    -0.744 OA
ENDBRANCH  80  83
ENDBRANCH  52  76
BRANCH  64  87
ATOM     87  C   UNL     1       2.278  -3.295   4.885  1.00  0.00     0.023 A 
ATOM     88  C   UNL     1       2.656  -2.173   5.658  1.00  0.00     0.012 A 
ATOM     89  C   UNL     1       1.595  -4.321   5.628  1.00  0.00     0.148 A 
ATOM     90  C   UNL     1       2.541  -2.149   7.068  1.00  0.00     0.002 A 
ATOM     91  C   UNL     1       1.411  -4.257   7.019  1.00  0.00     0.091 A 
ATOM     92  F   UNL     1       1.120  -5.395   4.982  1.00  0.00    -0.205 F 
ATOM     93  C   UNL     1       1.939  -3.198   7.750  1.00  0.00     0.022 A 
BRANCH  91  94
ATOM     94  S   UNL     1       0.473  -5.503   7.936  1.00  0.00     0.127 S 
ATOM     95  O   UNL     1       1.542  -6.369   8.429  1.00  0.00    -0.237 OA
ATOM     96  O   UNL     1      -0.190  -4.712   8.975  1.00  0.00    -0.237 OA
ATOM     97  O   UNL     1      -0.435  -6.101   6.968  1.00  0.00    -0.744 OA
ENDBRANCH  91  94
ENDBRANCH  64  87
ENDBRANCH  38  39
ENDBRANCH  31  33
ENDBRANCH  30  31
ENDBRANCH  29  30
ENDBRANCH   1  29
TORSDOF 18
