REMARK SMILES Cc1cc(Cl)ccc1Oc1cc(C)c(N)c(C(=O)OCCOC(=O)c2ccc(-c3c4nc(c(-c5cccc(S(=O)(=O)[O-])c5F)c5ccc([nH]5)c(-c5cccc(S(=O)(=O)[O-])c5F)c5nc(c(-c6cccc(S(=O)(=O)[O-])c6F)c6ccc3[nH]6)C=C5)C=C4)cc2)c1
REMARK SMILES IDX 21 1 20 2 19 3 17 4 18 5 16 6 10 7 11 8 88 9 12 10 13 11
REMARK SMILES IDX 14 12 9 13 8 14 1 15 2 16 3 17 4 18 7 19 5 20 6 21 15 22
REMARK SMILES IDX 22 25 23 26 24 27 25 28 26 29 87 30 27 31 86 32 28 33 29 34
REMARK SMILES IDX 30 35 80 36 31 37 85 38 79 39 81 40 32 41 84 42 78 43 77 44
REMARK SMILES IDX 33 46 65 47 45 48 64 49 46 50 49 51 63 52 82 53 47 54 48 55
REMARK SMILES IDX 62 57 83 58 50 59 34 60 35 61 43 62 36 63 38 64 44 65 37 66
REMARK SMILES IDX 39 67 40 68 41 69 42 70 66 71 67 72 75 73 68 74 70 75 76 76
REMARK SMILES IDX 69 77 71 78 72 79 73 80 74 81 51 82 52 83 60 84 53 85 55 86
REMARK SMILES IDX 61 87 54 88 56 89 57 90 58 91 59 92
REMARK H PARENT 15 23 15 24 81 45 49 56
REMARK Flexibility Score: inf
ROOT
ATOM      1  C   UNL     1      -7.915   1.246   4.930  1.00  0.00     0.275 C 
ENDROOT
BRANCH   1   2
ATOM      2  C   UNL     1      -7.772  -0.054   4.138  1.00  0.00     0.275 C 
BRANCH   2   3
ATOM      3  O   UNL     1      -6.761   0.061   3.111  1.00  0.00    -0.458 OA
BRANCH   3   4
ATOM      4  C   UNL     1      -7.231   0.116   1.836  1.00  0.00     0.340 C 
ATOM      5  O   UNL     1      -8.402   0.073   1.504  1.00  0.00    -0.246 OA
BRANCH   4   6
ATOM      6  C   UNL     1      -6.120   0.175   0.853  1.00  0.00     0.086 A 
ATOM      7  C   UNL     1      -4.140  -0.769  -0.102  1.00  0.00     0.128 A 
ATOM      8  C   UNL     1      -4.309  -0.018  -1.265  1.00  0.00     0.052 A 
ATOM      9  C   UNL     1      -5.101  -0.770   0.906  1.00  0.00     0.065 A 
ATOM     10  C   UNL     1      -5.290   0.971  -1.302  1.00  0.00    -0.024 A 
ATOM     11  C   UNL     1      -5.341   1.936  -2.455  1.00  0.00     0.047 C 
ATOM     12  C   UNL     1      -6.135   1.127  -0.187  1.00  0.00     0.049 A 
BRANCH   7  13
ATOM     13  O   UNL     1      -3.020  -1.520   0.107  1.00  0.00    -0.457 OA
BRANCH  13  14
ATOM     14  C   UNL     1      -1.772  -0.919   0.081  1.00  0.00     0.130 A 
ATOM     15  C   UNL     1      -2.344   1.603   0.454  1.00  0.00     0.048 C 
ATOM     16  C   UNL     1      -1.413   0.439   0.234  1.00  0.00    -0.007 A 
ATOM     17  C   UNL     1      -0.045   0.783   0.150  1.00  0.00     0.027 A 
ATOM     18  C   UNL     1       0.939  -0.188  -0.006  1.00  0.00     0.041 A 
ATOM     19  C   UNL     1      -0.758  -1.883  -0.067  1.00  0.00     0.049 A 
ATOM     20  Cl  UNL     1       2.595   0.273  -0.062  1.00  0.00    -0.084 Cl
ATOM     21  C   UNL     1       0.589  -1.525  -0.103  1.00  0.00     0.024 A 
ENDBRANCH  13  14
ENDBRANCH   7  13
BRANCH  12  22
ATOM     22  N   UNL     1      -6.787   2.342  -0.025  1.00  0.00    -0.398 N 
ATOM     23  H   UNL     1      -6.791   3.000  -0.757  1.00  0.00     0.156 HD
ATOM     24  H   UNL     1      -7.245   2.545   0.823  1.00  0.00     0.156 HD
ENDBRANCH  12  22
ENDBRANCH   4   6
ENDBRANCH   3   4
ENDBRANCH   2   3
ENDBRANCH   1   2
BRANCH   1  25
ATOM     25  O   UNL     1      -8.523   2.267   4.121  1.00  0.00    -0.458 OA
BRANCH  25  26
ATOM     26  C   UNL     1      -7.683   3.223   3.669  1.00  0.00     0.338 C 
ATOM     27  O   UNL     1      -6.489   3.336   3.908  1.00  0.00    -0.246 OA
BRANCH  26  28
ATOM     28  C   UNL     1      -8.368   4.107   2.716  1.00  0.00     0.060 A 
ATOM     29  C   UNL     1      -8.838   3.547   1.539  1.00  0.00     0.016 A 
ATOM     30  C   UNL     1      -8.301   5.494   2.847  1.00  0.00     0.016 A 
ATOM     31  C   UNL     1      -9.042   4.365   0.433  1.00  0.00     0.010 A 
ATOM     32  C   UNL     1      -8.705   6.316   1.783  1.00  0.00     0.010 A 
ATOM     33  C   UNL     1      -9.042   5.764   0.537  1.00  0.00    -0.014 A 
BRANCH  33  34
ATOM     34  C   UNL     1      -9.439   6.602  -0.640  1.00  0.00     0.031 A 
ATOM     35  C   UNL     1      -8.638   7.813  -1.062  1.00  0.00     0.074 A 
ATOM     36  C   UNL     1     -10.552   6.279  -1.337  1.00  0.00     0.049 A 
ATOM     37  N   UNL     1      -8.970   8.773  -1.889  1.00  0.00    -0.248 NA
ATOM     38  C   UNL     1      -7.296   7.979  -0.477  1.00  0.00     0.031 C 
ATOM     39  C   UNL     1     -11.418   5.125  -1.068  1.00  0.00     0.029 A 
ATOM     40  N   UNL     1     -11.160   6.887  -2.411  1.00  0.00    -0.354 N 
ATOM     41  C   UNL     1      -7.931   9.699  -1.851  1.00  0.00     0.074 A 
ATOM     42  C   UNL     1      -6.935   9.168  -0.946  1.00  0.00     0.031 C 
ATOM     43  C   UNL     1     -12.393   5.068  -1.978  1.00  0.00     0.029 A 
ATOM     44  C   UNL     1     -12.341   6.278  -2.778  1.00  0.00     0.049 A 
ATOM     45  H   UNL     1     -10.790   7.676  -2.869  1.00  0.00     0.167 HD
ATOM     46  C   UNL     1      -7.829  10.883  -2.504  1.00  0.00     0.034 A 
ATOM     47  C   UNL     1     -13.342   6.680  -3.582  1.00  0.00     0.034 A 
ATOM     48  C   UNL     1      -8.802  11.365  -3.453  1.00  0.00     0.049 A 
ATOM     49  C   UNL     1     -13.230   8.013  -4.249  1.00  0.00     0.074 A 
ATOM     50  C   UNL     1      -8.770  12.528  -4.203  1.00  0.00     0.029 A 
ATOM     51  N   UNL     1      -9.982  10.714  -3.780  1.00  0.00    -0.354 N 
ATOM     52  N   UNL     1     -12.237   8.867  -4.213  1.00  0.00    -0.248 NA
ATOM     53  C   UNL     1     -14.375   8.444  -5.058  1.00  0.00     0.031 C 
ATOM     54  C   UNL     1      -9.949  12.598  -4.954  1.00  0.00     0.029 A 
ATOM     55  C   UNL     1     -10.699  11.462  -4.699  1.00  0.00     0.049 A 
ATOM     56  H   UNL     1     -10.268   9.847  -3.413  1.00  0.00     0.167 HD
ATOM     57  C   UNL     1     -12.634   9.938  -4.998  1.00  0.00     0.074 A 
ATOM     58  C   UNL     1     -13.943   9.606  -5.528  1.00  0.00     0.031 C 
ATOM     59  C   UNL     1     -11.986  11.103  -5.239  1.00  0.00     0.034 A 
BRANCH  46  60
ATOM     60  C   UNL     1      -6.634  11.764  -2.217  1.00  0.00     0.023 A 
ATOM     61  C   UNL     1      -5.361  11.425  -2.715  1.00  0.00     0.012 A 
ATOM     62  C   UNL     1      -6.796  12.980  -1.518  1.00  0.00     0.148 A 
ATOM     63  C   UNL     1      -4.265  12.263  -2.497  1.00  0.00     0.002 A 
ATOM     64  C   UNL     1      -5.710  13.830  -1.341  1.00  0.00     0.091 A 
ATOM     65  F   UNL     1      -8.011  13.283  -1.039  1.00  0.00    -0.205 F 
ATOM     66  C   UNL     1      -4.441  13.468  -1.820  1.00  0.00     0.022 A 
BRANCH  64  67
ATOM     67  S   UNL     1      -5.850  15.438  -0.550  1.00  0.00     0.127 S 
ATOM     68  O   UNL     1      -5.120  15.217   0.698  1.00  0.00    -0.237 OA
ATOM     69  O   UNL     1      -5.169  16.311  -1.506  1.00  0.00    -0.237 OA
ATOM     70  O   UNL     1      -7.276  15.692  -0.402  1.00  0.00    -0.744 OA
ENDBRANCH  64  67
ENDBRANCH  46  60
BRANCH  47  71
ATOM     71  C   UNL     1     -14.559   5.829  -3.725  1.00  0.00     0.023 A 
ATOM     72  C   UNL     1     -14.832   5.207  -4.956  1.00  0.00     0.012 A 
ATOM     73  C   UNL     1     -15.399   5.568  -2.621  1.00  0.00     0.148 A 
ATOM     74  C   UNL     1     -15.924   4.348  -5.087  1.00  0.00     0.002 A 
ATOM     75  C   UNL     1     -16.438   4.655  -2.739  1.00  0.00     0.091 A 
ATOM     76  F   UNL     1     -15.136   6.187  -1.461  1.00  0.00    -0.205 F 
ATOM     77  C   UNL     1     -16.714   4.057  -3.977  1.00  0.00     0.022 A 
BRANCH  75  78
ATOM     78  S   UNL     1     -17.390   4.097  -1.321  1.00  0.00     0.127 S 
ATOM     79  O   UNL     1     -18.677   4.748  -1.550  1.00  0.00    -0.237 OA
ATOM     80  O   UNL     1     -17.391   2.646  -1.507  1.00  0.00    -0.237 OA
ATOM     81  O   UNL     1     -16.650   4.548  -0.150  1.00  0.00    -0.744 OA
ENDBRANCH  75  78
ENDBRANCH  47  71
BRANCH  59  82
ATOM     82  C   UNL     1     -12.678  12.096  -6.130  1.00  0.00     0.023 A 
ATOM     83  C   UNL     1     -13.785  12.818  -5.641  1.00  0.00     0.012 A 
ATOM     84  C   UNL     1     -12.203  12.347  -7.430  1.00  0.00     0.148 A 
ATOM     85  C   UNL     1     -14.429  13.755  -6.446  1.00  0.00     0.002 A 
ATOM     86  C   UNL     1     -12.817  13.318  -8.209  1.00  0.00     0.091 A 
ATOM     87  F   UNL     1     -11.161  11.633  -7.878  1.00  0.00    -0.205 F 
ATOM     88  C   UNL     1     -13.938  14.013  -7.724  1.00  0.00     0.022 A 
BRANCH  86  89
ATOM     89  S   UNL     1     -12.206  13.784  -9.831  1.00  0.00     0.127 S 
ATOM     90  O   UNL     1     -13.291  13.330 -10.700  1.00  0.00    -0.237 OA
ATOM     91  O   UNL     1     -12.089  15.237  -9.709  1.00  0.00    -0.237 OA
ATOM     92  O   UNL     1     -10.940  13.085 -10.003  1.00  0.00    -0.744 OA
ENDBRANCH  86  89
ENDBRANCH  59  82
ENDBRANCH  33  34
ENDBRANCH  26  28
ENDBRANCH  25  26
ENDBRANCH   1  25
TORSDOF 17
