REMARK SMILES C[C@H]1CCC[C@H](C)N1C(=O)[C@H]1[C@@H](C(=O)OCCOC(=O)c2ccc(-c3c4nc(c(-c5cccc(S(=O)(=O)[O-])c5F)c5ccc([nH]5)c(-c5cccc(S(=O)(=O)[O-])c5F)c5nc(c(-c6cccc(S(=O)(=O)[O-])c6F)c6ccc3[nH]6)C=C5)C=C4)cc2)[C@H]2CC[C@@H]1O2
REMARK SMILES IDX 17 1 16 2 15 3 13 4 14 5 12 6 11 7 87 8 84 9 86 10 88 11
REMARK SMILES IDX 85 12 9 13 1 14 2 15 3 16 8 17 4 18 6 19 5 20 7 21 10 22
REMARK SMILES IDX 18 23 19 24 20 25 21 26 22 27 83 28 23 29 82 30 24 31 25 32
REMARK SMILES IDX 26 33 76 34 27 35 81 36 75 37 77 38 28 39 80 40 74 41 73 42
REMARK SMILES IDX 29 44 61 45 41 46 60 47 42 48 45 49 59 50 78 51 43 52 44 53
REMARK SMILES IDX 58 55 79 56 46 57 30 58 31 59 39 60 32 61 34 62 40 63 33 64
REMARK SMILES IDX 35 65 36 66 37 67 38 68 62 69 63 70 71 71 64 72 66 73 72 74
REMARK SMILES IDX 65 75 67 76 68 77 69 78 70 79 47 80 48 81 56 82 49 83 51 84
REMARK SMILES IDX 57 85 50 86 52 87 53 88 54 89 55 90
REMARK H PARENT 77 43 45 54
REMARK Flexibility Score: inf
ROOT
ATOM      1  C   UNL     1       2.790   6.062   1.598  1.00  0.00     0.275 C 
ENDROOT
BRANCH   1   2
ATOM      2  C   UNL     1       3.495   4.697   1.398  1.00  0.00     0.274 C 
BRANCH   2   3
ATOM      3  O   UNL     1       2.667   3.526   1.636  1.00  0.00    -0.462 OA
BRANCH   3   4
ATOM      4  C   UNL     1       2.762   3.006   2.896  1.00  0.00     0.312 C 
ATOM      5  O   UNL     1       3.567   3.438   3.720  1.00  0.00    -0.252 OA
BRANCH   4   6
ATOM      6  C   UNL     1       1.912   1.742   3.122  1.00  0.00     0.143 C 
ATOM      7  C   UNL     1       0.357   1.602   3.163  1.00  0.00     0.124 C 
ATOM      8  C   UNL     1       0.207   0.571   4.309  1.00  0.00     0.132 C 
ATOM      9  C   UNL     1       2.405   1.012   4.474  1.00  0.00     0.133 C 
ATOM     10  C   UNL     1       0.352   0.983   5.768  1.00  0.00     0.035 C 
ATOM     11  O   UNL     1       1.487  -0.092   4.155  1.00  0.00    -0.373 OA
ATOM     12  C   UNL     1       1.857   0.908   5.949  1.00  0.00     0.036 C 
BRANCH   7  13
ATOM     13  C   UNL     1      -0.708   2.709   3.258  1.00  0.00     0.229 C 
ATOM     14  C   UNL     1      -0.273   2.058   0.183  1.00  0.00     0.031 C 
ATOM     15  C   UNL     1      -1.126   3.200   0.722  1.00  0.00     0.082 C 
ATOM     16  C   UNL     1      -2.570   2.991   0.195  1.00  0.00     0.025 C 
ATOM     17  N   UNL     1      -1.165   3.475   2.178  1.00  0.00    -0.337 N 
ATOM     18  C   UNL     1      -3.553   4.084   0.613  1.00  0.00     0.004 C 
ATOM     19  C   UNL     1      -2.041   4.643   2.536  1.00  0.00     0.082 C 
ATOM     20  C   UNL     1      -3.481   4.337   2.114  1.00  0.00     0.025 C 
ATOM     21  C   UNL     1      -1.611   6.001   1.944  1.00  0.00     0.031 C 
ATOM     22  O   UNL     1      -1.246   2.876   4.362  1.00  0.00    -0.274 OA
ENDBRANCH   7  13
ENDBRANCH   4   6
ENDBRANCH   3   4
ENDBRANCH   2   3
ENDBRANCH   1   2
BRANCH   1  23
ATOM     23  O   UNL     1       2.528   6.468   2.965  1.00  0.00    -0.458 OA
BRANCH  23  24
ATOM     24  C   UNL     1       1.510   5.766   3.497  1.00  0.00     0.338 C 
ATOM     25  O   UNL     1       0.992   4.814   2.940  1.00  0.00    -0.246 OA
BRANCH  24  26
ATOM     26  C   UNL     1       0.888   6.204   4.746  1.00  0.00     0.060 A 
ATOM     27  C   UNL     1       0.424   5.161   5.556  1.00  0.00     0.016 A 
ATOM     28  C   UNL     1       0.397   7.499   4.910  1.00  0.00     0.016 A 
ATOM     29  C   UNL     1      -0.602   5.379   6.459  1.00  0.00     0.010 A 
ATOM     30  C   UNL     1      -0.590   7.734   5.878  1.00  0.00     0.010 A 
ATOM     31  C   UNL     1      -1.110   6.671   6.639  1.00  0.00    -0.014 A 
BRANCH  31  32
ATOM     32  C   UNL     1      -2.038   6.894   7.767  1.00  0.00     0.031 A 
ATOM     33  C   UNL     1      -3.507   7.117   7.583  1.00  0.00     0.074 A 
ATOM     34  C   UNL     1      -1.496   6.838   8.998  1.00  0.00     0.049 A 
ATOM     35  N   UNL     1      -4.416   7.342   8.496  1.00  0.00    -0.248 NA
ATOM     36  C   UNL     1      -4.032   7.080   6.209  1.00  0.00     0.031 C 
ATOM     37  C   UNL     1      -0.075   6.595   9.265  1.00  0.00     0.029 A 
ATOM     38  N   UNL     1      -2.053   6.974  10.239  1.00  0.00    -0.354 N 
ATOM     39  C   UNL     1      -5.616   7.500   7.816  1.00  0.00     0.074 A 
ATOM     40  C   UNL     1      -5.322   7.339   6.406  1.00  0.00     0.031 C 
ATOM     41  C   UNL     1       0.129   6.598  10.587  1.00  0.00     0.029 A 
ATOM     42  C   UNL     1      -1.131   6.902  11.254  1.00  0.00     0.049 A 
ATOM     43  H   UNL     1      -3.016   7.111  10.389  1.00  0.00     0.167 HD
ATOM     44  C   UNL     1      -6.845   7.745   8.334  1.00  0.00     0.034 A 
ATOM     45  C   UNL     1      -1.270   7.091  12.578  1.00  0.00     0.034 A 
ATOM     46  C   UNL     1      -7.117   7.864   9.746  1.00  0.00     0.049 A 
ATOM     47  C   UNL     1      -2.635   7.373  13.116  1.00  0.00     0.074 A 
ATOM     48  C   UNL     1      -8.332   8.082  10.374  1.00  0.00     0.029 A 
ATOM     49  N   UNL     1      -6.163   7.773  10.750  1.00  0.00    -0.354 N 
ATOM     50  N   UNL     1      -3.769   7.459  12.464  1.00  0.00    -0.248 NA
ATOM     51  C   UNL     1      -2.751   7.564  14.566  1.00  0.00     0.031 C 
ATOM     52  C   UNL     1      -8.111   8.130  11.756  1.00  0.00     0.029 A 
ATOM     53  C   UNL     1      -6.759   7.940  11.991  1.00  0.00     0.049 A 
ATOM     54  H   UNL     1      -5.203   7.613  10.602  1.00  0.00     0.167 HD
ATOM     55  C   UNL     1      -4.739   7.710  13.422  1.00  0.00     0.074 A 
ATOM     56  C   UNL     1      -4.060   7.730  14.704  1.00  0.00     0.031 C 
ATOM     57  C   UNL     1      -6.066   7.930  13.254  1.00  0.00     0.034 A 
BRANCH  44  58
ATOM     58  C   UNL     1      -8.011   7.862   7.386  1.00  0.00     0.023 A 
ATOM     59  C   UNL     1      -8.609   6.691   6.881  1.00  0.00     0.012 A 
ATOM     60  C   UNL     1      -8.584   9.114   7.086  1.00  0.00     0.148 A 
ATOM     61  C   UNL     1      -9.756   6.763   6.088  1.00  0.00     0.002 A 
ATOM     62  C   UNL     1      -9.743   9.177   6.317  1.00  0.00     0.091 A 
ATOM     63  F   UNL     1      -7.988  10.221   7.553  1.00  0.00    -0.205 F 
ATOM     64  C   UNL     1     -10.329   8.004   5.817  1.00  0.00     0.022 A 
BRANCH  62  65
ATOM     65  S   UNL     1     -10.582  10.730   5.975  1.00  0.00     0.127 S 
ATOM     66  O   UNL     1     -10.126  11.020   4.616  1.00  0.00    -0.237 OA
ATOM     67  O   UNL     1     -11.994  10.357   6.075  1.00  0.00    -0.237 OA
ATOM     68  O   UNL     1     -10.132  11.656   7.005  1.00  0.00    -0.744 OA
ENDBRANCH  62  65
ENDBRANCH  44  58
BRANCH  45  69
ATOM     69  C   UNL     1      -0.064   6.977  13.440  1.00  0.00     0.023 A 
ATOM     70  C   UNL     1       0.099   5.847  14.259  1.00  0.00     0.012 A 
ATOM     71  C   UNL     1       0.994   7.901  13.321  1.00  0.00     0.148 A 
ATOM     72  C   UNL     1       1.299   5.635  14.939  1.00  0.00     0.002 A 
ATOM     73  C   UNL     1       2.209   7.647  13.944  1.00  0.00     0.091 A 
ATOM     74  F   UNL     1       0.815   8.986  12.552  1.00  0.00    -0.205 F 
ATOM     75  C   UNL     1       2.361   6.521  14.764  1.00  0.00     0.022 A 
BRANCH  73  76
ATOM     76  S   UNL     1       3.657   8.651  13.582  1.00  0.00     0.127 S 
ATOM     77  O   UNL     1       3.587   9.672  14.622  1.00  0.00    -0.237 OA
ATOM     78  O   UNL     1       4.755   7.694  13.732  1.00  0.00    -0.237 OA
ATOM     79  O   UNL     1       3.457   9.106  12.211  1.00  0.00    -0.744 OA
ENDBRANCH  73  76
ENDBRANCH  45  69
BRANCH  57  80
ATOM     80  C   UNL     1      -6.857   8.237  14.494  1.00  0.00     0.023 A 
ATOM     81  C   UNL     1      -6.778   9.528  15.051  1.00  0.00     0.012 A 
ATOM     82  C   UNL     1      -7.689   7.272  15.089  1.00  0.00     0.148 A 
ATOM     83  C   UNL     1      -7.496   9.847  16.202  1.00  0.00     0.002 A 
ATOM     84  C   UNL     1      -8.428   7.607  16.219  1.00  0.00     0.091 A 
ATOM     85  F   UNL     1      -7.729   6.040  14.560  1.00  0.00    -0.205 F 
ATOM     86  C   UNL     1      -8.327   8.890  16.780  1.00  0.00     0.022 A 
BRANCH  84  87
ATOM     87  S   UNL     1      -9.565   6.443  16.977  1.00  0.00     0.127 S 
ATOM     88  O   UNL     1      -8.735   5.850  18.023  1.00  0.00    -0.237 OA
ATOM     89  O   UNL     1     -10.635   7.312  17.469  1.00  0.00    -0.237 OA
ATOM     90  O   UNL     1      -9.973   5.547  15.902  1.00  0.00    -0.744 OA
ENDBRANCH  84  87
ENDBRANCH  57  80
ENDBRANCH  31  32
ENDBRANCH  24  26
ENDBRANCH  23  24
ENDBRANCH   1  23
TORSDOF 15
