REMARK SMILES C[C@H](COc1ccccc1C(=O)OCCOC(=O)c1ccc(-c2c3nc(c(-c4cccc(S(=O)(=O)[O-])c4F)c4ccc([nH]4)c(-c4cccc(S(=O)(=O)[O-])c4F)c4nc(c(-c5cccc(S(=O)(=O)[O-])c5F)c5ccc2[nH]5)C=C4)C=C3)cc1)C(N)=O
REMARK SMILES IDX 14 1 13 2 11 3 12 4 10 5 5 6 6 7 7 8 9 9 8 10 4 11 3 12 2 13
REMARK SMILES IDX 1 14 82 15 83 16 84 17 15 20 16 21 17 22 18 23 19 24 20 25
REMARK SMILES IDX 81 26 21 27 80 28 22 29 23 30 24 31 74 32 25 33 79 34 73 35
REMARK SMILES IDX 75 36 26 37 78 38 72 39 71 40 27 42 59 43 39 44 58 45 40 46
REMARK SMILES IDX 43 47 57 48 76 49 41 50 42 51 56 53 77 54 44 55 28 56 29 57
REMARK SMILES IDX 37 58 30 59 32 60 38 61 31 62 33 63 34 64 35 65 36 66 60 67
REMARK SMILES IDX 61 68 69 69 62 70 64 71 70 72 63 73 65 74 66 75 67 76 68 77
REMARK SMILES IDX 45 78 46 79 54 80 47 81 49 82 55 83 48 84 50 85 51 86 52 87
REMARK SMILES IDX 53 88
REMARK H PARENT 83 18 83 19 75 41 43 52
REMARK Flexibility Score: inf
ROOT
ATOM      1  C   UNL     1      -1.146   0.347  -3.552  1.00  0.00     0.275 C 
ENDROOT
BRANCH   1   2
ATOM      2  O   UNL     1      -1.498  -0.145  -2.240  1.00  0.00    -0.458 OA
BRANCH   2   3
ATOM      3  C   UNL     1      -1.758   0.814  -1.327  1.00  0.00     0.342 C 
ATOM      4  O   UNL     1      -1.693   2.024  -1.488  1.00  0.00    -0.246 OA
BRANCH   3   5
ATOM      5  C   UNL     1      -2.201   0.235  -0.049  1.00  0.00     0.102 A 
ATOM      6  C   UNL     1      -1.288  -0.281   0.877  1.00  0.00     0.133 A 
ATOM      7  C   UNL     1      -1.717  -0.599   2.168  1.00  0.00     0.047 A 
ATOM      8  C   UNL     1      -3.067  -0.455   2.509  1.00  0.00     0.004 A 
ATOM      9  C   UNL     1      -3.551   0.373   0.293  1.00  0.00     0.019 A 
ATOM     10  C   UNL     1      -3.988  -0.004   1.562  1.00  0.00     0.001 A 
BRANCH   6  11
ATOM     11  O   UNL     1      -0.041  -0.641   0.460  1.00  0.00    -0.492 OA
BRANCH  11  12
ATOM     12  C   UNL     1       1.024   0.151   0.982  1.00  0.00     0.242 C 
BRANCH  12  13
ATOM     13  C   UNL     1       2.128   0.218  -0.084  1.00  0.00     0.113 C 
ATOM     14  C   UNL     1       2.720  -1.172  -0.372  1.00  0.00     0.022 C 
BRANCH  13  15
ATOM     15  C   UNL     1       1.663   0.887  -1.375  1.00  0.00     0.223 C 
ATOM     16  N   UNL     1       1.109   2.126  -1.258  1.00  0.00    -0.369 N 
ATOM     17  O   UNL     1       1.844   0.423  -2.498  1.00  0.00    -0.275 OA
ATOM     18  H   UNL     1       0.957   2.515  -0.367  1.00  0.00     0.159 HD
ATOM     19  H   UNL     1       0.862   2.633  -2.065  1.00  0.00     0.159 HD
ENDBRANCH  13  15
ENDBRANCH  12  13
ENDBRANCH  11  12
ENDBRANCH   6  11
ENDBRANCH   3   5
ENDBRANCH   2   3
ENDBRANCH   1   2
BRANCH   1  20
ATOM     20  C   UNL     1      -0.662  -0.815  -4.429  1.00  0.00     0.275 C 
BRANCH  20  21
ATOM     21  O   UNL     1      -1.807  -1.479  -4.994  1.00  0.00    -0.458 OA
BRANCH  21  22
ATOM     22  C   UNL     1      -2.429  -2.315  -4.127  1.00  0.00     0.338 C 
ATOM     23  O   UNL     1      -1.921  -3.030  -3.288  1.00  0.00    -0.246 OA
BRANCH  22  24
ATOM     24  C   UNL     1      -3.842  -1.899  -4.130  1.00  0.00     0.060 A 
ATOM     25  C   UNL     1      -4.339  -1.372  -2.933  1.00  0.00     0.016 A 
ATOM     26  C   UNL     1      -4.619  -1.924  -5.286  1.00  0.00     0.016 A 
ATOM     27  C   UNL     1      -5.619  -0.844  -2.882  1.00  0.00     0.010 A 
ATOM     28  C   UNL     1      -5.920  -1.427  -5.227  1.00  0.00     0.010 A 
ATOM     29  C   UNL     1      -6.423  -0.900  -4.022  1.00  0.00    -0.014 A 
BRANCH  29  30
ATOM     30  C   UNL     1      -7.865  -0.624  -3.890  1.00  0.00     0.031 A 
ATOM     31  C   UNL     1      -8.779  -1.809  -3.828  1.00  0.00     0.074 A 
ATOM     32  C   UNL     1      -8.330   0.633  -3.814  1.00  0.00     0.049 A 
ATOM     33  N   UNL     1     -10.077  -1.860  -3.921  1.00  0.00    -0.248 NA
ATOM     34  C   UNL     1      -8.132  -3.122  -3.649  1.00  0.00     0.031 C 
ATOM     35  C   UNL     1      -7.507   1.841  -3.774  1.00  0.00     0.029 A 
ATOM     36  N   UNL     1      -9.618   1.100  -3.784  1.00  0.00    -0.354 N 
ATOM     37  C   UNL     1     -10.397  -3.212  -3.892  1.00  0.00     0.074 A 
ATOM     38  C   UNL     1      -9.161  -3.946  -3.749  1.00  0.00     0.031 C 
ATOM     39  C   UNL     1      -8.313   2.917  -3.762  1.00  0.00     0.029 A 
ATOM     40  C   UNL     1      -9.699   2.470  -3.859  1.00  0.00     0.049 A 
ATOM     41  H   UNL     1     -10.406   0.513  -3.715  1.00  0.00     0.167 HD
ATOM     42  C   UNL     1     -11.618  -3.781  -3.987  1.00  0.00     0.034 A 
ATOM     43  C   UNL     1     -10.775   3.259  -4.048  1.00  0.00     0.034 A 
ATOM     44  C   UNL     1     -12.829  -3.018  -4.100  1.00  0.00     0.049 A 
ATOM     45  C   UNL     1     -12.123   2.600  -4.188  1.00  0.00     0.074 A 
ATOM     46  C   UNL     1     -14.130  -3.471  -4.195  1.00  0.00     0.029 A 
ATOM     47  N   UNL     1     -12.879  -1.631  -4.139  1.00  0.00    -0.354 N 
ATOM     48  N   UNL     1     -12.428   1.324  -4.142  1.00  0.00    -0.248 NA
ATOM     49  C   UNL     1     -13.277   3.486  -4.391  1.00  0.00     0.031 C 
ATOM     50  C   UNL     1     -14.965  -2.357  -4.323  1.00  0.00     0.029 A 
ATOM     51  C   UNL     1     -14.188  -1.209  -4.261  1.00  0.00     0.049 A 
ATOM     52  H   UNL     1     -12.096  -1.036  -4.087  1.00  0.00     0.167 HD
ATOM     53  C   UNL     1     -13.809   1.254  -4.275  1.00  0.00     0.074 A 
ATOM     54  C   UNL     1     -14.282   2.621  -4.385  1.00  0.00     0.031 C 
ATOM     55  C   UNL     1     -14.619   0.166  -4.316  1.00  0.00     0.034 A 
BRANCH  42  56
ATOM     56  C   UNL     1     -11.686  -5.284  -4.007  1.00  0.00     0.023 A 
ATOM     57  C   UNL     1     -11.397  -6.028  -2.845  1.00  0.00     0.012 A 
ATOM     58  C   UNL     1     -12.042  -5.963  -5.190  1.00  0.00     0.148 A 
ATOM     59  C   UNL     1     -11.421  -7.423  -2.871  1.00  0.00     0.002 A 
ATOM     60  C   UNL     1     -12.114  -7.350  -5.194  1.00  0.00     0.091 A 
ATOM     61  F   UNL     1     -12.283  -5.240  -6.293  1.00  0.00    -0.205 F 
ATOM     62  C   UNL     1     -11.789  -8.082  -4.041  1.00  0.00     0.022 A 
BRANCH  60  63
ATOM     63  S   UNL     1     -12.652  -8.288  -6.627  1.00  0.00     0.127 S 
ATOM     64  O   UNL     1     -11.426  -8.995  -6.995  1.00  0.00    -0.237 OA
ATOM     65  O   UNL     1     -13.699  -9.137  -6.059  1.00  0.00    -0.237 OA
ATOM     66  O   UNL     1     -13.120  -7.309  -7.599  1.00  0.00    -0.744 OA
ENDBRANCH  60  63
ENDBRANCH  42  56
BRANCH  43  67
ATOM     67  C   UNL     1     -10.621   4.740  -4.131  1.00  0.00     0.023 A 
ATOM     68  C   UNL     1     -11.169   5.556  -3.122  1.00  0.00     0.012 A 
ATOM     69  C   UNL     1      -9.921   5.346  -5.194  1.00  0.00     0.148 A 
ATOM     70  C   UNL     1     -11.048   6.946  -3.186  1.00  0.00     0.002 A 
ATOM     71  C   UNL     1      -9.754   6.726  -5.221  1.00  0.00     0.091 A 
ATOM     72  F   UNL     1      -9.421   4.556  -6.156  1.00  0.00    -0.205 F 
ATOM     73  C   UNL     1     -10.333   7.529  -4.228  1.00  0.00     0.022 A 
BRANCH  71  74
ATOM     74  S   UNL     1      -8.742   7.553  -6.454  1.00  0.00     0.127 S 
ATOM     75  O   UNL     1      -9.747   8.281  -7.225  1.00  0.00    -0.237 OA
ATOM     76  O   UNL     1      -7.879   8.390  -5.620  1.00  0.00    -0.237 OA
ATOM     77  O   UNL     1      -8.044   6.493  -7.168  1.00  0.00    -0.744 OA
ENDBRANCH  71  74
ENDBRANCH  43  67
BRANCH  55  78
ATOM     78  C   UNL     1     -16.099   0.410  -4.425  1.00  0.00     0.023 A 
ATOM     79  C   UNL     1     -16.657   0.856  -5.638  1.00  0.00     0.012 A 
ATOM     80  C   UNL     1     -16.945   0.112  -3.338  1.00  0.00     0.148 A 
ATOM     81  C   UNL     1     -18.034   1.036  -5.757  1.00  0.00     0.002 A 
ATOM     82  C   UNL     1     -18.319   0.239  -3.482  1.00  0.00     0.091 A 
ATOM     83  F   UNL     1     -16.389  -0.296  -2.188  1.00  0.00    -0.205 F 
ATOM     84  C   UNL     1     -18.865   0.715  -4.685  1.00  0.00     0.022 A 
BRANCH  82  85
ATOM     85  S   UNL     1     -19.468  -0.255  -2.195  1.00  0.00     0.127 S 
ATOM     86  O   UNL     1     -19.977   1.038  -1.738  1.00  0.00    -0.237 OA
ATOM     87  O   UNL     1     -20.435  -1.064  -2.938  1.00  0.00    -0.237 OA
ATOM     88  O   UNL     1     -18.684  -0.997  -1.216  1.00  0.00    -0.744 OA
ENDBRANCH  82  85
ENDBRANCH  55  78
ENDBRANCH  29  30
ENDBRANCH  22  24
ENDBRANCH  21  22
ENDBRANCH  20  21
ENDBRANCH   1  20
TORSDOF 18
