REMARK SMILES Cc1csc(CNC(=O)NC[C@H]2CC[C@@H](C(=O)OCCOC(=O)c3ccc(-c4c5nc(c(-c6cccc(S(=O)(=O)[O-])c6F)c6ccc([nH]6)c(-c6cccc(S(=O)(=O)[O-])c6F)c6nc(c(-c7cccc(S(=O)(=O)[O-])c7F)c7ccc4[nH]7)C=C6)C=C5)cc3)CC2)n1
REMARK SMILES IDX 19 1 18 2 16 3 17 4 15 5 12 6 13 7 88 8 14 9 87 10 11 11
REMARK SMILES IDX 10 12 7 13 8 14 9 16 6 18 5 19 1 20 2 21 3 22 89 23 4 24
REMARK SMILES IDX 20 25 21 26 22 27 23 28 24 29 25 30 86 31 26 32 85 33 27 34
REMARK SMILES IDX 28 35 29 36 79 37 30 38 84 39 78 40 80 41 31 42 83 43 77 44
REMARK SMILES IDX 76 45 32 47 64 48 44 49 63 50 45 51 48 52 62 53 81 54 46 55
REMARK SMILES IDX 47 56 61 58 82 59 49 60 33 61 34 62 42 63 35 64 37 65 43 66
REMARK SMILES IDX 36 67 38 68 39 69 40 70 41 71 65 72 66 73 74 74 67 75 69 76
REMARK SMILES IDX 75 77 68 78 70 79 71 80 72 81 73 82 50 83 51 84 59 85 52 86
REMARK SMILES IDX 54 87 60 88 53 89 55 90 56 91 57 92 58 93
REMARK H PARENT 7 15 10 17 80 46 48 57
REMARK Flexibility Score: inf
ROOT
ATOM      1  C   UNL     1      -1.469   6.420   5.572  1.00  0.00     0.274 C 
ENDROOT
BRANCH   1   2
ATOM      2  O   UNL     1      -0.189   6.221   4.944  1.00  0.00    -0.462 OA
BRANCH   2   3
ATOM      3  C   UNL     1       0.664   7.276   4.912  1.00  0.00     0.309 C 
ATOM      4  O   UNL     1       0.403   8.392   5.342  1.00  0.00    -0.252 OA
BRANCH   3   5
ATOM      5  C   UNL     1       1.981   6.956   4.205  1.00  0.00     0.099 C 
ATOM      6  C   UNL     1       1.329   5.152   1.913  1.00  0.00     0.008 C 
ATOM      7  C   UNL     1       1.022   6.662   1.900  1.00  0.00     0.006 C 
ATOM      8  C   UNL     1       1.605   4.580   3.313  1.00  0.00     0.006 C 
ATOM      9  C   UNL     1       1.958   7.480   2.775  1.00  0.00     0.015 C 
ATOM     10  C   UNL     1       2.422   5.491   4.226  1.00  0.00     0.015 C 
BRANCH   6  11
ATOM     11  C   UNL     1       0.155   4.380   1.280  1.00  0.00     0.121 C 
BRANCH  11  12
ATOM     12  N   UNL     1      -0.030   4.727  -0.114  1.00  0.00    -0.338 N 
ATOM     13  N   UNL     1       1.225   3.173  -1.372  1.00  0.00    -0.332 N 
ATOM     14  C   UNL     1       0.419   4.231  -1.268  1.00  0.00     0.315 C 
ATOM     15  H   UNL     1       1.505   2.993  -2.298  1.00  0.00     0.165 HD
ATOM     16  O   UNL     1       0.079   4.798  -2.310  1.00  0.00    -0.249 OA
ATOM     17  H   UNL     1      -0.622   5.504  -0.237  1.00  0.00     0.165 HD
BRANCH  13  18
ATOM     18  C   UNL     1       1.778   2.231  -0.421  1.00  0.00     0.185 C 
BRANCH  18  19
ATOM     19  C   UNL     1       0.855   1.056  -0.243  1.00  0.00     0.112 A 
ATOM     20  C   UNL     1      -2.476  -0.298   0.009  1.00  0.00     0.067 C 
ATOM     21  C   UNL     1      -0.999  -0.156  -0.044  1.00  0.00     0.049 A 
ATOM     22  C   UNL     1      -0.066  -1.169   0.039  1.00  0.00     0.090 A 
ATOM     23  N   UNL     1      -0.463   1.112  -0.192  1.00  0.00    -0.245 NA
ATOM     24  S   UNL     1       1.517  -0.526  -0.075  1.00  0.00    -0.125 S 
ENDBRANCH  18  19
ENDBRANCH  13  18
ENDBRANCH  11  12
ENDBRANCH   6  11
ENDBRANCH   3   5
ENDBRANCH   2   3
ENDBRANCH   1   2
BRANCH   1  25
ATOM     25  C   UNL     1      -1.524   5.734   6.938  1.00  0.00     0.275 C 
BRANCH  25  26
ATOM     26  O   UNL     1      -0.640   6.377   7.871  1.00  0.00    -0.458 OA
BRANCH  26  27
ATOM     27  C   UNL     1       0.597   5.838   7.946  1.00  0.00     0.338 C 
ATOM     28  O   UNL     1       1.000   4.828   7.383  1.00  0.00    -0.246 OA
BRANCH  27  29
ATOM     29  C   UNL     1       1.479   6.737   8.699  1.00  0.00     0.060 A 
ATOM     30  C   UNL     1       2.563   7.304   8.023  1.00  0.00     0.016 A 
ATOM     31  C   UNL     1       1.297   6.956  10.064  1.00  0.00     0.016 A 
ATOM     32  C   UNL     1       3.485   8.083   8.711  1.00  0.00     0.010 A 
ATOM     33  C   UNL     1       2.228   7.735  10.757  1.00  0.00     0.010 A 
ATOM     34  C   UNL     1       3.338   8.281  10.088  1.00  0.00    -0.014 A 
BRANCH  34  35
ATOM     35  C   UNL     1       4.411   8.969  10.841  1.00  0.00     0.031 A 
ATOM     36  C   UNL     1       5.355   8.156  11.680  1.00  0.00     0.074 A 
ATOM     37  C   UNL     1       4.553  10.304  10.749  1.00  0.00     0.049 A 
ATOM     38  N   UNL     1       6.334   8.557  12.447  1.00  0.00    -0.248 NA
ATOM     39  C   UNL     1       5.170   6.695  11.651  1.00  0.00     0.031 C 
ATOM     40  C   UNL     1       3.715  11.188   9.939  1.00  0.00     0.029 A 
ATOM     41  N   UNL     1       5.451  11.148  11.350  1.00  0.00    -0.354 N 
ATOM     42  C   UNL     1       6.857   7.406  13.024  1.00  0.00     0.074 A 
ATOM     43  C   UNL     1       6.084   6.291  12.522  1.00  0.00     0.031 C 
ATOM     44  C   UNL     1       4.137  12.453  10.096  1.00  0.00     0.029 A 
ATOM     45  C   UNL     1       5.250  12.472  11.042  1.00  0.00     0.049 A 
ATOM     46  H   UNL     1       6.171  10.835  11.944  1.00  0.00     0.167 HD
ATOM     47  C   UNL     1       7.897   7.287  13.882  1.00  0.00     0.034 A 
ATOM     48  C   UNL     1       5.887  13.574  11.485  1.00  0.00     0.034 A 
ATOM     49  C   UNL     1       8.685   8.396  14.347  1.00  0.00     0.049 A 
ATOM     50  C   UNL     1       7.028  13.415  12.454  1.00  0.00     0.074 A 
ATOM     51  C   UNL     1       9.773   8.383  15.201  1.00  0.00     0.029 A 
ATOM     52  N   UNL     1       8.470   9.720  13.992  1.00  0.00    -0.354 N 
ATOM     53  N   UNL     1       7.559  12.315  12.933  1.00  0.00    -0.248 NA
ATOM     54  C   UNL     1       7.676  14.648  12.923  1.00  0.00     0.031 C 
ATOM     55  C   UNL     1      10.212   9.702  15.369  1.00  0.00     0.029 A 
ATOM     56  C   UNL     1       9.405  10.534  14.609  1.00  0.00     0.049 A 
ATOM     57  H   UNL     1       7.758  10.034  13.390  1.00  0.00     0.167 HD
ATOM     58  C   UNL     1       8.623  12.720  13.731  1.00  0.00     0.074 A 
ATOM     59  C   UNL     1       8.671  14.167  13.656  1.00  0.00     0.031 C 
ATOM     60  C   UNL     1       9.473  11.967  14.472  1.00  0.00     0.034 A 
BRANCH  47  61
ATOM     61  C   UNL     1       8.254   5.901  14.348  1.00  0.00     0.023 A 
ATOM     62  C   UNL     1       8.905   5.017  13.464  1.00  0.00     0.012 A 
ATOM     63  C   UNL     1       7.963   5.479  15.659  1.00  0.00     0.148 A 
ATOM     64  C   UNL     1       9.231   3.722  13.867  1.00  0.00     0.002 A 
ATOM     65  C   UNL     1       8.325   4.199  16.065  1.00  0.00     0.091 A 
ATOM     66  F   UNL     1       7.315   6.321  16.476  1.00  0.00    -0.205 F 
ATOM     67  C   UNL     1       8.950   3.317  15.169  1.00  0.00     0.022 A 
BRANCH  65  68
ATOM     68  S   UNL     1       8.059   3.619  17.745  1.00  0.00     0.127 S 
ATOM     69  O   UNL     1       6.856   2.802  17.589  1.00  0.00    -0.237 OA
ATOM     70  O   UNL     1       9.280   2.858  18.012  1.00  0.00    -0.237 OA
ATOM     71  O   UNL     1       7.909   4.819  18.556  1.00  0.00    -0.744 OA
ENDBRANCH  65  68
ENDBRANCH  47  61
BRANCH  48  72
ATOM     72  C   UNL     1       5.497  14.917  10.971  1.00  0.00     0.023 A 
ATOM     73  C   UNL     1       6.378  15.608  10.118  1.00  0.00     0.012 A 
ATOM     74  C   UNL     1       4.254  15.497  11.291  1.00  0.00     0.148 A 
ATOM     75  C   UNL     1       6.039  16.862   9.609  1.00  0.00     0.002 A 
ATOM     76  C   UNL     1       3.901  16.724  10.740  1.00  0.00     0.091 A 
ATOM     77  F   UNL     1       3.437  14.834  12.122  1.00  0.00    -0.205 F 
ATOM     78  C   UNL     1       4.797  17.415   9.910  1.00  0.00     0.022 A 
BRANCH  76  79
ATOM     79  S   UNL     1       2.275  17.451  10.976  1.00  0.00     0.127 S 
ATOM     80  O   UNL     1       2.569  18.552  11.890  1.00  0.00    -0.237 OA
ATOM     81  O   UNL     1       1.923  17.859   9.615  1.00  0.00    -0.237 OA
ATOM     82  O   UNL     1       1.443  16.384  11.514  1.00  0.00    -0.744 OA
ENDBRANCH  76  79
ENDBRANCH  48  72
BRANCH  60  83
ATOM     83  C   UNL     1      10.553  12.686  15.235  1.00  0.00     0.023 A 
ATOM     84  C   UNL     1      10.224  13.398  16.405  1.00  0.00     0.012 A 
ATOM     85  C   UNL     1      11.900  12.595  14.835  1.00  0.00     0.148 A 
ATOM     86  C   UNL     1      11.217  14.033  17.150  1.00  0.00     0.002 A 
ATOM     87  C   UNL     1      12.890  13.194  15.607  1.00  0.00     0.091 A 
ATOM     88  F   UNL     1      12.191  11.933  13.706  1.00  0.00    -0.205 F 
ATOM     89  C   UNL     1      12.549  13.921  16.758  1.00  0.00     0.022 A 
BRANCH  87  90
ATOM     90  S   UNL     1      14.635  13.018  15.220  1.00  0.00     0.127 S 
ATOM     91  O   UNL     1      14.930  14.297  14.577  1.00  0.00    -0.237 OA
ATOM     92  O   UNL     1      15.236  12.849  16.544  1.00  0.00    -0.237 OA
ATOM     93  O   UNL     1      14.733  11.843  14.364  1.00  0.00    -0.744 OA
ENDBRANCH  87  90
ENDBRANCH  60  83
ENDBRANCH  34  35
ENDBRANCH  27  29
ENDBRANCH  26  27
ENDBRANCH  25  26
ENDBRANCH   1  25
TORSDOF 18
