REMARK SMILES COc1ccc(CNC(=O)[C@H]2CC(C)=C(C)C[C@@H]2C(=O)OCCOC(=O)c2ccc(-c3c4nc(c(-c5cccc(S(=O)(=O)[O-])c5F)c5ccc([nH]5)c(-c5cccc(S(=O)(=O)[O-])c5F)c5nc(c(-c6cccc(S(=O)(=O)[O-])c6F)c6ccc3[nH]6)C=C5)C=C4)cc2)cc1OC
REMARK SMILES IDX 22 1 21 2 19 3 20 4 18 5 11 6 12 7 13 8 17 9 14 10 15 11
REMARK SMILES IDX 16 12 9 13 8 14 10 16 7 17 6 18 3 19 4 20 91 21 5 22 90 23
REMARK SMILES IDX 2 24 1 25 92 26 93 27 23 28 24 29 25 30 26 31 27 32 28 33
REMARK SMILES IDX 89 34 29 35 88 36 30 37 31 38 32 39 82 40 33 41 87 42 81 43
REMARK SMILES IDX 83 44 34 45 86 46 80 47 79 48 35 50 67 51 47 52 66 53 48 54
REMARK SMILES IDX 51 55 65 56 84 57 49 58 50 59 64 61 85 62 52 63 36 64 37 65
REMARK SMILES IDX 45 66 38 67 40 68 46 69 39 70 41 71 42 72 43 73 44 74 68 75
REMARK SMILES IDX 69 76 77 77 70 78 72 79 78 80 71 81 73 82 74 83 75 84 76 85
REMARK SMILES IDX 53 86 54 87 62 88 55 89 57 90 63 91 56 92 58 93 59 94 60 95
REMARK SMILES IDX 61 96
REMARK H PARENT 8 15 83 49 51 60
REMARK Flexibility Score: inf
ROOT
ATOM      1  C   UNL     1      -3.761  -8.719   4.761  1.00  0.00     0.274 C 
ENDROOT
BRANCH   1   2
ATOM      2  O   UNL     1      -2.374  -8.851   4.395  1.00  0.00    -0.462 OA
BRANCH   2   3
ATOM      3  C   UNL     1      -1.501  -8.200   5.210  1.00  0.00     0.310 C 
ATOM      4  O   UNL     1      -1.838  -7.409   6.083  1.00  0.00    -0.252 OA
BRANCH   3   5
ATOM      5  C   UNL     1      -0.043  -8.503   4.895  1.00  0.00     0.116 C 
ATOM      6  C   UNL     1       0.499  -7.356   4.010  1.00  0.00     0.097 C 
ATOM      7  C   UNL     1       1.342  -7.817   2.822  1.00  0.00     0.045 C 
ATOM      8  C   UNL     1       1.260  -9.236   2.342  1.00  0.00    -0.074 C 
ATOM      9  C   UNL     1       0.193  -9.962   4.471  1.00  0.00     0.046 C 
ATOM     10  C   UNL     1       1.832  -9.439   0.961  1.00  0.00     0.039 C 
ATOM     11  C   UNL     1       0.767 -10.221   3.110  1.00  0.00    -0.073 C 
ATOM     12  C   UNL     1       0.824 -11.674   2.713  1.00  0.00     0.039 C 
BRANCH   6  13
ATOM     13  C   UNL     1       1.208  -6.316   4.913  1.00  0.00     0.224 C 
ATOM     14  N   UNL     1       1.825  -5.207   4.435  1.00  0.00    -0.352 N 
ATOM     15  H   UNL     1       1.942  -4.497   5.107  1.00  0.00     0.163 HD
ATOM     16  O   UNL     1       1.163  -6.386   6.144  1.00  0.00    -0.275 OA
BRANCH  14  17
ATOM     17  C   UNL     1       2.342  -4.866   3.135  1.00  0.00     0.151 C 
BRANCH  17  18
ATOM     18  C   UNL     1       1.992  -3.476   2.688  1.00  0.00    -0.025 A 
ATOM     19  C   UNL     1       1.335  -1.016   1.508  1.00  0.00     0.160 A 
ATOM     20  C   UNL     1       0.363  -1.756   2.197  1.00  0.00     0.051 A 
ATOM     21  C   UNL     1       2.655  -1.476   1.448  1.00  0.00     0.161 A 
ATOM     22  C   UNL     1       0.685  -2.987   2.770  1.00  0.00     0.009 A 
ATOM     23  C   UNL     1       2.967  -2.702   2.043  1.00  0.00     0.056 A 
BRANCH  19  24
ATOM     24  O   UNL     1       0.981   0.186   0.953  1.00  0.00    -0.493 OA
ATOM     25  C   UNL     1       0.013   0.021  -0.084  1.00  0.00     0.278 C 
ENDBRANCH  19  24
BRANCH  21  26
ATOM     26  O   UNL     1       3.739  -0.888   0.856  1.00  0.00    -0.493 OA
ATOM     27  C   UNL     1       3.502   0.122  -0.110  1.00  0.00     0.278 C 
ENDBRANCH  21  26
ENDBRANCH  17  18
ENDBRANCH  14  17
ENDBRANCH   6  13
ENDBRANCH   3   5
ENDBRANCH   2   3
ENDBRANCH   1   2
BRANCH   1  28
ATOM     28  C   UNL     1      -4.218  -9.921   5.586  1.00  0.00     0.275 C 
BRANCH  28  29
ATOM     29  O   UNL     1      -3.414 -10.054   6.772  1.00  0.00    -0.458 OA
BRANCH  29  30
ATOM     30  C   UNL     1      -2.703 -11.200   6.874  1.00  0.00     0.338 C 
ATOM     31  O   UNL     1      -2.695 -12.139   6.096  1.00  0.00    -0.246 OA
BRANCH  30  32
ATOM     32  C   UNL     1      -1.884 -11.171   8.095  1.00  0.00     0.060 A 
ATOM     33  C   UNL     1      -0.770 -10.333   8.163  1.00  0.00     0.016 A 
ATOM     34  C   UNL     1      -2.154 -12.070   9.125  1.00  0.00     0.016 A 
ATOM     35  C   UNL     1       0.116 -10.430   9.234  1.00  0.00     0.010 A 
ATOM     36  C   UNL     1      -1.301 -12.120  10.230  1.00  0.00     0.010 A 
ATOM     37  C   UNL     1      -0.142 -11.324  10.280  1.00  0.00    -0.014 A 
BRANCH  37  38
ATOM     38  C   UNL     1       0.806 -11.462  11.415  1.00  0.00     0.031 A 
ATOM     39  C   UNL     1       1.519 -12.768  11.638  1.00  0.00     0.074 A 
ATOM     40  C   UNL     1       0.997 -10.435  12.266  1.00  0.00     0.049 A 
ATOM     41  N   UNL     1       2.235 -13.156  12.661  1.00  0.00    -0.248 NA
ATOM     42  C   UNL     1       1.401 -13.777  10.571  1.00  0.00     0.031 C 
ATOM     43  C   UNL     1       0.379  -9.114  12.150  1.00  0.00     0.029 A 
ATOM     44  N   UNL     1       1.744 -10.354  13.415  1.00  0.00    -0.354 N 
ATOM     45  C   UNL     1       2.608 -14.467  12.388  1.00  0.00     0.074 A 
ATOM     46  C   UNL     1       2.041 -14.810  11.102  1.00  0.00     0.031 C 
ATOM     47  C   UNL     1       0.755  -8.359  13.194  1.00  0.00     0.029 A 
ATOM     48  C   UNL     1       1.597  -9.157  14.078  1.00  0.00     0.049 A 
ATOM     49  H   UNL     1       2.327 -11.080  13.733  1.00  0.00     0.167 HD
ATOM     50  C   UNL     1       3.367 -15.304  13.135  1.00  0.00     0.034 A 
ATOM     51  C   UNL     1       2.057  -8.761  15.281  1.00  0.00     0.034 A 
ATOM     52  C   UNL     1       3.972 -14.942  14.389  1.00  0.00     0.049 A 
ATOM     53  C   UNL     1       2.899  -9.709  16.090  1.00  0.00     0.074 A 
ATOM     54  C   UNL     1       4.768 -15.713  15.216  1.00  0.00     0.029 A 
ATOM     55  N   UNL     1       3.860 -13.697  14.989  1.00  0.00    -0.354 N 
ATOM     56  N   UNL     1       3.286 -10.927  15.794  1.00  0.00    -0.248 NA
ATOM     57  C   UNL     1       3.386  -9.223  17.389  1.00  0.00     0.031 C 
ATOM     58  C   UNL     1       5.141 -14.933  16.317  1.00  0.00     0.029 A 
ATOM     59  C   UNL     1       4.580 -13.674  16.171  1.00  0.00     0.049 A 
ATOM     60  H   UNL     1       3.345 -12.940  14.627  1.00  0.00     0.167 HD
ATOM     61  C   UNL     1       4.078 -11.344  16.857  1.00  0.00     0.074 A 
ATOM     62  C   UNL     1       4.139 -10.239  17.791  1.00  0.00     0.031 C 
ATOM     63  C   UNL     1       4.680 -12.543  17.055  1.00  0.00     0.034 A 
BRANCH  50  64
ATOM     64  C   UNL     1       3.623 -16.685  12.594  1.00  0.00     0.023 A 
ATOM     65  C   UNL     1       4.556 -16.855  11.552  1.00  0.00     0.012 A 
ATOM     66  C   UNL     1       2.988 -17.815  13.146  1.00  0.00     0.148 A 
ATOM     67  C   UNL     1       4.835 -18.126  11.050  1.00  0.00     0.002 A 
ATOM     68  C   UNL     1       3.298 -19.082  12.664  1.00  0.00     0.091 A 
ATOM     69  F   UNL     1       2.085 -17.630  14.120  1.00  0.00    -0.205 F 
ATOM     70  C   UNL     1       4.215 -19.239  11.612  1.00  0.00     0.022 A 
BRANCH  68  71
ATOM     71  S   UNL     1       2.599 -20.581  13.368  1.00  0.00     0.127 S 
ATOM     72  O   UNL     1       1.626 -20.962  12.346  1.00  0.00    -0.237 OA
ATOM     73  O   UNL     1       3.767 -21.458  13.455  1.00  0.00    -0.237 OA
ATOM     74  O   UNL     1       2.039 -20.192  14.656  1.00  0.00    -0.744 OA
ENDBRANCH  68  71
ENDBRANCH  50  64
BRANCH  51  75
ATOM     75  C   UNL     1       1.748  -7.391  15.778  1.00  0.00     0.023 A 
ATOM     76  C   UNL     1       2.779  -6.435  15.855  1.00  0.00     0.012 A 
ATOM     77  C   UNL     1       0.439  -7.017  16.140  1.00  0.00     0.148 A 
ATOM     78  C   UNL     1       2.517  -5.140  16.303  1.00  0.00     0.002 A 
ATOM     79  C   UNL     1       0.174  -5.710  16.534  1.00  0.00     0.091 A 
ATOM     80  F   UNL     1      -0.528  -7.945  16.088  1.00  0.00    -0.205 F 
ATOM     81  C   UNL     1       1.214  -4.773  16.630  1.00  0.00     0.022 A 
BRANCH  79  82
ATOM     82  S   UNL     1      -1.502  -5.138  16.839  1.00  0.00     0.127 S 
ATOM     83  O   UNL     1      -1.592  -5.232  18.293  1.00  0.00    -0.237 OA
ATOM     84  O   UNL     1      -1.468  -3.772  16.313  1.00  0.00    -0.237 OA
ATOM     85  O   UNL     1      -2.355  -6.044  16.081  1.00  0.00    -0.744 OA
ENDBRANCH  79  82
ENDBRANCH  51  75
BRANCH  63  86
ATOM     86  C   UNL     1       5.477 -12.717  18.320  1.00  0.00     0.023 A 
ATOM     87  C   UNL     1       4.802 -12.916  19.540  1.00  0.00     0.012 A 
ATOM     88  C   UNL     1       6.884 -12.758  18.289  1.00  0.00     0.148 A 
ATOM     89  C   UNL     1       5.518 -13.129  20.717  1.00  0.00     0.002 A 
ATOM     90  C   UNL     1       7.590 -13.009  19.460  1.00  0.00     0.091 A 
ATOM     91  F   UNL     1       7.507 -12.543  17.121  1.00  0.00    -0.205 F 
ATOM     92  C   UNL     1       6.909 -13.187  20.676  1.00  0.00     0.022 A 
BRANCH  90  93
ATOM     93  S   UNL     1       9.378 -13.183  19.478  1.00  0.00     0.127 S 
ATOM     94  O   UNL     1       9.800 -11.883  19.996  1.00  0.00    -0.237 OA
ATOM     95  O   UNL     1       9.577 -14.301  20.402  1.00  0.00    -0.237 OA
ATOM     96  O   UNL     1       9.761 -13.468  18.102  1.00  0.00    -0.744 OA
ENDBRANCH  90  93
ENDBRANCH  63  86
ENDBRANCH  37  38
ENDBRANCH  30  32
ENDBRANCH  29  30
ENDBRANCH  28  29
ENDBRANCH   1  28
TORSDOF 19
