REMARK SMILES CCc1noc(C)c1C(=O)Nc1cc(Cl)ccc1C(=O)OCCOC(=O)c1ccc(-c2c3nc(c(-c4cccc(S(=O)(=O)[O-])c4F)c4ccc([nH]4)c(-c4cccc(S(=O)(=O)[O-])c4F)c4nc(c(-c5cccc(S(=O)(=O)[O-])c5F)c5ccc2[nH]5)C=C4)C=C3)cc1
REMARK SMILES IDX 22 1 21 2 19 3 20 4 18 5 12 6 13 7 14 8 17 9 15 10 16 11
REMARK SMILES IDX 11 12 9 13 10 14 8 16 3 17 4 18 5 19 6 20 7 21 2 22 1 23
REMARK SMILES IDX 23 24 24 25 25 26 26 27 27 28 28 29 89 30 29 31 88 32 30 33
REMARK SMILES IDX 31 34 32 35 82 36 33 37 87 38 81 39 83 40 34 41 86 42 80 43
REMARK SMILES IDX 79 44 35 46 67 47 47 48 66 49 48 50 51 51 65 52 84 53 49 54
REMARK SMILES IDX 50 55 64 57 85 58 52 59 36 60 37 61 45 62 38 63 40 64 46 65
REMARK SMILES IDX 39 66 41 67 42 68 43 69 44 70 68 71 69 72 77 73 70 74 72 75
REMARK SMILES IDX 78 76 71 77 73 78 74 79 75 80 76 81 53 82 54 83 62 84 55 85
REMARK SMILES IDX 57 86 63 87 56 88 58 89 59 90 60 91 61 92
REMARK H PARENT 11 15 83 45 51 56
REMARK Flexibility Score: inf
ROOT
ATOM      1  C   UNL     1       3.640  -7.781   2.359  1.00  0.00     0.275 C 
ENDROOT
BRANCH   1   2
ATOM      2  O   UNL     1       2.973  -6.769   3.147  1.00  0.00    -0.458 OA
BRANCH   2   3
ATOM      3  C   UNL     1       2.742  -7.062   4.452  1.00  0.00     0.340 C 
ATOM      4  O   UNL     1       3.072  -8.097   5.011  1.00  0.00    -0.246 OA
BRANCH   3   5
ATOM      5  C   UNL     1       2.039  -5.957   5.181  1.00  0.00     0.083 A 
ATOM      6  C   UNL     1       1.286  -4.935   4.566  1.00  0.00     0.057 A 
ATOM      7  C   UNL     1       0.566  -4.036   5.368  1.00  0.00     0.047 A 
ATOM      8  C   UNL     1       0.722  -4.047   6.755  1.00  0.00     0.043 A 
ATOM      9  C   UNL     1       2.179  -5.949   6.582  1.00  0.00     0.019 A 
ATOM     10  Cl  UNL     1      -0.105  -2.885   7.716  1.00  0.00    -0.084 Cl
ATOM     11  C   UNL     1       1.562  -4.971   7.362  1.00  0.00     0.021 A 
BRANCH   6  12
ATOM     12  N   UNL     1       1.255  -4.838   3.168  1.00  0.00    -0.321 N 
ATOM     13  C   UNL     1       1.126  -3.789   2.292  1.00  0.00     0.261 C 
ATOM     14  O   UNL     1       0.871  -4.100   1.125  1.00  0.00    -0.269 OA
ATOM     15  H   UNL     1       1.345  -5.709   2.719  1.00  0.00     0.170 HD
BRANCH  13  16
ATOM     16  C   UNL     1       1.331  -2.397   2.668  1.00  0.00     0.105 A 
ATOM     17  C   UNL     1       0.915  -1.252   1.908  1.00  0.00     0.096 A 
ATOM     18  N   UNL     1       1.162  -0.113   2.565  1.00  0.00    -0.084 NA
ATOM     19  O   UNL     1       1.914  -0.470   3.654  1.00  0.00    -0.361 OA
ATOM     20  C   UNL     1       2.096  -1.817   3.670  1.00  0.00     0.146 A 
ATOM     21  C   UNL     1       3.078  -2.254   4.686  1.00  0.00     0.092 C 
BRANCH  17  22
ATOM     22  C   UNL     1       0.311  -1.191   0.540  1.00  0.00     0.057 C 
ATOM     23  C   UNL     1       0.832  -0.023  -0.293  1.00  0.00     0.011 C 
ENDBRANCH  17  22
ENDBRANCH  13  16
ENDBRANCH   6  12
ENDBRANCH   3   5
ENDBRANCH   2   3
ENDBRANCH   1   2
BRANCH   1  24
ATOM     24  C   UNL     1       5.095  -7.414   2.053  1.00  0.00     0.275 C 
BRANCH  24  25
ATOM     25  O   UNL     1       5.907  -7.456   3.238  1.00  0.00    -0.458 OA
BRANCH  25  26
ATOM     26  C   UNL     1       6.087  -6.260   3.842  1.00  0.00     0.338 C 
ATOM     27  O   UNL     1       5.668  -5.175   3.473  1.00  0.00    -0.246 OA
BRANCH  26  28
ATOM     28  C   UNL     1       6.726  -6.448   5.151  1.00  0.00     0.060 A 
ATOM     29  C   UNL     1       5.880  -6.476   6.255  1.00  0.00     0.016 A 
ATOM     30  C   UNL     1       8.107  -6.427   5.322  1.00  0.00     0.016 A 
ATOM     31  C   UNL     1       6.397  -6.404   7.541  1.00  0.00     0.010 A 
ATOM     32  C   UNL     1       8.632  -6.427   6.624  1.00  0.00     0.010 A 
ATOM     33  C   UNL     1       7.782  -6.380   7.747  1.00  0.00    -0.014 A 
BRANCH  33  34
ATOM     34  C   UNL     1       8.314  -6.264   9.135  1.00  0.00     0.031 A 
ATOM     35  C   UNL     1       9.191  -5.100   9.521  1.00  0.00     0.074 A 
ATOM     36  C   UNL     1       7.994  -7.191  10.062  1.00  0.00     0.049 A 
ATOM     37  N   UNL     1       9.843  -4.893  10.636  1.00  0.00    -0.248 NA
ATOM     38  C   UNL     1       9.369  -4.036   8.520  1.00  0.00     0.031 C 
ATOM     39  C   UNL     1       7.141  -8.359   9.829  1.00  0.00     0.029 A 
ATOM     40  N   UNL     1       8.355  -7.306  11.382  1.00  0.00    -0.354 N 
ATOM     41  C   UNL     1      10.572  -3.724  10.442  1.00  0.00     0.074 A 
ATOM     42  C   UNL     1      10.268  -3.257   9.107  1.00  0.00     0.031 C 
ATOM     43  C   UNL     1       7.034  -9.063  10.966  1.00  0.00     0.029 A 
ATOM     44  C   UNL     1       7.878  -8.449  11.984  1.00  0.00     0.049 A 
ATOM     45  H   UNL     1       8.902  -6.636  11.853  1.00  0.00     0.167 HD
ATOM     46  C   UNL     1      11.414  -3.097  11.298  1.00  0.00     0.034 A 
ATOM     47  C   UNL     1       8.129  -8.978  13.197  1.00  0.00     0.034 A 
ATOM     48  C   UNL     1      11.657  -3.526  12.650  1.00  0.00     0.049 A 
ATOM     49  C   UNL     1       9.059  -8.255  14.130  1.00  0.00     0.074 A 
ATOM     50  C   UNL     1      12.444  -2.920  13.614  1.00  0.00     0.029 A 
ATOM     51  N   UNL     1      11.120  -4.663  13.231  1.00  0.00    -0.354 N 
ATOM     52  N   UNL     1       9.687  -7.119  13.951  1.00  0.00    -0.248 NA
ATOM     53  C   UNL     1       9.304  -8.878  15.438  1.00  0.00     0.031 C 
ATOM     54  C   UNL     1      12.406  -3.708  14.769  1.00  0.00     0.029 A 
ATOM     55  C   UNL     1      11.567  -4.785  14.536  1.00  0.00     0.049 A 
ATOM     56  H   UNL     1      10.509  -5.292  12.783  1.00  0.00     0.167 HD
ATOM     57  C   UNL     1      10.381  -6.878  15.130  1.00  0.00     0.074 A 
ATOM     58  C   UNL     1      10.073  -7.973  16.027  1.00  0.00     0.031 C 
ATOM     59  C   UNL     1      11.213  -5.853  15.436  1.00  0.00     0.034 A 
BRANCH  46  60
ATOM     60  C   UNL     1      12.142  -1.872  10.806  1.00  0.00     0.023 A 
ATOM     61  C   UNL     1      11.452  -0.657  10.632  1.00  0.00     0.012 A 
ATOM     62  C   UNL     1      13.534  -1.913  10.585  1.00  0.00     0.148 A 
ATOM     63  C   UNL     1      12.129   0.490  10.216  1.00  0.00     0.002 A 
ATOM     64  C   UNL     1      14.209  -0.756  10.216  1.00  0.00     0.091 A 
ATOM     65  F   UNL     1      14.171  -3.083  10.737  1.00  0.00    -0.205 F 
ATOM     66  C   UNL     1      13.507   0.443  10.019  1.00  0.00     0.022 A 
BRANCH  64  67
ATOM     67  S   UNL     1      15.994  -0.696  10.020  1.00  0.00     0.127 S 
ATOM     68  O   UNL     1      16.127  -0.531   8.573  1.00  0.00    -0.237 OA
ATOM     69  O   UNL     1      16.350   0.488  10.804  1.00  0.00    -0.237 OA
ATOM     70  O   UNL     1      16.501  -1.952  10.553  1.00  0.00    -0.744 OA
ENDBRANCH  64  67
ENDBRANCH  46  60
BRANCH  47  71
ATOM     71  C   UNL     1       7.499 -10.272  13.589  1.00  0.00     0.023 A 
ATOM     72  C   UNL     1       6.540 -10.300  14.619  1.00  0.00     0.012 A 
ATOM     73  C   UNL     1       7.825 -11.470  12.922  1.00  0.00     0.148 A 
ATOM     74  C   UNL     1       5.937 -11.501  14.995  1.00  0.00     0.002 A 
ATOM     75  C   UNL     1       7.173 -12.650  13.256  1.00  0.00     0.091 A 
ATOM     76  F   UNL     1       8.757 -11.428  11.959  1.00  0.00    -0.205 F 
ATOM     77  C   UNL     1       6.242 -12.672  14.306  1.00  0.00     0.022 A 
BRANCH  75  78
ATOM     78  S   UNL     1       7.396 -14.165  12.319  1.00  0.00     0.127 S 
ATOM     79  O   UNL     1       8.175 -14.979  13.247  1.00  0.00    -0.237 OA
ATOM     80  O   UNL     1       6.014 -14.606  12.122  1.00  0.00    -0.237 OA
ATOM     81  O   UNL     1       8.076 -13.770  11.093  1.00  0.00    -0.744 OA
ENDBRANCH  75  78
ENDBRANCH  47  71
BRANCH  59  82
ATOM     82  C   UNL     1      11.819  -5.837  16.814  1.00  0.00     0.023 A 
ATOM     83  C   UNL     1      12.832  -6.756  17.148  1.00  0.00     0.012 A 
ATOM     84  C   UNL     1      11.426  -4.866  17.756  1.00  0.00     0.148 A 
ATOM     85  C   UNL     1      13.421  -6.731  18.412  1.00  0.00     0.002 A 
ATOM     86  C   UNL     1      12.054  -4.814  18.994  1.00  0.00     0.091 A 
ATOM     87  F   UNL     1      10.446  -4.013  17.425  1.00  0.00    -0.205 F 
ATOM     88  C   UNL     1      13.041  -5.754  19.329  1.00  0.00     0.022 A 
BRANCH  86  89
ATOM     89  S   UNL     1      11.697  -3.532  20.200  1.00  0.00     0.127 S 
ATOM     90  O   UNL     1      10.963  -4.278  21.220  1.00  0.00    -0.237 OA
ATOM     91  O   UNL     1      13.037  -3.104  20.603  1.00  0.00    -0.237 OA
ATOM     92  O   UNL     1      10.928  -2.517  19.492  1.00  0.00    -0.744 OA
ENDBRANCH  86  89
ENDBRANCH  59  82
ENDBRANCH  33  34
ENDBRANCH  26  28
ENDBRANCH  25  26
ENDBRANCH  24  25
ENDBRANCH   1  24
TORSDOF 17
