REMARK SMILES C=CCN1C(=O)/C(=C/c2ccc(OCC(=O)OCCOC(=O)c3ccc(-c4c5nc(c(-c6cccc(S(=O)(=O)[O-])c6F)c6ccc([nH]6)c(-c6cccc(S(=O)(=O)[O-])c6F)c6nc(c(-c7cccc(S(=O)(=O)[O-])c7F)c7ccc4[nH]7)C=C6)C=C5)cc3)c(OC)c2)C(=O)[NH+]=C1S
REMARK SMILES IDX 18 1 17 2 15 3 16 4 14 5 13 6 12 7 9 8 10 9 89 10 11 11
REMARK SMILES IDX 86 12 8 13 4 14 5 15 93 16 6 17 7 18 92 19 90 20 91 22 3 23
REMARK SMILES IDX 2 24 1 25 94 26 87 28 88 29 19 30 20 31 21 32 22 33 23 34
REMARK SMILES IDX 24 35 85 36 25 37 84 38 26 39 27 40 28 41 78 42 29 43 83 44
REMARK SMILES IDX 77 45 79 46 30 47 82 48 76 49 75 50 31 52 63 53 43 54 62 55
REMARK SMILES IDX 44 56 47 57 61 58 80 59 45 60 46 61 60 63 81 64 48 65 32 66
REMARK SMILES IDX 33 67 41 68 34 69 36 70 42 71 35 72 37 73 38 74 39 75 40 76
REMARK SMILES IDX 64 77 65 78 73 79 66 80 68 81 74 82 67 83 69 84 70 85 71 86
REMARK SMILES IDX 72 87 49 88 50 89 58 90 51 91 53 92 59 93 52 94 54 95 55 96
REMARK SMILES IDX 56 97 57 98
REMARK H PARENT 92 21 94 27 79 51 47 62
REMARK Flexibility Score: inf
ROOT
ATOM      1  C   UNL     1      -3.482  10.837   0.500  1.00  0.00     0.274 C 
ENDROOT
BRANCH   1   2
ATOM      2  O   UNL     1      -4.579  10.098   1.088  1.00  0.00    -0.460 OA
BRANCH   2   3
ATOM      3  C   UNL     1      -5.815  10.387   0.607  1.00  0.00     0.344 C 
ATOM      4  O   UNL     1      -6.037  11.254  -0.237  1.00  0.00    -0.248 OA
BRANCH   3   5
ATOM      5  C   UNL     1      -6.957   9.587   1.249  1.00  0.00     0.352 C 
BRANCH   5   6
ATOM      6  O   UNL     1      -6.770   8.639   2.283  1.00  0.00    -0.478 OA
BRANCH   6   7
ATOM      7  C   UNL     1      -6.288   7.391   1.995  1.00  0.00     0.162 A 
ATOM      8  C   UNL     1      -4.947   4.922   1.726  1.00  0.00    -0.021 A 
ATOM      9  C   UNL     1      -5.031   5.529   2.973  1.00  0.00     0.012 A 
ATOM     10  C   UNL     1      -5.637   5.493   0.654  1.00  0.00     0.058 A 
ATOM     11  C   UNL     1      -5.679   6.766   3.096  1.00  0.00     0.051 A 
ATOM     12  C   UNL     1      -6.372   6.681   0.794  1.00  0.00     0.161 A 
BRANCH   8  13
ATOM     13  C   UNL     1      -4.206   3.679   1.481  1.00  0.00     0.032 C 
ATOM     14  N   UNL     1      -1.561   2.146  -0.513  1.00  0.00    -0.183 N 
ATOM     15  C   UNL     1      -2.600   2.209   0.404  1.00  0.00     0.349 C 
ATOM     16  C   UNL     1      -1.054   3.313  -1.035  1.00  0.00     0.318 C 
ATOM     17  O   UNL     1      -3.167   1.217   0.862  1.00  0.00    -0.240 OA
ATOM     18  C   UNL     1      -3.055   3.573   0.777  1.00  0.00     0.154 C 
ATOM     19  N   UNL     1      -1.361   4.505  -0.660  1.00  0.00    -0.200 N 
ATOM     20  C   UNL     1      -2.244   4.730   0.346  1.00  0.00     0.347 C 
ATOM     21  H   UNL     1      -0.946   5.272  -1.115  1.00  0.00     0.316 HD
ATOM     22  O   UNL     1      -2.305   5.822   0.910  1.00  0.00    -0.241 OA
BRANCH  14  23
ATOM     23  C   UNL     1      -1.200   0.801  -0.997  1.00  0.00     0.275 C 
BRANCH  23  24
ATOM     24  C   UNL     1       0.242   0.458  -0.729  1.00  0.00     0.011 C 
ATOM     25  C   UNL     1       0.734  -0.070   0.398  1.00  0.00     0.008 C 
ENDBRANCH  23  24
ENDBRANCH  14  23
BRANCH  16  26
ATOM     26  S   UNL     1       0.137   3.264  -2.316  1.00  0.00    -0.055 SA
ATOM     27  H   UNL     1       0.398   1.971  -2.644  1.00  0.00     0.116 HD
ENDBRANCH  16  26
ENDBRANCH   8  13
BRANCH  12  28
ATOM     28  O   UNL     1      -7.198   7.143  -0.195  1.00  0.00    -0.493 OA
ATOM     29  C   UNL     1      -7.505   6.209  -1.225  1.00  0.00     0.278 C 
ENDBRANCH  12  28
ENDBRANCH   6   7
ENDBRANCH   5   6
ENDBRANCH   3   5
ENDBRANCH   2   3
ENDBRANCH   1   2
BRANCH   1  30
ATOM     30  C   UNL     1      -2.741  10.023  -0.562  1.00  0.00     0.275 C 
BRANCH  30  31
ATOM     31  O   UNL     1      -3.557   9.851  -1.738  1.00  0.00    -0.458 OA
BRANCH  31  32
ATOM     32  C   UNL     1      -4.230   8.683  -1.742  1.00  0.00     0.338 C 
ATOM     33  O   UNL     1      -4.165   7.801  -0.901  1.00  0.00    -0.246 OA
BRANCH  32  34
ATOM     34  C   UNL     1      -5.112   8.513  -2.897  1.00  0.00     0.060 A 
ATOM     35  C   UNL     1      -6.426   8.972  -2.817  1.00  0.00     0.016 A 
ATOM     36  C   UNL     1      -4.743   7.566  -3.856  1.00  0.00     0.016 A 
ATOM     37  C   UNL     1      -7.398   8.392  -3.634  1.00  0.00     0.010 A 
ATOM     38  C   UNL     1      -5.710   7.028  -4.707  1.00  0.00     0.010 A 
ATOM     39  C   UNL     1      -7.057   7.397  -4.570  1.00  0.00    -0.014 A 
BRANCH  39  40
ATOM     40  C   UNL     1      -8.087   6.804  -5.463  1.00  0.00     0.031 A 
ATOM     41  C   UNL     1      -8.418   5.330  -5.462  1.00  0.00     0.074 A 
ATOM     42  C   UNL     1      -8.683   7.627  -6.345  1.00  0.00     0.049 A 
ATOM     43  N   UNL     1      -9.197   4.659  -6.274  1.00  0.00    -0.248 NA
ATOM     44  C   UNL     1      -7.817   4.498  -4.408  1.00  0.00     0.031 C 
ATOM     45  C   UNL     1      -8.455   9.071  -6.431  1.00  0.00     0.029 A 
ATOM     46  N   UNL     1      -9.557   7.364  -7.367  1.00  0.00    -0.354 N 
ATOM     47  C   UNL     1      -9.164   3.333  -5.847  1.00  0.00     0.074 A 
ATOM     48  C   UNL     1      -8.307   3.294  -4.683  1.00  0.00     0.031 C 
ATOM     49  C   UNL     1      -9.139   9.563  -7.469  1.00  0.00     0.029 A 
ATOM     50  C   UNL     1      -9.776   8.458  -8.170  1.00  0.00     0.049 A 
ATOM     51  H   UNL     1      -9.981   6.487  -7.511  1.00  0.00     0.167 HD
ATOM     52  C   UNL     1      -9.776   2.251  -6.391  1.00  0.00     0.034 A 
ATOM     53  C   UNL     1     -10.351   8.558  -9.380  1.00  0.00     0.034 A 
ATOM     54  C   UNL     1     -10.599   2.303  -7.573  1.00  0.00     0.049 A 
ATOM     55  C   UNL     1     -10.932   7.334 -10.012  1.00  0.00     0.074 A 
ATOM     56  C   UNL     1     -11.296   1.273  -8.184  1.00  0.00     0.029 A 
ATOM     57  N   UNL     1     -10.804   3.435  -8.348  1.00  0.00    -0.354 N 
ATOM     58  N   UNL     1     -10.967   6.109  -9.548  1.00  0.00    -0.248 NA
ATOM     59  C   UNL     1     -11.575   7.508 -11.319  1.00  0.00     0.031 C 
ATOM     60  C   UNL     1     -11.873   1.770  -9.357  1.00  0.00     0.029 A 
ATOM     61  C   UNL     1     -11.584   3.122  -9.448  1.00  0.00     0.049 A 
ATOM     62  H   UNL     1     -10.447   4.330  -8.145  1.00  0.00     0.167 HD
ATOM     63  C   UNL     1     -11.674   5.371 -10.487  1.00  0.00     0.074 A 
ATOM     64  C   UNL     1     -12.052   6.291 -11.542  1.00  0.00     0.031 C 
ATOM     65  C   UNL     1     -11.982   4.052 -10.474  1.00  0.00     0.034 A 
BRANCH  52  66
ATOM     66  C   UNL     1      -9.583   0.899  -5.741  1.00  0.00     0.023 A 
ATOM     67  C   UNL     1     -10.248   0.592  -4.537  1.00  0.00     0.012 A 
ATOM     68  C   UNL     1      -8.844  -0.112  -6.393  1.00  0.00     0.148 A 
ATOM     69  C   UNL     1     -10.168  -0.689  -3.986  1.00  0.00     0.002 A 
ATOM     70  C   UNL     1      -8.800  -1.396  -5.858  1.00  0.00     0.091 A 
ATOM     71  F   UNL     1      -8.204   0.199  -7.530  1.00  0.00    -0.205 F 
ATOM     72  C   UNL     1      -9.456  -1.685  -4.652  1.00  0.00     0.022 A 
BRANCH  70  73
ATOM     73  S   UNL     1      -7.971  -2.763  -6.680  1.00  0.00     0.127 S 
ATOM     74  O   UNL     1      -6.819  -2.977  -5.805  1.00  0.00    -0.237 OA
ATOM     75  O   UNL     1      -8.983  -3.819  -6.624  1.00  0.00    -0.237 OA
ATOM     76  O   UNL     1      -7.656  -2.294  -8.022  1.00  0.00    -0.744 OA
ENDBRANCH  70  73
ENDBRANCH  52  66
BRANCH  53  77
ATOM     77  C   UNL     1     -10.379   9.884 -10.053  1.00  0.00     0.023 A 
ATOM     78  C   UNL     1     -11.596  10.577 -10.164  1.00  0.00     0.012 A 
ATOM     79  C   UNL     1      -9.187  10.499 -10.487  1.00  0.00     0.148 A 
ATOM     80  C   UNL     1     -11.628  11.860 -10.709  1.00  0.00     0.002 A 
ATOM     81  C   UNL     1      -9.217  11.800 -10.968  1.00  0.00     0.091 A 
ATOM     82  F   UNL     1      -8.040   9.812 -10.376  1.00  0.00    -0.205 F 
ATOM     83  C   UNL     1     -10.439  12.477 -11.095  1.00  0.00     0.022 A 
BRANCH  81  84
ATOM     84  S   UNL     1      -7.721  12.723 -11.335  1.00  0.00     0.127 S 
ATOM     85  O   UNL     1      -7.769  12.800 -12.793  1.00  0.00    -0.237 OA
ATOM     86  O   UNL     1      -7.968  13.988 -10.641  1.00  0.00    -0.237 OA
ATOM     87  O   UNL     1      -6.627  11.938 -10.778  1.00  0.00    -0.744 OA
ENDBRANCH  81  84
ENDBRANCH  53  77
BRANCH  65  88
ATOM     88  C   UNL     1     -12.816   3.527 -11.611  1.00  0.00     0.023 A 
ATOM     89  C   UNL     1     -12.253   3.381 -12.894  1.00  0.00     0.012 A 
ATOM     90  C   UNL     1     -14.148   3.128 -11.388  1.00  0.00     0.148 A 
ATOM     91  C   UNL     1     -13.016   2.877 -13.946  1.00  0.00     0.002 A 
ATOM     92  C   UNL     1     -14.885   2.576 -12.427  1.00  0.00     0.091 A 
ATOM     93  F   UNL     1     -14.668   3.294 -10.163  1.00  0.00    -0.205 F 
ATOM     94  C   UNL     1     -14.326   2.464 -13.710  1.00  0.00     0.022 A 
BRANCH  92  95
ATOM     95  S   UNL     1     -16.544   1.930 -12.196  1.00  0.00     0.127 S 
ATOM     96  O   UNL     1     -17.343   2.877 -12.974  1.00  0.00    -0.237 OA
ATOM     97  O   UNL     1     -16.437   0.595 -12.784  1.00  0.00    -0.237 OA
ATOM     98  O   UNL     1     -16.788   1.944 -10.761  1.00  0.00    -0.744 OA
ENDBRANCH  92  95
ENDBRANCH  65  88
ENDBRANCH  39  40
ENDBRANCH  32  34
ENDBRANCH  31  32
ENDBRANCH  30  31
ENDBRANCH   1  30
TORSDOF 21
