REMARK SMILES CCC[NH2+]CC(=O)N1[C@@H](C(=O)OCCOC(=O)c2ccc(-c3c4nc(c(-c5cccc(S(=O)(=O)[O-])c5F)c5ccc([nH]5)c(-c5cccc(S(=O)(=O)[O-])c5F)c5nc(c(-c6cccc(S(=O)(=O)[O-])c6F)c6ccc3[nH]6)C=C5)C=C4)cc2)CC[C@@H]2CCCC[C@@H]21
REMARK SMILES IDX 13 1 12 2 10 3 11 4 9 5 8 6 88 7 81 8 83 9 87 10 82 11 84 12
REMARK SMILES IDX 86 13 85 14 6 15 7 16 5 17 4 18 3 21 2 22 1 23 14 24 15 25
REMARK SMILES IDX 16 26 17 27 18 28 19 29 80 30 20 31 79 32 21 33 22 34 23 35
REMARK SMILES IDX 73 36 24 37 78 38 72 39 74 40 25 41 77 42 71 43 70 44 26 46
REMARK SMILES IDX 58 47 38 48 57 49 39 50 42 51 56 52 75 53 40 54 41 55 55 57
REMARK SMILES IDX 76 58 43 59 27 60 28 61 36 62 29 63 31 64 37 65 30 66 32 67
REMARK SMILES IDX 33 68 34 69 35 70 59 71 60 72 68 73 61 74 63 75 69 76 62 77
REMARK SMILES IDX 64 78 65 79 66 80 67 81 44 82 45 83 53 84 46 85 48 86 54 87
REMARK SMILES IDX 47 88 49 89 50 90 51 91 52 92
REMARK H PARENT 4 19 4 20 74 45 42 56
REMARK Flexibility Score: inf
ROOT
ATOM      1  C   UNL     1       1.481   0.917  -1.205  1.00  0.00     0.274 C 
ENDROOT
BRANCH   1   2
ATOM      2  O   UNL     1       2.070   1.467   0.006  1.00  0.00    -0.461 OA
BRANCH   2   3
ATOM      3  C   UNL     1       3.171   0.808   0.433  1.00  0.00     0.328 C 
ATOM      4  O   UNL     1       3.611  -0.174  -0.166  1.00  0.00    -0.250 OA
BRANCH   3   5
ATOM      5  C   UNL     1       3.706   1.215   1.834  1.00  0.00     0.195 C 
ATOM      6  N   UNL     1       3.773   2.591   2.387  1.00  0.00    -0.321 N 
ATOM      7  C   UNL     1       4.581   2.833   3.615  1.00  0.00     0.089 C 
ATOM      8  C   UNL     1       5.111   0.570   1.834  1.00  0.00     0.037 C 
ATOM      9  C   UNL     1       5.971   2.184   3.500  1.00  0.00     0.012 C 
ATOM     10  C   UNL     1       3.826   2.409   4.891  1.00  0.00     0.025 C 
ATOM     11  C   UNL     1       5.840   0.707   3.140  1.00  0.00     0.008 C 
ATOM     12  C   UNL     1       6.778   2.347   4.786  1.00  0.00     0.006 C 
ATOM     13  C   UNL     1       4.658   2.122   6.151  1.00  0.00     0.002 C 
ATOM     14  C   UNL     1       6.097   1.659   5.957  1.00  0.00     0.000 C 
BRANCH   6  15
ATOM     15  C   UNL     1       3.064   3.646   1.845  1.00  0.00     0.278 C 
ATOM     16  O   UNL     1       3.578   4.363   0.984  1.00  0.00    -0.268 OA
BRANCH  15  17
ATOM     17  C   UNL     1       1.696   3.978   2.467  1.00  0.00     0.362 C 
BRANCH  17  18
ATOM     18  N   UNL     1       0.606   3.155   1.926  1.00  0.00    -0.338 N 
ATOM     19  H   UNL     1      -0.133   3.775   1.595  1.00  0.00     0.346 HD
ATOM     20  H   UNL     1       1.002   2.589   1.176  1.00  0.00     0.346 HD
BRANCH  18  21
ATOM     21  C   UNL     1       0.031   2.231   2.902  1.00  0.00     0.260 C 
BRANCH  21  22
ATOM     22  C   UNL     1      -1.365   1.751   2.481  1.00  0.00     0.058 C 
ATOM     23  C   UNL     1      -1.428   0.979   1.176  1.00  0.00     0.010 C 
ENDBRANCH  21  22
ENDBRANCH  18  21
ENDBRANCH  17  18
ENDBRANCH  15  17
ENDBRANCH   6  15
ENDBRANCH   3   5
ENDBRANCH   2   3
ENDBRANCH   1   2
BRANCH   1  24
ATOM     24  C   UNL     1       1.120  -0.587  -1.145  1.00  0.00     0.275 C 
BRANCH  24  25
ATOM     25  O   UNL     1       0.679  -0.926   0.181  1.00  0.00    -0.458 OA
BRANCH  25  26
ATOM     26  C   UNL     1       0.870  -2.209   0.572  1.00  0.00     0.338 C 
ATOM     27  O   UNL     1       1.305  -3.129  -0.090  1.00  0.00    -0.246 OA
BRANCH  26  28
ATOM     28  C   UNL     1       0.427  -2.332   1.978  1.00  0.00     0.060 A 
ATOM     29  C   UNL     1       1.184  -1.763   3.008  1.00  0.00     0.016 A 
ATOM     30  C   UNL     1      -0.707  -3.086   2.280  1.00  0.00     0.016 A 
ATOM     31  C   UNL     1       0.828  -1.975   4.346  1.00  0.00     0.010 A 
ATOM     32  C   UNL     1      -1.070  -3.287   3.618  1.00  0.00     0.010 A 
ATOM     33  C   UNL     1      -0.282  -2.771   4.664  1.00  0.00    -0.014 A 
BRANCH  33  34
ATOM     34  C   UNL     1      -0.490  -3.259   6.059  1.00  0.00     0.031 A 
ATOM     35  C   UNL     1      -0.046  -4.662   6.400  1.00  0.00     0.074 A 
ATOM     36  C   UNL     1      -1.061  -2.504   7.018  1.00  0.00     0.049 A 
ATOM     37  N   UNL     1      -0.165  -5.324   7.523  1.00  0.00    -0.248 NA
ATOM     38  C   UNL     1       0.619  -5.418   5.325  1.00  0.00     0.031 C 
ATOM     39  C   UNL     1      -1.532  -1.131   6.856  1.00  0.00     0.029 A 
ATOM     40  N   UNL     1      -1.360  -2.809   8.326  1.00  0.00    -0.354 N 
ATOM     41  C   UNL     1       0.386  -6.578   7.285  1.00  0.00     0.074 A 
ATOM     42  C   UNL     1       0.820  -6.592   5.904  1.00  0.00     0.031 C 
ATOM     43  C   UNL     1      -2.082  -0.720   8.014  1.00  0.00     0.029 A 
ATOM     44  C   UNL     1      -2.023  -1.805   8.995  1.00  0.00     0.049 A 
ATOM     45  H   UNL     1      -1.123  -3.668   8.746  1.00  0.00     0.167 HD
ATOM     46  C   UNL     1       0.545  -7.622   8.134  1.00  0.00     0.034 A 
ATOM     47  C   UNL     1      -2.535  -1.770  10.244  1.00  0.00     0.034 A 
ATOM     48  C   UNL     1       0.135  -7.629   9.511  1.00  0.00     0.049 A 
ATOM     49  C   UNL     1      -2.387  -2.967  11.157  1.00  0.00     0.074 A 
ATOM     50  C   UNL     1       0.272  -8.645  10.443  1.00  0.00     0.029 A 
ATOM     51  N   UNL     1      -0.494  -6.579  10.157  1.00  0.00    -0.354 N 
ATOM     52  N   UNL     1      -1.763  -4.101  10.948  1.00  0.00    -0.248 NA
ATOM     53  C   UNL     1      -2.989  -2.860  12.497  1.00  0.00     0.031 C 
ATOM     54  C   UNL     1      -0.289  -8.213  11.650  1.00  0.00     0.029 A 
ATOM     55  C   UNL     1      -0.752  -6.920  11.475  1.00  0.00     0.049 A 
ATOM     56  H   UNL     1      -0.724  -5.717   9.742  1.00  0.00     0.167 HD
ATOM     57  C   UNL     1      -1.856  -4.816  12.141  1.00  0.00     0.074 A 
ATOM     58  C   UNL     1      -2.577  -3.979  13.076  1.00  0.00     0.031 C 
ATOM     59  C   UNL     1      -1.401  -6.060  12.430  1.00  0.00     0.034 A 
BRANCH  46  60
ATOM     60  C   UNL     1       1.234  -8.847   7.594  1.00  0.00     0.023 A 
ATOM     61  C   UNL     1       2.624  -8.812   7.364  1.00  0.00     0.012 A 
ATOM     62  C   UNL     1       0.521 -10.037   7.355  1.00  0.00     0.148 A 
ATOM     63  C   UNL     1       3.290  -9.933   6.870  1.00  0.00     0.002 A 
ATOM     64  C   UNL     1       1.199 -11.164   6.905  1.00  0.00     0.091 A 
ATOM     65  F   UNL     1      -0.804 -10.042   7.561  1.00  0.00    -0.205 F 
ATOM     66  C   UNL     1       2.579 -11.110   6.650  1.00  0.00     0.022 A 
BRANCH  64  67
ATOM     67  S   UNL     1       0.390 -12.749   6.664  1.00  0.00     0.127 S 
ATOM     68  O   UNL     1       0.395 -12.864   5.207  1.00  0.00    -0.237 OA
ATOM     69  O   UNL     1       1.299 -13.665   7.352  1.00  0.00    -0.237 OA
ATOM     70  O   UNL     1      -0.926 -12.625   7.276  1.00  0.00    -0.744 OA
ENDBRANCH  64  67
ENDBRANCH  46  60
BRANCH  47  71
ATOM     71  C   UNL     1      -3.218  -0.543  10.753  1.00  0.00     0.023 A 
ATOM     72  C   UNL     1      -2.630   0.188  11.805  1.00  0.00     0.012 A 
ATOM     73  C   UNL     1      -4.465  -0.130  10.246  1.00  0.00     0.148 A 
ATOM     74  C   UNL     1      -3.291   1.277  12.374  1.00  0.00     0.002 A 
ATOM     75  C   UNL     1      -5.092   0.990  10.781  1.00  0.00     0.091 A 
ATOM     76  F   UNL     1      -5.021  -0.850   9.262  1.00  0.00    -0.205 F 
ATOM     77  C   UNL     1      -4.518   1.682  11.858  1.00  0.00     0.022 A 
BRANCH  75  78
ATOM     78  S   UNL     1      -6.619   1.653  10.105  1.00  0.00     0.127 S 
ATOM     79  O   UNL     1      -7.582   1.310  11.148  1.00  0.00    -0.237 OA
ATOM     80  O   UNL     1      -6.306   3.079   9.998  1.00  0.00    -0.237 OA
ATOM     81  O   UNL     1      -6.803   0.982   8.825  1.00  0.00    -0.744 OA
ENDBRANCH  75  78
ENDBRANCH  47  71
BRANCH  59  82
ATOM     82  C   UNL     1      -1.607  -6.587  13.831  1.00  0.00     0.023 A 
ATOM     83  C   UNL     1      -2.898  -6.945  14.268  1.00  0.00     0.012 A 
ATOM     84  C   UNL     1      -0.510  -6.788  14.694  1.00  0.00     0.148 A 
ATOM     85  C   UNL     1      -3.099  -7.455  15.551  1.00  0.00     0.002 A 
ATOM     86  C   UNL     1      -0.712  -7.342  15.954  1.00  0.00     0.091 A 
ATOM     87  F   UNL     1       0.711  -6.427  14.274  1.00  0.00    -0.205 F 
ATOM     88  C   UNL     1      -2.007  -7.663  16.390  1.00  0.00     0.022 A 
BRANCH  86  89
ATOM     89  S   UNL     1       0.650  -7.732  17.061  1.00  0.00     0.127 S 
ATOM     90  O   UNL     1       0.572  -6.638  18.028  1.00  0.00    -0.237 OA
ATOM     91  O   UNL     1       0.261  -9.041  17.589  1.00  0.00    -0.237 OA
ATOM     92  O   UNL     1       1.845  -7.752  16.228  1.00  0.00    -0.744 OA
ENDBRANCH  86  89
ENDBRANCH  59  82
ENDBRANCH  33  34
ENDBRANCH  26  28
ENDBRANCH  25  26
ENDBRANCH  24  25
ENDBRANCH   1  24
TORSDOF 19
