REMARK SMILES Cc1nc2cc(S(=O)(=O)N3CCC(C(=O)OCCOC(=O)c4ccc(-c5c6nc(c(-c7cccc(S(=O)(=O)[O-])c7F)c7ccc([nH]7)c(-c7cccc(S(=O)(=O)[O-])c7F)c7nc(c(-c8cccc(S(=O)(=O)[O-])c8F)c8ccc5[nH]8)C=C7)C=C6)cc4)CC3)ccc2n1C1CCCC1
REMARK SMILES IDX 17 1 16 2 14 3 15 4 13 5 10 6 11 7 86 8 12 9 85 10 7 11 8 12
REMARK SMILES IDX 9 13 6 14 1 15 2 16 3 17 90 18 4 19 89 20 5 21 88 22 87 23
REMARK SMILES IDX 91 24 92 25 95 26 93 27 94 28 18 29 19 30 20 31 21 32 22 33
REMARK SMILES IDX 23 34 84 35 24 36 83 37 25 38 26 39 27 40 77 41 28 42 82 43
REMARK SMILES IDX 76 44 78 45 29 46 81 47 75 48 74 49 30 51 62 52 42 53 61 54
REMARK SMILES IDX 43 55 46 56 60 57 79 58 44 59 45 60 59 62 80 63 47 64 31 65
REMARK SMILES IDX 32 66 40 67 33 68 35 69 41 70 34 71 36 72 37 73 38 74 39 75
REMARK SMILES IDX 63 76 64 77 72 78 65 79 67 80 73 81 66 82 68 83 69 84 70 85
REMARK SMILES IDX 71 86 48 87 49 88 57 89 50 90 52 91 58 92 51 93 53 94 54 95
REMARK SMILES IDX 55 96 56 97
REMARK H PARENT 78 50 46 61
REMARK Flexibility Score: inf
ROOT
ATOM      1  C   UNL     1      -0.911  13.898  -1.058  1.00  0.00     0.274 C 
ENDROOT
BRANCH   1   2
ATOM      2  O   UNL     1      -1.338  12.536  -1.279  1.00  0.00    -0.462 OA
BRANCH   2   3
ATOM      3  C   UNL     1      -0.528  11.749  -2.036  1.00  0.00     0.309 C 
ATOM      4  O   UNL     1       0.493  12.139  -2.587  1.00  0.00    -0.252 OA
BRANCH   3   5
ATOM      5  C   UNL     1      -0.976  10.296  -2.056  1.00  0.00     0.102 C 
ATOM      6  N   UNL     1      -2.329   7.793  -2.415  1.00  0.00    -0.198 NA
ATOM      7  C   UNL     1      -2.392   8.461  -1.097  1.00  0.00     0.103 C 
ATOM      8  C   UNL     1      -1.254   8.199  -3.359  1.00  0.00     0.103 C 
ATOM      9  C   UNL     1      -2.197   9.970  -1.205  1.00  0.00     0.032 C 
ATOM     10  C   UNL     1      -1.204   9.729  -3.454  1.00  0.00     0.032 C 
BRANCH   6  11
ATOM     11  S   UNL     1      -2.822   6.146  -2.471  1.00  0.00     0.243 S 
ATOM     12  O   UNL     1      -3.044   5.814  -3.857  1.00  0.00    -0.207 OA
ATOM     13  O   UNL     1      -3.900   6.018  -1.508  1.00  0.00    -0.207 OA
BRANCH  11  14
ATOM     14  C   UNL     1      -1.491   5.139  -1.828  1.00  0.00     0.085 A 
ATOM     15  C   UNL     1       0.856  -0.077  -0.025  1.00  0.00     0.088 C 
ATOM     16  C   UNL     1       0.365   1.291  -0.340  1.00  0.00     0.106 A 
ATOM     17  N   UNL     1      -0.681   1.563  -1.095  1.00  0.00    -0.233 NA
ATOM     18  N   UNL     1       0.952   2.452   0.130  1.00  0.00    -0.325 N 
ATOM     19  C   UNL     1      -0.723   2.929  -1.209  1.00  0.00     0.090 A 
ATOM     20  C   UNL     1       0.281   3.514  -0.439  1.00  0.00     0.068 A 
ATOM     21  C   UNL     1      -1.622   3.744  -1.923  1.00  0.00     0.052 A 
ATOM     22  C   UNL     1       0.445   4.899  -0.370  1.00  0.00     0.030 A 
ATOM     23  C   UNL     1      -0.440   5.694  -1.100  1.00  0.00     0.024 A 
BRANCH  18  24
ATOM     24  C   UNL     1       2.058   2.506   1.060  1.00  0.00     0.089 C 
ATOM     25  C   UNL     1       3.274   3.318   0.634  1.00  0.00     0.025 C 
ATOM     26  C   UNL     1       1.728   3.072   2.449  1.00  0.00     0.025 C 
ATOM     27  C   UNL     1       4.098   3.301   1.913  1.00  0.00     0.002 C 
ATOM     28  C   UNL     1       3.071   3.550   3.014  1.00  0.00     0.002 C 
ENDBRANCH  18  24
ENDBRANCH  11  14
ENDBRANCH   6  11
ENDBRANCH   3   5
ENDBRANCH   2   3
ENDBRANCH   1   2
BRANCH   1  29
ATOM     29  C   UNL     1      -0.757  14.149   0.446  1.00  0.00     0.275 C 
BRANCH  29  30
ATOM     30  O   UNL     1       0.428  13.481   0.903  1.00  0.00    -0.458 OA
BRANCH  30  31
ATOM     31  C   UNL     1       0.242  12.347   1.621  1.00  0.00     0.338 C 
ATOM     32  O   UNL     1      -0.719  12.064   2.313  1.00  0.00    -0.246 OA
BRANCH  31  33
ATOM     33  C   UNL     1       1.245  11.376   1.129  1.00  0.00     0.060 A 
ATOM     34  C   UNL     1       2.464  11.804   0.590  1.00  0.00     0.016 A 
ATOM     35  C   UNL     1       0.820  10.055   0.970  1.00  0.00     0.016 A 
ATOM     36  C   UNL     1       3.169  10.960  -0.260  1.00  0.00     0.010 A 
ATOM     37  C   UNL     1       1.532   9.216   0.121  1.00  0.00     0.010 A 
ATOM     38  C   UNL     1       2.657   9.695  -0.557  1.00  0.00    -0.014 A 
BRANCH  38  39
ATOM     39  C   UNL     1       3.399   8.821  -1.459  1.00  0.00     0.031 A 
ATOM     40  C   UNL     1       4.447   8.019  -0.795  1.00  0.00     0.074 A 
ATOM     41  C   UNL     1       3.203   8.652  -2.783  1.00  0.00     0.049 A 
ATOM     42  N   UNL     1       5.719   8.161  -0.960  1.00  0.00    -0.248 NA
ATOM     43  C   UNL     1       4.068   7.046   0.231  1.00  0.00     0.031 C 
ATOM     44  C   UNL     1       2.183   9.222  -3.650  1.00  0.00     0.029 A 
ATOM     45  N   UNL     1       3.877   7.822  -3.631  1.00  0.00    -0.354 N 
ATOM     46  C   UNL     1       6.310   7.184  -0.180  1.00  0.00     0.074 A 
ATOM     47  C   UNL     1       5.265   6.603   0.615  1.00  0.00     0.031 C 
ATOM     48  C   UNL     1       2.138   8.541  -4.822  1.00  0.00     0.029 A 
ATOM     49  C   UNL     1       3.253   7.613  -4.858  1.00  0.00     0.049 A 
ATOM     50  H   UNL     1       4.736   7.404  -3.394  1.00  0.00     0.167 HD
ATOM     51  C   UNL     1       7.607   6.820  -0.328  1.00  0.00     0.034 A 
ATOM     52  C   UNL     1       3.655   6.752  -5.827  1.00  0.00     0.034 A 
ATOM     53  C   UNL     1       8.353   7.759  -1.115  1.00  0.00     0.049 A 
ATOM     54  C   UNL     1       5.118   6.608  -5.661  1.00  0.00     0.074 A 
ATOM     55  C   UNL     1       8.640   9.104  -0.987  1.00  0.00     0.029 A 
ATOM     56  N   UNL     1       8.588   7.446  -2.431  1.00  0.00    -0.354 N 
ATOM     57  N   UNL     1       5.959   7.572  -5.905  1.00  0.00    -0.248 NA
ATOM     58  C   UNL     1       5.630   5.508  -4.863  1.00  0.00     0.031 C 
ATOM     59  C   UNL     1       8.553   9.625  -2.311  1.00  0.00     0.029 A 
ATOM     60  C   UNL     1       8.254   8.559  -3.160  1.00  0.00     0.049 A 
ATOM     61  H   UNL     1       8.929   6.592  -2.782  1.00  0.00     0.167 HD
ATOM     62  C   UNL     1       6.933   7.429  -4.931  1.00  0.00     0.074 A 
ATOM     63  C   UNL     1       6.744   6.081  -4.398  1.00  0.00     0.031 C 
ATOM     64  C   UNL     1       7.613   8.511  -4.453  1.00  0.00     0.034 A 
BRANCH  51  65
ATOM     65  C   UNL     1       8.148   5.480   0.052  1.00  0.00     0.023 A 
ATOM     66  C   UNL     1       9.515   5.396   0.375  1.00  0.00     0.012 A 
ATOM     67  C   UNL     1       7.425   4.275  -0.123  1.00  0.00     0.148 A 
ATOM     68  C   UNL     1      10.149   4.162   0.512  1.00  0.00     0.002 A 
ATOM     69  C   UNL     1       8.055   3.047   0.052  1.00  0.00     0.091 A 
ATOM     70  F   UNL     1       6.153   4.333  -0.541  1.00  0.00    -0.205 F 
ATOM     71  C   UNL     1       9.420   2.990   0.355  1.00  0.00     0.022 A 
BRANCH  69  72
ATOM     72  S   UNL     1       7.216   1.469  -0.132  1.00  0.00     0.127 S 
ATOM     73  O   UNL     1       7.930   0.880  -1.261  1.00  0.00    -0.237 OA
ATOM     74  O   UNL     1       7.475   0.844   1.165  1.00  0.00    -0.237 OA
ATOM     75  O   UNL     1       5.820   1.786  -0.378  1.00  0.00    -0.744 OA
ENDBRANCH  69  72
ENDBRANCH  51  65
BRANCH  52  76
ATOM     76  C   UNL     1       2.920   5.942  -6.827  1.00  0.00     0.023 A 
ATOM     77  C   UNL     1       3.637   5.333  -7.882  1.00  0.00     0.012 A 
ATOM     78  C   UNL     1       1.611   5.487  -6.572  1.00  0.00     0.148 A 
ATOM     79  C   UNL     1       3.104   4.261  -8.607  1.00  0.00     0.002 A 
ATOM     80  C   UNL     1       1.084   4.420  -7.301  1.00  0.00     0.091 A 
ATOM     81  F   UNL     1       0.930   6.028  -5.551  1.00  0.00    -0.205 F 
ATOM     82  C   UNL     1       1.832   3.793  -8.305  1.00  0.00     0.022 A 
BRANCH  80  83
ATOM     83  S   UNL     1      -0.546   3.752  -6.960  1.00  0.00     0.127 S 
ATOM     84  O   UNL     1      -1.072   3.515  -8.306  1.00  0.00    -0.237 OA
ATOM     85  O   UNL     1      -0.222   2.544  -6.207  1.00  0.00    -0.237 OA
ATOM     86  O   UNL     1      -1.225   4.809  -6.226  1.00  0.00    -0.744 OA
ENDBRANCH  80  83
ENDBRANCH  52  76
BRANCH  64  87
ATOM     87  C   UNL     1       7.426   9.832  -5.159  1.00  0.00     0.023 A 
ATOM     88  C   UNL     1       6.179  10.495  -5.172  1.00  0.00     0.012 A 
ATOM     89  C   UNL     1       8.557  10.503  -5.651  1.00  0.00     0.148 A 
ATOM     90  C   UNL     1       6.060  11.791  -5.682  1.00  0.00     0.002 A 
ATOM     91  C   UNL     1       8.442  11.807  -6.122  1.00  0.00     0.091 A 
ATOM     92  F   UNL     1       9.736   9.864  -5.619  1.00  0.00    -0.205 F 
ATOM     93  C   UNL     1       7.195  12.452  -6.145  1.00  0.00     0.022 A 
BRANCH  91  94
ATOM     94  S   UNL     1       9.877  12.761  -6.623  1.00  0.00     0.127 S 
ATOM     95  O   UNL     1       9.709  12.830  -8.073  1.00  0.00    -0.237 OA
ATOM     96  O   UNL     1       9.668  14.030  -5.922  1.00  0.00    -0.237 OA
ATOM     97  O   UNL     1      11.040  12.013  -6.163  1.00  0.00    -0.744 OA
ENDBRANCH  91  94
ENDBRANCH  64  87
ENDBRANCH  38  39
ENDBRANCH  31  33
ENDBRANCH  30  31
ENDBRANCH  29  30
ENDBRANCH   1  29
TORSDOF 17
