REMARK SMILES COc1ccc2cc([C@H](C)C(=O)OCCOC(=O)c3ccc(-c4c5nc(c(-c6cccc(S(=O)(=O)[O-])c6F)c6ccc([nH]6)c(-c6cccc(S(=O)(=O)[O-])c6F)c6nc(c(-c7cccc(S(=O)(=O)[O-])c7F)c7ccc4[nH]7)C=C6)C=C5)cc3)ccc2c1
REMARK SMILES IDX 15 1 14 2 13 3 11 4 12 5 9 6 10 7 8 8 3 9 4 10 85 11 5 12
REMARK SMILES IDX 84 13 6 14 83 15 7 16 82 17 2 18 1 19 16 20 17 21 18 22
REMARK SMILES IDX 19 23 20 24 81 25 21 26 80 27 22 28 23 29 24 30 74 31 25 32
REMARK SMILES IDX 79 33 73 34 75 35 26 36 78 37 72 38 71 39 27 41 59 42 39 43
REMARK SMILES IDX 58 44 40 45 43 46 57 47 76 48 41 49 42 50 56 52 77 53 44 54
REMARK SMILES IDX 28 55 29 56 37 57 30 58 32 59 38 60 31 61 33 62 34 63 35 64
REMARK SMILES IDX 36 65 60 66 61 67 69 68 62 69 64 70 70 71 63 72 65 73 66 74
REMARK SMILES IDX 67 75 68 76 45 77 46 78 54 79 47 80 49 81 55 82 48 83 50 84
REMARK SMILES IDX 51 85 52 86 53 87
REMARK H PARENT 75 40 43 51
REMARK Flexibility Score: inf
ROOT
ATOM      1  C   UNL     1       3.318   9.746  -0.275  1.00  0.00     0.275 C 
ENDROOT
BRANCH   1   2
ATOM      2  C   UNL     1       3.877   9.347   1.095  1.00  0.00     0.274 C 
BRANCH   2   3
ATOM      3  O   UNL     1       3.029   8.401   1.775  1.00  0.00    -0.462 OA
BRANCH   3   4
ATOM      4  C   UNL     1       2.135   8.939   2.648  1.00  0.00     0.313 C 
ATOM      5  O   UNL     1       2.050  10.139   2.894  1.00  0.00    -0.252 OA
BRANCH   4   6
ATOM      6  C   UNL     1       1.260   7.895   3.342  1.00  0.00     0.126 C 
ATOM      7  C   UNL     1       0.976   6.666   2.477  1.00  0.00     0.025 C 
BRANCH   6   8
ATOM      8  C   UNL     1       1.761   7.626   4.750  1.00  0.00    -0.033 A 
ATOM      9  C   UNL     1       3.053   8.188   9.629  1.00  0.00     0.119 A 
ATOM     10  C   UNL     1       2.562   9.425   9.217  1.00  0.00     0.047 A 
ATOM     11  C   UNL     1       3.129   7.128   8.723  1.00  0.00     0.055 A 
ATOM     12  C   UNL     1       2.105   9.588   7.909  1.00  0.00     0.012 A 
ATOM     13  C   UNL     1       2.674   7.277   7.404  1.00  0.00    -0.015 A 
ATOM     14  C   UNL     1       2.150   8.522   7.000  1.00  0.00    -0.018 A 
ATOM     15  C   UNL     1       2.728   6.224   6.477  1.00  0.00     0.009 A 
ATOM     16  C   UNL     1       1.693   8.676   5.686  1.00  0.00     0.013 A 
ATOM     17  C   UNL     1       2.284   6.398   5.162  1.00  0.00     0.005 A 
BRANCH   9  18
ATOM     18  O   UNL     1       3.528   7.939  10.889  1.00  0.00    -0.497 OA
ATOM     19  C   UNL     1       2.706   8.483  11.918  1.00  0.00     0.278 C 
ENDBRANCH   9  18
ENDBRANCH   6   8
ENDBRANCH   4   6
ENDBRANCH   3   4
ENDBRANCH   2   3
ENDBRANCH   1   2
BRANCH   1  20
ATOM     20  O   UNL     1       2.110  10.522  -0.169  1.00  0.00    -0.458 OA
BRANCH  20  21
ATOM     21  C   UNL     1       0.963   9.802  -0.200  1.00  0.00     0.338 C 
ATOM     22  O   UNL     1       0.859   8.596  -0.345  1.00  0.00    -0.246 OA
BRANCH  21  23
ATOM     23  C   UNL     1      -0.188  10.666   0.105  1.00  0.00     0.060 A 
ATOM     24  C   UNL     1      -0.902  10.417   1.280  1.00  0.00     0.016 A 
ATOM     25  C   UNL     1      -0.625  11.637  -0.795  1.00  0.00     0.016 A 
ATOM     26  C   UNL     1      -2.063  11.130   1.563  1.00  0.00     0.010 A 
ATOM     27  C   UNL     1      -1.793  12.353  -0.512  1.00  0.00     0.010 A 
ATOM     28  C   UNL     1      -2.526  12.092   0.661  1.00  0.00    -0.014 A 
BRANCH  28  29
ATOM     29  C   UNL     1      -3.805  12.790   0.928  1.00  0.00     0.031 A 
ATOM     30  C   UNL     1      -5.027  12.437   0.129  1.00  0.00     0.074 A 
ATOM     31  C   UNL     1      -3.862  13.740   1.879  1.00  0.00     0.049 A 
ATOM     32  N   UNL     1      -6.214  12.983   0.156  1.00  0.00    -0.248 NA
ATOM     33  C   UNL     1      -4.897  11.328  -0.831  1.00  0.00     0.031 C 
ATOM     34  C   UNL     1      -2.741  14.160   2.720  1.00  0.00     0.029 A 
ATOM     35  N   UNL     1      -4.900  14.544   2.278  1.00  0.00    -0.354 N 
ATOM     36  C   UNL     1      -6.957  12.323  -0.814  1.00  0.00     0.074 A 
ATOM     37  C   UNL     1      -6.093  11.325  -1.405  1.00  0.00     0.031 C 
ATOM     38  C   UNL     1      -3.142  15.167   3.513  1.00  0.00     0.029 A 
ATOM     39  C   UNL     1      -4.536  15.483   3.214  1.00  0.00     0.049 A 
ATOM     40  H   UNL     1      -5.816  14.458   1.927  1.00  0.00     0.167 HD
ATOM     41  C   UNL     1      -8.247  12.527  -1.172  1.00  0.00     0.034 A 
ATOM     42  C   UNL     1      -5.239  16.503   3.747  1.00  0.00     0.034 A 
ATOM     43  C   UNL     1      -9.118  13.482  -0.543  1.00  0.00     0.049 A 
ATOM     44  C   UNL     1      -6.675  16.692   3.340  1.00  0.00     0.074 A 
ATOM     45  C   UNL     1     -10.460  13.713  -0.789  1.00  0.00     0.029 A 
ATOM     46  N   UNL     1      -8.735  14.367   0.453  1.00  0.00    -0.354 N 
ATOM     47  N   UNL     1      -7.398  15.979   2.510  1.00  0.00    -0.248 NA
ATOM     48  C   UNL     1      -7.403  17.807   3.962  1.00  0.00     0.031 C 
ATOM     49  C   UNL     1     -10.886  14.748   0.050  1.00  0.00     0.029 A 
ATOM     50  C   UNL     1      -9.812  15.152   0.826  1.00  0.00     0.049 A 
ATOM     51  H   UNL     1      -7.831  14.427   0.839  1.00  0.00     0.167 HD
ATOM     52  C   UNL     1      -8.669  16.541   2.530  1.00  0.00     0.074 A 
ATOM     53  C   UNL     1      -8.626  17.638   3.476  1.00  0.00     0.031 C 
ATOM     54  C   UNL     1      -9.768  16.197   1.815  1.00  0.00     0.034 A 
BRANCH  41  55
ATOM     55  C   UNL     1      -8.815  11.684  -2.279  1.00  0.00     0.023 A 
ATOM     56  C   UNL     1      -9.198  10.354  -2.015  1.00  0.00     0.012 A 
ATOM     57  C   UNL     1      -9.054  12.236  -3.553  1.00  0.00     0.148 A 
ATOM     58  C   UNL     1      -9.799   9.581  -3.008  1.00  0.00     0.002 A 
ATOM     59  C   UNL     1      -9.685  11.471  -4.526  1.00  0.00     0.091 A 
ATOM     60  F   UNL     1      -8.661  13.496  -3.786  1.00  0.00    -0.205 F 
ATOM     61  C   UNL     1     -10.053  10.142  -4.257  1.00  0.00     0.022 A 
BRANCH  59  62
ATOM     62  S   UNL     1     -10.117  12.122  -6.144  1.00  0.00     0.127 S 
ATOM     63  O   UNL     1      -9.194  11.392  -7.012  1.00  0.00    -0.237 OA
ATOM     64  O   UNL     1     -11.519  11.724  -6.272  1.00  0.00    -0.237 OA
ATOM     65  O   UNL     1      -9.897  13.560  -6.071  1.00  0.00    -0.744 OA
ENDBRANCH  59  62
ENDBRANCH  41  55
BRANCH  42  66
ATOM     66  C   UNL     1      -4.598  17.410   4.740  1.00  0.00     0.023 A 
ATOM     67  C   UNL     1      -5.018  17.379   6.083  1.00  0.00     0.012 A 
ATOM     68  C   UNL     1      -3.562  18.288   4.365  1.00  0.00     0.148 A 
ATOM     69  C   UNL     1      -4.439  18.226   7.029  1.00  0.00     0.002 A 
ATOM     70  C   UNL     1      -2.951  19.088   5.324  1.00  0.00     0.091 A 
ATOM     71  F   UNL     1      -3.191  18.327   3.078  1.00  0.00    -0.205 F 
ATOM     72  C   UNL     1      -3.397  19.071   6.653  1.00  0.00     0.022 A 
BRANCH  70  73
ATOM     73  S   UNL     1      -1.515  20.094   4.931  1.00  0.00     0.127 S 
ATOM     74  O   UNL     1      -2.119  21.401   4.690  1.00  0.00    -0.237 OA
ATOM     75  O   UNL     1      -0.721  20.000   6.157  1.00  0.00    -0.237 OA
ATOM     76  O   UNL     1      -0.903  19.444   3.779  1.00  0.00    -0.744 OA
ENDBRANCH  70  73
ENDBRANCH  42  66
BRANCH  54  77
ATOM     77  C   UNL     1     -11.025  16.993   2.039  1.00  0.00     0.023 A 
ATOM     78  C   UNL     1     -11.131  18.289   1.497  1.00  0.00     0.012 A 
ATOM     79  C   UNL     1     -12.127  16.430   2.711  1.00  0.00     0.148 A 
ATOM     80  C   UNL     1     -12.307  19.023   1.642  1.00  0.00     0.002 A 
ATOM     81  C   UNL     1     -13.311  17.151   2.815  1.00  0.00     0.091 A 
ATOM     82  F   UNL     1     -11.999  15.204   3.239  1.00  0.00    -0.205 F 
ATOM     83  C   UNL     1     -13.400  18.450   2.289  1.00  0.00     0.022 A 
BRANCH  81  84
ATOM     84  S   UNL     1     -14.793  16.450   3.551  1.00  0.00     0.127 S 
ATOM     85  O   UNL     1     -14.793  17.074   4.873  1.00  0.00    -0.237 OA
ATOM     86  O   UNL     1     -15.846  16.925   2.653  1.00  0.00    -0.237 OA
ATOM     87  O   UNL     1     -14.597  15.007   3.535  1.00  0.00    -0.744 OA
ENDBRANCH  81  84
ENDBRANCH  54  77
ENDBRANCH  28  29
ENDBRANCH  21  23
ENDBRANCH  20  21
ENDBRANCH   1  20
TORSDOF 16
