REMARK SMILES CC[N@@H+](Cc1cccc(C)n1)Cc1csc(C(=O)OCCOC(=O)c2ccc(-c3c4nc(c(-c5cccc(S(=O)(=O)[O-])c5F)c5ccc([nH]5)c(-c5cccc(S(=O)(=O)[O-])c5F)c5nc(c(-c6cccc(S(=O)(=O)[O-])c6F)c6ccc3[nH]6)C=C5)C=C4)cc2)n1
REMARK SMILES IDX 20 1 19 2 17 3 18 4 16 5 13 6 14 7 88 8 15 9 12 10 3 11 2 13
REMARK SMILES IDX 1 14 4 15 5 16 6 17 11 18 7 19 9 20 8 21 10 22 21 23 22 24
REMARK SMILES IDX 23 25 24 26 25 27 26 28 87 29 27 30 86 31 28 32 29 33 30 34
REMARK SMILES IDX 80 35 31 36 85 37 79 38 81 39 32 40 84 41 78 42 77 43 33 45
REMARK SMILES IDX 65 46 45 47 64 48 46 49 49 50 63 51 82 52 47 53 48 54 62 56
REMARK SMILES IDX 83 57 50 58 34 59 35 60 43 61 36 62 38 63 44 64 37 65 39 66
REMARK SMILES IDX 40 67 41 68 42 69 66 70 67 71 75 72 68 73 70 74 76 75 69 76
REMARK SMILES IDX 71 77 72 78 73 79 74 80 51 81 52 82 60 83 53 84 55 85 61 86
REMARK SMILES IDX 54 87 56 88 57 89 58 90 59 91
REMARK H PARENT 3 12 81 44 49 55
REMARK Flexibility Score: inf
ROOT
ATOM      1  C   UNL     1       3.905   6.942   4.277  1.00  0.00     0.275 C 
ENDROOT
BRANCH   1   2
ATOM      2  O   UNL     1       3.643   5.874   3.348  1.00  0.00    -0.457 OA
BRANCH   2   3
ATOM      3  C   UNL     1       4.527   4.827   3.376  1.00  0.00     0.367 C 
ATOM      4  O   UNL     1       5.490   4.779   4.130  1.00  0.00    -0.243 OA
BRANCH   3   5
ATOM      5  C   UNL     1       4.138   3.783   2.429  1.00  0.00     0.202 A 
ATOM      6  C   UNL     1       3.082   2.684   0.808  1.00  0.00     0.106 A 
ATOM      7  C   UNL     1       3.806   1.640   1.354  1.00  0.00     0.097 A 
ATOM      8  N   UNL     1       3.269   3.912   1.443  1.00  0.00    -0.229 NA
ATOM      9  S   UNL     1       4.864   2.224   2.557  1.00  0.00    -0.115 S 
BRANCH   6  10
ATOM     10  C   UNL     1       2.217   2.610  -0.415  1.00  0.00     0.320 C 
BRANCH  10  11
ATOM     11  N   UNL     1       0.834   2.228  -0.141  1.00  0.00    -0.325 N 
ATOM     12  H   UNL     1       0.406   2.139  -1.063  1.00  0.00     0.348 HD
BRANCH  11  13
ATOM     13  C   UNL     1       0.557   0.847   0.194  1.00  0.00     0.259 C 
ATOM     14  C   UNL     1       1.230  -0.226  -0.660  1.00  0.00     0.071 C 
ENDBRANCH  11  13
BRANCH  11  15
ATOM     15  C   UNL     1       0.015   3.315   0.441  1.00  0.00     0.319 C 
BRANCH  15  16
ATOM     16  C   UNL     1      -0.817   3.226   1.720  1.00  0.00     0.095 A 
ATOM     17  C   UNL     1      -1.384   2.072   2.252  1.00  0.00     0.030 A 
ATOM     18  N   UNL     1      -1.122   4.440   2.265  1.00  0.00    -0.252 NA
ATOM     19  C   UNL     1      -2.207   2.145   3.375  1.00  0.00     0.004 A 
ATOM     20  C   UNL     1      -1.922   4.501   3.361  1.00  0.00     0.038 A 
ATOM     21  C   UNL     1      -2.478   3.375   3.944  1.00  0.00     0.023 A 
ATOM     22  C   UNL     1      -2.194   5.861   3.927  1.00  0.00     0.067 C 
ENDBRANCH  15  16
ENDBRANCH  11  15
ENDBRANCH  10  11
ENDBRANCH   6  10
ENDBRANCH   3   5
ENDBRANCH   2   3
ENDBRANCH   1   2
BRANCH   1  23
ATOM     23  C   UNL     1       3.037   6.850   5.537  1.00  0.00     0.275 C 
BRANCH  23  24
ATOM     24  O   UNL     1       3.372   5.697   6.333  1.00  0.00    -0.458 OA
BRANCH  24  25
ATOM     25  C   UNL     1       2.517   4.657   6.201  1.00  0.00     0.338 C 
ATOM     26  O   UNL     1       1.507   4.620   5.518  1.00  0.00    -0.246 OA
BRANCH  25  27
ATOM     27  C   UNL     1       3.027   3.462   6.887  1.00  0.00     0.060 A 
ATOM     28  C   UNL     1       3.568   2.467   6.080  1.00  0.00     0.016 A 
ATOM     29  C   UNL     1       2.809   3.224   8.242  1.00  0.00     0.016 A 
ATOM     30  C   UNL     1       3.847   1.209   6.597  1.00  0.00     0.010 A 
ATOM     31  C   UNL     1       3.131   1.966   8.777  1.00  0.00     0.010 A 
ATOM     32  C   UNL     1       3.621   0.935   7.952  1.00  0.00    -0.014 A 
BRANCH  32  33
ATOM     33  C   UNL     1       3.849  -0.451   8.450  1.00  0.00     0.031 A 
ATOM     34  C   UNL     1       2.702  -1.276   8.973  1.00  0.00     0.074 A 
ATOM     35  C   UNL     1       5.081  -0.995   8.374  1.00  0.00     0.049 A 
ATOM     36  N   UNL     1       2.713  -2.489   9.465  1.00  0.00    -0.248 NA
ATOM     37  C   UNL     1       1.366  -0.658   8.944  1.00  0.00     0.031 C 
ATOM     38  C   UNL     1       6.274  -0.313   7.869  1.00  0.00     0.029 A 
ATOM     39  N   UNL     1       5.535  -2.245   8.717  1.00  0.00    -0.354 N 
ATOM     40  C   UNL     1       1.406  -2.757   9.857  1.00  0.00     0.074 A 
ATOM     41  C   UNL     1       0.626  -1.579   9.546  1.00  0.00     0.031 C 
ATOM     42  C   UNL     1       7.317  -1.154   7.918  1.00  0.00     0.029 A 
ATOM     43  C   UNL     1       6.886  -2.412   8.519  1.00  0.00     0.049 A 
ATOM     44  H   UNL     1       4.950  -2.954   9.070  1.00  0.00     0.167 HD
ATOM     45  C   UNL     1       0.900  -3.883  10.416  1.00  0.00     0.034 A 
ATOM     46  C   UNL     1       7.699  -3.444   8.817  1.00  0.00     0.034 A 
ATOM     47  C   UNL     1       1.670  -5.070  10.685  1.00  0.00     0.049 A 
ATOM     48  C   UNL     1       7.111  -4.677   9.445  1.00  0.00     0.074 A 
ATOM     49  C   UNL     1       1.238  -6.274  11.213  1.00  0.00     0.029 A 
ATOM     50  N   UNL     1       3.030  -5.204  10.452  1.00  0.00    -0.354 N 
ATOM     51  N   UNL     1       5.862  -4.934   9.749  1.00  0.00    -0.248 NA
ATOM     52  C   UNL     1       8.041  -5.774   9.748  1.00  0.00     0.031 C 
ATOM     53  C   UNL     1       2.343  -7.123  11.335  1.00  0.00     0.029 A 
ATOM     54  C   UNL     1       3.456  -6.466  10.835  1.00  0.00     0.049 A 
ATOM     55  H   UNL     1       3.609  -4.505  10.071  1.00  0.00     0.167 HD
ATOM     56  C   UNL     1       5.850  -6.232  10.243  1.00  0.00     0.074 A 
ATOM     57  C   UNL     1       7.214  -6.717  10.176  1.00  0.00     0.031 C 
ATOM     58  C   UNL     1       4.806  -6.955  10.720  1.00  0.00     0.034 A 
BRANCH  45  59
ATOM     59  C   UNL     1      -0.565  -3.892  10.779  1.00  0.00     0.023 A 
ATOM     60  C   UNL     1      -1.546  -3.934   9.767  1.00  0.00     0.012 A 
ATOM     61  C   UNL     1      -0.968  -3.915  12.130  1.00  0.00     0.148 A 
ATOM     62  C   UNL     1      -2.903  -3.958  10.093  1.00  0.00     0.002 A 
ATOM     63  C   UNL     1      -2.319  -3.990  12.447  1.00  0.00     0.091 A 
ATOM     64  F   UNL     1      -0.023  -3.858  13.079  1.00  0.00    -0.205 F 
ATOM     65  C   UNL     1      -3.288  -3.997  11.431  1.00  0.00     0.022 A 
BRANCH  63  66
ATOM     66  S   UNL     1      -2.913  -4.128  14.136  1.00  0.00     0.127 S 
ATOM     67  O   UNL     1      -3.559  -2.830  14.329  1.00  0.00    -0.237 OA
ATOM     68  O   UNL     1      -3.837  -5.259  14.045  1.00  0.00    -0.237 OA
ATOM     69  O   UNL     1      -1.737  -4.368  14.960  1.00  0.00    -0.744 OA
ENDBRANCH  63  66
ENDBRANCH  45  59
BRANCH  46  70
ATOM     70  C   UNL     1       9.157  -3.357   8.518  1.00  0.00     0.023 A 
ATOM     71  C   UNL     1       9.723  -4.193   7.536  1.00  0.00     0.012 A 
ATOM     72  C   UNL     1       9.982  -2.437   9.194  1.00  0.00     0.148 A 
ATOM     73  C   UNL     1      11.089  -4.136   7.256  1.00  0.00     0.002 A 
ATOM     74  C   UNL     1      11.328  -2.340   8.865  1.00  0.00     0.091 A 
ATOM     75  F   UNL     1       9.428  -1.662  10.137  1.00  0.00    -0.205 F 
ATOM     76  C   UNL     1      11.888  -3.202   7.911  1.00  0.00     0.022 A 
BRANCH  74  77
ATOM     77  S   UNL     1      12.400  -1.078   9.560  1.00  0.00     0.127 S 
ATOM     78  O   UNL     1      13.293  -1.874  10.399  1.00  0.00    -0.237 OA
ATOM     79  O   UNL     1      13.019  -0.516   8.359  1.00  0.00    -0.237 OA
ATOM     80  O   UNL     1      11.520  -0.159  10.269  1.00  0.00    -0.744 OA
ENDBRANCH  74  77
ENDBRANCH  46  70
BRANCH  58  81
ATOM     81  C   UNL     1       5.082  -8.372  11.152  1.00  0.00     0.023 A 
ATOM     82  C   UNL     1       5.832  -8.628  12.317  1.00  0.00     0.012 A 
ATOM     83  C   UNL     1       4.554  -9.454  10.419  1.00  0.00     0.148 A 
ATOM     84  C   UNL     1       6.091  -9.939  12.719  1.00  0.00     0.002 A 
ATOM     85  C   UNL     1       4.769 -10.754  10.857  1.00  0.00     0.091 A 
ATOM     86  F   UNL     1       3.860  -9.192   9.302  1.00  0.00    -0.205 F 
ATOM     87  C   UNL     1       5.551 -11.000  11.996  1.00  0.00     0.022 A 
BRANCH  85  88
ATOM     88  S   UNL     1       4.028 -12.175  10.046  1.00  0.00     0.127 S 
ATOM     89  O   UNL     1       5.184 -12.780   9.388  1.00  0.00    -0.237 OA
ATOM     90  O   UNL     1       3.501 -12.938  11.178  1.00  0.00    -0.237 OA
ATOM     91  O   UNL     1       3.008 -11.641   9.152  1.00  0.00    -0.744 OA
ENDBRANCH  85  88
ENDBRANCH  58  81
ENDBRANCH  32  33
ENDBRANCH  25  27
ENDBRANCH  24  25
ENDBRANCH  23  24
ENDBRANCH   1  23
TORSDOF 19
