REMARK SMILES O=C(OCCOC(=O)c1ccc(-c2c3nc(c(-c4cccc(S(=O)(=O)[O-])c4F)c4ccc([nH]4)c(-c4cccc(S(=O)(=O)[O-])c4F)c4nc(c(-c5cccc(S(=O)(=O)[O-])c5F)c5ccc2[nH]5)C=C4)C=C3)cc1)C1=Cc2c(ccc(Cl)c2Sc2ccccc2)O[C@H]1C(F)(F)F
REMARK SMILES IDX 5 1 4 2 3 3 2 4 1 5 72 6 73 7 89 8 74 9 88 10 75 11 80 12
REMARK SMILES IDX 76 13 78 14 77 15 79 16 90 17 91 18 92 19 93 20 81 21 82 22
REMARK SMILES IDX 83 23 87 24 84 25 86 26 85 27 6 28 7 29 8 30 9 31 10 32
REMARK SMILES IDX 71 33 11 34 70 35 12 36 13 37 14 38 64 39 15 40 69 41 63 42
REMARK SMILES IDX 65 43 16 44 68 45 62 46 61 47 17 49 49 50 29 51 48 52 30 53
REMARK SMILES IDX 33 54 47 55 66 56 31 57 32 58 46 60 67 61 34 62 18 63 19 64
REMARK SMILES IDX 27 65 20 66 22 67 28 68 21 69 23 70 24 71 25 72 26 73 50 74
REMARK SMILES IDX 51 75 59 76 52 77 54 78 60 79 53 80 55 81 56 82 57 83 58 84
REMARK SMILES IDX 35 85 36 86 44 87 37 88 39 89 45 90 38 91 40 92 41 93 42 94
REMARK SMILES IDX 43 95
REMARK H PARENT 65 48 33 59
REMARK Flexibility Score: inf
ROOT
ATOM      1  C   UNL     1       3.013  -0.290  -1.571  1.00  0.00     0.275 C 
ENDROOT
BRANCH   1   2
ATOM      2  C   UNL     1       2.477  -0.179  -0.117  1.00  0.00     0.275 C 
BRANCH   2   3
ATOM      3  O   UNL     1       2.357   1.153   0.396  1.00  0.00    -0.459 OA
BRANCH   3   4
ATOM      4  C   UNL     1       3.398   1.733   1.011  1.00  0.00     0.338 C 
ATOM      5  O   UNL     1       3.250   2.437   2.001  1.00  0.00    -0.246 OA
BRANCH   4   6
ATOM      6  C   UNL     1       4.696   1.611   0.326  1.00  0.00     0.087 C 
ATOM      7  C   UNL     1       5.076   0.612  -0.489  1.00  0.00     0.028 C 
ATOM      8  C   UNL     1       5.818   2.340   0.975  1.00  0.00     0.316 C 
ATOM      9  C   UNL     1       5.599  -0.553   0.250  1.00  0.00     0.033 A 
ATOM     10  O   UNL     1       6.953   1.399   1.124  1.00  0.00    -0.475 OA
ATOM     11  C   UNL     1       6.672   0.018   1.046  1.00  0.00     0.129 A 
ATOM     12  C   UNL     1       5.320  -2.001   0.149  1.00  0.00     0.042 A 
ATOM     13  C   UNL     1       7.577  -0.808   1.664  1.00  0.00     0.049 A 
ATOM     14  C   UNL     1       6.324  -2.768   0.820  1.00  0.00     0.055 A 
ATOM     15  C   UNL     1       7.409  -2.183   1.530  1.00  0.00     0.025 A 
ATOM     16  Cl  UNL     1       6.405  -4.514   0.792  1.00  0.00    -0.083 Cl
BRANCH   8  17
ATOM     17  C   UNL     1       6.086   3.602   0.120  1.00  0.00     0.430 C 
ATOM     18  F   UNL     1       4.922   4.197  -0.252  1.00  0.00    -0.167 F 
ATOM     19  F   UNL     1       6.815   4.522   0.781  1.00  0.00    -0.167 F 
ATOM     20  F   UNL     1       6.744   3.290  -1.024  1.00  0.00    -0.167 F 
ENDBRANCH   8  17
BRANCH  12  21
ATOM     21  S   UNL     1       4.113  -3.206  -0.815  1.00  0.00    -0.088 SA
BRANCH  21  22
ATOM     22  C   UNL     1       2.389  -3.012  -1.435  1.00  0.00     0.012 A 
ATOM     23  C   UNL     1       1.226  -2.860  -0.649  1.00  0.00     0.015 A 
ATOM     24  C   UNL     1       2.172  -2.942  -2.848  1.00  0.00     0.015 A 
ATOM     25  C   UNL     1       0.004  -2.377  -1.210  1.00  0.00     0.001 A 
ATOM     26  C   UNL     1       0.961  -2.437  -3.402  1.00  0.00     0.001 A 
ATOM     27  C   UNL     1      -0.109  -2.113  -2.575  1.00  0.00     0.000 A 
ENDBRANCH  21  22
ENDBRANCH  12  21
ENDBRANCH   4   6
ENDBRANCH   3   4
ENDBRANCH   2   3
ENDBRANCH   1   2
BRANCH   1  28
ATOM     28  O   UNL     1       3.005   0.904  -2.253  1.00  0.00    -0.458 OA
BRANCH  28  29
ATOM     29  C   UNL     1       1.716   1.145  -2.474  1.00  0.00     0.338 C 
ATOM     30  O   UNL     1       0.704   0.525  -2.179  1.00  0.00    -0.246 OA
BRANCH  29  31
ATOM     31  C   UNL     1       1.706   2.459  -2.935  1.00  0.00     0.060 A 
ATOM     32  C   UNL     1       0.674   3.172  -2.350  1.00  0.00     0.016 A 
ATOM     33  C   UNL     1       2.634   2.877  -3.898  1.00  0.00     0.016 A 
ATOM     34  C   UNL     1       0.441   4.368  -2.893  1.00  0.00     0.010 A 
ATOM     35  C   UNL     1       2.471   4.135  -4.357  1.00  0.00     0.010 A 
ATOM     36  C   UNL     1       1.356   4.813  -3.862  1.00  0.00    -0.014 A 
BRANCH  36  37
ATOM     37  C   UNL     1       1.050   6.104  -4.366  1.00  0.00     0.031 A 
ATOM     38  C   UNL     1       0.330   6.128  -5.647  1.00  0.00     0.074 A 
ATOM     39  C   UNL     1       1.305   7.061  -3.472  1.00  0.00     0.049 A 
ATOM     40  N   UNL     1      -0.164   7.158  -6.243  1.00  0.00    -0.248 NA
ATOM     41  C   UNL     1       0.122   4.843  -6.355  1.00  0.00     0.031 C 
ATOM     42  C   UNL     1       1.972   6.859  -2.167  1.00  0.00     0.029 A 
ATOM     43  N   UNL     1       0.975   8.363  -3.484  1.00  0.00    -0.354 N 
ATOM     44  C   UNL     1      -0.680   6.671  -7.426  1.00  0.00     0.074 A 
ATOM     45  C   UNL     1      -0.479   5.245  -7.463  1.00  0.00     0.031 C 
ATOM     46  C   UNL     1       1.970   8.015  -1.496  1.00  0.00     0.029 A 
ATOM     47  C   UNL     1       1.401   9.025  -2.366  1.00  0.00     0.049 A 
ATOM     48  H   UNL     1       0.480   8.793  -4.218  1.00  0.00     0.167 HD
ATOM     49  C   UNL     1      -1.244   7.421  -8.385  1.00  0.00     0.034 A 
ATOM     50  C   UNL     1       1.369  10.342  -2.150  1.00  0.00     0.034 A 
ATOM     51  C   UNL     1      -1.369   8.841  -8.217  1.00  0.00     0.049 A 
ATOM     52  C   UNL     1       0.739  11.134  -3.252  1.00  0.00     0.074 A 
ATOM     53  C   UNL     1      -1.899   9.771  -9.078  1.00  0.00     0.029 A 
ATOM     54  N   UNL     1      -0.922   9.530  -7.087  1.00  0.00    -0.354 N 
ATOM     55  N   UNL     1       0.201  10.694  -4.372  1.00  0.00    -0.248 NA
ATOM     56  C   UNL     1       0.694  12.580  -3.080  1.00  0.00     0.031 C 
ATOM     57  C   UNL     1      -1.739  11.027  -8.482  1.00  0.00     0.029 A 
ATOM     58  C   UNL     1      -1.146  10.879  -7.231  1.00  0.00     0.049 A 
ATOM     59  H   UNL     1      -0.507   9.109  -6.300  1.00  0.00     0.167 HD
ATOM     60  C   UNL     1      -0.250  11.807  -5.048  1.00  0.00     0.074 A 
ATOM     61  C   UNL     1       0.041  12.940  -4.177  1.00  0.00     0.031 C 
ATOM     62  C   UNL     1      -0.825  11.913  -6.273  1.00  0.00     0.034 A 
BRANCH  49  63
ATOM     63  C   UNL     1      -1.658   6.735  -9.646  1.00  0.00     0.023 A 
ATOM     64  C   UNL     1      -2.774   5.875  -9.665  1.00  0.00     0.012 A 
ATOM     65  C   UNL     1      -0.911   6.931 -10.822  1.00  0.00     0.148 A 
ATOM     66  C   UNL     1      -3.139   5.217 -10.840  1.00  0.00     0.002 A 
ATOM     67  C   UNL     1      -1.307   6.309 -11.998  1.00  0.00     0.091 A 
ATOM     68  F   UNL     1       0.184   7.701 -10.760  1.00  0.00    -0.205 F 
ATOM     69  C   UNL     1      -2.415   5.445 -12.008  1.00  0.00     0.022 A 
BRANCH  67  70
ATOM     70  S   UNL     1      -0.474   6.585 -13.563  1.00  0.00     0.127 S 
ATOM     71  O   UNL     1      -0.039   5.232 -13.911  1.00  0.00    -0.237 OA
ATOM     72  O   UNL     1      -1.559   7.109 -14.390  1.00  0.00    -0.237 OA
ATOM     73  O   UNL     1       0.605   7.524 -13.290  1.00  0.00    -0.744 OA
ENDBRANCH  67  70
ENDBRANCH  49  63
BRANCH  50  74
ATOM     74  C   UNL     1       1.974  10.908  -0.923  1.00  0.00     0.023 A 
ATOM     75  C   UNL     1       1.163  11.550   0.025  1.00  0.00     0.012 A 
ATOM     76  C   UNL     1       3.351  10.739  -0.652  1.00  0.00     0.148 A 
ATOM     77  C   UNL     1       1.717  12.053   1.202  1.00  0.00     0.002 A 
ATOM     78  C   UNL     1       3.885  11.192   0.546  1.00  0.00     0.091 A 
ATOM     79  F   UNL     1       4.111  10.117  -1.565  1.00  0.00    -0.205 F 
ATOM     80  C   UNL     1       3.074  11.868   1.466  1.00  0.00     0.022 A 
BRANCH  78  81
ATOM     81  S   UNL     1       5.589  10.867   1.013  1.00  0.00     0.127 S 
ATOM     82  O   UNL     1       6.220  12.158   0.752  1.00  0.00    -0.237 OA
ATOM     83  O   UNL     1       5.461  10.519   2.429  1.00  0.00    -0.237 OA
ATOM     84  O   UNL     1       6.022   9.763   0.166  1.00  0.00    -0.744 OA
ENDBRANCH  78  81
ENDBRANCH  50  74
BRANCH  62  85
ATOM     85  C   UNL     1      -1.165  13.306  -6.689  1.00  0.00     0.023 A 
ATOM     86  C   UNL     1      -0.138  14.181  -7.086  1.00  0.00     0.012 A 
ATOM     87  C   UNL     1      -2.510  13.704  -6.751  1.00  0.00     0.148 A 
ATOM     88  C   UNL     1      -0.450  15.466  -7.509  1.00  0.00     0.002 A 
ATOM     89  C   UNL     1      -2.815  14.961  -7.237  1.00  0.00     0.091 A 
ATOM     90  F   UNL     1      -3.454  12.842  -6.346  1.00  0.00    -0.205 F 
ATOM     91  C   UNL     1      -1.788  15.850  -7.599  1.00  0.00     0.022 A 
BRANCH  89  92
ATOM     92  S   UNL     1      -4.506  15.489  -7.502  1.00  0.00     0.127 S 
ATOM     93  O   UNL     1      -4.665  16.502  -6.460  1.00  0.00    -0.237 OA
ATOM     94  O   UNL     1      -4.452  16.013  -8.866  1.00  0.00    -0.237 OA
ATOM     95  O   UNL     1      -5.331  14.298  -7.344  1.00  0.00    -0.744 OA
ENDBRANCH  89  92
ENDBRANCH  62  85
ENDBRANCH  36  37
ENDBRANCH  29  31
ENDBRANCH  28  29
ENDBRANCH   1  28
TORSDOF 17
