REMARK SMILES C[C@H]1[C@H](C(=O)OCCOC(=O)c2ccc(-c3c4nc(c(-c5cccc(S(=O)(=O)[O-])c5F)c5ccc([nH]5)c(-c5cccc(S(=O)(=O)[O-])c5F)c5nc(c(-c6cccc(S(=O)(=O)[O-])c6F)c6ccc3[nH]6)C=C5)C=C4)cc2)CC[N@@H+]1Cc1nnnn1-c1ccccc1
REMARK SMILES IDX 7 1 6 2 4 3 5 4 3 5 1 6 2 7 77 8 75 9 76 10 78 12 79 13
REMARK SMILES IDX 80 14 83 15 81 16 82 17 84 18 85 19 89 20 86 21 88 22 87 23
REMARK SMILES IDX 8 24 9 25 10 26 11 27 12 28 13 29 74 30 14 31 73 32 15 33
REMARK SMILES IDX 16 34 17 35 67 36 18 37 72 38 66 39 68 40 19 41 71 42 65 43
REMARK SMILES IDX 64 44 20 46 52 47 32 48 51 49 33 50 36 51 50 52 69 53 34 54
REMARK SMILES IDX 35 55 49 57 70 58 37 59 21 60 22 61 30 62 23 63 25 64 31 65
REMARK SMILES IDX 24 66 26 67 27 68 28 69 29 70 53 71 54 72 62 73 55 74 57 75
REMARK SMILES IDX 63 76 56 77 58 78 59 79 60 80 61 81 38 82 39 83 47 84 40 85
REMARK SMILES IDX 42 86 48 87 41 88 43 89 44 90 45 91 46 92
REMARK H PARENT 77 11 68 45 36 56
REMARK Flexibility Score: inf
ROOT
ATOM      1  C   UNL     1      -0.243   3.001   3.356  1.00  0.00     0.274 C 
ENDROOT
BRANCH   1   2
ATOM      2  O   UNL     1       0.028   1.947   2.414  1.00  0.00    -0.462 OA
BRANCH   2   3
ATOM      3  C   UNL     1      -0.556   2.027   1.199  1.00  0.00     0.315 C 
ATOM      4  O   UNL     1      -1.383   2.873   0.874  1.00  0.00    -0.252 OA
BRANCH   3   5
ATOM      5  C   UNL     1      -0.005   1.014   0.208  1.00  0.00     0.162 C 
ATOM      6  C   UNL     1       2.072  -0.381   0.008  1.00  0.00     0.076 C 
ATOM      7  C   UNL     1       0.759  -0.183   0.787  1.00  0.00     0.195 C 
ATOM      8  N   UNL     1      -0.089  -1.361   0.542  1.00  0.00    -0.326 N 
ATOM      9  C   UNL     1      -1.128   0.426  -0.640  1.00  0.00     0.083 C 
ATOM     10  C   UNL     1      -0.903  -1.071  -0.630  1.00  0.00     0.263 C 
ATOM     11  H   UNL     1       0.490  -2.172   0.324  1.00  0.00     0.348 HD
BRANCH   8  12
ATOM     12  C   UNL     1      -0.760  -1.922   1.722  1.00  0.00     0.343 C 
BRANCH  12  13
ATOM     13  C   UNL     1      -1.611  -1.037   2.572  1.00  0.00     0.210 A 
ATOM     14  N   UNL     1      -1.235  -0.500   3.721  1.00  0.00    -0.107 NA
ATOM     15  N   UNL     1      -2.893  -0.587   2.301  1.00  0.00    -0.192 N 
ATOM     16  N   UNL     1      -2.228   0.361   4.094  1.00  0.00    -0.023 NA
ATOM     17  N   UNL     1      -3.203   0.374   3.202  1.00  0.00    -0.040 NA
BRANCH  15  18
ATOM     18  C   UNL     1      -3.803  -0.947   1.286  1.00  0.00     0.069 A 
ATOM     19  C   UNL     1      -4.557   0.060   0.668  1.00  0.00     0.028 A 
ATOM     20  C   UNL     1      -3.906  -2.271   0.849  1.00  0.00     0.028 A 
ATOM     21  C   UNL     1      -5.313  -0.244  -0.464  1.00  0.00     0.002 A 
ATOM     22  C   UNL     1      -4.689  -2.572  -0.264  1.00  0.00     0.002 A 
ATOM     23  C   UNL     1      -5.368  -1.556  -0.936  1.00  0.00     0.000 A 
ENDBRANCH  15  18
ENDBRANCH  12  13
ENDBRANCH   8  12
ENDBRANCH   3   5
ENDBRANCH   2   3
ENDBRANCH   1   2
BRANCH   1  24
ATOM     24  C   UNL     1       1.053   3.756   3.646  1.00  0.00     0.275 C 
BRANCH  24  25
ATOM     25  O   UNL     1       1.503   4.445   2.467  1.00  0.00    -0.458 OA
BRANCH  25  26
ATOM     26  C   UNL     1       2.320   3.726   1.666  1.00  0.00     0.338 C 
ATOM     27  O   UNL     1       2.765   2.607   1.853  1.00  0.00    -0.246 OA
BRANCH  26  28
ATOM     28  C   UNL     1       2.545   4.467   0.424  1.00  0.00     0.060 A 
ATOM     29  C   UNL     1       1.727   4.208  -0.677  1.00  0.00     0.016 A 
ATOM     30  C   UNL     1       3.636   5.324   0.323  1.00  0.00     0.016 A 
ATOM     31  C   UNL     1       2.047   4.739  -1.919  1.00  0.00     0.010 A 
ATOM     32  C   UNL     1       3.906   5.922  -0.905  1.00  0.00     0.010 A 
ATOM     33  C   UNL     1       3.133   5.610  -2.039  1.00  0.00    -0.014 A 
BRANCH  33  34
ATOM     34  C   UNL     1       3.487   6.211  -3.345  1.00  0.00     0.031 A 
ATOM     35  C   UNL     1       4.834   5.925  -3.939  1.00  0.00     0.074 A 
ATOM     36  C   UNL     1       2.636   7.072  -3.933  1.00  0.00     0.049 A 
ATOM     37  N   UNL     1       5.462   6.550  -4.897  1.00  0.00    -0.248 NA
ATOM     38  C   UNL     1       5.584   4.796  -3.360  1.00  0.00     0.031 C 
ATOM     39  C   UNL     1       1.290   7.396  -3.455  1.00  0.00     0.029 A 
ATOM     40  N   UNL     1       2.798   7.871  -5.037  1.00  0.00    -0.354 N 
ATOM     41  C   UNL     1       6.710   5.946  -4.984  1.00  0.00     0.074 A 
ATOM     42  C   UNL     1       6.743   4.889  -3.996  1.00  0.00     0.031 C 
ATOM     43  C   UNL     1       0.760   8.344  -4.240  1.00  0.00     0.029 A 
ATOM     44  C   UNL     1       1.754   8.747  -5.226  1.00  0.00     0.049 A 
ATOM     45  H   UNL     1       3.580   7.821  -5.632  1.00  0.00     0.167 HD
ATOM     46  C   UNL     1       7.733   6.254  -5.814  1.00  0.00     0.034 A 
ATOM     47  C   UNL     1       1.639   9.800  -6.059  1.00  0.00     0.034 A 
ATOM     48  C   UNL     1       7.653   7.275  -6.823  1.00  0.00     0.049 A 
ATOM     49  C   UNL     1       2.789  10.121  -6.971  1.00  0.00     0.074 A 
ATOM     50  C   UNL     1       8.610   7.647  -7.749  1.00  0.00     0.029 A 
ATOM     51  N   UNL     1       6.546   8.083  -7.040  1.00  0.00    -0.354 N 
ATOM     52  N   UNL     1       3.946   9.513  -7.083  1.00  0.00    -0.248 NA
ATOM     53  C   UNL     1       2.617  11.260  -7.883  1.00  0.00     0.031 C 
ATOM     54  C   UNL     1       8.084   8.689  -8.520  1.00  0.00     0.029 A 
ATOM     55  C   UNL     1       6.793   8.951  -8.086  1.00  0.00     0.049 A 
ATOM     56  H   UNL     1       5.708   8.043  -6.524  1.00  0.00     0.167 HD
ATOM     57  C   UNL     1       4.625  10.168  -8.101  1.00  0.00     0.074 A 
ATOM     58  C   UNL     1       3.746  11.217  -8.580  1.00  0.00     0.031 C 
ATOM     59  C   UNL     1       5.868   9.935  -8.588  1.00  0.00     0.034 A 
BRANCH  46  60
ATOM     60  C   UNL     1       9.013   5.474  -5.679  1.00  0.00     0.023 A 
ATOM     61  C   UNL     1       9.075   4.144  -6.139  1.00  0.00     0.012 A 
ATOM     62  C   UNL     1      10.169   6.076  -5.144  1.00  0.00     0.148 A 
ATOM     63  C   UNL     1      10.261   3.416  -6.044  1.00  0.00     0.002 A 
ATOM     64  C   UNL     1      11.358   5.357  -5.089  1.00  0.00     0.091 A 
ATOM     65  F   UNL     1      10.084   7.334  -4.688  1.00  0.00    -0.205 F 
ATOM     66  C   UNL     1      11.403   4.024  -5.529  1.00  0.00     0.022 A 
BRANCH  64  67
ATOM     67  S   UNL     1      12.898   6.079  -4.511  1.00  0.00     0.127 S 
ATOM     68  O   UNL     1      13.056   5.433  -3.209  1.00  0.00    -0.237 OA
ATOM     69  O   UNL     1      13.850   5.635  -5.530  1.00  0.00    -0.237 OA
ATOM     70  O   UNL     1      12.677   7.518  -4.475  1.00  0.00    -0.744 OA
ENDBRANCH  64  67
ENDBRANCH  46  60
BRANCH  47  71
ATOM     71  C   UNL     1       0.385  10.603  -6.067  1.00  0.00     0.023 A 
ATOM     72  C   UNL     1      -0.477  10.519  -7.176  1.00  0.00     0.012 A 
ATOM     73  C   UNL     1       0.011  11.399  -4.965  1.00  0.00     0.148 A 
ATOM     74  C   UNL     1      -1.679  11.228  -7.197  1.00  0.00     0.002 A 
ATOM     75  C   UNL     1      -1.213  12.057  -4.969  1.00  0.00     0.091 A 
ATOM     76  F   UNL     1       0.852  11.479  -3.924  1.00  0.00    -0.205 F 
ATOM     77  C   UNL     1      -2.053  11.985  -6.091  1.00  0.00     0.022 A 
BRANCH  75  78
ATOM     78  S   UNL     1      -1.834  12.941  -3.532  1.00  0.00     0.127 S 
ATOM     79  O   UNL     1      -1.665  14.332  -3.941  1.00  0.00    -0.237 OA
ATOM     80  O   UNL     1      -3.222  12.481  -3.468  1.00  0.00    -0.237 OA
ATOM     81  O   UNL     1      -1.007  12.500  -2.417  1.00  0.00    -0.744 OA
ENDBRANCH  75  78
ENDBRANCH  47  71
BRANCH  59  82
ATOM     82  C   UNL     1       6.338  10.783  -9.736  1.00  0.00     0.023 A 
ATOM     83  C   UNL     1       6.777  12.100  -9.500  1.00  0.00     0.012 A 
ATOM     84  C   UNL     1       6.455  10.228 -11.025  1.00  0.00     0.148 A 
ATOM     85  C   UNL     1       7.314  12.859 -10.538  1.00  0.00     0.002 A 
ATOM     86  C   UNL     1       7.032  10.974 -12.043  1.00  0.00     0.091 A 
ATOM     87  F   UNL     1       6.012   8.978 -11.224  1.00  0.00    -0.205 F 
ATOM     88  C   UNL     1       7.455  12.292 -11.804  1.00  0.00     0.022 A 
BRANCH  86  89
ATOM     89  S   UNL     1       7.344  10.295 -13.676  1.00  0.00     0.127 S 
ATOM     90  O   UNL     1       6.379  11.029 -14.493  1.00  0.00    -0.237 OA
ATOM     91  O   UNL     1       8.742  10.665 -13.903  1.00  0.00    -0.237 OA
ATOM     92  O   UNL     1       7.107   8.862 -13.569  1.00  0.00    -0.744 OA
ENDBRANCH  86  89
ENDBRANCH  59  82
ENDBRANCH  33  34
ENDBRANCH  26  28
ENDBRANCH  25  26
ENDBRANCH  24  25
ENDBRANCH   1  24
TORSDOF 17
