REMARK SMILES Cc1cc(C(=O)OCCOC(=O)c2ccc(-c3c4nc(c(-c5cccc(S(=O)(=O)[O-])c5F)c5ccc([nH]5)c(-c5cccc(S(=O)(=O)[O-])c5F)c5nc(c(-c6cccc(S(=O)(=O)[O-])c6F)c6ccc3[nH]6)C=C5)C=C4)cc2)ccc1NS(=O)(=O)c1ccc(C#N)cc1C
REMARK SMILES IDX 8 1 7 2 5 3 6 4 4 5 1 6 2 7 3 8 78 9 77 10 76 11 79 12 80 14
REMARK SMILES IDX 81 15 82 16 83 17 84 18 90 19 85 20 89 21 91 22 86 23 87 24
REMARK SMILES IDX 88 25 9 26 10 27 11 28 12 29 13 30 14 31 75 32 15 33 74 34
REMARK SMILES IDX 16 35 17 36 18 37 68 38 19 39 73 40 67 41 69 42 20 43 72 44
REMARK SMILES IDX 66 45 65 46 21 48 53 49 33 50 52 51 34 52 37 53 51 54 70 55
REMARK SMILES IDX 35 56 36 57 50 59 71 60 38 61 22 62 23 63 31 64 24 65 26 66
REMARK SMILES IDX 32 67 25 68 27 69 28 70 29 71 30 72 54 73 55 74 63 75 56 76
REMARK SMILES IDX 58 77 64 78 57 79 59 80 60 81 61 82 62 83 39 84 40 85 48 86
REMARK SMILES IDX 41 87 43 88 49 89 42 90 44 91 45 92 46 93 47 94
REMARK H PARENT 79 13 69 47 37 58
REMARK Flexibility Score: inf
ROOT
ATOM      1  C   UNL     1      -4.162  -3.009  -2.029  1.00  0.00     0.275 C 
ENDROOT
BRANCH   1   2
ATOM      2  O   UNL     1      -3.122  -2.071  -1.760  1.00  0.00    -0.458 OA
BRANCH   2   3
ATOM      3  C   UNL     1      -2.108  -1.808  -2.616  1.00  0.00     0.338 C 
ATOM      4  O   UNL     1      -1.887  -2.341  -3.683  1.00  0.00    -0.246 OA
BRANCH   3   5
ATOM      5  C   UNL     1      -1.353  -0.692  -1.991  1.00  0.00     0.060 A 
ATOM      6  C   UNL     1       2.118   0.296  -0.752  1.00  0.00     0.046 C 
ATOM      7  C   UNL     1       0.645   0.404  -1.065  1.00  0.00    -0.026 A 
ATOM      8  C   UNL     1       0.038  -0.643  -1.827  1.00  0.00     0.021 A 
ATOM      9  C   UNL     1      -0.157   1.453  -0.566  1.00  0.00     0.052 A 
ATOM     10  C   UNL     1      -1.519   1.384  -0.820  1.00  0.00     0.028 A 
ATOM     11  C   UNL     1      -2.124   0.330  -1.470  1.00  0.00     0.018 A 
BRANCH   9  12
ATOM     12  N   UNL     1       0.312   2.452   0.363  1.00  0.00    -0.279 N 
ATOM     13  H   UNL     1       0.950   2.178   1.061  1.00  0.00     0.180 HD
BRANCH  12  14
ATOM     14  S   UNL     1      -0.180   4.080   0.313  1.00  0.00     0.262 S 
ATOM     15  O   UNL     1       0.560   4.779   1.342  1.00  0.00    -0.201 OA
ATOM     16  O   UNL     1      -0.068   4.491  -1.075  1.00  0.00    -0.201 OA
BRANCH  14  17
ATOM     17  C   UNL     1      -1.936   4.238   0.767  1.00  0.00     0.090 A 
ATOM     18  C   UNL     1      -2.586   3.206   1.460  1.00  0.00     0.024 A 
ATOM     19  C   UNL     1      -2.707   5.223   0.112  1.00  0.00    -0.029 A 
ATOM     20  C   UNL     1      -3.961   2.987   1.238  1.00  0.00     0.021 A 
ATOM     21  C   UNL     1      -4.079   4.989  -0.096  1.00  0.00     0.024 A 
ATOM     22  C   UNL     1      -2.172   6.583  -0.243  1.00  0.00     0.046 C 
ATOM     23  C   UNL     1      -4.687   3.830   0.391  1.00  0.00     0.052 A 
BRANCH  23  24
ATOM     24  C   UNL     1      -6.011   3.483  -0.068  1.00  0.00     0.099 C 
ATOM     25  N   UNL     1      -7.017   3.207  -0.557  1.00  0.00    -0.192 NA
ENDBRANCH  23  24
ENDBRANCH  14  17
ENDBRANCH  12  14
ENDBRANCH   9  12
ENDBRANCH   3   5
ENDBRANCH   2   3
ENDBRANCH   1   2
BRANCH   1  26
ATOM     26  C   UNL     1      -3.821  -4.391  -2.610  1.00  0.00     0.275 C 
BRANCH  26  27
ATOM     27  O   UNL     1      -2.493  -4.996  -2.560  1.00  0.00    -0.458 OA
BRANCH  27  28
ATOM     28  C   UNL     1      -1.436  -4.788  -1.739  1.00  0.00     0.338 C 
ATOM     29  O   UNL     1      -0.295  -5.110  -2.036  1.00  0.00    -0.246 OA
BRANCH  28  30
ATOM     30  C   UNL     1      -1.734  -4.195  -0.440  1.00  0.00     0.060 A 
ATOM     31  C   UNL     1      -0.869  -3.244   0.132  1.00  0.00     0.016 A 
ATOM     32  C   UNL     1      -2.938  -4.550   0.155  1.00  0.00     0.016 A 
ATOM     33  C   UNL     1      -1.220  -2.640   1.324  1.00  0.00     0.010 A 
ATOM     34  C   UNL     1      -3.391  -3.797   1.193  1.00  0.00     0.010 A 
ATOM     35  C   UNL     1      -2.450  -2.995   1.854  1.00  0.00    -0.014 A 
BRANCH  35  36
ATOM     36  C   UNL     1      -2.684  -3.056   3.279  1.00  0.00     0.031 A 
ATOM     37  C   UNL     1      -3.317  -1.903   3.919  1.00  0.00     0.074 A 
ATOM     38  C   UNL     1      -2.611  -4.356   3.678  1.00  0.00     0.049 A 
ATOM     39  N   UNL     1      -3.364  -1.731   5.186  1.00  0.00    -0.248 NA
ATOM     40  C   UNL     1      -3.917  -0.787   3.177  1.00  0.00     0.031 C 
ATOM     41  C   UNL     1      -3.333  -5.087   4.701  1.00  0.00     0.029 A 
ATOM     42  N   UNL     1      -1.867  -5.388   3.070  1.00  0.00    -0.354 N 
ATOM     43  C   UNL     1      -4.348  -0.790   5.412  1.00  0.00     0.074 A 
ATOM     44  C   UNL     1      -4.476  -0.077   4.168  1.00  0.00     0.031 C 
ATOM     45  C   UNL     1      -2.757  -6.302   4.852  1.00  0.00     0.029 A 
ATOM     46  C   UNL     1      -1.542  -6.320   4.043  1.00  0.00     0.049 A 
ATOM     47  H   UNL     1      -1.620  -5.437   2.118  1.00  0.00     0.167 HD
ATOM     48  C   UNL     1      -5.095  -0.922   6.545  1.00  0.00     0.034 A 
ATOM     49  C   UNL     1      -0.253  -6.408   4.503  1.00  0.00     0.034 A 
ATOM     50  C   UNL     1      -4.621  -2.116   7.281  1.00  0.00     0.049 A 
ATOM     51  C   UNL     1      -0.182  -5.815   5.907  1.00  0.00     0.074 A 
ATOM     52  C   UNL     1      -5.087  -3.419   7.323  1.00  0.00     0.029 A 
ATOM     53  N   UNL     1      -3.312  -2.156   7.756  1.00  0.00    -0.354 N 
ATOM     54  N   UNL     1      -1.121  -5.070   6.425  1.00  0.00    -0.248 NA
ATOM     55  C   UNL     1       0.926  -6.022   6.831  1.00  0.00     0.031 C 
ATOM     56  C   UNL     1      -4.003  -4.255   7.728  1.00  0.00     0.029 A 
ATOM     57  C   UNL     1      -2.882  -3.466   7.937  1.00  0.00     0.049 A 
ATOM     58  H   UNL     1      -2.763  -1.360   7.939  1.00  0.00     0.167 HD
ATOM     59  C   UNL     1      -0.763  -4.639   7.664  1.00  0.00     0.074 A 
ATOM     60  C   UNL     1       0.509  -5.312   7.895  1.00  0.00     0.031 C 
ATOM     61  C   UNL     1      -1.509  -3.735   8.375  1.00  0.00     0.034 A 
BRANCH  48  62
ATOM     62  C   UNL     1      -6.404  -0.228   6.903  1.00  0.00     0.023 A 
ATOM     63  C   UNL     1      -7.039  -0.682   8.085  1.00  0.00     0.012 A 
ATOM     64  C   UNL     1      -7.083   0.802   6.203  1.00  0.00     0.148 A 
ATOM     65  C   UNL     1      -8.268  -0.187   8.531  1.00  0.00     0.002 A 
ATOM     66  C   UNL     1      -8.309   1.313   6.659  1.00  0.00     0.091 A 
ATOM     67  F   UNL     1      -6.568   1.304   5.081  1.00  0.00    -0.205 F 
ATOM     68  C   UNL     1      -8.906   0.813   7.818  1.00  0.00     0.022 A 
BRANCH  66  69
ATOM     69  S   UNL     1      -9.201   2.641   5.819  1.00  0.00     0.127 S 
ATOM     70  O   UNL     1     -10.451   1.978   5.444  1.00  0.00    -0.237 OA
ATOM     71  O   UNL     1      -9.340   3.642   6.877  1.00  0.00    -0.237 OA
ATOM     72  O   UNL     1      -8.365   3.051   4.697  1.00  0.00    -0.744 OA
ENDBRANCH  66  69
ENDBRANCH  48  62
BRANCH  49  73
ATOM     73  C   UNL     1       0.784  -6.188   3.425  1.00  0.00     0.023 A 
ATOM     74  C   UNL     1       0.693  -6.989   2.253  1.00  0.00     0.012 A 
ATOM     75  C   UNL     1       1.538  -5.005   3.358  1.00  0.00     0.148 A 
ATOM     76  C   UNL     1       1.164  -6.524   1.020  1.00  0.00     0.002 A 
ATOM     77  C   UNL     1       1.997  -4.543   2.122  1.00  0.00     0.091 A 
ATOM     78  F   UNL     1       1.754  -4.303   4.477  1.00  0.00    -0.205 F 
ATOM     79  C   UNL     1       1.781  -5.281   0.949  1.00  0.00     0.022 A 
BRANCH  77  80
ATOM     80  S   UNL     1       2.694  -2.891   1.999  1.00  0.00     0.127 S 
ATOM     81  O   UNL     1       2.648  -2.615   0.562  1.00  0.00    -0.237 OA
ATOM     82  O   UNL     1       1.780  -2.068   2.779  1.00  0.00    -0.237 OA
ATOM     83  O   UNL     1       4.035  -3.075   2.542  1.00  0.00    -0.744 OA
ENDBRANCH  77  80
ENDBRANCH  49  73
BRANCH  61  84
ATOM     84  C   UNL     1      -0.983  -3.023   9.598  1.00  0.00     0.023 A 
ATOM     85  C   UNL     1       0.396  -2.864   9.827  1.00  0.00     0.012 A 
ATOM     86  C   UNL     1      -1.860  -2.363  10.493  1.00  0.00     0.148 A 
ATOM     87  C   UNL     1       0.884  -2.216  10.961  1.00  0.00     0.002 A 
ATOM     88  C   UNL     1      -1.365  -1.581  11.525  1.00  0.00     0.091 A 
ATOM     89  F   UNL     1      -3.187  -2.504  10.367  1.00  0.00    -0.205 F 
ATOM     90  C   UNL     1       0.002  -1.556  11.802  1.00  0.00     0.022 A 
BRANCH  88  91
ATOM     91  S   UNL     1      -2.432  -0.447  12.419  1.00  0.00     0.127 S 
ATOM     92  O   UNL     1      -2.729  -1.206  13.630  1.00  0.00    -0.237 OA
ATOM     93  O   UNL     1      -1.556   0.708  12.619  1.00  0.00    -0.237 OA
ATOM     94  O   UNL     1      -3.556  -0.193  11.527  1.00  0.00    -0.744 OA
ENDBRANCH  88  91
ENDBRANCH  61  84
ENDBRANCH  35  36
ENDBRANCH  28  30
ENDBRANCH  27  28
ENDBRANCH  26  27
ENDBRANCH   1  26
TORSDOF 18
