REMARK SMILES O=C(N[C@@H](Cc1c[nH]c2ccccc12)C(=O)N[C@@H](CO)C(=O)OCCOC(=O)c1ccc(-c2c3nc(c(-c4cccc(S(=O)(=O)[O-])c4F)c4ccc([nH]4)c(-c4cccc(S(=O)(=O)[O-])c4F)c4nc(c(-c5cccc(S(=O)(=O)[O-])c5F)c5ccc2[nH]5)C=C4)C=C3)cc1)c1ccc(F)cc1
REMARK SMILES IDX 24 1 23 2 21 3 22 4 18 5 17 6 15 7 16 8 4 10 3 11 1 12 2 13
REMARK SMILES IDX 92 15 93 16 98 17 94 18 97 19 95 20 96 21 5 22 6 23 7 24
REMARK SMILES IDX 14 25 8 26 9 27 13 28 10 30 12 31 11 32 19 33 20 34 25 36
REMARK SMILES IDX 26 37 27 38 28 39 29 40 30 41 91 42 31 43 90 44 32 45 33 46
REMARK SMILES IDX 34 47 84 48 35 49 89 50 83 51 85 52 36 53 88 54 82 55 81 56
REMARK SMILES IDX 37 58 69 59 49 60 68 61 50 62 53 63 67 64 86 65 51 66 52 67
REMARK SMILES IDX 66 69 87 70 54 71 38 72 39 73 47 74 40 75 42 76 48 77 41 78
REMARK SMILES IDX 43 79 44 80 45 81 46 82 70 83 71 84 79 85 72 86 74 87 80 88
REMARK SMILES IDX 73 89 75 90 76 91 77 92 78 93 55 94 56 95 64 96 57 97 59 98
REMARK SMILES IDX 65 99 58 100 60 101 61 102 62 103 63 104
REMARK H PARENT 17 9 3 14 8 29 20 35 85 57 53 68
REMARK Flexibility Score: inf
ROOT
ATOM      1  C   UNL     1       6.961  -5.221  -4.862  1.00  0.00     0.274 C 
ENDROOT
BRANCH   1   2
ATOM      2  O   UNL     1       6.088  -4.073  -4.709  1.00  0.00    -0.460 OA
BRANCH   2   3
ATOM      3  C   UNL     1       4.975  -4.379  -3.982  1.00  0.00     0.331 C 
ATOM      4  O   UNL     1       4.860  -5.455  -3.387  1.00  0.00    -0.250 OA
BRANCH   3   5
ATOM      5  C   UNL     1       3.745  -3.156  -3.962  1.00  0.00     0.218 C 
BRANCH   5   6
ATOM      6  N   UNL     1       4.707  -1.833  -3.611  1.00  0.00    -0.339 N 
ATOM      7  C   UNL     1       4.792  -0.961  -2.544  1.00  0.00     0.243 C 
ATOM      8  O   UNL     1       5.559   0.000  -2.725  1.00  0.00    -0.273 OA
ATOM      9  H   UNL     1       5.357  -1.632  -4.323  1.00  0.00     0.164 HD
BRANCH   7  10
ATOM     10  C   UNL     1       3.893  -0.953  -1.212  1.00  0.00     0.176 C 
BRANCH  10  11
ATOM     11  N   UNL     1       2.761  -0.006  -1.156  1.00  0.00    -0.340 N 
ATOM     12  O   UNL     1       1.107   0.917   0.031  1.00  0.00    -0.269 OA
ATOM     13  C   UNL     1       2.312   0.704  -0.073  1.00  0.00     0.251 C 
ATOM     14  H   UNL     1       2.270   0.131  -1.998  1.00  0.00     0.164 HD
BRANCH  13  15
ATOM     15  C   UNL     1       3.241   1.236   0.943  1.00  0.00     0.040 A 
ATOM     16  C   UNL     1       4.440   1.850   0.562  1.00  0.00     0.017 A 
ATOM     17  C   UNL     1       2.832   1.255   2.284  1.00  0.00     0.017 A 
ATOM     18  C   UNL     1       5.230   2.476   1.527  1.00  0.00     0.040 A 
ATOM     19  C   UNL     1       3.627   1.883   3.245  1.00  0.00     0.040 A 
ATOM     20  C   UNL     1       4.814   2.493   2.855  1.00  0.00     0.123 A 
ATOM     21  F   UNL     1       5.560   3.130   3.767  1.00  0.00    -0.207 F 
ENDBRANCH  13  15
ENDBRANCH  10  11
BRANCH  10  22
ATOM     22  C   UNL     1       3.417  -2.269  -0.600  1.00  0.00     0.072 C 
BRANCH  22  23
ATOM     23  C   UNL     1       2.361  -3.061  -1.348  1.00  0.00    -0.020 A 
ATOM     24  C   UNL     1       2.055  -4.390  -1.036  1.00  0.00     0.087 A 
ATOM     25  C   UNL     1       2.017  -2.841  -2.731  1.00  0.00     0.003 A 
ATOM     26  N   UNL     1       1.935  -5.216  -2.156  1.00  0.00    -0.361 N 
ATOM     27  C   UNL     1       2.230  -4.503  -3.289  1.00  0.00     0.046 A 
ATOM     28  C   UNL     1       2.415  -1.494  -3.892  1.00  0.00     0.010 A 
ATOM     29  H   UNL     1       1.678  -6.166  -2.134  1.00  0.00     0.166 HD
ATOM     30  C   UNL     1       2.878  -4.856  -4.944  1.00  0.00     0.026 A 
ATOM     31  C   UNL     1       3.152  -1.835  -5.493  1.00  0.00     0.001 A 
ATOM     32  C   UNL     1       3.395  -3.511  -6.001  1.00  0.00     0.002 A 
ENDBRANCH  22  23
ENDBRANCH  10  22
ENDBRANCH   7  10
ENDBRANCH   5   6
BRANCH   5  33
ATOM     33  C   UNL     1       1.707  -3.172  -4.796  1.00  0.00     0.193 C 
BRANCH  33  34
ATOM     34  O   UNL     1       1.204  -2.743  -6.226  1.00  0.00    -0.394 OA
ATOM     35  H   UNL     1       1.225  -1.776  -6.300  1.00  0.00     0.210 HD
ENDBRANCH  33  34
ENDBRANCH   5  33
ENDBRANCH   3   5
ENDBRANCH   2   3
ENDBRANCH   1   2
BRANCH   1  36
ATOM     36  C   UNL     1       8.001  -5.398  -3.743  1.00  0.00     0.275 C 
BRANCH  36  37
ATOM     37  O   UNL     1       7.426  -5.748  -2.465  1.00  0.00    -0.458 OA
BRANCH  37  38
ATOM     38  C   UNL     1       7.645  -4.855  -1.471  1.00  0.00     0.338 C 
ATOM     39  O   UNL     1       8.243  -3.794  -1.565  1.00  0.00    -0.246 OA
BRANCH  38  40
ATOM     40  C   UNL     1       7.001  -5.249  -0.201  1.00  0.00     0.060 A 
ATOM     41  C   UNL     1       5.643  -4.997  -0.068  1.00  0.00     0.016 A 
ATOM     42  C   UNL     1       7.758  -5.551   0.933  1.00  0.00     0.016 A 
ATOM     43  C   UNL     1       5.075  -4.886   1.204  1.00  0.00     0.010 A 
ATOM     44  C   UNL     1       7.153  -5.552   2.205  1.00  0.00     0.010 A 
ATOM     45  C   UNL     1       5.813  -5.158   2.364  1.00  0.00    -0.014 A 
BRANCH  45  46
ATOM     46  C   UNL     1       5.188  -4.955   3.710  1.00  0.00     0.031 A 
ATOM     47  C   UNL     1       5.786  -3.976   4.694  1.00  0.00     0.074 A 
ATOM     48  C   UNL     1       4.036  -5.577   4.041  1.00  0.00     0.049 A 
ATOM     49  N   UNL     1       5.490  -3.779   5.954  1.00  0.00    -0.248 NA
ATOM     50  C   UNL     1       6.843  -3.087   4.185  1.00  0.00     0.031 C 
ATOM     51  C   UNL     1       3.269  -6.460   3.161  1.00  0.00     0.029 A 
ATOM     52  N   UNL     1       3.300  -5.559   5.205  1.00  0.00    -0.354 N 
ATOM     53  C   UNL     1       6.376  -2.808   6.411  1.00  0.00     0.074 A 
ATOM     54  C   UNL     1       7.190  -2.421   5.278  1.00  0.00     0.031 C 
ATOM     55  C   UNL     1       2.163  -6.870   3.797  1.00  0.00     0.029 A 
ATOM     56  C   UNL     1       2.199  -6.386   5.171  1.00  0.00     0.049 A 
ATOM     57  H   UNL     1       3.537  -5.007   5.985  1.00  0.00     0.167 HD
ATOM     58  C   UNL     1       6.512  -2.300   7.661  1.00  0.00     0.034 A 
ATOM     59  C   UNL     1       1.352  -6.775   6.147  1.00  0.00     0.034 A 
ATOM     60  C   UNL     1       5.675  -2.660   8.776  1.00  0.00     0.049 A 
ATOM     61  C   UNL     1       1.565  -6.258   7.544  1.00  0.00     0.074 A 
ATOM     62  C   UNL     1       5.765  -2.244  10.093  1.00  0.00     0.029 A 
ATOM     63  N   UNL     1       4.591  -3.522   8.704  1.00  0.00    -0.354 N 
ATOM     64  N   UNL     1       2.438  -5.379   7.973  1.00  0.00    -0.248 NA
ATOM     65  C   UNL     1       0.683  -6.789   8.593  1.00  0.00     0.031 C 
ATOM     66  C   UNL     1       4.755  -2.882  10.823  1.00  0.00     0.029 A 
ATOM     67  C   UNL     1       4.011  -3.663   9.953  1.00  0.00     0.049 A 
ATOM     68  H   UNL     1       4.279  -3.969   7.884  1.00  0.00     0.167 HD
ATOM     69  C   UNL     1       2.201  -5.239   9.335  1.00  0.00     0.074 A 
ATOM     70  C   UNL     1       1.080  -6.100   9.655  1.00  0.00     0.031 C 
ATOM     71  C   UNL     1       2.864  -4.484  10.245  1.00  0.00     0.034 A 
BRANCH  58  72
ATOM     72  C   UNL     1       7.654  -1.345   7.903  1.00  0.00     0.023 A 
ATOM     73  C   UNL     1       7.594  -0.017   7.437  1.00  0.00     0.012 A 
ATOM     74  C   UNL     1       8.792  -1.775   8.616  1.00  0.00     0.148 A 
ATOM     75  C   UNL     1       8.667   0.854   7.640  1.00  0.00     0.002 A 
ATOM     76  C   UNL     1       9.840  -0.892   8.847  1.00  0.00     0.091 A 
ATOM     77  F   UNL     1       8.836  -3.046   9.040  1.00  0.00    -0.205 F 
ATOM     78  C   UNL     1       9.785   0.419   8.348  1.00  0.00     0.022 A 
BRANCH  76  79
ATOM     79  S   UNL     1      11.296  -1.345   9.798  1.00  0.00     0.127 S 
ATOM     80  O   UNL     1      12.327  -1.377   8.761  1.00  0.00    -0.237 OA
ATOM     81  O   UNL     1      11.410  -0.229  10.737  1.00  0.00    -0.237 OA
ATOM     82  O   UNL     1      10.992  -2.629  10.414  1.00  0.00    -0.744 OA
ENDBRANCH  76  79
ENDBRANCH  58  72
BRANCH  59  83
ATOM     83  C   UNL     1       0.258  -7.749   5.850  1.00  0.00     0.023 A 
ATOM     84  C   UNL     1      -1.089  -7.360   5.987  1.00  0.00     0.012 A 
ATOM     85  C   UNL     1       0.547  -9.061   5.420  1.00  0.00     0.148 A 
ATOM     86  C   UNL     1      -2.122  -8.264   5.723  1.00  0.00     0.002 A 
ATOM     87  C   UNL     1      -0.485  -9.930   5.088  1.00  0.00     0.091 A 
ATOM     88  F   UNL     1       1.832  -9.431   5.327  1.00  0.00    -0.205 F 
ATOM     89  C   UNL     1      -1.821  -9.542   5.259  1.00  0.00     0.022 A 
BRANCH  87  90
ATOM     90  S   UNL     1      -0.179 -11.533   4.337  1.00  0.00     0.127 S 
ATOM     91  O   UNL     1      -0.506 -12.444   5.430  1.00  0.00    -0.237 OA
ATOM     92  O   UNL     1      -1.132 -11.534   3.226  1.00  0.00    -0.237 OA
ATOM     93  O   UNL     1       1.218 -11.511   3.922  1.00  0.00    -0.744 OA
ENDBRANCH  87  90
ENDBRANCH  59  83
BRANCH  71  94
ATOM     94  C   UNL     1       2.379  -4.521  11.670  1.00  0.00     0.023 A 
ATOM     95  C   UNL     1       2.622  -5.657  12.467  1.00  0.00     0.012 A 
ATOM     96  C   UNL     1       1.753  -3.395  12.240  1.00  0.00     0.148 A 
ATOM     97  C   UNL     1       2.225  -5.681  13.804  1.00  0.00     0.002 A 
ATOM     98  C   UNL     1       1.406  -3.408  13.585  1.00  0.00     0.091 A 
ATOM     99  F   UNL     1       1.510  -2.334  11.457  1.00  0.00    -0.205 F 
ATOM    100  C   UNL     1       1.631  -4.553  14.366  1.00  0.00     0.022 A 
BRANCH  98 101
ATOM    101  S   UNL     1       0.729  -1.966  14.416  1.00  0.00     0.127 S 
ATOM    102  O   UNL     1      -0.663  -2.364  14.616  1.00  0.00    -0.237 OA
ATOM    103  O   UNL     1       1.530  -1.909  15.640  1.00  0.00    -0.237 OA
ATOM    104  O   UNL     1       0.935  -0.846  13.508  1.00  0.00    -0.744 OA
ENDBRANCH  98 101
ENDBRANCH  71  94
ENDBRANCH  45  46
ENDBRANCH  38  40
ENDBRANCH  37  38
ENDBRANCH  36  37
ENDBRANCH   1  36
TORSDOF 22
