REMARK SMILES O=C(CC[N@H+]1CCC[C@@H](C(=O)OCCOC(=O)c2ccc(-c3c4nc(c(-c5cccc(S(=O)(=O)[O-])c5F)c5ccc([nH]5)c(-c5cccc(S(=O)(=O)[O-])c5F)c5nc(c(-c6cccc(S(=O)(=O)[O-])c6F)c6ccc3[nH]6)C=C5)C=C4)cc2)C1)Nc1cccc(F)c1
REMARK SMILES IDX 13 1 12 2 10 3 11 4 9 5 5 6 6 7 81 8 7 10 8 11 4 12 3 13
REMARK SMILES IDX 2 14 1 15 82 16 83 18 84 19 89 20 85 21 87 22 86 23 88 24
REMARK SMILES IDX 14 25 15 26 16 27 17 28 18 29 19 30 80 31 20 32 79 33 21 34
REMARK SMILES IDX 22 35 23 36 73 37 24 38 78 39 72 40 74 41 25 42 77 43 71 44
REMARK SMILES IDX 70 45 26 47 58 48 38 49 57 50 39 51 42 52 56 53 75 54 40 55
REMARK SMILES IDX 41 56 55 58 76 59 43 60 27 61 28 62 36 63 29 64 31 65 37 66
REMARK SMILES IDX 30 67 32 68 33 69 34 70 35 71 59 72 60 73 68 74 61 75 63 76
REMARK SMILES IDX 69 77 62 78 64 79 65 80 66 81 67 82 44 83 45 84 53 85 46 86
REMARK SMILES IDX 48 87 54 88 47 89 49 90 50 91 51 92 52 93
REMARK H PARENT 5 9 82 17 74 46 42 57
REMARK Flexibility Score: inf
ROOT
ATOM      1  C   UNL     1       9.940   3.468   1.573  1.00  0.00     0.274 C 
ENDROOT
BRANCH   1   2
ATOM      2  O   UNL     1       8.608   2.979   1.851  1.00  0.00    -0.462 OA
BRANCH   2   3
ATOM      3  C   UNL     1       7.930   2.473   0.787  1.00  0.00     0.314 C 
ATOM      4  O   UNL     1       8.328   2.500  -0.371  1.00  0.00    -0.252 OA
BRANCH   3   5
ATOM      5  C   UNL     1       6.636   1.796   1.217  1.00  0.00     0.154 C 
ATOM      6  N   UNL     1       4.354   1.280   0.243  1.00  0.00    -0.334 N 
ATOM      7  C   UNL     1       4.823  -0.082  -0.080  1.00  0.00     0.262 C 
ATOM      8  C   UNL     1       5.529   2.191   0.227  1.00  0.00     0.277 C 
ATOM      9  H   UNL     1       3.907   1.238   1.159  1.00  0.00     0.348 HD
ATOM     10  C   UNL     1       5.652  -0.564   1.102  1.00  0.00     0.062 C 
ATOM     11  C   UNL     1       6.895   0.290   1.253  1.00  0.00     0.027 C 
BRANCH   6  12
ATOM     12  C   UNL     1       3.342   1.798  -0.704  1.00  0.00     0.272 C 
BRANCH  12  13
ATOM     13  C   UNL     1       2.172   0.888  -1.079  1.00  0.00     0.161 C 
BRANCH  13  14
ATOM     14  C   UNL     1       1.285   0.336   0.027  1.00  0.00     0.230 C 
ATOM     15  O   UNL     1       0.099   0.105  -0.207  1.00  0.00    -0.275 OA
ATOM     16  N   UNL     1       1.939   0.021   1.196  1.00  0.00    -0.326 N 
ATOM     17  H   UNL     1       2.758   0.531   1.394  1.00  0.00     0.169 HD
BRANCH  16  18
ATOM     18  C   UNL     1       1.563  -0.956   2.141  1.00  0.00     0.044 A 
ATOM     19  C   UNL     1       2.325  -1.054   3.314  1.00  0.00     0.026 A 
ATOM     20  C   UNL     1       0.542  -1.881   1.919  1.00  0.00     0.065 A 
ATOM     21  C   UNL     1       2.073  -2.064   4.250  1.00  0.00     0.005 A 
ATOM     22  C   UNL     1       0.302  -2.885   2.853  1.00  0.00     0.125 A 
ATOM     23  C   UNL     1       1.058  -2.987   4.014  1.00  0.00     0.039 A 
ATOM     24  F   UNL     1      -0.665  -3.783   2.619  1.00  0.00    -0.207 F 
ENDBRANCH  16  18
ENDBRANCH  13  14
ENDBRANCH  12  13
ENDBRANCH   6  12
ENDBRANCH   3   5
ENDBRANCH   2   3
ENDBRANCH   1   2
BRANCH   1  25
ATOM     25  C   UNL     1      10.931   2.771   2.500  1.00  0.00     0.275 C 
BRANCH  25  26
ATOM     26  O   UNL     1      10.878   1.358   2.237  1.00  0.00    -0.458 OA
BRANCH  26  27
ATOM     27  C   UNL     1      10.849   0.548   3.324  1.00  0.00     0.338 C 
ATOM     28  O   UNL     1      10.994   0.891   4.485  1.00  0.00    -0.246 OA
BRANCH  27  29
ATOM     29  C   UNL     1      10.542  -0.846   2.915  1.00  0.00     0.060 A 
ATOM     30  C   UNL     1       9.805  -1.107   1.762  1.00  0.00     0.016 A 
ATOM     31  C   UNL     1      10.882  -1.907   3.752  1.00  0.00     0.016 A 
ATOM     32  C   UNL     1       9.275  -2.381   1.534  1.00  0.00     0.010 A 
ATOM     33  C   UNL     1      10.474  -3.212   3.436  1.00  0.00     0.010 A 
ATOM     34  C   UNL     1       9.614  -3.469   2.351  1.00  0.00    -0.014 A 
BRANCH  34  35
ATOM     35  C   UNL     1       9.063  -4.847   2.111  1.00  0.00     0.031 A 
ATOM     36  C   UNL     1       8.508  -5.660   3.262  1.00  0.00     0.074 A 
ATOM     37  C   UNL     1       9.063  -5.412   0.883  1.00  0.00     0.049 A 
ATOM     38  N   UNL     1       8.283  -6.948   3.334  1.00  0.00    -0.248 NA
ATOM     39  C   UNL     1       8.194  -4.935   4.505  1.00  0.00     0.031 C 
ATOM     40  C   UNL     1       9.529  -4.781  -0.351  1.00  0.00     0.029 A 
ATOM     41  N   UNL     1       8.659  -6.664   0.471  1.00  0.00    -0.354 N 
ATOM     42  C   UNL     1       7.928  -7.203   4.655  1.00  0.00     0.074 A 
ATOM     43  C   UNL     1       7.929  -5.929   5.342  1.00  0.00     0.031 C 
ATOM     44  C   UNL     1       9.335  -5.615  -1.382  1.00  0.00     0.029 A 
ATOM     45  C   UNL     1       8.848  -6.892  -0.874  1.00  0.00     0.049 A 
ATOM     46  H   UNL     1       8.271  -7.332   1.081  1.00  0.00     0.167 HD
ATOM     47  C   UNL     1       7.627  -8.386   5.244  1.00  0.00     0.034 A 
ATOM     48  C   UNL     1       8.713  -8.008  -1.619  1.00  0.00     0.034 A 
ATOM     49  C   UNL     1       7.484  -9.633   4.539  1.00  0.00     0.049 A 
ATOM     50  C   UNL     1       8.318  -9.298  -0.958  1.00  0.00     0.074 A 
ATOM     51  C   UNL     1       7.141 -10.875   5.049  1.00  0.00     0.029 A 
ATOM     52  N   UNL     1       7.631  -9.793   3.171  1.00  0.00    -0.354 N 
ATOM     53  N   UNL     1       8.021  -9.524   0.297  1.00  0.00    -0.248 NA
ATOM     54  C   UNL     1       8.250 -10.491  -1.817  1.00  0.00     0.031 C 
ATOM     55  C   UNL     1       7.069 -11.783   3.987  1.00  0.00     0.029 A 
ATOM     56  C   UNL     1       7.367 -11.105   2.816  1.00  0.00     0.049 A 
ATOM     57  H   UNL     1       7.885  -9.078   2.544  1.00  0.00     0.167 HD
ATOM     58  C   UNL     1       7.728 -10.880   0.380  1.00  0.00     0.074 A 
ATOM     59  C   UNL     1       7.843 -11.418  -0.959  1.00  0.00     0.031 C 
ATOM     60  C   UNL     1       7.427 -11.620   1.474  1.00  0.00     0.034 A 
BRANCH  47  61
ATOM     61  C   UNL     1       7.401  -8.399   6.733  1.00  0.00     0.023 A 
ATOM     62  C   UNL     1       6.186  -7.926   7.265  1.00  0.00     0.012 A 
ATOM     63  C   UNL     1       8.365  -8.956   7.599  1.00  0.00     0.148 A 
ATOM     64  C   UNL     1       5.943  -7.984   8.638  1.00  0.00     0.002 A 
ATOM     65  C   UNL     1       8.099  -9.047   8.961  1.00  0.00     0.091 A 
ATOM     66  F   UNL     1       9.525  -9.380   7.078  1.00  0.00    -0.205 F 
ATOM     67  C   UNL     1       6.893  -8.555   9.483  1.00  0.00     0.022 A 
BRANCH  65  68
ATOM     68  S   UNL     1       9.233  -9.842  10.107  1.00  0.00     0.127 S 
ATOM     69  O   UNL     1       9.877  -8.689  10.733  1.00  0.00    -0.237 OA
ATOM     70  O   UNL     1       8.325 -10.583  10.984  1.00  0.00    -0.237 OA
ATOM     71  O   UNL     1      10.096 -10.683   9.289  1.00  0.00    -0.744 OA
ENDBRANCH  65  68
ENDBRANCH  47  61
BRANCH  48  72
ATOM     72  C   UNL     1       8.965  -7.950  -3.089  1.00  0.00     0.023 A 
ATOM     73  C   UNL     1       7.886  -8.101  -3.980  1.00  0.00     0.012 A 
ATOM     74  C   UNL     1      10.247  -7.683  -3.607  1.00  0.00     0.148 A 
ATOM     75  C   UNL     1       8.081  -7.993  -5.358  1.00  0.00     0.002 A 
ATOM     76  C   UNL     1      10.420  -7.502  -4.974  1.00  0.00     0.091 A 
ATOM     77  F   UNL     1      11.274  -7.580  -2.750  1.00  0.00    -0.205 F 
ATOM     78  C   UNL     1       9.343  -7.674  -5.854  1.00  0.00     0.022 A 
BRANCH  76  79
ATOM     79  S   UNL     1      11.974  -6.905  -5.651  1.00  0.00     0.127 S 
ATOM     80  O   UNL     1      12.600  -8.141  -6.109  1.00  0.00    -0.237 OA
ATOM     81  O   UNL     1      11.525  -6.008  -6.717  1.00  0.00    -0.237 OA
ATOM     82  O   UNL     1      12.630  -6.221  -4.543  1.00  0.00    -0.744 OA
ENDBRANCH  76  79
ENDBRANCH  48  72
BRANCH  60  83
ATOM     83  C   UNL     1       7.185 -13.091   1.274  1.00  0.00     0.023 A 
ATOM     84  C   UNL     1       8.284 -13.950   1.075  1.00  0.00     0.012 A 
ATOM     85  C   UNL     1       5.886 -13.632   1.343  1.00  0.00     0.148 A 
ATOM     86  C   UNL     1       8.092 -15.323   0.923  1.00  0.00     0.002 A 
ATOM     87  C   UNL     1       5.706 -15.006   1.226  1.00  0.00     0.091 A 
ATOM     88  F   UNL     1       4.851 -12.795   1.508  1.00  0.00    -0.205 F 
ATOM     89  C   UNL     1       6.806 -15.851   1.009  1.00  0.00     0.022 A 
BRANCH  87  90
ATOM     90  S   UNL     1       4.092 -15.774   1.400  1.00  0.00     0.127 S 
ATOM     91  O   UNL     1       3.725 -16.019   0.006  1.00  0.00    -0.237 OA
ATOM     92  O   UNL     1       4.397 -16.981   2.171  1.00  0.00    -0.237 OA
ATOM     93  O   UNL     1       3.268 -14.804   2.109  1.00  0.00    -0.744 OA
ENDBRANCH  87  90
ENDBRANCH  60  83
ENDBRANCH  34  35
ENDBRANCH  27  29
ENDBRANCH  26  27
ENDBRANCH  25  26
ENDBRANCH   1  25
TORSDOF 18
