REMARK SMILES C[C@]1(C(=O)OCCOC(=O)c2ccc(-c3c4nc(c(-c5cccc(S(=O)(=O)[O-])c5F)c5ccc([nH]5)c(-c5cccc(S(=O)(=O)[O-])c5F)c5nc(c(-c6cccc(S(=O)(=O)[O-])c6F)c6ccc3[nH]6)C=C5)C=C4)cc2)COC[C@@H]1NC(=O)[C@H]1C=C[C@@H]([NH3+])C1
REMARK SMILES IDX 6 1 5 2 3 3 4 4 2 5 1 6 74 7 77 8 75 9 76 10 78 11 79 12
REMARK SMILES IDX 80 14 81 15 82 16 86 17 83 18 84 19 85 20 7 24 8 25 9 26
REMARK SMILES IDX 10 27 11 28 12 29 73 30 13 31 72 32 14 33 15 34 16 35 66 36
REMARK SMILES IDX 17 37 71 38 65 39 67 40 18 41 70 42 64 43 63 44 19 46 51 47
REMARK SMILES IDX 31 48 50 49 32 50 35 51 49 52 68 53 33 54 34 55 48 57 69 58
REMARK SMILES IDX 36 59 20 60 21 61 29 62 22 63 24 64 30 65 23 66 25 67 26 68
REMARK SMILES IDX 27 69 28 70 52 71 53 72 61 73 54 74 56 75 62 76 55 77 57 78
REMARK SMILES IDX 58 79 59 80 60 81 37 82 38 83 46 84 39 85 41 86 47 87 40 88
REMARK SMILES IDX 42 89 43 90 44 91 45 92
REMARK H PARENT 78 13 85 21 85 22 85 23 67 45 35 56
REMARK Flexibility Score: inf
ROOT
ATOM      1  C   UNL     1       2.728  -0.050   1.294  1.00  0.00     0.274 C 
ENDROOT
BRANCH   1   2
ATOM      2  O   UNL     1       2.181   0.274  -0.004  1.00  0.00    -0.462 OA
BRANCH   2   3
ATOM      3  C   UNL     1       1.247  -0.593  -0.494  1.00  0.00     0.316 C 
ATOM      4  O   UNL     1       0.886  -1.606   0.090  1.00  0.00    -0.251 OA
BRANCH   3   5
ATOM      5  C   UNL     1       0.799  -0.204  -1.907  1.00  0.00     0.111 C 
ATOM      6  C   UNL     1       1.965  -0.572  -2.830  1.00  0.00     0.028 C 
ATOM      7  C   UNL     1      -0.457  -0.995  -2.268  1.00  0.00     0.181 C 
ATOM      8  C   UNL     1       0.325   1.254  -1.967  1.00  0.00     0.127 C 
ATOM      9  O   UNL     1      -1.601  -0.148  -2.105  1.00  0.00    -0.378 OA
ATOM     10  C   UNL     1      -1.192   1.215  -1.996  1.00  0.00     0.186 C 
BRANCH   8  11
ATOM     11  N   UNL     1       0.984   2.127  -2.944  1.00  0.00    -0.349 N 
ATOM     12  C   UNL     1       1.003   2.380  -4.267  1.00  0.00     0.227 C 
ATOM     13  H   UNL     1       1.619   2.721  -2.483  1.00  0.00     0.163 HD
ATOM     14  O   UNL     1       1.916   3.156  -4.600  1.00  0.00    -0.274 OA
BRANCH  12  15
ATOM     15  C   UNL     1       0.114   1.788  -5.378  1.00  0.00     0.107 C 
ATOM     16  C   UNL     1      -1.197   1.126  -5.141  1.00  0.00    -0.012 C 
ATOM     17  C   UNL     1      -0.282   2.955  -6.325  1.00  0.00     0.087 C 
ATOM     18  C   UNL     1      -2.202   1.662  -5.839  1.00  0.00     0.033 C 
ATOM     19  C   UNL     1      -1.753   2.768  -6.719  1.00  0.00     0.205 C 
BRANCH  19  20
ATOM     20  N   UNL     1      -2.534   3.974  -6.513  1.00  0.00    -0.352 N 
ATOM     21  H   UNL     1      -2.472   4.256  -5.535  1.00  0.00     0.345 HD
ATOM     22  H   UNL     1      -3.508   3.793  -6.754  1.00  0.00     0.345 HD
ATOM     23  H   UNL     1      -2.170   4.720  -7.106  1.00  0.00     0.345 HD
ENDBRANCH  19  20
ENDBRANCH  12  15
ENDBRANCH   8  11
ENDBRANCH   3   5
ENDBRANCH   2   3
ENDBRANCH   1   2
BRANCH   1  24
ATOM     24  C   UNL     1       2.146   0.866   2.365  1.00  0.00     0.275 C 
BRANCH  24  25
ATOM     25  O   UNL     1       0.721   0.698   2.407  1.00  0.00    -0.458 OA
BRANCH  25  26
ATOM     26  C   UNL     1      -0.008   1.829   2.276  1.00  0.00     0.338 C 
ATOM     27  O   UNL     1       0.413   2.970   2.188  1.00  0.00    -0.246 OA
BRANCH  26  28
ATOM     28  C   UNL     1      -1.442   1.497   2.193  1.00  0.00     0.060 A 
ATOM     29  C   UNL     1      -1.884   0.523   1.299  1.00  0.00     0.016 A 
ATOM     30  C   UNL     1      -2.365   2.267   2.900  1.00  0.00     0.016 A 
ATOM     31  C   UNL     1      -3.245   0.405   1.018  1.00  0.00     0.010 A 
ATOM     32  C   UNL     1      -3.733   2.061   2.701  1.00  0.00     0.010 A 
ATOM     33  C   UNL     1      -4.192   1.162   1.722  1.00  0.00    -0.014 A 
BRANCH  33  34
ATOM     34  C   UNL     1      -5.650   1.041   1.429  1.00  0.00     0.031 A 
ATOM     35  C   UNL     1      -6.464   2.264   1.080  1.00  0.00     0.074 A 
ATOM     36  C   UNL     1      -6.264  -0.158   1.503  1.00  0.00     0.049 A 
ATOM     37  N   UNL     1      -7.763   2.400   1.010  1.00  0.00    -0.248 NA
ATOM     38  C   UNL     1      -5.720   3.501   0.789  1.00  0.00     0.031 C 
ATOM     39  C   UNL     1      -5.607  -1.430   1.811  1.00  0.00     0.029 A 
ATOM     40  N   UNL     1      -7.584  -0.501   1.338  1.00  0.00    -0.354 N 
ATOM     41  C   UNL     1      -7.995   3.747   0.757  1.00  0.00     0.074 A 
ATOM     42  C   UNL     1      -6.700   4.386   0.664  1.00  0.00     0.031 C 
ATOM     43  C   UNL     1      -6.517  -2.414   1.790  1.00  0.00     0.029 A 
ATOM     44  C   UNL     1      -7.835  -1.837   1.555  1.00  0.00     0.049 A 
ATOM     45  H   UNL     1      -8.283   0.146   1.089  1.00  0.00     0.167 HD
ATOM     46  C   UNL     1      -9.176   4.393   0.607  1.00  0.00     0.034 A 
ATOM     47  C   UNL     1      -8.995  -2.521   1.607  1.00  0.00     0.034 A 
ATOM     48  C   UNL     1     -10.460   3.743   0.602  1.00  0.00     0.049 A 
ATOM     49  C   UNL     1     -10.290  -1.786   1.410  1.00  0.00     0.074 A 
ATOM     50  C   UNL     1     -11.709   4.309   0.412  1.00  0.00     0.029 A 
ATOM     51  N   UNL     1     -10.659   2.382   0.772  1.00  0.00    -0.354 N 
ATOM     52  N   UNL     1     -10.485  -0.518   1.144  1.00  0.00    -0.248 NA
ATOM     53  C   UNL     1     -11.524  -2.577   1.516  1.00  0.00     0.031 C 
ATOM     54  C   UNL     1     -12.665   3.288   0.464  1.00  0.00     0.029 A 
ATOM     55  C   UNL     1     -12.009   2.087   0.684  1.00  0.00     0.049 A 
ATOM     56  H   UNL     1      -9.946   1.723   0.931  1.00  0.00     0.167 HD
ATOM     57  C   UNL     1     -11.862  -0.360   1.039  1.00  0.00     0.074 A 
ATOM     58  C   UNL     1     -12.450  -1.669   1.237  1.00  0.00     0.031 C 
ATOM     59  C   UNL     1     -12.576   0.772   0.827  1.00  0.00     0.034 A 
BRANCH  46  60
ATOM     60  C   UNL     1      -9.143   5.884   0.398  1.00  0.00     0.023 A 
ATOM     61  C   UNL     1      -8.800   6.404  -0.865  1.00  0.00     0.012 A 
ATOM     62  C   UNL     1      -9.522   6.766   1.430  1.00  0.00     0.148 A 
ATOM     63  C   UNL     1      -8.813   7.780  -1.091  1.00  0.00     0.002 A 
ATOM     64  C   UNL     1      -9.567   8.134   1.186  1.00  0.00     0.091 A 
ATOM     65  F   UNL     1      -9.820   6.254   2.634  1.00  0.00    -0.205 F 
ATOM     66  C   UNL     1      -9.206   8.643  -0.071  1.00  0.00     0.022 A 
BRANCH  64  67
ATOM     67  S   UNL     1     -10.132   9.310   2.423  1.00  0.00     0.127 S 
ATOM     68  O   UNL     1      -8.867   9.855   2.913  1.00  0.00    -0.237 OA
ATOM     69  O   UNL     1     -10.930  10.244   1.627  1.00  0.00    -0.237 OA
ATOM     70  O   UNL     1     -10.900   8.531   3.385  1.00  0.00    -0.744 OA
ENDBRANCH  64  67
ENDBRANCH  46  60
BRANCH  47  71
ATOM     71  C   UNL     1      -8.971  -3.992   1.843  1.00  0.00     0.023 A 
ATOM     72  C   UNL     1      -9.319  -4.863   0.794  1.00  0.00     0.012 A 
ATOM     73  C   UNL     1      -8.547  -4.534   3.073  1.00  0.00     0.148 A 
ATOM     74  C   UNL     1      -9.254  -6.246   0.968  1.00  0.00     0.002 A 
ATOM     75  C   UNL     1      -8.424  -5.910   3.218  1.00  0.00     0.091 A 
ATOM     76  F   UNL     1      -8.248  -3.691   4.073  1.00  0.00    -0.205 F 
ATOM     77  C   UNL     1      -8.791  -6.769   2.172  1.00  0.00     0.022 A 
BRANCH  75  78
ATOM     78  S   UNL     1      -7.681  -6.640   4.682  1.00  0.00     0.127 S 
ATOM     79  O   UNL     1      -8.857  -7.042   5.448  1.00  0.00    -0.237 OA
ATOM     80  O   UNL     1      -6.904  -7.747   4.120  1.00  0.00    -0.237 OA
ATOM     81  O   UNL     1      -6.866  -5.581   5.263  1.00  0.00    -0.744 OA
ENDBRANCH  75  78
ENDBRANCH  47  71
BRANCH  59  82
ATOM     82  C   UNL     1     -14.074   0.647   0.783  1.00  0.00     0.023 A 
ATOM     83  C   UNL     1     -14.789   0.500   1.988  1.00  0.00     0.012 A 
ATOM     84  C   UNL     1     -14.776   0.742  -0.433  1.00  0.00     0.148 A 
ATOM     85  C   UNL     1     -16.180   0.424   1.980  1.00  0.00     0.002 A 
ATOM     86  C   UNL     1     -16.166   0.703  -0.429  1.00  0.00     0.091 A 
ATOM     87  F   UNL     1     -14.076   0.857  -1.571  1.00  0.00    -0.205 F 
ATOM     88  C   UNL     1     -16.869   0.537   0.775  1.00  0.00     0.022 A 
BRANCH  86  89
ATOM     89  S   UNL     1     -17.127   0.921  -1.931  1.00  0.00     0.127 S 
ATOM     90  O   UNL     1     -17.468  -0.459  -2.272  1.00  0.00    -0.237 OA
ATOM     91  O   UNL     1     -18.255   1.732  -1.472  1.00  0.00    -0.237 OA
ATOM     92  O   UNL     1     -16.243   1.603  -2.868  1.00  0.00    -0.744 OA
ENDBRANCH  86  89
ENDBRANCH  59  82
ENDBRANCH  33  34
ENDBRANCH  26  28
ENDBRANCH  25  26
ENDBRANCH  24  25
ENDBRANCH   1  24
TORSDOF 17
