REMARK SMILES Cc1ccc(C(c2ccccc2)(c2ccccc2)n2cnc(C[C@H]([NH3+])C(=O)OCCOC(=O)c3ccc(-c4c5nc(c(-c6cccc(S(=O)(=O)[O-])c6F)c6ccc([nH]6)c(-c6cccc(S(=O)(=O)[O-])c6F)c6nc(c(-c7cccc(S(=O)(=O)[O-])c7F)c7ccc4[nH]7)C=C6)C=C5)cc3)c2)cc1
REMARK SMILES IDX 29 1 28 2 26 3 27 4 24 5 23 6 22 7 19 8 20 9 97 10 21 11
REMARK SMILES IDX 6 12 5 13 1 14 2 15 3 16 99 17 4 18 98 19 7 20 8 21 12 22
REMARK SMILES IDX 9 23 11 24 10 25 13 26 14 27 18 28 15 29 17 30 16 31 25 32
REMARK SMILES IDX 30 36 31 37 32 38 33 39 34 40 35 41 96 42 36 43 95 44 37 45
REMARK SMILES IDX 38 46 39 47 89 48 40 49 94 50 88 51 90 52 41 53 93 54 87 55
REMARK SMILES IDX 86 56 42 58 74 59 54 60 73 61 55 62 58 63 72 64 91 65 56 66
REMARK SMILES IDX 57 67 71 69 92 70 59 71 43 72 44 73 52 74 45 75 47 76 53 77
REMARK SMILES IDX 46 78 48 79 49 80 50 81 51 82 75 83 76 84 84 85 77 86 79 87
REMARK SMILES IDX 85 88 78 89 80 90 81 91 82 92 83 93 60 94 61 95 69 96 62 97
REMARK SMILES IDX 64 98 70 99 63 100 65 101 66 102 67 103 68 104
REMARK H PARENT 25 33 25 34 25 35 90 57 58 68
REMARK Flexibility Score: inf
ROOT
ATOM      1  C   UNL     1      -6.145  -7.222   3.462  1.00  0.00     0.274 C 
ENDROOT
BRANCH   1   2
ATOM      2  O   UNL     1      -6.110  -6.714   2.090  1.00  0.00    -0.458 OA
BRANCH   2   3
ATOM      3  C   UNL     1      -5.561  -5.501   1.880  1.00  0.00     0.365 C 
ATOM      4  O   UNL     1      -5.176  -4.845   2.856  1.00  0.00    -0.245 OA
BRANCH   3   5
ATOM      5  C   UNL     1      -5.373  -4.898   0.362  1.00  0.00     0.297 C 
BRANCH   5   6
ATOM      6  C   UNL     1      -5.467  -5.404  -1.158  1.00  0.00     0.135 C 
BRANCH   6   7
ATOM      7  C   UNL     1      -6.722  -5.482  -2.093  1.00  0.00     0.065 A 
ATOM      8  N   UNL     1      -8.246  -5.379  -3.809  1.00  0.00    -0.319 N 
ATOM      9  C   UNL     1      -8.484  -6.437  -2.970  1.00  0.00     0.201 A 
ATOM     10  C   UNL     1      -7.112  -4.755  -3.227  1.00  0.00     0.112 A 
ATOM     11  N   UNL     1      -7.548  -6.571  -2.048  1.00  0.00    -0.241 NA
BRANCH   8  12
ATOM     12  C   UNL     1      -9.014  -5.095  -5.120  1.00  0.00     0.121 C 
BRANCH  12  13
ATOM     13  C   UNL     1      -9.220  -6.439  -6.036  1.00  0.00    -0.013 A 
ATOM     14  C   UNL     1     -10.987 -10.959  -8.068  1.00  0.00     0.044 C 
ATOM     15  C   UNL     1     -10.084  -9.069  -7.561  1.00  0.00    -0.051 A 
ATOM     16  C   UNL     1      -8.842  -8.783  -6.696  1.00  0.00     0.004 A 
ATOM     17  C   UNL     1     -10.531  -7.671  -7.814  1.00  0.00     0.004 A 
ATOM     18  C   UNL     1      -8.495  -7.605  -5.931  1.00  0.00     0.007 A 
ATOM     19  C   UNL     1     -10.101  -6.463  -7.136  1.00  0.00     0.007 A 
ENDBRANCH  12  13
BRANCH  12  20
ATOM     20  C   UNL     1     -10.511  -4.533  -4.809  1.00  0.00    -0.013 A 
ATOM     21  C   UNL     1     -10.822  -3.243  -4.361  1.00  0.00     0.007 A 
ATOM     22  C   UNL     1     -11.663  -5.344  -4.990  1.00  0.00     0.007 A 
ATOM     23  C   UNL     1     -12.148  -2.774  -4.219  1.00  0.00     0.000 A 
ATOM     24  C   UNL     1     -12.989  -4.880  -4.896  1.00  0.00     0.000 A 
ATOM     25  C   UNL     1     -13.236  -3.583  -4.503  1.00  0.00     0.000 A 
ENDBRANCH  12  20
BRANCH  12  26
ATOM     26  C   UNL     1      -8.105  -4.105  -5.978  1.00  0.00    -0.013 A 
ATOM     27  C   UNL     1      -7.274  -4.601  -7.010  1.00  0.00     0.007 A 
ATOM     28  C   UNL     1      -7.894  -2.757  -5.623  1.00  0.00     0.007 A 
ATOM     29  C   UNL     1      -6.268  -3.828  -7.596  1.00  0.00     0.000 A 
ATOM     30  C   UNL     1      -6.889  -1.979  -6.210  1.00  0.00     0.000 A 
ATOM     31  C   UNL     1      -6.061  -2.522  -7.180  1.00  0.00     0.000 A 
ENDBRANCH  12  26
ENDBRANCH   8  12
ENDBRANCH   6   7
ENDBRANCH   5   6
BRANCH   5  32
ATOM     32  N   UNL     1      -3.928  -4.455   0.505  1.00  0.00    -0.346 N 
ATOM     33  H   UNL     1      -3.324  -5.275   0.554  1.00  0.00     0.345 HD
ATOM     34  H   UNL     1      -3.823  -3.905   1.357  1.00  0.00     0.345 HD
ATOM     35  H   UNL     1      -3.665  -3.886  -0.300  1.00  0.00     0.345 HD
ENDBRANCH   5  32
ENDBRANCH   3   5
ENDBRANCH   2   3
ENDBRANCH   1   2
BRANCH   1  36
ATOM     36  C   UNL     1      -6.951  -6.544   4.627  1.00  0.00     0.275 C 
BRANCH  36  37
ATOM     37  O   UNL     1      -7.252  -5.118   4.657  1.00  0.00    -0.458 OA
BRANCH  37  38
ATOM     38  C   UNL     1      -8.284  -4.461   4.041  1.00  0.00     0.338 C 
ATOM     39  O   UNL     1      -8.674  -3.354   4.378  1.00  0.00    -0.246 OA
BRANCH  38  40
ATOM     40  C   UNL     1      -8.864  -5.176   2.904  1.00  0.00     0.060 A 
ATOM     41  C   UNL     1      -8.589  -4.772   1.604  1.00  0.00     0.016 A 
ATOM     42  C   UNL     1      -9.331  -6.440   3.167  1.00  0.00     0.016 A 
ATOM     43  C   UNL     1      -8.558  -5.748   0.606  1.00  0.00     0.010 A 
ATOM     44  C   UNL     1      -8.940  -7.411   2.285  1.00  0.00     0.010 A 
ATOM     45  C   UNL     1      -8.550  -7.101   0.964  1.00  0.00    -0.014 A 
BRANCH  45  46
ATOM     46  C   UNL     1      -8.539  -8.307   0.107  1.00  0.00     0.031 A 
ATOM     47  C   UNL     1      -7.401  -8.903  -0.661  1.00  0.00     0.074 A 
ATOM     48  C   UNL     1      -9.744  -8.919   0.200  1.00  0.00     0.049 A 
ATOM     49  N   UNL     1      -7.590  -9.727  -1.639  1.00  0.00    -0.248 NA
ATOM     50  C   UNL     1      -5.972  -8.651  -0.460  1.00  0.00     0.031 C 
ATOM     51  C   UNL     1     -10.232 -10.211  -0.220  1.00  0.00     0.029 A 
ATOM     52  N   UNL     1     -10.890  -8.298   0.731  1.00  0.00    -0.354 N 
ATOM     53  C   UNL     1      -6.367 -10.152  -2.142  1.00  0.00     0.074 A 
ATOM     54  C   UNL     1      -5.386  -9.402  -1.409  1.00  0.00     0.031 C 
ATOM     55  C   UNL     1     -11.585 -10.167  -0.198  1.00  0.00     0.029 A 
ATOM     56  C   UNL     1     -11.988  -8.783   0.071  1.00  0.00     0.049 A 
ATOM     57  H   UNL     1     -10.900  -7.630   1.454  1.00  0.00     0.167 HD
ATOM     58  C   UNL     1      -6.349 -11.163  -3.061  1.00  0.00     0.034 A 
ATOM     59  C   UNL     1     -12.656  -7.893  -0.724  1.00  0.00     0.034 A 
ATOM     60  C   UNL     1      -7.739 -11.578  -3.312  1.00  0.00     0.049 A 
ATOM     61  C   UNL     1     -12.487  -8.345  -2.151  1.00  0.00     0.074 A 
ATOM     62  C   UNL     1      -8.552 -12.540  -2.736  1.00  0.00     0.029 A 
ATOM     63  N   UNL     1      -8.591 -10.694  -3.951  1.00  0.00    -0.354 N 
ATOM     64  N   UNL     1     -11.604  -9.219  -2.558  1.00  0.00    -0.248 NA
ATOM     65  C   UNL     1     -13.320  -7.857  -3.222  1.00  0.00     0.031 C 
ATOM     66  C   UNL     1      -9.908 -12.213  -3.046  1.00  0.00     0.029 A 
ATOM     67  C   UNL     1      -9.916 -11.081  -3.843  1.00  0.00     0.049 A 
ATOM     68  H   UNL     1      -8.290  -9.886  -4.427  1.00  0.00     0.167 HD
ATOM     69  C   UNL     1     -11.724  -9.438  -3.894  1.00  0.00     0.074 A 
ATOM     70  C   UNL     1     -12.790  -8.517  -4.264  1.00  0.00     0.031 C 
ATOM     71  C   UNL     1     -10.921 -10.319  -4.568  1.00  0.00     0.034 A 
BRANCH  58  72
ATOM     72  C   UNL     1      -5.153 -11.969  -3.594  1.00  0.00     0.023 A 
ATOM     73  C   UNL     1      -5.457 -13.244  -4.140  1.00  0.00     0.012 A 
ATOM     74  C   UNL     1      -3.774 -11.627  -3.588  1.00  0.00     0.148 A 
ATOM     75  C   UNL     1      -4.483 -14.162  -4.552  1.00  0.00     0.002 A 
ATOM     76  C   UNL     1      -2.789 -12.558  -3.986  1.00  0.00     0.091 A 
ATOM     77  F   UNL     1      -3.403 -10.395  -3.222  1.00  0.00    -0.205 F 
ATOM     78  C   UNL     1      -3.145 -13.829  -4.453  1.00  0.00     0.022 A 
BRANCH  76  79
ATOM     79  S   UNL     1      -1.007 -12.255  -3.893  1.00  0.00     0.127 S 
ATOM     80  O   UNL     1      -0.589 -13.223  -2.877  1.00  0.00    -0.237 OA
ATOM     81  O   UNL     1      -0.550 -12.574  -5.246  1.00  0.00    -0.237 OA
ATOM     82  O   UNL     1      -0.850 -10.859  -3.506  1.00  0.00    -0.744 OA
ENDBRANCH  76  79
ENDBRANCH  58  72
BRANCH  59  83
ATOM     83  C   UNL     1     -12.695  -6.447  -0.203  1.00  0.00     0.023 A 
ATOM     84  C   UNL     1     -13.121  -6.279   1.146  1.00  0.00     0.012 A 
ATOM     85  C   UNL     1     -12.050  -5.339  -0.803  1.00  0.00     0.148 A 
ATOM     86  C   UNL     1     -12.814  -5.134   1.892  1.00  0.00     0.002 A 
ATOM     87  C   UNL     1     -11.777  -4.172  -0.056  1.00  0.00     0.091 A 
ATOM     88  F   UNL     1     -11.650  -5.451  -2.071  1.00  0.00    -0.205 F 
ATOM     89  C   UNL     1     -12.130  -4.088   1.296  1.00  0.00     0.022 A 
BRANCH  87  90
ATOM     90  S   UNL     1     -10.829  -2.777  -0.710  1.00  0.00     0.127 S 
ATOM     91  O   UNL     1     -10.223  -2.178   0.481  1.00  0.00    -0.237 OA
ATOM     92  O   UNL     1      -9.853  -3.378  -1.604  1.00  0.00    -0.237 OA
ATOM     93  O   UNL     1     -11.870  -1.951  -1.314  1.00  0.00    -0.744 OA
ENDBRANCH  87  90
ENDBRANCH  59  83
BRANCH  71  94
ATOM     94  C   UNL     1     -10.881 -10.400  -6.064  1.00  0.00     0.023 A 
ATOM     95  C   UNL     1     -12.163  -9.595  -7.091  1.00  0.00     0.012 A 
ATOM     96  C   UNL     1      -9.363 -11.036  -6.891  1.00  0.00     0.148 A 
ATOM     97  C   UNL     1     -11.908  -9.321  -8.867  1.00  0.00     0.002 A 
ATOM     98  C   UNL     1      -9.054 -10.632  -8.653  1.00  0.00     0.091 A 
ATOM     99  F   UNL     1      -8.519 -11.856  -6.253  1.00  0.00    -0.205 F 
ATOM    100  C   UNL     1     -10.314  -9.768  -9.626  1.00  0.00     0.022 A 
BRANCH  98 101
ATOM    101  S   UNL     1      -7.761 -11.433  -9.563  1.00  0.00     0.127 S 
ATOM    102  O   UNL     1      -8.495 -12.529 -10.196  1.00  0.00    -0.237 OA
ATOM    103  O   UNL     1      -7.335 -10.375 -10.476  1.00  0.00    -0.237 OA
ATOM    104  O   UNL     1      -6.798 -11.816  -8.544  1.00  0.00    -0.744 OA
ENDBRANCH  98 101
ENDBRANCH  71  94
ENDBRANCH  45  46
ENDBRANCH  38  40
ENDBRANCH  37  38
ENDBRANCH  36  37
ENDBRANCH   1  36
TORSDOF 21
