REMARK SMILES O=C(OCCOC(=O)[C@H]1Cc2[nH]cnc2CN1C(=O)c1ccncc1Cl)c1ccc(-c2c3nc(c(-c4cccc(S(=O)(=O)[O-])c4F)c4ccc([nH]4)c(-c4cccc(S(=O)(=O)[O-])c4F)c4nc(c(-c5cccc(S(=O)(=O)[O-])c5F)c5ccc2[nH]5)C=C4)C=C3)cc1
REMARK SMILES IDX 4 1 3 2 2 3 1 4 27 5 28 6 89 7 29 8 88 9 30 10 31 11 32 12
REMARK SMILES IDX 82 13 33 14 87 15 81 16 83 17 34 18 86 19 80 20 79 21 35 23
REMARK SMILES IDX 67 24 47 25 66 26 48 27 51 28 65 29 84 30 49 31 50 32 64 34
REMARK SMILES IDX 85 35 52 36 36 37 37 38 45 39 38 40 40 41 46 42 39 43 41 44
REMARK SMILES IDX 42 45 43 46 44 47 68 48 69 49 77 50 70 51 72 52 78 53 71 54
REMARK SMILES IDX 73 55 74 56 75 57 76 58 53 59 54 60 62 61 55 62 57 63 63 64
REMARK SMILES IDX 56 65 58 66 59 67 60 68 61 69 5 70 6 71 7 72 8 73 9 74 10 75
REMARK SMILES IDX 17 76 11 77 16 78 12 79 15 80 13 81 14 83 18 84 19 85 20 86
REMARK SMILES IDX 21 87 25 88 22 89 24 90 26 91 23 92
REMARK H PARENT 83 22 51 33 12 82
REMARK Flexibility Score: inf
ROOT
ATOM      1  C   UNL     1       4.476  -0.504   1.411  1.00  0.00     0.275 C 
ENDROOT
BRANCH   1   2
ATOM      2  O   UNL     1       3.202  -0.266   2.032  1.00  0.00    -0.458 OA
BRANCH   2   3
ATOM      3  C   UNL     1       2.155   0.153   1.292  1.00  0.00     0.338 C 
ATOM      4  O   UNL     1       1.205  -0.543   1.029  1.00  0.00    -0.246 OA
BRANCH   3   5
ATOM      5  C   UNL     1       2.146   1.628   1.069  1.00  0.00     0.060 A 
ATOM      6  C   UNL     1       3.306   2.409   1.016  1.00  0.00     0.016 A 
ATOM      7  C   UNL     1       0.892   2.232   0.930  1.00  0.00     0.016 A 
ATOM      8  C   UNL     1       3.222   3.786   0.930  1.00  0.00     0.010 A 
ATOM      9  C   UNL     1       0.804   3.611   0.831  1.00  0.00     0.010 A 
ATOM     10  C   UNL     1       1.968   4.382   0.889  1.00  0.00    -0.014 A 
BRANCH  10  11
ATOM     11  C   UNL     1       1.914   5.833   0.950  1.00  0.00     0.031 A 
ATOM     12  C   UNL     1       2.329   6.589  -0.263  1.00  0.00     0.074 A 
ATOM     13  C   UNL     1       1.333   6.450   1.994  1.00  0.00     0.049 A 
ATOM     14  N   UNL     1       3.243   7.497  -0.392  1.00  0.00    -0.248 NA
ATOM     15  C   UNL     1       1.660   6.233  -1.519  1.00  0.00     0.031 C 
ATOM     16  C   UNL     1       0.583   5.834   3.092  1.00  0.00     0.029 A 
ATOM     17  N   UNL     1       1.131   7.781   2.178  1.00  0.00    -0.354 N 
ATOM     18  C   UNL     1       3.136   7.963  -1.705  1.00  0.00     0.074 A 
ATOM     19  C   UNL     1       2.259   7.047  -2.387  1.00  0.00     0.031 C 
ATOM     20  C   UNL     1      -0.223   6.767   3.640  1.00  0.00     0.029 A 
ATOM     21  C   UNL     1       0.070   8.051   3.029  1.00  0.00     0.049 A 
ATOM     22  H   UNL     1       1.679   8.479   1.752  1.00  0.00     0.167 HD
ATOM     23  C   UNL     1       3.606   9.177  -2.109  1.00  0.00     0.034 A 
ATOM     24  C   UNL     1      -0.588   9.227   3.132  1.00  0.00     0.034 A 
ATOM     25  C   UNL     1       4.508   9.762  -1.160  1.00  0.00     0.049 A 
ATOM     26  C   UNL     1       0.276  10.283   2.554  1.00  0.00     0.074 A 
ATOM     27  C   UNL     1       5.716   9.402  -0.599  1.00  0.00     0.029 A 
ATOM     28  N   UNL     1       4.040  10.802  -0.395  1.00  0.00    -0.354 N 
ATOM     29  N   UNL     1       1.412  10.655   3.075  1.00  0.00    -0.248 NA
ATOM     30  C   UNL     1       0.072  10.660   1.165  1.00  0.00     0.031 C 
ATOM     31  C   UNL     1       5.650   9.886   0.740  1.00  0.00     0.029 A 
ATOM     32  C   UNL     1       4.419  10.529   0.891  1.00  0.00     0.049 A 
ATOM     33  H   UNL     1       3.534  11.586  -0.709  1.00  0.00     0.167 HD
ATOM     34  C   UNL     1       2.227  10.935   1.986  1.00  0.00     0.074 A 
ATOM     35  C   UNL     1       1.313  11.041   0.850  1.00  0.00     0.031 C 
ATOM     36  C   UNL     1       3.583  10.768   2.048  1.00  0.00     0.034 A 
BRANCH  23  37
ATOM     37  C   UNL     1       3.034   9.999  -3.240  1.00  0.00     0.023 A 
ATOM     38  C   UNL     1       3.784  11.104  -3.705  1.00  0.00     0.012 A 
ATOM     39  C   UNL     1       1.700   9.901  -3.690  1.00  0.00     0.148 A 
ATOM     40  C   UNL     1       3.225  12.073  -4.546  1.00  0.00     0.002 A 
ATOM     41  C   UNL     1       1.177  10.817  -4.597  1.00  0.00     0.091 A 
ATOM     42  F   UNL     1       0.875   8.999  -3.146  1.00  0.00    -0.205 F 
ATOM     43  C   UNL     1       1.923  11.923  -5.006  1.00  0.00     0.022 A 
BRANCH  41  44
ATOM     44  S   UNL     1      -0.473  10.591  -5.266  1.00  0.00     0.127 S 
ATOM     45  O   UNL     1      -1.271  11.417  -4.367  1.00  0.00    -0.237 OA
ATOM     46  O   UNL     1      -0.330  11.111  -6.626  1.00  0.00    -0.237 OA
ATOM     47  O   UNL     1      -0.695   9.150  -5.203  1.00  0.00    -0.744 OA
ENDBRANCH  41  44
ENDBRANCH  23  37
BRANCH  24  48
ATOM     48  C   UNL     1      -2.006   9.449   3.477  1.00  0.00     0.023 A 
ATOM     49  C   UNL     1      -2.403  10.679   4.029  1.00  0.00     0.012 A 
ATOM     50  C   UNL     1      -3.011   8.543   3.063  1.00  0.00     0.148 A 
ATOM     51  C   UNL     1      -3.757  11.003   4.158  1.00  0.00     0.002 A 
ATOM     52  C   UNL     1      -4.356   8.861   3.210  1.00  0.00     0.091 A 
ATOM     53  F   UNL     1      -2.647   7.410   2.447  1.00  0.00    -0.205 F 
ATOM     54  C   UNL     1      -4.733  10.097   3.749  1.00  0.00     0.022 A 
BRANCH  52  55
ATOM     55  S   UNL     1      -5.664   7.737   2.704  1.00  0.00     0.127 S 
ATOM     56  O   UNL     1      -6.580   7.801   3.843  1.00  0.00    -0.237 OA
ATOM     57  O   UNL     1      -6.155   8.374   1.486  1.00  0.00    -0.237 OA
ATOM     58  O   UNL     1      -5.022   6.440   2.528  1.00  0.00    -0.744 OA
ENDBRANCH  52  55
ENDBRANCH  24  48
BRANCH  36  59
ATOM     59  C   UNL     1       4.217  10.458   3.384  1.00  0.00     0.023 A 
ATOM     60  C   UNL     1       3.875   9.295   4.105  1.00  0.00     0.012 A 
ATOM     61  C   UNL     1       5.332  11.204   3.802  1.00  0.00     0.148 A 
ATOM     62  C   UNL     1       4.610   8.894   5.222  1.00  0.00     0.002 A 
ATOM     63  C   UNL     1       6.096  10.772   4.883  1.00  0.00     0.091 A 
ATOM     64  F   UNL     1       5.660  12.306   3.108  1.00  0.00    -0.205 F 
ATOM     65  C   UNL     1       5.732   9.623   5.601  1.00  0.00     0.022 A 
BRANCH  63  66
ATOM     66  S   UNL     1       7.643  11.579   5.308  1.00  0.00     0.127 S 
ATOM     67  O   UNL     1       7.237  12.473   6.388  1.00  0.00    -0.237 OA
ATOM     68  O   UNL     1       8.486  10.456   5.727  1.00  0.00    -0.237 OA
ATOM     69  O   UNL     1       8.094  12.225   4.081  1.00  0.00    -0.744 OA
ENDBRANCH  63  66
ENDBRANCH  36  59
ENDBRANCH  10  11
ENDBRANCH   3   5
ENDBRANCH   2   3
ENDBRANCH   1   2
BRANCH   1  70
ATOM     70  C   UNL     1       4.478  -0.953  -0.049  1.00  0.00     0.274 C 
BRANCH  70  71
ATOM     71  O   UNL     1       3.933  -0.019  -1.013  1.00  0.00    -0.461 OA
BRANCH  71  72
ATOM     72  C   UNL     1       2.900  -0.505  -1.770  1.00  0.00     0.329 C 
ATOM     73  O   UNL     1       2.340  -1.571  -1.539  1.00  0.00    -0.250 OA
BRANCH  72  74
ATOM     74  C   UNL     1       2.613   0.295  -3.053  1.00  0.00     0.201 C 
ATOM     75  C   UNL     1       2.564   1.828  -2.744  1.00  0.00     0.093 C 
ATOM     76  N   UNL     1       3.354  -0.036  -4.346  1.00  0.00    -0.318 N 
ATOM     77  C   UNL     1       2.355   2.577  -4.006  1.00  0.00     0.042 A 
ATOM     78  C   UNL     1       2.879   0.662  -5.566  1.00  0.00     0.179 C 
ATOM     79  N   UNL     1       1.984   3.876  -4.188  1.00  0.00    -0.348 N 
ATOM     80  C   UNL     1       2.520   2.066  -5.269  1.00  0.00     0.081 A 
ATOM     81  C   UNL     1       1.967   4.105  -5.540  1.00  0.00     0.197 A 
ATOM     82  H   UNL     1       1.768   4.527  -3.482  1.00  0.00     0.167 HD
ATOM     83  N   UNL     1       2.283   3.022  -6.219  1.00  0.00    -0.240 NA
BRANCH  76  84
ATOM     84  C   UNL     1       4.195  -1.111  -4.635  1.00  0.00     0.256 C 
ATOM     85  O   UNL     1       4.660  -1.337  -5.753  1.00  0.00    -0.269 OA
BRANCH  84  86
ATOM     86  C   UNL     1       4.651  -2.040  -3.608  1.00  0.00     0.061 A 
ATOM     87  C   UNL     1       5.932  -1.842  -3.085  1.00  0.00     0.035 A 
ATOM     88  C   UNL     1       3.920  -3.177  -3.284  1.00  0.00     0.072 A 
ATOM     89  C   UNL     1       6.404  -2.769  -2.176  1.00  0.00     0.112 A 
ATOM     90  C   UNL     1       4.460  -4.010  -2.318  1.00  0.00     0.132 A 
ATOM     91  Cl  UNL     1       2.409  -3.570  -4.010  1.00  0.00    -0.082 Cl
ATOM     92  N   UNL     1       5.682  -3.829  -1.750  1.00  0.00    -0.263 NA
ENDBRANCH  84  86
ENDBRANCH  76  84
ENDBRANCH  72  74
ENDBRANCH  71  72
ENDBRANCH  70  71
ENDBRANCH   1  70
TORSDOF 16
