REMARK SMILES Cc1ccc2c(c1)c(-c1ccnc3c(C)cccc13)c(C)n2CC(=O)OCCOC(=O)c1ccc(-c2c3nc(c(-c4cccc(S(=O)(=O)[O-])c4F)c4ccc([nH]4)c(-c4cccc(S(=O)(=O)[O-])c4F)c4nc(c(-c5cccc(S(=O)(=O)[O-])c5F)c5ccc2[nH]5)C=C4)C=C3)cc1
REMARK SMILES IDX 28 1 27 2 26 3 24 4 25 5 23 6 22 7 1 8 2 9 3 10 7 11 4 12
REMARK SMILES IDX 6 13 5 14 8 15 20 16 21 17 9 18 10 19 19 20 11 21 13 22
REMARK SMILES IDX 18 23 12 24 14 25 17 26 15 27 16 28 29 29 30 30 31 31 32 32
REMARK SMILES IDX 33 33 94 34 34 35 93 36 35 37 36 38 37 39 87 40 38 41 92 42
REMARK SMILES IDX 86 43 88 44 39 45 91 46 85 47 84 48 40 50 72 51 52 52 71 53
REMARK SMILES IDX 53 54 56 55 70 56 89 57 54 58 55 59 69 61 90 62 57 63 41 64
REMARK SMILES IDX 42 65 50 66 43 67 45 68 51 69 44 70 46 71 47 72 48 73 49 74
REMARK SMILES IDX 73 75 74 76 82 77 75 78 77 79 83 80 76 81 78 82 79 83 80 84
REMARK SMILES IDX 81 85 58 86 59 87 67 88 60 89 62 90 68 91 61 92 63 93 64 94
REMARK SMILES IDX 65 95 66 96
REMARK H PARENT 88 49 56 60
REMARK Flexibility Score: inf
ROOT
ATOM      1  C   UNL     1      -4.390  -7.921  -0.154  1.00  0.00     0.275 C 
ENDROOT
BRANCH   1   2
ATOM      2  C   UNL     1      -3.309  -7.270   0.716  1.00  0.00     0.274 C 
BRANCH   2   3
ATOM      3  O   UNL     1      -2.472  -6.380  -0.072  1.00  0.00    -0.461 OA
BRANCH   3   4
ATOM      4  C   UNL     1      -1.171  -6.750  -0.193  1.00  0.00     0.326 C 
ATOM      5  O   UNL     1      -0.722  -7.783   0.302  1.00  0.00    -0.250 OA
BRANCH   4   6
ATOM      6  C   UNL     1      -0.272  -5.827  -0.981  1.00  0.00     0.244 C 
BRANCH   6   7
ATOM      7  N   UNL     1      -0.749  -4.507  -1.375  1.00  0.00    -0.333 N 
ATOM      8  C   UNL     1       1.022   0.592   0.241  1.00  0.00     0.044 C 
ATOM      9  C   UNL     1       0.579  -0.785  -0.141  1.00  0.00    -0.050 A 
ATOM     10  C   UNL     1       1.273  -1.886   0.361  1.00  0.00     0.005 A 
ATOM     11  C   UNL     1      -0.529  -0.973  -0.981  1.00  0.00     0.014 A 
ATOM     12  C   UNL     1       0.898  -3.183   0.031  1.00  0.00     0.027 A 
ATOM     13  C   UNL     1      -0.892  -2.275  -1.371  1.00  0.00     0.008 A 
ATOM     14  C   UNL     1      -0.185  -3.355  -0.845  1.00  0.00     0.049 A 
ATOM     15  C   UNL     1      -1.850  -2.808  -2.269  1.00  0.00     0.011 A 
ATOM     16  C   UNL     1      -1.519  -4.138  -2.468  1.00  0.00     0.024 A 
ATOM     17  C   UNL     1      -1.905  -4.960  -3.645  1.00  0.00     0.065 C 
BRANCH  15  18
ATOM     18  C   UNL     1      -2.876  -2.157  -3.068  1.00  0.00    -0.005 A 
ATOM     19  C   UNL     1      -2.497  -1.407  -4.176  1.00  0.00     0.029 A 
ATOM     20  C   UNL     1      -4.247  -2.349  -2.760  1.00  0.00     0.008 A 
ATOM     21  C   UNL     1      -3.499  -0.840  -4.928  1.00  0.00     0.112 A 
ATOM     22  C   UNL     1      -5.194  -1.689  -3.573  1.00  0.00     0.074 A 
ATOM     23  C   UNL     1      -4.697  -3.169  -1.693  1.00  0.00     0.011 A 
ATOM     24  N   UNL     1      -4.814  -0.946  -4.636  1.00  0.00    -0.256 NA
ATOM     25  C   UNL     1      -6.554  -1.825  -3.251  1.00  0.00    -0.025 A 
ATOM     26  C   UNL     1      -6.047  -3.317  -1.408  1.00  0.00     0.001 A 
ATOM     27  C   UNL     1      -7.619  -1.094  -4.023  1.00  0.00     0.047 C 
ATOM     28  C   UNL     1      -6.973  -2.631  -2.175  1.00  0.00     0.005 A 
ENDBRANCH  15  18
ENDBRANCH   6   7
ENDBRANCH   4   6
ENDBRANCH   3   4
ENDBRANCH   2   3
ENDBRANCH   1   2
BRANCH   1  29
ATOM     29  O   UNL     1      -3.792  -8.943  -0.967  1.00  0.00    -0.458 OA
BRANCH  29  30
ATOM     30  C   UNL     1      -3.530  -8.599  -2.250  1.00  0.00     0.338 C 
ATOM     31  O   UNL     1      -4.081  -7.725  -2.903  1.00  0.00    -0.246 OA
BRANCH  30  32
ATOM     32  C   UNL     1      -2.201  -9.164  -2.551  1.00  0.00     0.060 A 
ATOM     33  C   UNL     1      -1.805 -10.440  -2.173  1.00  0.00     0.016 A 
ATOM     34  C   UNL     1      -1.254  -8.252  -2.997  1.00  0.00     0.016 A 
ATOM     35  C   UNL     1      -0.441 -10.709  -2.067  1.00  0.00     0.010 A 
ATOM     36  C   UNL     1       0.098  -8.501  -2.863  1.00  0.00     0.010 A 
ATOM     37  C   UNL     1       0.503  -9.696  -2.303  1.00  0.00    -0.014 A 
BRANCH  37  38
ATOM     38  C   UNL     1       1.928  -9.990  -2.292  1.00  0.00     0.031 A 
ATOM     39  C   UNL     1       2.317 -10.611  -3.574  1.00  0.00     0.074 A 
ATOM     40  C   UNL     1       2.856  -9.700  -1.357  1.00  0.00     0.049 A 
ATOM     41  N   UNL     1       2.305 -11.878  -3.812  1.00  0.00    -0.248 NA
ATOM     42  C   UNL     1       2.477  -9.766  -4.766  1.00  0.00     0.031 C 
ATOM     43  C   UNL     1       2.771  -8.836  -0.179  1.00  0.00     0.029 A 
ATOM     44  N   UNL     1       4.153 -10.124  -1.324  1.00  0.00    -0.354 N 
ATOM     45  C   UNL     1       2.725 -11.996  -5.124  1.00  0.00     0.074 A 
ATOM     46  C   UNL     1       2.579 -10.694  -5.721  1.00  0.00     0.031 C 
ATOM     47  C   UNL     1       4.014  -8.661   0.346  1.00  0.00     0.029 A 
ATOM     48  C   UNL     1       4.952  -9.524  -0.354  1.00  0.00     0.049 A 
ATOM     49  H   UNL     1       4.500 -10.807  -1.943  1.00  0.00     0.167 HD
ATOM     50  C   UNL     1       3.436 -13.081  -5.523  1.00  0.00     0.034 A 
ATOM     51  C   UNL     1       6.282  -9.744  -0.172  1.00  0.00     0.034 A 
ATOM     52  C   UNL     1       3.412 -14.130  -4.535  1.00  0.00     0.049 A 
ATOM     53  C   UNL     1       6.548 -11.095  -0.721  1.00  0.00     0.074 A 
ATOM     54  C   UNL     1       2.426 -14.878  -3.923  1.00  0.00     0.029 A 
ATOM     55  N   UNL     1       4.521 -14.215  -3.730  1.00  0.00    -0.354 N 
ATOM     56  N   UNL     1       6.076 -12.194  -0.206  1.00  0.00    -0.248 NA
ATOM     57  C   UNL     1       7.065 -11.202  -2.074  1.00  0.00     0.031 C 
ATOM     58  C   UNL     1       2.858 -15.028  -2.572  1.00  0.00     0.029 A 
ATOM     59  C   UNL     1       4.103 -14.410  -2.441  1.00  0.00     0.049 A 
ATOM     60  H   UNL     1       5.457 -14.148  -4.028  1.00  0.00     0.167 HD
ATOM     61  C   UNL     1       5.821 -13.001  -1.304  1.00  0.00     0.074 A 
ATOM     62  C   UNL     1       6.563 -12.393  -2.404  1.00  0.00     0.031 C 
ATOM     63  C   UNL     1       4.809 -13.913  -1.279  1.00  0.00     0.034 A 
BRANCH  50  64
ATOM     64  C   UNL     1       4.482 -13.033  -6.597  1.00  0.00     0.023 A 
ATOM     65  C   UNL     1       4.927 -14.259  -7.130  1.00  0.00     0.012 A 
ATOM     66  C   UNL     1       5.224 -11.874  -6.919  1.00  0.00     0.148 A 
ATOM     67  C   UNL     1       6.061 -14.325  -7.944  1.00  0.00     0.002 A 
ATOM     68  C   UNL     1       6.294 -11.932  -7.798  1.00  0.00     0.091 A 
ATOM     69  F   UNL     1       4.992 -10.731  -6.265  1.00  0.00    -0.205 F 
ATOM     70  C   UNL     1       6.733 -13.159  -8.295  1.00  0.00     0.022 A 
BRANCH  68  71
ATOM     71  S   UNL     1       7.165 -10.447  -8.308  1.00  0.00     0.127 S 
ATOM     72  O   UNL     1       8.415 -10.574  -7.566  1.00  0.00    -0.237 OA
ATOM     73  O   UNL     1       7.274 -10.648  -9.753  1.00  0.00    -0.237 OA
ATOM     74  O   UNL     1       6.299  -9.339  -7.925  1.00  0.00    -0.744 OA
ENDBRANCH  68  71
ENDBRANCH  50  64
BRANCH  51  75
ATOM     75  C   UNL     1       7.417  -8.868   0.232  1.00  0.00     0.023 A 
ATOM     76  C   UNL     1       8.678  -9.459   0.492  1.00  0.00     0.012 A 
ATOM     77  C   UNL     1       7.379  -7.475   0.020  1.00  0.00     0.148 A 
ATOM     78  C   UNL     1       9.862  -8.712   0.448  1.00  0.00     0.002 A 
ATOM     79  C   UNL     1       8.562  -6.733  -0.015  1.00  0.00     0.091 A 
ATOM     80  F   UNL     1       6.201  -6.896  -0.246  1.00  0.00    -0.205 F 
ATOM     81  C   UNL     1       9.806  -7.351   0.175  1.00  0.00     0.022 A 
BRANCH  79  82
ATOM     82  S   UNL     1       8.576  -4.969  -0.368  1.00  0.00     0.127 S 
ATOM     83  O   UNL     1       9.519  -4.463   0.631  1.00  0.00    -0.237 OA
ATOM     84  O   UNL     1       9.067  -4.938  -1.742  1.00  0.00    -0.237 OA
ATOM     85  O   UNL     1       7.203  -4.521  -0.172  1.00  0.00    -0.744 OA
ENDBRANCH  79  82
ENDBRANCH  51  75
BRANCH  63  86
ATOM     86  C   UNL     1       4.204 -14.267   0.054  1.00  0.00     0.023 A 
ATOM     87  C   UNL     1       3.375 -13.379   0.770  1.00  0.00     0.012 A 
ATOM     88  C   UNL     1       4.297 -15.606   0.468  1.00  0.00     0.148 A 
ATOM     89  C   UNL     1       2.637 -13.829   1.870  1.00  0.00     0.002 A 
ATOM     90  C   UNL     1       3.529 -16.059   1.531  1.00  0.00     0.091 A 
ATOM     91  F   UNL     1       5.092 -16.427  -0.235  1.00  0.00    -0.205 F 
ATOM     92  C   UNL     1       2.699 -15.173   2.238  1.00  0.00     0.022 A 
BRANCH  90  93
ATOM     93  S   UNL     1       3.464 -17.795   1.978  1.00  0.00     0.127 S 
ATOM     94  O   UNL     1       3.961 -17.777   3.353  1.00  0.00    -0.237 OA
ATOM     95  O   UNL     1       2.037 -18.090   1.847  1.00  0.00    -0.237 OA
ATOM     96  O   UNL     1       4.317 -18.495   1.026  1.00  0.00    -0.744 OA
ENDBRANCH  90  93
ENDBRANCH  63  86
ENDBRANCH  37  38
ENDBRANCH  30  32
ENDBRANCH  29  30
ENDBRANCH   1  29
TORSDOF 16
