REMARK SMILES CN(C)S(=O)(=O)c1ccc(-n2c(CCC(=O)OCCOC(=O)c3ccc(-c4c5nc(c(-c6cccc(S(=O)(=O)[O-])c6F)c6ccc([nH]6)c(-c6cccc(S(=O)(=O)[O-])c6F)c6nc(c(-c7cccc(S(=O)(=O)[O-])c7F)c7ccc4[nH]7)C=C6)C=C5)cc3)ccc2-c2ccc(F)cc2)cc1
REMARK SMILES IDX 18 1 17 2 15 3 16 4 14 5 13 6 12 7 11 8 88 9 86 10 87 11
REMARK SMILES IDX 10 12 7 13 8 14 97 15 9 16 96 17 4 18 5 19 6 20 2 21 1 22
REMARK SMILES IDX 3 23 89 24 90 25 95 26 91 27 94 28 92 29 93 30 19 31 20 32
REMARK SMILES IDX 21 33 22 34 23 35 24 36 85 37 25 38 84 39 26 40 27 41 28 42
REMARK SMILES IDX 78 43 29 44 83 45 77 46 79 47 30 48 82 49 76 50 75 51 31 53
REMARK SMILES IDX 63 54 43 55 62 56 44 57 47 58 61 59 80 60 45 61 46 62 60 64
REMARK SMILES IDX 81 65 48 66 32 67 33 68 41 69 34 70 36 71 42 72 35 73 37 74
REMARK SMILES IDX 38 75 39 76 40 77 64 78 65 79 73 80 66 81 68 82 74 83 67 84
REMARK SMILES IDX 69 85 70 86 71 87 72 88 49 89 50 90 58 91 51 92 53 93 59 94
REMARK SMILES IDX 52 95 54 96 55 97 56 98 57 99
REMARK H PARENT 79 52 47 63
REMARK Flexibility Score: inf
ROOT
ATOM      1  C   UNL     1       1.448  -6.253  -3.330  1.00  0.00     0.274 C 
ENDROOT
BRANCH   1   2
ATOM      2  O   UNL     1       1.312  -7.679  -3.068  1.00  0.00    -0.462 OA
BRANCH   2   3
ATOM      3  C   UNL     1       2.454  -8.344  -2.735  1.00  0.00     0.306 C 
ATOM      4  O   UNL     1       3.571  -8.006  -3.113  1.00  0.00    -0.252 OA
BRANCH   3   5
ATOM      5  C   UNL     1       2.237  -9.550  -1.826  1.00  0.00     0.129 C 
BRANCH   5   6
ATOM      6  C   UNL     1       1.335  -9.418  -0.590  1.00  0.00     0.066 C 
BRANCH   6   7
ATOM      7  C   UNL     1      -0.107  -9.310  -0.937  1.00  0.00     0.024 A 
ATOM      8  N   UNL     1      -0.780  -8.147  -1.306  1.00  0.00    -0.314 N 
ATOM      9  C   UNL     1      -1.991  -8.564  -1.896  1.00  0.00     0.053 A 
ATOM     10  C   UNL     1      -1.015 -10.355  -0.955  1.00  0.00     0.024 A 
ATOM     11  C   UNL     1      -2.194  -9.887  -1.551  1.00  0.00     0.029 A 
BRANCH   8  12
ATOM     12  C   UNL     1      -0.313  -6.791  -1.229  1.00  0.00     0.046 A 
ATOM     13  C   UNL     1       0.649  -3.296  -1.176  1.00  0.00     0.082 A 
ATOM     14  C   UNL     1      -1.048  -3.752  -1.489  1.00  0.00     0.024 A 
ATOM     15  C   UNL     1       1.901  -4.556  -0.909  1.00  0.00     0.024 A 
ATOM     16  C   UNL     1      -1.547  -5.477  -1.495  1.00  0.00     0.028 A 
ATOM     17  C   UNL     1       1.423  -6.306  -0.868  1.00  0.00     0.028 A 
BRANCH  13  18
ATOM     18  S   UNL     1       1.118  -1.612  -1.451  1.00  0.00     0.242 S 
ATOM     19  O   UNL     1       0.301  -1.139  -2.551  1.00  0.00    -0.207 OA
ATOM     20  O   UNL     1       2.561  -1.617  -1.565  1.00  0.00    -0.207 OA
BRANCH  18  21
ATOM     21  N   UNL     1       0.656  -0.795  -0.039  1.00  0.00    -0.204 NA
ATOM     22  C   UNL     1       1.368   0.489   0.182  1.00  0.00     0.124 C 
ATOM     23  C   UNL     1      -0.799  -0.620   0.187  1.00  0.00     0.124 C 
ENDBRANCH  18  21
ENDBRANCH  13  18
ENDBRANCH   8  12
BRANCH   9  24
ATOM     24  C   UNL     1      -2.822  -7.794  -2.828  1.00  0.00    -0.001 A 
ATOM     25  C   UNL     1      -4.144  -7.452  -2.501  1.00  0.00     0.013 A 
ATOM     26  C   UNL     1      -2.288  -7.374  -4.057  1.00  0.00     0.013 A 
ATOM     27  C   UNL     1      -4.892  -6.644  -3.362  1.00  0.00     0.040 A 
ATOM     28  C   UNL     1      -3.039  -6.571  -4.917  1.00  0.00     0.040 A 
ATOM     29  C   UNL     1      -4.331  -6.207  -4.557  1.00  0.00     0.123 A 
ATOM     30  F   UNL     1      -5.044  -5.421  -5.374  1.00  0.00    -0.207 F 
ENDBRANCH   9  24
ENDBRANCH   6   7
ENDBRANCH   5   6
ENDBRANCH   3   5
ENDBRANCH   2   3
ENDBRANCH   1   2
BRANCH   1  31
ATOM     31  C   UNL     1       0.413  -5.189  -2.515  1.00  0.00     0.275 C 
BRANCH  31  32
ATOM     32  O   UNL     1       0.083  -5.034  -0.527  1.00  0.00    -0.458 OA
BRANCH  32  33
ATOM     33  C   UNL     1      -0.477  -5.316   0.742  1.00  0.00     0.338 C 
ATOM     34  O   UNL     1      -1.449  -6.022   1.015  1.00  0.00    -0.246 OA
BRANCH  33  35
ATOM     35  C   UNL     1       0.343  -4.873   1.860  1.00  0.00     0.060 A 
ATOM     36  C   UNL     1       0.921  -5.864   2.670  1.00  0.00     0.016 A 
ATOM     37  C   UNL     1       0.130  -3.581   2.305  1.00  0.00     0.016 A 
ATOM     38  C   UNL     1       1.180  -5.572   3.997  1.00  0.00     0.010 A 
ATOM     39  C   UNL     1       0.346  -3.306   3.633  1.00  0.00     0.010 A 
ATOM     40  C   UNL     1       0.821  -4.312   4.482  1.00  0.00    -0.014 A 
BRANCH  40  41
ATOM     41  C   UNL     1       0.943  -4.005   5.915  1.00  0.00     0.031 A 
ATOM     42  C   UNL     1       2.285  -3.349   6.249  1.00  0.00     0.074 A 
ATOM     43  C   UNL     1      -0.163  -4.304   6.664  1.00  0.00     0.049 A 
ATOM     44  N   UNL     1       2.890  -3.205   7.390  1.00  0.00    -0.248 NA
ATOM     45  C   UNL     1       3.131  -2.848   5.127  1.00  0.00     0.031 C 
ATOM     46  C   UNL     1      -1.409  -4.911   6.131  1.00  0.00     0.029 A 
ATOM     47  N   UNL     1      -0.489  -4.150   7.995  1.00  0.00    -0.354 N 
ATOM     48  C   UNL     1       4.014  -2.382   7.147  1.00  0.00     0.074 A 
ATOM     49  C   UNL     1       4.193  -2.322   5.734  1.00  0.00     0.031 C 
ATOM     50  C   UNL     1      -2.306  -5.125   7.117  1.00  0.00     0.029 A 
ATOM     51  C   UNL     1      -1.763  -4.647   8.373  1.00  0.00     0.049 A 
ATOM     52  H   UNL     1       0.121  -3.725   8.639  1.00  0.00     0.167 HD
ATOM     53  C   UNL     1       4.638  -1.664   8.122  1.00  0.00     0.034 A 
ATOM     54  C   UNL     1      -2.338  -4.689   9.615  1.00  0.00     0.034 A 
ATOM     55  C   UNL     1       4.046  -1.943   9.387  1.00  0.00     0.049 A 
ATOM     56  C   UNL     1      -1.435  -3.928  10.485  1.00  0.00     0.074 A 
ATOM     57  C   UNL     1       4.149  -2.974  10.280  1.00  0.00     0.029 A 
ATOM     58  N   UNL     1       2.971  -1.157   9.718  1.00  0.00    -0.354 N 
ATOM     59  N   UNL     1      -1.357  -2.632  10.501  1.00  0.00    -0.248 NA
ATOM     60  C   UNL     1      -0.484  -4.654  11.332  1.00  0.00     0.031 C 
ATOM     61  C   UNL     1       2.921  -2.965  10.975  1.00  0.00     0.029 A 
ATOM     62  C   UNL     1       2.139  -1.901  10.514  1.00  0.00     0.049 A 
ATOM     63  H   UNL     1       2.824  -0.226   9.435  1.00  0.00     0.167 HD
ATOM     64  C   UNL     1      -0.128  -2.424  11.072  1.00  0.00     0.074 A 
ATOM     65  C   UNL     1       0.176  -3.614  11.831  1.00  0.00     0.031 C 
ATOM     66  C   UNL     1       0.740  -1.550  10.504  1.00  0.00     0.034 A 
BRANCH  53  67
ATOM     67  C   UNL     1       5.619  -0.516   8.070  1.00  0.00     0.023 A 
ATOM     68  C   UNL     1       6.300  -0.240   9.288  1.00  0.00     0.012 A 
ATOM     69  C   UNL     1       5.705   0.453   7.054  1.00  0.00     0.148 A 
ATOM     70  C   UNL     1       6.930   0.977   9.536  1.00  0.00     0.002 A 
ATOM     71  C   UNL     1       6.390   1.651   7.287  1.00  0.00     0.091 A 
ATOM     72  F   UNL     1       5.053   0.269   5.902  1.00  0.00    -0.205 F 
ATOM     73  C   UNL     1       6.965   1.929   8.535  1.00  0.00     0.022 A 
BRANCH  71  74
ATOM     74  S   UNL     1       6.589   2.907   6.016  1.00  0.00     0.127 S 
ATOM     75  O   UNL     1       5.536   3.858   6.355  1.00  0.00    -0.237 OA
ATOM     76  O   UNL     1       7.948   3.392   6.273  1.00  0.00    -0.237 OA
ATOM     77  O   UNL     1       6.450   2.198   4.751  1.00  0.00    -0.744 OA
ENDBRANCH  71  74
ENDBRANCH  53  67
BRANCH  54  78
ATOM     78  C   UNL     1      -3.544  -5.319  10.271  1.00  0.00     0.023 A 
ATOM     79  C   UNL     1      -4.639  -5.849   9.575  1.00  0.00     0.012 A 
ATOM     80  C   UNL     1      -3.586  -5.465  11.693  1.00  0.00     0.148 A 
ATOM     81  C   UNL     1      -5.660  -6.558  10.243  1.00  0.00     0.002 A 
ATOM     82  C   UNL     1      -4.531  -6.254  12.338  1.00  0.00     0.091 A 
ATOM     83  F   UNL     1      -2.714  -4.800  12.457  1.00  0.00    -0.205 F 
ATOM     84  C   UNL     1      -5.585  -6.799  11.614  1.00  0.00     0.022 A 
BRANCH  82  85
ATOM     85  S   UNL     1      -4.351  -6.721  14.072  1.00  0.00     0.127 S 
ATOM     86  O   UNL     1      -5.568  -6.177  14.669  1.00  0.00    -0.237 OA
ATOM     87  O   UNL     1      -4.309  -8.180  13.981  1.00  0.00    -0.237 OA
ATOM     88  O   UNL     1      -3.107  -6.117  14.533  1.00  0.00    -0.744 OA
ENDBRANCH  82  85
ENDBRANCH  54  78
BRANCH  66  89
ATOM     89  C   UNL     1       0.074  -0.490   9.633  1.00  0.00     0.023 A 
ATOM     90  C   UNL     1      -0.738   0.452  10.294  1.00  0.00     0.012 A 
ATOM     91  C   UNL     1       0.106  -0.450   8.217  1.00  0.00     0.148 A 
ATOM     92  C   UNL     1      -1.496   1.388   9.587  1.00  0.00     0.002 A 
ATOM     93  C   UNL     1      -0.653   0.490   7.510  1.00  0.00     0.091 A 
ATOM     94  F   UNL     1       0.863  -1.337   7.568  1.00  0.00    -0.205 F 
ATOM     95  C   UNL     1      -1.454   1.409   8.198  1.00  0.00     0.022 A 
BRANCH  93  96
ATOM     96  S   UNL     1      -0.697   0.607   5.710  1.00  0.00     0.127 S 
ATOM     97  O   UNL     1      -2.088   0.274   5.400  1.00  0.00    -0.237 OA
ATOM     98  O   UNL     1      -0.357   2.010   5.477  1.00  0.00    -0.237 OA
ATOM     99  O   UNL     1       0.281  -0.349   5.213  1.00  0.00    -0.744 OA
ENDBRANCH  93  96
ENDBRANCH  66  89
ENDBRANCH  40  41
ENDBRANCH  33  35
ENDBRANCH  32  33
ENDBRANCH  31  32
ENDBRANCH   1  31
TORSDOF 20
