REMARK SMILES O=C(OCCOC(=O)[C@@H]1[C@@H](C(=O)NCCCn2ccnc2)[C@@H]2C=C[C@H]1C2)c1ccc(-c2c3nc(c(-c4cccc(S(=O)(=O)[O-])c4F)c4ccc([nH]4)c(-c4cccc(S(=O)(=O)[O-])c4F)c4nc(c(-c5cccc(S(=O)(=O)[O-])c5F)c5ccc2[nH]5)C=C4)C=C3)cc1
REMARK SMILES IDX 5 1 4 2 3 3 2 4 1 5 27 6 28 7 89 8 29 9 88 10 30 11 31 12
REMARK SMILES IDX 32 13 82 14 33 15 87 16 81 17 83 18 34 19 86 20 80 21 79 22
REMARK SMILES IDX 35 24 67 25 47 26 66 27 48 28 51 29 65 30 84 31 49 32 50 33
REMARK SMILES IDX 64 35 85 36 52 37 36 38 37 39 45 40 38 41 40 42 46 43 39 44
REMARK SMILES IDX 41 45 42 46 43 47 44 48 68 49 69 50 77 51 70 52 72 53 78 54
REMARK SMILES IDX 71 55 73 56 74 57 75 58 76 59 53 60 54 61 62 62 55 63 57 64
REMARK SMILES IDX 63 65 56 66 58 67 59 68 60 69 61 70 6 71 7 72 8 73 9 74
REMARK SMILES IDX 10 75 25 76 22 77 24 78 26 79 23 80 11 81 12 82 13 83 14 85
REMARK SMILES IDX 15 86 16 87 17 88 18 89 21 90 19 91 20 92
REMARK H PARENT 83 23 51 34 13 84
REMARK Flexibility Score: inf
ROOT
ATOM      1  C   UNL     1       4.444  -1.329  -0.127  1.00  0.00     0.274 C 
ENDROOT
BRANCH   1   2
ATOM      2  C   UNL     1       4.912  -0.397   0.990  1.00  0.00     0.275 C 
BRANCH   2   3
ATOM      3  O   UNL     1       3.911   0.331   1.728  1.00  0.00    -0.458 OA
BRANCH   3   4
ATOM      4  C   UNL     1       2.697   0.503   1.171  1.00  0.00     0.338 C 
ATOM      5  O   UNL     1       1.814  -0.348   1.144  1.00  0.00    -0.246 OA
BRANCH   4   6
ATOM      6  C   UNL     1       2.533   1.895   0.709  1.00  0.00     0.060 A 
ATOM      7  C   UNL     1       3.623   2.631   0.225  1.00  0.00     0.016 A 
ATOM      8  C   UNL     1       1.252   2.449   0.692  1.00  0.00     0.016 A 
ATOM      9  C   UNL     1       3.428   3.904  -0.291  1.00  0.00     0.010 A 
ATOM     10  C   UNL     1       1.059   3.726   0.173  1.00  0.00     0.010 A 
ATOM     11  C   UNL     1       2.143   4.455  -0.325  1.00  0.00    -0.014 A 
BRANCH  11  12
ATOM     12  C   UNL     1       1.978   5.764  -0.956  1.00  0.00     0.031 A 
ATOM     13  C   UNL     1       2.448   5.909  -2.367  1.00  0.00     0.074 A 
ATOM     14  C   UNL     1       1.337   6.804  -0.390  1.00  0.00     0.049 A 
ATOM     15  N   UNL     1       3.507   6.520  -2.794  1.00  0.00    -0.248 NA
ATOM     16  C   UNL     1       1.686   5.238  -3.425  1.00  0.00     0.031 C 
ATOM     17  C   UNL     1       0.523   6.823   0.827  1.00  0.00     0.029 A 
ATOM     18  N   UNL     1       1.197   8.068  -0.880  1.00  0.00    -0.354 N 
ATOM     19  C   UNL     1       3.435   6.497  -4.191  1.00  0.00     0.074 A 
ATOM     20  C   UNL     1       2.390   5.559  -4.513  1.00  0.00     0.031 C 
ATOM     21  C   UNL     1      -0.217   7.954   0.844  1.00  0.00     0.029 A 
ATOM     22  C   UNL     1       0.204   8.804  -0.255  1.00  0.00     0.049 A 
ATOM     23  H   UNL     1       1.750   8.425  -1.612  1.00  0.00     0.167 HD
ATOM     24  C   UNL     1       4.103   7.401  -4.968  1.00  0.00     0.034 A 
ATOM     25  C   UNL     1      -0.261  10.014  -0.636  1.00  0.00     0.034 A 
ATOM     26  C   UNL     1       5.043   8.170  -4.192  1.00  0.00     0.049 A 
ATOM     27  C   UNL     1       0.788  10.660  -1.454  1.00  0.00     0.074 A 
ATOM     28  C   UNL     1       6.144   7.902  -3.406  1.00  0.00     0.029 A 
ATOM     29  N   UNL     1       4.698   9.471  -3.915  1.00  0.00    -0.354 N 
ATOM     30  N   UNL     1       1.935  11.054  -0.974  1.00  0.00    -0.248 NA
ATOM     31  C   UNL     1       0.721  10.550  -2.901  1.00  0.00     0.031 C 
ATOM     32  C   UNL     1       6.081   8.865  -2.354  1.00  0.00     0.029 A 
ATOM     33  C   UNL     1       4.973   9.681  -2.594  1.00  0.00     0.049 A 
ATOM     34  H   UNL     1       4.325  10.126  -4.548  1.00  0.00     0.167 HD
ATOM     35  C   UNL     1       2.842  10.808  -1.995  1.00  0.00     0.074 A 
ATOM     36  C   UNL     1       2.022  10.636  -3.191  1.00  0.00     0.031 C 
ATOM     37  C   UNL     1       4.141  10.482  -1.722  1.00  0.00     0.034 A 
BRANCH  24  38
ATOM     38  C   UNL     1       3.724   7.879  -6.361  1.00  0.00     0.023 A 
ATOM     39  C   UNL     1       4.651   8.728  -7.021  1.00  0.00     0.012 A 
ATOM     40  C   UNL     1       2.435   7.792  -6.928  1.00  0.00     0.148 A 
ATOM     41  C   UNL     1       4.291   9.514  -8.121  1.00  0.00     0.002 A 
ATOM     42  C   UNL     1       2.104   8.517  -8.072  1.00  0.00     0.091 A 
ATOM     43  F   UNL     1       1.474   7.110  -6.300  1.00  0.00    -0.205 F 
ATOM     44  C   UNL     1       3.015   9.407  -8.649  1.00  0.00     0.022 A 
BRANCH  42  45
ATOM     45  S   UNL     1       0.488   8.380  -8.847  1.00  0.00     0.127 S 
ATOM     46  O   UNL     1      -0.138   9.636  -8.441  1.00  0.00    -0.237 OA
ATOM     47  O   UNL     1       0.840   8.294 -10.265  1.00  0.00    -0.237 OA
ATOM     48  O   UNL     1      -0.099   7.163  -8.302  1.00  0.00    -0.744 OA
ENDBRANCH  42  45
ENDBRANCH  24  38
BRANCH  25  49
ATOM     49  C   UNL     1      -1.610  10.590  -0.477  1.00  0.00     0.023 A 
ATOM     50  C   UNL     1      -1.780  11.987  -0.481  1.00  0.00     0.012 A 
ATOM     51  C   UNL     1      -2.757   9.772  -0.590  1.00  0.00     0.148 A 
ATOM     52  C   UNL     1      -3.050  12.555  -0.623  1.00  0.00     0.002 A 
ATOM     53  C   UNL     1      -4.018  10.341  -0.727  1.00  0.00     0.091 A 
ATOM     54  F   UNL     1      -2.597   8.443  -0.655  1.00  0.00    -0.205 F 
ATOM     55  C   UNL     1      -4.167  11.733  -0.755  1.00  0.00     0.022 A 
BRANCH  53  56
ATOM     56  S   UNL     1      -5.500   9.344  -0.927  1.00  0.00     0.127 S 
ATOM     57  O   UNL     1      -6.428   9.986   0.005  1.00  0.00    -0.237 OA
ATOM     58  O   UNL     1      -5.813   9.547  -2.339  1.00  0.00    -0.237 OA
ATOM     59  O   UNL     1      -5.119   7.989  -0.551  1.00  0.00    -0.744 OA
ENDBRANCH  53  56
ENDBRANCH  25  49
BRANCH  37  60
ATOM     60  C   UNL     1       4.655  10.674  -0.318  1.00  0.00     0.023 A 
ATOM     61  C   UNL     1       4.094   9.992   0.781  1.00  0.00     0.012 A 
ATOM     62  C   UNL     1       5.845  11.399  -0.130  1.00  0.00     0.148 A 
ATOM     63  C   UNL     1       4.689  10.052   2.043  1.00  0.00     0.002 A 
ATOM     64  C   UNL     1       6.463  11.414   1.115  1.00  0.00     0.091 A 
ATOM     65  F   UNL     1       6.373  12.041  -1.184  1.00  0.00    -0.205 F 
ATOM     66  C   UNL     1       5.883  10.751   2.206  1.00  0.00     0.022 A 
BRANCH  64  67
ATOM     67  S   UNL     1       8.073  12.173   1.348  1.00  0.00     0.127 S 
ATOM     68  O   UNL     1       7.723  13.457   1.950  1.00  0.00    -0.237 OA
ATOM     69  O   UNL     1       8.739  11.234   2.254  1.00  0.00    -0.237 OA
ATOM     70  O   UNL     1       8.674  12.238   0.021  1.00  0.00    -0.744 OA
ENDBRANCH  64  67
ENDBRANCH  37  60
ENDBRANCH  11  12
ENDBRANCH   4   6
ENDBRANCH   3   4
ENDBRANCH   2   3
ENDBRANCH   1   2
BRANCH   1  71
ATOM     71  O   UNL     1       3.863  -0.603  -1.231  1.00  0.00    -0.462 OA
BRANCH  71  72
ATOM     72  C   UNL     1       2.846  -1.263  -1.855  1.00  0.00     0.310 C 
ATOM     73  O   UNL     1       2.442  -2.373  -1.520  1.00  0.00    -0.252 OA
BRANCH  72  74
ATOM     74  C   UNL     1       2.357  -0.597  -3.118  1.00  0.00     0.119 C 
ATOM     75  C   UNL     1       2.712   0.890  -3.424  1.00  0.00     0.100 C 
ATOM     76  C   UNL     1       0.807  -0.597  -3.171  1.00  0.00     0.027 C 
ATOM     77  C   UNL     1       1.320   1.476  -3.824  1.00  0.00     0.025 C 
ATOM     78  C   UNL     1       0.237   0.353  -2.140  1.00  0.00    -0.027 C 
ATOM     79  C   UNL     1       0.578   0.268  -4.412  1.00  0.00     0.017 C 
ATOM     80  C   UNL     1       0.510   1.597  -2.558  1.00  0.00    -0.027 C 
BRANCH  75  81
ATOM     81  C   UNL     1       3.656   0.977  -4.613  1.00  0.00     0.224 C 
ATOM     82  O   UNL     1       3.277   0.774  -5.768  1.00  0.00    -0.275 OA
ATOM     83  N   UNL     1       4.982   1.217  -4.451  1.00  0.00    -0.356 N 
ATOM     84  H   UNL     1       5.501   1.193  -5.288  1.00  0.00     0.163 HD
BRANCH  83  85
ATOM     85  C   UNL     1       5.774   1.501  -3.270  1.00  0.00     0.117 C 
BRANCH  85  86
ATOM     86  C   UNL     1       6.955   0.536  -3.143  1.00  0.00     0.043 C 
BRANCH  86  87
ATOM     87  C   UNL     1       7.974   0.619  -4.283  1.00  0.00     0.125 C 
BRANCH  87  88
ATOM     88  N   UNL     1       8.726   1.855  -4.313  1.00  0.00    -0.337 N 
ATOM     89  C   UNL     1       9.847   2.132  -3.583  1.00  0.00     0.107 A 
ATOM     90  C   UNL     1       8.481   2.927  -5.122  1.00  0.00     0.199 A 
ATOM     91  C   UNL     1      10.221   3.397  -3.975  1.00  0.00     0.130 A 
ATOM     92  N   UNL     1       9.377   3.871  -4.944  1.00  0.00    -0.245 NA
ENDBRANCH  87  88
ENDBRANCH  86  87
ENDBRANCH  85  86
ENDBRANCH  83  85
ENDBRANCH  75  81
ENDBRANCH  72  74
ENDBRANCH  71  72
ENDBRANCH   1  71
TORSDOF 19
