REMARK SMILES O=C(COc1ccccc1C[NH+]1CCC2(CC[NH2+]CC2)CC1)OCCOC(=O)c1ccc(-c2c3nc(c(-c4cccc(S(=O)(=O)[O-])c4F)c4ccc([nH]4)c(-c4cccc(S(=O)(=O)[O-])c4F)c4nc(c(-c5cccc(S(=O)(=O)[O-])c5F)c5ccc2[nH]5)C=C4)C=C3)cc1
REMARK SMILES IDX 24 1 23 2 2 3 1 4 3 5 4 6 5 7 6 8 10 9 7 10 9 11 8 12 11 13
REMARK SMILES IDX 12 14 13 15 22 16 14 18 21 19 15 20 16 21 20 22 17 23 19 24
REMARK SMILES IDX 18 25 25 28 26 29 27 30 28 31 29 32 30 33 91 34 31 35 90 36
REMARK SMILES IDX 32 37 33 38 34 39 84 40 35 41 89 42 83 43 85 44 36 45 88 46
REMARK SMILES IDX 82 47 81 48 37 50 69 51 49 52 68 53 50 54 53 55 67 56 86 57
REMARK SMILES IDX 51 58 52 59 66 61 87 62 54 63 38 64 39 65 47 66 40 67 42 68
REMARK SMILES IDX 48 69 41 70 43 71 44 72 45 73 46 74 70 75 71 76 79 77 72 78
REMARK SMILES IDX 74 79 80 80 73 81 75 82 76 83 77 84 78 85 55 86 56 87 64 88
REMARK SMILES IDX 57 89 59 90 65 91 58 92 60 93 61 94 62 95 63 96
REMARK H PARENT 12 17 18 26 18 27 85 49 53 60
REMARK Flexibility Score: inf
ROOT
ATOM      1  C   UNL     1       4.688   1.053  -0.596  1.00  0.00     0.274 C 
ENDROOT
BRANCH   1   2
ATOM      2  O   UNL     1       3.290   0.806  -0.842  1.00  0.00    -0.460 OA
BRANCH   2   3
ATOM      3  C   UNL     1       2.421   0.489   0.150  1.00  0.00     0.344 C 
ATOM      4  O   UNL     1       1.237   0.807   0.054  1.00  0.00    -0.248 OA
BRANCH   3   5
ATOM      5  C   UNL     1       2.933  -0.327   1.329  1.00  0.00     0.351 C 
BRANCH   5   6
ATOM      6  O   UNL     1       3.449  -1.575   0.877  1.00  0.00    -0.481 OA
BRANCH   6   7
ATOM      7  C   UNL     1       2.761  -2.628   1.423  1.00  0.00     0.129 A 
ATOM      8  C   UNL     1       3.339  -3.247   2.538  1.00  0.00     0.047 A 
ATOM      9  C   UNL     1       1.602  -3.148   0.822  1.00  0.00     0.048 A 
ATOM     10  C   UNL     1       2.731  -4.362   3.111  1.00  0.00     0.004 A 
ATOM     11  C   UNL     1       0.982  -4.245   1.448  1.00  0.00     0.013 A 
ATOM     12  C   UNL     1       1.544  -4.851   2.575  1.00  0.00     0.001 A 
BRANCH   9  13
ATOM     13  C   UNL     1       0.982  -2.587  -0.442  1.00  0.00     0.302 C 
BRANCH  13  14
ATOM     14  N   UNL     1       1.479  -3.018  -1.754  1.00  0.00    -0.331 N 
ATOM     15  C   UNL     1       2.846  -2.666  -2.099  1.00  0.00     0.263 C 
ATOM     16  C   UNL     1       1.134  -4.362  -2.174  1.00  0.00     0.263 C 
ATOM     17  H   UNL     1       0.907  -2.402  -2.331  1.00  0.00     0.348 HD
ATOM     18  C   UNL     1       3.907  -3.642  -1.594  1.00  0.00     0.069 C 
ATOM     19  C   UNL     1       2.075  -5.435  -1.642  1.00  0.00     0.069 C 
ATOM     20  C   UNL     1       3.584  -5.139  -1.830  1.00  0.00    -0.008 C 
ATOM     21  C   UNL     1       4.043  -5.566  -3.246  1.00  0.00     0.069 C 
ATOM     22  C   UNL     1       4.352  -5.999  -0.791  1.00  0.00     0.069 C 
ATOM     23  C   UNL     1       5.570  -5.638  -3.383  1.00  0.00     0.261 C 
ATOM     24  C   UNL     1       5.860  -5.990  -1.014  1.00  0.00     0.261 C 
ATOM     25  N   UNL     1       6.189  -6.479  -2.356  1.00  0.00    -0.346 N 
ATOM     26  H   UNL     1       7.201  -6.464  -2.478  1.00  0.00     0.346 HD
ATOM     27  H   UNL     1       5.832  -7.429  -2.454  1.00  0.00     0.346 HD
ENDBRANCH  13  14
ENDBRANCH   9  13
ENDBRANCH   6   7
ENDBRANCH   5   6
ENDBRANCH   3   5
ENDBRANCH   2   3
ENDBRANCH   1   2
BRANCH   1  28
ATOM     28  C   UNL     1       4.889   2.506  -0.164  1.00  0.00     0.275 C 
BRANCH  28  29
ATOM     29  O   UNL     1       4.374   2.672   1.169  1.00  0.00    -0.458 OA
BRANCH  29  30
ATOM     30  C   UNL     1       3.168   3.287   1.283  1.00  0.00     0.338 C 
ATOM     31  O   UNL     1       2.549   3.859   0.405  1.00  0.00    -0.246 OA
BRANCH  30  32
ATOM     32  C   UNL     1       2.627   2.944   2.617  1.00  0.00     0.060 A 
ATOM     33  C   UNL     1       1.297   2.516   2.718  1.00  0.00     0.016 A 
ATOM     34  C   UNL     1       3.445   2.983   3.750  1.00  0.00     0.016 A 
ATOM     35  C   UNL     1       0.779   2.129   3.954  1.00  0.00     0.010 A 
ATOM     36  C   UNL     1       2.919   2.627   4.990  1.00  0.00     0.010 A 
ATOM     37  C   UNL     1       1.578   2.224   5.101  1.00  0.00    -0.014 A 
BRANCH  37  38
ATOM     38  C   UNL     1       0.962   2.154   6.443  1.00  0.00     0.031 A 
ATOM     39  C   UNL     1       0.441   3.436   7.032  1.00  0.00     0.074 A 
ATOM     40  C   UNL     1       0.924   1.009   7.147  1.00  0.00     0.049 A 
ATOM     41  N   UNL     1      -0.077   3.657   8.210  1.00  0.00    -0.248 NA
ATOM     42  C   UNL     1       0.527   4.632   6.175  1.00  0.00     0.031 C 
ATOM     43  C   UNL     1       1.403  -0.291   6.682  1.00  0.00     0.029 A 
ATOM     44  N   UNL     1       0.488   0.772   8.426  1.00  0.00    -0.354 N 
ATOM     45  C   UNL     1      -0.366   5.015   8.241  1.00  0.00     0.074 A 
ATOM     46  C   UNL     1       0.046   5.572   6.973  1.00  0.00     0.031 C 
ATOM     47  C   UNL     1       1.271  -1.184   7.680  1.00  0.00     0.029 A 
ATOM     48  C   UNL     1       0.714  -0.515   8.855  1.00  0.00     0.049 A 
ATOM     49  H   UNL     1       0.054   1.458   8.984  1.00  0.00     0.167 HD
ATOM     50  C   UNL     1      -0.937   5.736   9.232  1.00  0.00     0.034 A 
ATOM     51  C   UNL     1       0.509  -1.074  10.065  1.00  0.00     0.034 A 
ATOM     52  C   UNL     1      -1.337   5.186  10.495  1.00  0.00     0.049 A 
ATOM     53  C   UNL     1      -0.097  -0.239  11.167  1.00  0.00     0.074 A 
ATOM     54  C   UNL     1      -1.950   5.825  11.557  1.00  0.00     0.029 A 
ATOM     55  N   UNL     1      -1.147   3.866  10.873  1.00  0.00    -0.354 N 
ATOM     56  N   UNL     1      -0.493   1.011  11.137  1.00  0.00    -0.248 NA
ATOM     57  C   UNL     1      -0.314  -0.903  12.462  1.00  0.00     0.031 C 
ATOM     58  C   UNL     1      -2.111   4.894  12.588  1.00  0.00     0.029 A 
ATOM     59  C   UNL     1      -1.620   3.671  12.158  1.00  0.00     0.049 A 
ATOM     60  H   UNL     1      -0.735   3.171  10.311  1.00  0.00     0.167 HD
ATOM     61  C   UNL     1      -1.042   1.270  12.390  1.00  0.00     0.074 A 
ATOM     62  C   UNL     1      -0.942   0.042  13.150  1.00  0.00     0.031 C 
ATOM     63  C   UNL     1      -1.569   2.423  12.874  1.00  0.00     0.034 A 
BRANCH  50  64
ATOM     64  C   UNL     1      -1.181   7.195   8.967  1.00  0.00     0.023 A 
ATOM     65  C   UNL     1      -2.221   7.575   8.093  1.00  0.00     0.012 A 
ATOM     66  C   UNL     1      -0.402   8.187   9.590  1.00  0.00     0.148 A 
ATOM     67  C   UNL     1      -2.463   8.920   7.822  1.00  0.00     0.002 A 
ATOM     68  C   UNL     1      -0.675   9.527   9.346  1.00  0.00     0.091 A 
ATOM     69  F   UNL     1       0.603   7.802  10.390  1.00  0.00    -0.205 F 
ATOM     70  C   UNL     1      -1.697   9.895   8.455  1.00  0.00     0.022 A 
BRANCH  68  71
ATOM     71  S   UNL     1       0.214  10.857  10.162  1.00  0.00     0.127 S 
ATOM     72  O   UNL     1       1.029  11.383   9.067  1.00  0.00    -0.237 OA
ATOM     73  O   UNL     1      -0.874  11.737  10.589  1.00  0.00    -0.237 OA
ATOM     74  O   UNL     1       0.954  10.235  11.251  1.00  0.00    -0.744 OA
ENDBRANCH  68  71
ENDBRANCH  50  64
BRANCH  51  75
ATOM     75  C   UNL     1       0.838  -2.510  10.295  1.00  0.00     0.023 A 
ATOM     76  C   UNL     1      -0.205  -3.434  10.504  1.00  0.00     0.012 A 
ATOM     77  C   UNL     1       2.171  -2.967  10.311  1.00  0.00     0.148 A 
ATOM     78  C   UNL     1       0.073  -4.777  10.759  1.00  0.00     0.002 A 
ATOM     79  C   UNL     1       2.438  -4.316  10.514  1.00  0.00     0.091 A 
ATOM     80  F   UNL     1       3.152  -2.071  10.130  1.00  0.00    -0.205 F 
ATOM     81  C   UNL     1       1.393  -5.220  10.756  1.00  0.00     0.022 A 
BRANCH  79  82
ATOM     82  S   UNL     1       4.098  -4.996  10.403  1.00  0.00     0.127 S 
ATOM     83  O   UNL     1       4.390  -5.303  11.800  1.00  0.00    -0.237 OA
ATOM     84  O   UNL     1       3.890  -6.163   9.545  1.00  0.00    -0.237 OA
ATOM     85  O   UNL     1       4.910  -3.949   9.799  1.00  0.00    -0.744 OA
ENDBRANCH  79  82
ENDBRANCH  51  75
BRANCH  63  86
ATOM     86  C   UNL     1      -2.117   2.413  14.277  1.00  0.00     0.023 A 
ATOM     87  C   UNL     1      -1.233   2.391  15.374  1.00  0.00     0.012 A 
ATOM     88  C   UNL     1      -3.503   2.525  14.507  1.00  0.00     0.148 A 
ATOM     89  C   UNL     1      -1.722   2.454  16.678  1.00  0.00     0.002 A 
ATOM     90  C   UNL     1      -3.979   2.635  15.808  1.00  0.00     0.091 A 
ATOM     91  F   UNL     1      -4.329   2.526  13.451  1.00  0.00    -0.205 F 
ATOM     92  C   UNL     1      -3.091   2.589  16.895  1.00  0.00     0.022 A 
BRANCH  90  93
ATOM     93  S   UNL     1      -5.716   2.912  16.174  1.00  0.00     0.127 S 
ATOM     94  O   UNL     1      -6.134   1.595  16.651  1.00  0.00    -0.237 OA
ATOM     95  O   UNL     1      -5.657   3.946  17.208  1.00  0.00    -0.237 OA
ATOM     96  O   UNL     1      -6.322   3.348  14.923  1.00  0.00    -0.744 OA
ENDBRANCH  90  93
ENDBRANCH  63  86
ENDBRANCH  37  38
ENDBRANCH  30  32
ENDBRANCH  29  30
ENDBRANCH  28  29
ENDBRANCH   1  28
TORSDOF 18
