REMARK SMILES Cc1coc2c(C)c3oc(=O)c(CCC(=O)N[C@H](CC(C)C)C(=O)OCCOC(=O)c4ccc(-c5c6nc(c(-c7cccc(S(=O)(=O)[O-])c7F)c7ccc([nH]7)c(-c7cccc(S(=O)(=O)[O-])c7F)c7nc(c(-c8cccc(S(=O)(=O)[O-])c8F)c8ccc5[nH]8)C=C7)C=C6)cc4)c(C)c3cc12
REMARK SMILES IDX 26 1 25 2 23 3 24 4 18 5 17 6 15 7 16 8 14 10 13 11 12 12
REMARK SMILES IDX 1 13 2 14 3 15 98 16 4 17 5 18 97 19 6 20 96 21 7 22 8 23
REMARK SMILES IDX 94 24 9 25 95 26 10 27 11 28 19 29 20 30 21 31 22 32 27 33
REMARK SMILES IDX 28 34 29 35 30 36 31 37 32 38 93 39 33 40 92 41 34 42 35 43
REMARK SMILES IDX 36 44 86 45 37 46 91 47 85 48 87 49 38 50 90 51 84 52 83 53
REMARK SMILES IDX 39 55 71 56 51 57 70 58 52 59 55 60 69 61 88 62 53 63 54 64
REMARK SMILES IDX 68 66 89 67 56 68 40 69 41 70 49 71 42 72 44 73 50 74 43 75
REMARK SMILES IDX 45 76 46 77 47 78 48 79 72 80 73 81 81 82 74 83 76 84 82 85
REMARK SMILES IDX 75 86 77 87 78 88 79 89 80 90 57 91 58 92 66 93 59 94 61 95
REMARK SMILES IDX 67 96 60 97 62 98 63 99 64 100 65 101
REMARK H PARENT 17 9 87 54 55 65
REMARK Flexibility Score: inf
ROOT
ATOM      1  C   UNL     1      -3.478  -1.660  -1.854  1.00  0.00     0.274 C 
ENDROOT
BRANCH   1   2
ATOM      2  O   UNL     1      -2.051  -0.737  -2.170  1.00  0.00    -0.461 OA
BRANCH   2   3
ATOM      3  C   UNL     1      -1.143   0.298  -2.495  1.00  0.00     0.328 C 
ATOM      4  O   UNL     1       0.053   0.042  -2.280  1.00  0.00    -0.250 OA
BRANCH   3   5
ATOM      5  C   UNL     1      -1.462   1.893  -3.110  1.00  0.00     0.192 C 
BRANCH   5   6
ATOM      6  N   UNL     1      -0.393   2.063  -4.111  1.00  0.00    -0.343 N 
ATOM      7  C   UNL     1      -0.437   1.766  -5.444  1.00  0.00     0.221 C 
ATOM      8  O   UNL     1       0.604   1.365  -5.970  1.00  0.00    -0.275 OA
ATOM      9  H   UNL     1       0.456   2.434  -3.778  1.00  0.00     0.164 HD
BRANCH   7  10
ATOM     10  C   UNL     1      -1.690   2.019  -6.295  1.00  0.00     0.105 C 
BRANCH  10  11
ATOM     11  C   UNL     1      -2.776   0.935  -6.315  1.00  0.00     0.053 C 
BRANCH  11  12
ATOM     12  C   UNL     1      -3.743   1.065  -5.138  1.00  0.00     0.042 A 
ATOM     13  C   UNL     1      -3.026  -0.222   1.762  1.00  0.00     0.048 C 
ATOM     14  C   UNL     1      -4.170   0.557   1.201  1.00  0.00    -0.005 A 
ATOM     15  C   UNL     1      -5.359   0.892   1.816  1.00  0.00     0.199 A 
ATOM     16  C   UNL     1      -4.354   0.998  -0.143  1.00  0.00     0.024 A 
ATOM     17  O   UNL     1      -6.198   1.538   0.950  1.00  0.00    -0.464 OA
ATOM     18  C   UNL     1      -5.588   1.565  -0.274  1.00  0.00     0.140 A 
ATOM     19  C   UNL     1      -3.604   0.917  -1.317  1.00  0.00     0.024 A 
ATOM     20  C   UNL     1      -6.029   2.102  -1.495  1.00  0.00     0.036 A 
ATOM     21  C   UNL     1      -4.139   0.953  -2.644  1.00  0.00     0.022 A 
ATOM     22  C   UNL     1      -7.267   2.917  -1.489  1.00  0.00     0.052 C 
ATOM     23  C   UNL     1      -5.252   1.754  -2.671  1.00  0.00     0.145 A 
ATOM     24  C   UNL     1      -3.665   0.287  -4.049  1.00  0.00    -0.030 A 
ATOM     25  O   UNL     1      -5.519   2.307  -3.958  1.00  0.00    -0.422 OA
ATOM     26  C   UNL     1      -3.172  -1.145  -4.428  1.00  0.00     0.046 C 
ATOM     27  C   UNL     1      -4.798   2.076  -5.158  1.00  0.00     0.339 A 
ATOM     28  O   UNL     1      -5.076   2.655  -6.211  1.00  0.00    -0.246 OA
ENDBRANCH  11  12
ENDBRANCH  10  11
ENDBRANCH   7  10
ENDBRANCH   5   6
BRANCH   5  29
ATOM     29  C   UNL     1      -1.595   3.216  -2.225  1.00  0.00     0.040 C 
BRANCH  29  30
ATOM     30  C   UNL     1      -2.303   4.517  -2.868  1.00  0.00    -0.015 C 
ATOM     31  C   UNL     1      -3.789   4.435  -3.184  1.00  0.00     0.007 C 
ATOM     32  C   UNL     1      -2.230   5.753  -1.955  1.00  0.00     0.007 C 
ENDBRANCH  29  30
ENDBRANCH   5  29
ENDBRANCH   3   5
ENDBRANCH   2   3
ENDBRANCH   1   2
BRANCH   1  33
ATOM     33  C   UNL     1      -5.230  -1.507  -2.174  1.00  0.00     0.275 C 
BRANCH  33  34
ATOM     34  O   UNL     1      -5.996  -0.750  -3.265  1.00  0.00    -0.458 OA
BRANCH  34  35
ATOM     35  C   UNL     1      -7.388  -0.638  -3.100  1.00  0.00     0.338 C 
ATOM     36  O   UNL     1      -7.946  -1.397  -2.307  1.00  0.00    -0.246 OA
BRANCH  35  37
ATOM     37  C   UNL     1      -8.281   0.517  -3.701  1.00  0.00     0.060 A 
ATOM     38  C   UNL     1      -7.944   1.593  -4.526  1.00  0.00     0.016 A 
ATOM     39  C   UNL     1      -9.608   0.587  -3.233  1.00  0.00     0.016 A 
ATOM     40  C   UNL     1      -8.672   2.821  -4.531  1.00  0.00     0.010 A 
ATOM     41  C   UNL     1     -10.411   1.750  -3.335  1.00  0.00     0.010 A 
ATOM     42  C   UNL     1      -9.903   2.928  -3.880  1.00  0.00    -0.014 A 
BRANCH  42  43
ATOM     43  C   UNL     1     -10.782   4.107  -4.137  1.00  0.00     0.031 A 
ATOM     44  C   UNL     1     -11.042   4.295  -5.603  1.00  0.00     0.074 A 
ATOM     45  C   UNL     1     -11.502   4.772  -3.199  1.00  0.00     0.049 A 
ATOM     46  N   UNL     1     -10.883   5.337  -6.360  1.00  0.00    -0.248 NA
ATOM     47  C   UNL     1     -11.346   3.060  -6.350  1.00  0.00     0.031 C 
ATOM     48  C   UNL     1     -11.506   4.513  -1.757  1.00  0.00     0.029 A 
ATOM     49  N   UNL     1     -12.517   5.693  -3.338  1.00  0.00    -0.354 N 
ATOM     50  C   UNL     1     -11.259   4.901  -7.637  1.00  0.00     0.074 A 
ATOM     51  C   UNL     1     -11.220   3.470  -7.607  1.00  0.00     0.031 C 
ATOM     52  C   UNL     1     -12.634   5.021  -1.211  1.00  0.00     0.029 A 
ATOM     53  C   UNL     1     -13.390   5.715  -2.239  1.00  0.00     0.049 A 
ATOM     54  H   UNL     1     -12.620   6.274  -4.126  1.00  0.00     0.167 HD
ATOM     55  C   UNL     1     -11.918   5.700  -8.522  1.00  0.00     0.034 A 
ATOM     56  C   UNL     1     -14.677   6.158  -2.208  1.00  0.00     0.034 A 
ATOM     57  C   UNL     1     -11.736   7.091  -8.212  1.00  0.00     0.049 A 
ATOM     58  C   UNL     1     -14.889   6.996  -3.405  1.00  0.00     0.074 A 
ATOM     59  C   UNL     1     -10.663   7.951  -8.120  1.00  0.00     0.029 A 
ATOM     60  N   UNL     1     -12.790   7.713  -7.595  1.00  0.00    -0.354 N 
ATOM     61  N   UNL     1     -14.345   8.163  -3.585  1.00  0.00    -0.248 NA
ATOM     62  C   UNL     1     -15.454   6.375  -4.592  1.00  0.00     0.031 C 
ATOM     63  C   UNL     1     -11.013   8.874  -7.094  1.00  0.00     0.029 A 
ATOM     64  C   UNL     1     -12.299   8.562  -6.646  1.00  0.00     0.049 A 
ATOM     65  H   UNL     1     -13.742   7.570  -7.802  1.00  0.00     0.167 HD
ATOM     66  C   UNL     1     -14.084   8.207  -4.945  1.00  0.00     0.074 A 
ATOM     67  C   UNL     1     -14.920   7.162  -5.527  1.00  0.00     0.031 C 
ATOM     68  C   UNL     1     -12.992   8.875  -5.416  1.00  0.00     0.034 A 
BRANCH  55  69
ATOM     69  C   UNL     1     -13.067   5.222  -9.407  1.00  0.00     0.023 A 
ATOM     70  C   UNL     1     -13.616   6.158 -10.313  1.00  0.00     0.012 A 
ATOM     71  C   UNL     1     -13.807   4.025  -9.225  1.00  0.00     0.148 A 
ATOM     72  C   UNL     1     -14.849   5.942 -10.945  1.00  0.00     0.002 A 
ATOM     73  C   UNL     1     -14.983   3.774  -9.923  1.00  0.00     0.091 A 
ATOM     74  F   UNL     1     -13.474   3.156  -8.272  1.00  0.00    -0.205 F 
ATOM     75  C   UNL     1     -15.529   4.746 -10.757  1.00  0.00     0.022 A 
BRANCH  73  76
ATOM     76  S   UNL     1     -15.864   2.213  -9.751  1.00  0.00     0.127 S 
ATOM     77  O   UNL     1     -17.051   2.627  -9.010  1.00  0.00    -0.237 OA
ATOM     78  O   UNL     1     -16.098   1.850 -11.148  1.00  0.00    -0.237 OA
ATOM     79  O   UNL     1     -14.954   1.317  -9.048  1.00  0.00    -0.744 OA
ENDBRANCH  73  76
ENDBRANCH  55  69
BRANCH  56  80
ATOM     80  C   UNL     1     -15.849   5.721  -1.393  1.00  0.00     0.023 A 
ATOM     81  C   UNL     1     -16.999   6.543  -1.332  1.00  0.00     0.012 A 
ATOM     82  C   UNL     1     -15.972   4.391  -0.936  1.00  0.00     0.148 A 
ATOM     83  C   UNL     1     -18.232   6.045  -0.884  1.00  0.00     0.002 A 
ATOM     84  C   UNL     1     -17.198   3.901  -0.487  1.00  0.00     0.091 A 
ATOM     85  F   UNL     1     -14.915   3.576  -1.032  1.00  0.00    -0.205 F 
ATOM     86  C   UNL     1     -18.334   4.720  -0.473  1.00  0.00     0.022 A 
BRANCH  84  87
ATOM     87  S   UNL     1     -17.416   2.189   0.019  1.00  0.00     0.127 S 
ATOM     88  O   UNL     1     -18.132   2.335   1.287  1.00  0.00    -0.237 OA
ATOM     89  O   UNL     1     -18.216   1.651  -1.078  1.00  0.00    -0.237 OA
ATOM     90  O   UNL     1     -16.072   1.640   0.151  1.00  0.00    -0.744 OA
ENDBRANCH  84  87
ENDBRANCH  56  80
BRANCH  68  91
ATOM     91  C   UNL     1     -12.277   9.811  -4.475  1.00  0.00     0.023 A 
ATOM     92  C   UNL     1     -11.621   9.353  -3.313  1.00  0.00     0.012 A 
ATOM     93  C   UNL     1     -12.094  11.142  -4.881  1.00  0.00     0.148 A 
ATOM     94  C   UNL     1     -10.806  10.209  -2.568  1.00  0.00     0.002 A 
ATOM     95  C   UNL     1     -11.236  11.973  -4.173  1.00  0.00     0.091 A 
ATOM     96  F   UNL     1     -12.730  11.559  -5.987  1.00  0.00    -0.205 F 
ATOM     97  C   UNL     1     -10.598  11.514  -3.009  1.00  0.00     0.022 A 
BRANCH  95  98
ATOM     98  S   UNL     1     -10.802  13.606  -4.773  1.00  0.00     0.127 S 
ATOM     99  O   UNL     1     -11.500  14.475  -3.827  1.00  0.00    -0.237 OA
ATOM    100  O   UNL     1      -9.344  13.607  -4.645  1.00  0.00    -0.237 OA
ATOM    101  O   UNL     1     -11.279  13.669  -6.149  1.00  0.00    -0.744 OA
ENDBRANCH  95  98
ENDBRANCH  68  91
ENDBRANCH  42  43
ENDBRANCH  35  37
ENDBRANCH  34  35
ENDBRANCH  33  34
ENDBRANCH   1  33
TORSDOF 20
