REMARK SMILES Cc1c(CC(=O)OCCOC(=O)c2ccc(-c3c4nc(c(-c5cccc(S(=O)(=O)[O-])c5F)c5ccc([nH]5)c(-c5cccc(S(=O)(=O)[O-])c5F)c5nc(c(-c6cccc(S(=O)(=O)[O-])c6F)c6ccc3[nH]6)C=C5)C=C4)cc2)cc(-c2ccc(S(C)(=O)=O)cc2)n1-c1cccc(F)c1
REMARK SMILES IDX 8 1 7 2 5 3 6 4 4 5 3 6 1 7 2 8 88 9 76 10 77 11 89 12 90 13
REMARK SMILES IDX 95 14 91 15 93 16 92 17 94 18 78 19 79 20 87 21 80 22 86 23
REMARK SMILES IDX 81 24 82 25 83 26 84 27 85 28 9 29 10 30 11 31 12 32 13 33
REMARK SMILES IDX 14 34 75 35 15 36 74 37 16 38 17 39 18 40 68 41 19 42 73 43
REMARK SMILES IDX 67 44 69 45 20 46 72 47 66 48 65 49 21 51 53 52 33 53 52 54
REMARK SMILES IDX 34 55 37 56 51 57 70 58 35 59 36 60 50 62 71 63 38 64 22 65
REMARK SMILES IDX 23 66 31 67 24 68 26 69 32 70 25 71 27 72 28 73 29 74 30 75
REMARK SMILES IDX 54 76 55 77 63 78 56 79 58 80 64 81 57 82 59 83 60 84 61 85
REMARK SMILES IDX 62 86 39 87 40 88 48 89 41 90 43 91 49 92 42 93 44 94 45 95
REMARK SMILES IDX 46 96 47 97
REMARK H PARENT 69 50 37 61
REMARK Flexibility Score: inf
ROOT
ATOM      1  C   UNL     1       0.289  -2.080  -2.371  1.00  0.00     0.274 C 
ENDROOT
BRANCH   1   2
ATOM      2  O   UNL     1       0.470  -1.956  -0.955  1.00  0.00    -0.462 OA
BRANCH   2   3
ATOM      3  C   UNL     1       0.763  -3.060  -0.226  1.00  0.00     0.310 C 
ATOM      4  O   UNL     1       0.734  -4.211  -0.653  1.00  0.00    -0.252 OA
BRANCH   3   5
ATOM      5  C   UNL     1       1.264  -2.705   1.163  1.00  0.00     0.160 C 
BRANCH   5   6
ATOM      6  C   UNL     1       0.663  -1.487   1.824  1.00  0.00    -0.015 A 
ATOM      7  C   UNL     1       1.424   0.426   0.222  1.00  0.00     0.065 C 
ATOM      8  C   UNL     1       0.723  -0.164   1.399  1.00  0.00     0.024 A 
ATOM      9  N   UNL     1       0.059   0.628   2.315  1.00  0.00    -0.313 N 
ATOM     10  C   UNL     1       0.053  -1.453   3.114  1.00  0.00     0.033 A 
ATOM     11  C   UNL     1      -0.246  -0.137   3.434  1.00  0.00     0.053 A 
BRANCH   9  12
ATOM     12  C   UNL     1      -0.165   2.016   2.160  1.00  0.00     0.049 A 
ATOM     13  C   UNL     1       0.451   2.920   3.032  1.00  0.00     0.027 A 
ATOM     14  C   UNL     1      -0.993   2.456   1.124  1.00  0.00     0.065 A 
ATOM     15  C   UNL     1       0.231   4.287   2.865  1.00  0.00     0.005 A 
ATOM     16  C   UNL     1      -1.224   3.818   0.996  1.00  0.00     0.125 A 
ATOM     17  C   UNL     1      -0.617   4.735   1.851  1.00  0.00     0.039 A 
ATOM     18  F   UNL     1      -2.063   4.257   0.050  1.00  0.00    -0.207 F 
ENDBRANCH   9  12
BRANCH  11  19
ATOM     19  C   UNL     1      -0.770   0.419   4.682  1.00  0.00    -0.001 A 
ATOM     20  C   UNL     1      -1.951   1.175   4.700  1.00  0.00     0.011 A 
ATOM     21  C   UNL     1      -0.023   0.283   5.860  1.00  0.00     0.011 A 
ATOM     22  C   UNL     1      -2.348   1.839   5.860  1.00  0.00     0.021 A 
ATOM     23  C   UNL     1      -0.416   0.941   7.027  1.00  0.00     0.021 A 
ATOM     24  C   UNL     1      -1.567   1.735   7.011  1.00  0.00     0.067 A 
BRANCH  24  25
ATOM     25  S   UNL     1      -2.036   2.620   8.478  1.00  0.00     0.175 S 
ATOM     26  C   UNL     1      -1.878   4.328   8.021  1.00  0.00     0.163 C 
ATOM     27  O   UNL     1      -3.471   2.345   8.685  1.00  0.00    -0.224 OA
ATOM     28  O   UNL     1      -1.086   2.343   9.502  1.00  0.00    -0.224 OA
ENDBRANCH  24  25
ENDBRANCH  11  19
ENDBRANCH   5   6
ENDBRANCH   3   5
ENDBRANCH   2   3
ENDBRANCH   1   2
BRANCH   1  29
ATOM     29  C   UNL     1       0.673  -0.759  -3.110  1.00  0.00     0.275 C 
BRANCH  29  30
ATOM     30  O   UNL     1       2.068  -0.204  -3.361  1.00  0.00    -0.458 OA
BRANCH  30  31
ATOM     31  C   UNL     1       3.295  -0.402  -2.757  1.00  0.00     0.338 C 
ATOM     32  O   UNL     1       3.459  -1.253  -1.891  1.00  0.00    -0.246 OA
BRANCH  31  33
ATOM     33  C   UNL     1       4.499   0.549  -3.267  1.00  0.00     0.060 A 
ATOM     34  C   UNL     1       5.902   0.466  -2.990  1.00  0.00     0.016 A 
ATOM     35  C   UNL     1       4.302   1.568  -4.144  1.00  0.00     0.016 A 
ATOM     36  C   UNL     1       7.079   1.296  -3.674  1.00  0.00     0.010 A 
ATOM     37  C   UNL     1       5.459   2.326  -4.738  1.00  0.00     0.010 A 
ATOM     38  C   UNL     1       6.945   2.310  -4.666  1.00  0.00    -0.014 A 
BRANCH  38  39
ATOM     39  C   UNL     1       8.042   2.502  -6.160  1.00  0.00     0.031 A 
ATOM     40  C   UNL     1       7.651   1.210  -6.793  1.00  0.00     0.074 A 
ATOM     41  C   UNL     1       8.841   3.344  -7.164  1.00  0.00     0.049 A 
ATOM     42  N   UNL     1       6.378   0.944  -6.639  1.00  0.00    -0.248 NA
ATOM     43  C   UNL     1       8.129   0.678  -8.044  1.00  0.00     0.031 C 
ATOM     44  C   UNL     1       9.298   4.769  -7.126  1.00  0.00     0.029 A 
ATOM     45  N   UNL     1       9.366   3.098  -8.663  1.00  0.00    -0.354 N 
ATOM     46  C   UNL     1       5.944   1.484  -7.804  1.00  0.00     0.074 A 
ATOM     47  C   UNL     1       6.950   0.792  -8.685  1.00  0.00     0.031 C 
ATOM     48  C   UNL     1       9.922   5.225  -8.272  1.00  0.00     0.029 A 
ATOM     49  C   UNL     1      10.054   4.231  -9.389  1.00  0.00     0.049 A 
ATOM     50  H   UNL     1       9.243   2.224  -9.100  1.00  0.00     0.167 HD
ATOM     51  C   UNL     1       5.336   2.737  -7.992  1.00  0.00     0.034 A 
ATOM     52  C   UNL     1      10.648   4.607 -10.700  1.00  0.00     0.034 A 
ATOM     53  C   UNL     1       4.939   2.892  -9.335  1.00  0.00     0.049 A 
ATOM     54  C   UNL     1       9.269   4.742 -11.267  1.00  0.00     0.074 A 
ATOM     55  C   UNL     1       4.933   2.057 -10.417  1.00  0.00     0.029 A 
ATOM     56  N   UNL     1       4.781   4.159  -9.836  1.00  0.00    -0.354 N 
ATOM     57  N   UNL     1       8.626   5.854 -11.478  1.00  0.00    -0.248 NA
ATOM     58  C   UNL     1       8.704   3.535 -11.893  1.00  0.00     0.031 C 
ATOM     59  C   UNL     1       5.790   2.828 -11.220  1.00  0.00     0.029 A 
ATOM     60  C   UNL     1       5.683   4.187 -10.855  1.00  0.00     0.049 A 
ATOM     61  H   UNL     1       4.169   4.870  -9.534  1.00  0.00     0.167 HD
ATOM     62  C   UNL     1       7.435   5.351 -11.943  1.00  0.00     0.074 A 
ATOM     63  C   UNL     1       7.766   4.132 -12.628  1.00  0.00     0.031 C 
ATOM     64  C   UNL     1       6.370   5.431 -11.105  1.00  0.00     0.034 A 
BRANCH  51  65
ATOM     65  C   UNL     1       4.971   4.030  -7.057  1.00  0.00     0.023 A 
ATOM     66  C   UNL     1       5.827   4.759  -6.172  1.00  0.00     0.012 A 
ATOM     67  C   UNL     1       3.630   4.467  -7.020  1.00  0.00     0.148 A 
ATOM     68  C   UNL     1       5.351   5.622  -5.153  1.00  0.00     0.002 A 
ATOM     69  C   UNL     1       3.182   5.437  -6.107  1.00  0.00     0.091 A 
ATOM     70  F   UNL     1       2.764   3.897  -7.868  1.00  0.00    -0.205 F 
ATOM     71  C   UNL     1       4.013   5.950  -5.112  1.00  0.00     0.022 A 
BRANCH  69  72
ATOM     72  S   UNL     1       1.526   6.100  -6.250  1.00  0.00     0.127 S 
ATOM     73  O   UNL     1       0.766   5.198  -5.388  1.00  0.00    -0.237 OA
ATOM     74  O   UNL     1       1.656   7.465  -5.741  1.00  0.00    -0.237 OA
ATOM     75  O   UNL     1       1.230   6.021  -7.677  1.00  0.00    -0.744 OA
ENDBRANCH  69  72
ENDBRANCH  51  65
BRANCH  52  76
ATOM     76  C   UNL     1      11.338   4.715 -12.343  1.00  0.00     0.023 A 
ATOM     77  C   UNL     1      12.341   5.708 -12.564  1.00  0.00     0.012 A 
ATOM     78  C   UNL     1      10.941   4.134 -13.659  1.00  0.00     0.148 A 
ATOM     79  C   UNL     1      12.904   6.037 -13.865  1.00  0.00     0.002 A 
ATOM     80  C   UNL     1      11.470   4.502 -14.946  1.00  0.00     0.091 A 
ATOM     81  F   UNL     1      10.058   3.137 -13.746  1.00  0.00    -0.205 F 
ATOM     82  C   UNL     1      12.474   5.444 -15.050  1.00  0.00     0.022 A 
BRANCH  80  83
ATOM     83  S   UNL     1      10.855   3.762 -16.522  1.00  0.00     0.127 S 
ATOM     84  O   UNL     1      11.161   4.779 -17.532  1.00  0.00    -0.237 OA
ATOM     85  O   UNL     1      11.671   2.554 -16.632  1.00  0.00    -0.237 OA
ATOM     86  O   UNL     1       9.427   3.549 -16.316  1.00  0.00    -0.744 OA
ENDBRANCH  80  83
ENDBRANCH  52  76
BRANCH  64  87
ATOM     87  C   UNL     1       6.294   6.767 -10.392  1.00  0.00     0.023 A 
ATOM     88  C   UNL     1       5.963   7.838 -11.244  1.00  0.00     0.012 A 
ATOM     89  C   UNL     1       6.743   7.082  -9.083  1.00  0.00     0.148 A 
ATOM     90  C   UNL     1       6.077   9.164 -10.837  1.00  0.00     0.002 A 
ATOM     91  C   UNL     1       6.878   8.422  -8.679  1.00  0.00     0.091 A 
ATOM     92  F   UNL     1       7.059   6.083  -8.256  1.00  0.00    -0.205 F 
ATOM     93  C   UNL     1       6.537   9.458  -9.561  1.00  0.00     0.022 A 
BRANCH  91  94
ATOM     94  S   UNL     1       7.633   8.960  -7.121  1.00  0.00     0.127 S 
ATOM     95  O   UNL     1       8.567  10.001  -7.562  1.00  0.00    -0.237 OA
ATOM     96  O   UNL     1       6.492   9.469  -6.364  1.00  0.00    -0.237 OA
ATOM     97  O   UNL     1       8.287   7.789  -6.551  1.00  0.00    -0.744 OA
ENDBRANCH  91  94
ENDBRANCH  64  87
ENDBRANCH  38  39
ENDBRANCH  31  33
ENDBRANCH  30  31
ENDBRANCH  29  30
ENDBRANCH   1  29
TORSDOF 18
