REMARK SMILES Cn1cc(C[C@@H](NC(=O)OCC2c3ccccc3-c3ccccc32)C(=O)OCCOC(=O)c2ccc(-c3c4nc(c(-c5cccc(S(=O)(=O)[O-])c5F)c5ccc([nH]5)c(-c5cccc(S(=O)(=O)[O-])c5F)c5nc(c(-c6cccc(S(=O)(=O)[O-])c6F)c6ccc3[nH]6)C=C5)C=C4)cc2)c2ccccc21
REMARK SMILES IDX 28 1 27 2 25 3 26 4 6 5 5 6 4 7 1 8 2 9 3 10 101 11 96 12
REMARK SMILES IDX 100 13 97 14 99 15 98 16 7 17 8 18 9 20 10 21 11 22 12 23
REMARK SMILES IDX 13 24 24 25 14 26 18 27 19 28 23 29 15 30 17 31 20 32 22 33
REMARK SMILES IDX 16 34 21 35 29 36 30 37 31 38 32 39 33 40 34 41 95 42 35 43
REMARK SMILES IDX 94 44 36 45 37 46 38 47 88 48 39 49 93 50 87 51 89 52 40 53
REMARK SMILES IDX 92 54 86 55 85 56 41 58 73 59 53 60 72 61 54 62 57 63 71 64
REMARK SMILES IDX 90 65 55 66 56 67 70 69 91 70 58 71 42 72 43 73 51 74 44 75
REMARK SMILES IDX 46 76 52 77 45 78 47 79 48 80 49 81 50 82 74 83 75 84 83 85
REMARK SMILES IDX 76 86 78 87 84 88 77 89 79 90 80 91 81 92 82 93 59 94 60 95
REMARK SMILES IDX 68 96 61 97 63 98 69 99 62 100 64 101 65 102 66 103 67 104
REMARK H PARENT 7 19 89 57 57 68
REMARK Flexibility Score: inf
ROOT
ATOM      1  C   UNL     1       0.171  -7.527   0.212  1.00  0.00     0.274 C 
ENDROOT
BRANCH   1   2
ATOM      2  O   UNL     1       0.101  -6.098   0.054  1.00  0.00    -0.461 OA
BRANCH   2   3
ATOM      3  C   UNL     1      -0.028  -5.386   1.213  1.00  0.00     0.329 C 
ATOM      4  O   UNL     1      -0.023  -5.880   2.335  1.00  0.00    -0.250 OA
BRANCH   3   5
ATOM      5  C   UNL     1      -0.332  -3.909   0.944  1.00  0.00     0.200 C 
BRANCH   5   6
ATOM      6  C   UNL     1       0.314  -3.333  -0.335  1.00  0.00     0.075 C 
BRANCH   6   7
ATOM      7  C   UNL     1       0.490  -1.828  -0.275  1.00  0.00    -0.020 A 
ATOM      8  C   UNL     1       2.425   1.224   0.134  1.00  0.00     0.149 C 
ATOM      9  N   UNL     1       1.424   0.189  -0.007  1.00  0.00    -0.350 N 
ATOM     10  C   UNL     1       1.681  -1.156  -0.059  1.00  0.00     0.090 A 
ATOM     11  C   UNL     1       0.071   0.418  -0.126  1.00  0.00     0.048 A 
ATOM     12  C   UNL     1      -0.527  -0.819  -0.389  1.00  0.00     0.003 A 
ATOM     13  C   UNL     1      -0.673   1.607  -0.033  1.00  0.00     0.027 A 
ATOM     14  C   UNL     1      -1.913  -0.843  -0.651  1.00  0.00     0.010 A 
ATOM     15  C   UNL     1      -2.056   1.534  -0.220  1.00  0.00     0.002 A 
ATOM     16  C   UNL     1      -2.668   0.329  -0.540  1.00  0.00     0.001 A 
ENDBRANCH   6   7
ENDBRANCH   5   6
BRANCH   5  17
ATOM     17  N   UNL     1      -1.755  -3.586   1.052  1.00  0.00    -0.308 N 
ATOM     18  C   UNL     1      -2.797  -4.345   0.630  1.00  0.00     0.407 C 
ATOM     19  H   UNL     1      -1.980  -2.727   1.476  1.00  0.00     0.168 HD
ATOM     20  O   UNL     1      -3.816  -3.835   0.160  1.00  0.00    -0.225 OA
BRANCH  18  21
ATOM     21  O   UNL     1      -2.663  -5.654   0.945  1.00  0.00    -0.449 OA
BRANCH  21  22
ATOM     22  C   UNL     1      -3.891  -6.377   1.144  1.00  0.00     0.248 C 
BRANCH  22  23
ATOM     23  C   UNL     1      -4.394  -6.359   2.609  1.00  0.00     0.088 C 
ATOM     24  C   UNL     1      -3.708  -7.370   3.530  1.00  0.00    -0.029 A 
ATOM     25  C   UNL     1      -4.188  -5.056   3.378  1.00  0.00    -0.029 A 
ATOM     26  C   UNL     1      -3.666  -8.753   3.424  1.00  0.00     0.005 A 
ATOM     27  C   UNL     1      -3.175  -6.712   4.660  1.00  0.00    -0.014 A 
ATOM     28  C   UNL     1      -3.419  -5.293   4.538  1.00  0.00    -0.014 A 
ATOM     29  C   UNL     1      -4.634  -3.779   3.073  1.00  0.00     0.005 A 
ATOM     30  C   UNL     1      -3.089  -9.480   4.471  1.00  0.00     0.000 A 
ATOM     31  C   UNL     1      -2.602  -7.433   5.696  1.00  0.00     0.009 A 
ATOM     32  C   UNL     1      -3.026  -4.244   5.354  1.00  0.00     0.009 A 
ATOM     33  C   UNL     1      -4.220  -2.718   3.881  1.00  0.00     0.000 A 
ATOM     34  C   UNL     1      -2.566  -8.826   5.598  1.00  0.00     0.001 A 
ATOM     35  C   UNL     1      -3.414  -2.947   5.007  1.00  0.00     0.001 A 
ENDBRANCH  22  23
ENDBRANCH  21  22
ENDBRANCH  18  21
ENDBRANCH   5  17
ENDBRANCH   3   5
ENDBRANCH   2   3
ENDBRANCH   1   2
BRANCH   1  36
ATOM     36  C   UNL     1       1.612  -8.046   0.212  1.00  0.00     0.275 C 
BRANCH  36  37
ATOM     37  O   UNL     1       2.343  -7.613   1.371  1.00  0.00    -0.458 OA
BRANCH  37  38
ATOM     38  C   UNL     1       2.937  -6.403   1.243  1.00  0.00     0.338 C 
ATOM     39  O   UNL     1       2.988  -5.714   0.236  1.00  0.00    -0.246 OA
BRANCH  38  40
ATOM     40  C   UNL     1       3.387  -5.918   2.556  1.00  0.00     0.060 A 
ATOM     41  C   UNL     1       2.958  -4.646   2.954  1.00  0.00     0.016 A 
ATOM     42  C   UNL     1       4.273  -6.651   3.346  1.00  0.00     0.016 A 
ATOM     43  C   UNL     1       3.425  -4.089   4.136  1.00  0.00     0.010 A 
ATOM     44  C   UNL     1       4.757  -6.083   4.527  1.00  0.00     0.010 A 
ATOM     45  C   UNL     1       4.355  -4.790   4.910  1.00  0.00    -0.014 A 
BRANCH  45  46
ATOM     46  C   UNL     1       5.006  -4.102   6.045  1.00  0.00     0.031 A 
ATOM     47  C   UNL     1       6.397  -3.565   5.863  1.00  0.00     0.074 A 
ATOM     48  C   UNL     1       4.348  -3.935   7.205  1.00  0.00     0.049 A 
ATOM     49  N   UNL     1       7.173  -2.970   6.729  1.00  0.00    -0.248 NA
ATOM     50  C   UNL     1       6.995  -3.721   4.526  1.00  0.00     0.031 C 
ATOM     51  C   UNL     1       2.985  -4.392   7.475  1.00  0.00     0.029 A 
ATOM     52  N   UNL     1       4.748  -3.351   8.378  1.00  0.00    -0.354 N 
ATOM     53  C   UNL     1       8.364  -2.719   6.058  1.00  0.00     0.074 A 
ATOM     54  C   UNL     1       8.209  -3.225   4.712  1.00  0.00     0.031 C 
ATOM     55  C   UNL     1       2.670  -4.092   8.746  1.00  0.00     0.029 A 
ATOM     56  C   UNL     1       3.817  -3.450   9.384  1.00  0.00     0.049 A 
ATOM     57  H   UNL     1       5.618  -2.903   8.490  1.00  0.00     0.167 HD
ATOM     58  C   UNL     1       9.480  -2.110   6.521  1.00  0.00     0.034 A 
ATOM     59  C   UNL     1       3.895  -3.083  10.678  1.00  0.00     0.034 A 
ATOM     60  C   UNL     1       9.611  -1.583   7.852  1.00  0.00     0.049 A 
ATOM     61  C   UNL     1       5.151  -2.410  11.166  1.00  0.00     0.074 A 
ATOM     62  C   UNL     1      10.690  -0.928   8.417  1.00  0.00     0.029 A 
ATOM     63  N   UNL     1       8.628  -1.653   8.828  1.00  0.00    -0.354 N 
ATOM     64  N   UNL     1       6.238  -2.105  10.500  1.00  0.00    -0.248 NA
ATOM     65  C   UNL     1       5.177  -1.999  12.577  1.00  0.00     0.031 C 
ATOM     66  C   UNL     1      10.364  -0.614   9.741  1.00  0.00     0.029 A 
ATOM     67  C   UNL     1       9.073  -1.052   9.992  1.00  0.00     0.049 A 
ATOM     68  H   UNL     1       7.744  -2.070   8.710  1.00  0.00     0.167 HD
ATOM     69  C   UNL     1       7.062  -1.434  11.396  1.00  0.00     0.074 A 
ATOM     70  C   UNL     1       6.337  -1.361  12.649  1.00  0.00     0.031 C 
ATOM     71  C   UNL     1       8.309  -0.936  11.209  1.00  0.00     0.034 A 
BRANCH  58  72
ATOM     72  C   UNL     1      10.641  -1.969   5.573  1.00  0.00     0.023 A 
ATOM     73  C   UNL     1      10.577  -1.029   4.524  1.00  0.00     0.012 A 
ATOM     74  C   UNL     1      11.809  -2.738   5.742  1.00  0.00     0.148 A 
ATOM     75  C   UNL     1      11.645  -0.878   3.641  1.00  0.00     0.002 A 
ATOM     76  C   UNL     1      12.886  -2.552   4.883  1.00  0.00     0.091 A 
ATOM     77  F   UNL     1      11.840  -3.645   6.729  1.00  0.00    -0.205 F 
ATOM     78  C   UNL     1      12.802  -1.631   3.826  1.00  0.00     0.022 A 
BRANCH  76  79
ATOM     79  S   UNL     1      14.445  -3.421   5.084  1.00  0.00     0.127 S 
ATOM     80  O   UNL     1      14.412  -4.350   3.956  1.00  0.00    -0.237 OA
ATOM     81  O   UNL     1      15.420  -2.338   4.955  1.00  0.00    -0.237 OA
ATOM     82  O   UNL     1      14.394  -4.036   6.403  1.00  0.00    -0.744 OA
ENDBRANCH  76  79
ENDBRANCH  58  72
BRANCH  59  83
ATOM     83  C   UNL     1       2.738  -3.311  11.588  1.00  0.00     0.023 A 
ATOM     84  C   UNL     1       2.008  -2.208  12.074  1.00  0.00     0.012 A 
ATOM     85  C   UNL     1       2.342  -4.612  11.956  1.00  0.00     0.148 A 
ATOM     86  C   UNL     1       0.925  -2.396  12.932  1.00  0.00     0.002 A 
ATOM     87  C   UNL     1       1.228  -4.794  12.767  1.00  0.00     0.091 A 
ATOM     88  F   UNL     1       3.060  -5.648  11.500  1.00  0.00    -0.205 F 
ATOM     89  C   UNL     1       0.527  -3.687  13.270  1.00  0.00     0.022 A 
BRANCH  87  90
ATOM     90  S   UNL     1       0.571  -6.423  13.144  1.00  0.00     0.127 S 
ATOM     91  O   UNL     1       0.949  -6.580  14.546  1.00  0.00    -0.237 OA
ATOM     92  O   UNL     1      -0.862  -6.234  12.910  1.00  0.00    -0.237 OA
ATOM     93  O   UNL     1       1.216  -7.331  12.206  1.00  0.00    -0.744 OA
ENDBRANCH  87  90
ENDBRANCH  59  83
BRANCH  71  94
ATOM     94  C   UNL     1       8.955  -0.224  12.368  1.00  0.00     0.023 A 
ATOM     95  C   UNL     1       9.428  -0.962  13.470  1.00  0.00     0.012 A 
ATOM     96  C   UNL     1       9.154   1.170  12.331  1.00  0.00     0.148 A 
ATOM     97  C   UNL     1      10.056  -0.319  14.536  1.00  0.00     0.002 A 
ATOM     98  C   UNL     1       9.823   1.798  13.374  1.00  0.00     0.091 A 
ATOM     99  F   UNL     1       8.678   1.858  11.283  1.00  0.00    -0.205 F 
ATOM    100  C   UNL     1      10.264   1.058  14.483  1.00  0.00     0.022 A 
BRANCH  98 101
ATOM    101  S   UNL     1      10.218   3.550  13.334  1.00  0.00     0.127 S 
ATOM    102  O   UNL     1       9.197   4.106  14.220  1.00  0.00    -0.237 OA
ATOM    103  O   UNL     1      11.577   3.579  13.877  1.00  0.00    -0.237 OA
ATOM    104  O   UNL     1      10.123   3.946  11.935  1.00  0.00    -0.744 OA
ENDBRANCH  98 101
ENDBRANCH  71  94
ENDBRANCH  45  46
ENDBRANCH  38  40
ENDBRANCH  37  38
ENDBRANCH  36  37
ENDBRANCH   1  36
TORSDOF 20
