REMARK SMILES COc1cc(/C=C/C(=O)OCCOC(=O)c2ccc(-c3c4nc(c(-c5cccc(S(=O)(=O)[O-])c5F)c5ccc([nH]5)c(-c5cccc(S(=O)(=O)[O-])c5F)c5nc(c(-c6cccc(S(=O)(=O)[O-])c6F)c6ccc3[nH]6)C=C5)C=C4)cc2)cc(OC)c1O
REMARK SMILES IDX 12 1 11 2 10 3 8 4 9 5 7 6 6 7 5 8 3 9 4 10 83 11 80 12
REMARK SMILES IDX 79 13 2 14 1 15 84 16 81 18 82 19 13 20 14 21 15 22 16 23
REMARK SMILES IDX 17 24 78 25 18 26 77 27 19 28 20 29 21 30 71 31 22 32 76 33
REMARK SMILES IDX 70 34 72 35 23 36 75 37 69 38 68 39 24 41 56 42 36 43 55 44
REMARK SMILES IDX 37 45 40 46 54 47 73 48 38 49 39 50 53 52 74 53 41 54 25 55
REMARK SMILES IDX 26 56 34 57 27 58 29 59 35 60 28 61 30 62 31 63 32 64 33 65
REMARK SMILES IDX 57 66 58 67 66 68 59 69 61 70 67 71 60 72 62 73 63 74 64 75
REMARK SMILES IDX 65 76 42 77 43 78 51 79 44 80 46 81 52 82 45 83 47 84 48 85
REMARK SMILES IDX 49 86 50 87
REMARK H PARENT 84 17 72 40 40 51
REMARK Flexibility Score: inf
ROOT
ATOM      1  C   UNL     1      -0.766   4.922   8.885  1.00  0.00     0.275 C 
ENDROOT
BRANCH   1   2
ATOM      2  C   UNL     1      -2.136   4.394   8.449  1.00  0.00     0.275 C 
BRANCH   2   3
ATOM      3  O   UNL     1      -2.015   3.393   7.420  1.00  0.00    -0.459 OA
BRANCH   3   4
ATOM      4  C   UNL     1      -2.260   3.821   6.158  1.00  0.00     0.330 C 
ATOM      5  O   UNL     1      -2.652   4.934   5.838  1.00  0.00    -0.247 OA
BRANCH   4   6
ATOM      6  C   UNL     1      -1.954   2.803   5.134  1.00  0.00     0.094 C 
ATOM      7  C   UNL     1      -1.496   1.563   5.365  1.00  0.00     0.016 C 
BRANCH   7   8
ATOM      8  C   UNL     1      -1.132   0.639   4.279  1.00  0.00    -0.018 A 
ATOM      9  C   UNL     1      -0.035   0.181   2.139  1.00  0.00     0.165 A 
ATOM     10  C   UNL     1      -0.437   1.073   3.144  1.00  0.00     0.058 A 
ATOM     11  C   UNL     1      -0.316  -1.185   2.287  1.00  0.00     0.200 A 
ATOM     12  C   UNL     1      -1.026  -1.643   3.410  1.00  0.00     0.165 A 
ATOM     13  C   UNL     1      -1.411  -0.724   4.401  1.00  0.00     0.058 A 
BRANCH   9  14
ATOM     14  O   UNL     1       0.657   0.806   1.138  1.00  0.00    -0.493 OA
ATOM     15  C   UNL     1       0.814   0.174  -0.123  1.00  0.00     0.278 C 
ENDBRANCH   9  14
BRANCH  11  16
ATOM     16  O   UNL     1       0.176  -2.091   1.388  1.00  0.00    -0.502 OA
ATOM     17  H   UNL     1       0.651  -1.795   0.636  1.00  0.00     0.293 HD
ENDBRANCH  11  16
BRANCH  12  18
ATOM     18  O   UNL     1      -1.370  -2.931   3.732  1.00  0.00    -0.493 OA
ATOM     19  C   UNL     1      -1.223  -3.939   2.743  1.00  0.00     0.278 C 
ENDBRANCH  12  18
ENDBRANCH   7   8
ENDBRANCH   4   6
ENDBRANCH   3   4
ENDBRANCH   2   3
ENDBRANCH   1   2
BRANCH   1  20
ATOM     20  O   UNL     1      -0.132   5.701   7.856  1.00  0.00    -0.458 OA
BRANCH  20  21
ATOM     21  C   UNL     1       0.653   5.007   7.002  1.00  0.00     0.338 C 
ATOM     22  O   UNL     1       0.887   3.804   7.027  1.00  0.00    -0.246 OA
BRANCH  21  23
ATOM     23  C   UNL     1       1.137   5.895   5.936  1.00  0.00     0.060 A 
ATOM     24  C   UNL     1       0.889   5.537   4.606  1.00  0.00     0.016 A 
ATOM     25  C   UNL     1       1.888   7.033   6.238  1.00  0.00     0.016 A 
ATOM     26  C   UNL     1       1.402   6.315   3.568  1.00  0.00     0.010 A 
ATOM     27  C   UNL     1       2.401   7.809   5.197  1.00  0.00     0.010 A 
ATOM     28  C   UNL     1       2.175   7.448   3.857  1.00  0.00    -0.014 A 
BRANCH  28  29
ATOM     29  C   UNL     1       2.797   8.242   2.771  1.00  0.00     0.031 A 
ATOM     30  C   UNL     1       4.276   8.134   2.530  1.00  0.00     0.074 A 
ATOM     31  C   UNL     1       2.050   9.098   2.051  1.00  0.00     0.049 A 
ATOM     32  N   UNL     1       5.037   8.838   1.734  1.00  0.00    -0.248 NA
ATOM     33  C   UNL     1       4.994   7.100   3.293  1.00  0.00     0.031 C 
ATOM     34  C   UNL     1       0.606   9.283   2.193  1.00  0.00     0.029 A 
ATOM     35  N   UNL     1       2.412  10.002   1.082  1.00  0.00    -0.354 N 
ATOM     36  C   UNL     1       6.328   8.364   1.928  1.00  0.00     0.074 A 
ATOM     37  C   UNL     1       6.248   7.309   2.916  1.00  0.00     0.031 C 
ATOM     38  C   UNL     1       0.208  10.264   1.366  1.00  0.00     0.029 A 
ATOM     39  C   UNL     1       1.373  10.802   0.666  1.00  0.00     0.049 A 
ATOM     40  H   UNL     1       3.325  10.070   0.721  1.00  0.00     0.167 HD
ATOM     41  C   UNL     1       7.474   8.767   1.330  1.00  0.00     0.034 A 
ATOM     42  C   UNL     1       1.368  11.867  -0.159  1.00  0.00     0.034 A 
ATOM     43  C   UNL     1       7.541   9.796   0.328  1.00  0.00     0.049 A 
ATOM     44  C   UNL     1       2.659  12.305  -0.799  1.00  0.00     0.074 A 
ATOM     45  C   UNL     1       8.649  10.249  -0.367  1.00  0.00     0.029 A 
ATOM     46  N   UNL     1       6.457  10.535  -0.119  1.00  0.00    -0.354 N 
ATOM     47  N   UNL     1       3.856  11.783  -0.681  1.00  0.00    -0.248 NA
ATOM     48  C   UNL     1       2.597  13.460  -1.707  1.00  0.00     0.031 C 
ATOM     49  C   UNL     1       8.236  11.274  -1.224  1.00  0.00     0.029 A 
ATOM     50  C   UNL     1       6.869  11.444  -1.078  1.00  0.00     0.049 A 
ATOM     51  H   UNL     1       5.532  10.430   0.199  1.00  0.00     0.167 HD
ATOM     52  C   UNL     1       4.679  12.517  -1.529  1.00  0.00     0.074 A 
ATOM     53  C   UNL     1       3.842  13.516  -2.161  1.00  0.00     0.031 C 
ATOM     54  C   UNL     1       6.009  12.382  -1.753  1.00  0.00     0.034 A 
BRANCH  41  55
ATOM     55  C   UNL     1       8.751   8.072   1.720  1.00  0.00     0.023 A 
ATOM     56  C   UNL     1       9.002   6.766   1.253  1.00  0.00     0.012 A 
ATOM     57  C   UNL     1       9.727   8.729   2.494  1.00  0.00     0.148 A 
ATOM     58  C   UNL     1      10.192   6.114   1.572  1.00  0.00     0.002 A 
ATOM     59  C   UNL     1      10.928   8.088   2.776  1.00  0.00     0.091 A 
ATOM     60  F   UNL     1       9.461   9.962   2.948  1.00  0.00    -0.205 F 
ATOM     61  C   UNL     1      11.159   6.778   2.323  1.00  0.00     0.022 A 
BRANCH  59  62
ATOM     62  S   UNL     1      12.262   8.889   3.675  1.00  0.00     0.127 S 
ATOM     63  O   UNL     1      12.178   8.228   4.976  1.00  0.00    -0.237 OA
ATOM     64  O   UNL     1      13.436   8.523   2.881  1.00  0.00    -0.237 OA
ATOM     65  O   UNL     1      11.948  10.311   3.670  1.00  0.00    -0.744 OA
ENDBRANCH  59  62
ENDBRANCH  41  55
BRANCH  42  66
ATOM     66  C   UNL     1       0.088  12.572  -0.454  1.00  0.00     0.023 A 
ATOM     67  C   UNL     1      -0.481  12.459  -1.737  1.00  0.00     0.012 A 
ATOM     68  C   UNL     1      -0.582  13.323   0.532  1.00  0.00     0.148 A 
ATOM     69  C   UNL     1      -1.683  13.100  -2.040  1.00  0.00     0.002 A 
ATOM     70  C   UNL     1      -1.805  13.916   0.238  1.00  0.00     0.091 A 
ATOM     71  F   UNL     1      -0.014  13.435   1.741  1.00  0.00    -0.205 F 
ATOM     72  C   UNL     1      -2.350  13.818  -1.051  1.00  0.00     0.022 A 
BRANCH  70  73
ATOM     73  S   UNL     1      -2.791  14.754   1.484  1.00  0.00     0.127 S 
ATOM     74  O   UNL     1      -2.622  16.155   1.107  1.00  0.00    -0.237 OA
ATOM     75  O   UNL     1      -4.125  14.206   1.237  1.00  0.00    -0.237 OA
ATOM     76  O   UNL     1      -2.214  14.367   2.765  1.00  0.00    -0.744 OA
ENDBRANCH  70  73
ENDBRANCH  42  66
BRANCH  54  77
ATOM     77  C   UNL     1       6.651  13.294  -2.764  1.00  0.00     0.023 A 
ATOM     78  C   UNL     1       6.922  14.634  -2.427  1.00  0.00     0.012 A 
ATOM     79  C   UNL     1       7.091  12.787  -4.004  1.00  0.00     0.148 A 
ATOM     80  C   UNL     1       7.607  15.461  -3.316  1.00  0.00     0.002 A 
ATOM     81  C   UNL     1       7.812  13.604  -4.865  1.00  0.00     0.091 A 
ATOM     82  F   UNL     1       6.806  11.513  -4.309  1.00  0.00    -0.205 F 
ATOM     83  C   UNL     1       8.064  14.944  -4.527  1.00  0.00     0.022 A 
BRANCH  81  84
ATOM     84  S   UNL     1       8.522  12.999  -6.401  1.00  0.00     0.127 S 
ATOM     85  O   UNL     1       7.683  13.662  -7.398  1.00  0.00    -0.237 OA
ATOM     86  O   UNL     1       9.894  13.501  -6.327  1.00  0.00    -0.237 OA
ATOM     87  O   UNL     1       8.405  11.548  -6.354  1.00  0.00    -0.744 OA
ENDBRANCH  81  84
ENDBRANCH  54  77
ENDBRANCH  28  29
ENDBRANCH  21  23
ENDBRANCH  20  21
ENDBRANCH   1  20
TORSDOF 18
