REMARK SMILES Cn1ccnc1SCC[C@@H]1CCC[C@]1([NH3+])C(=O)OCCOC(=O)c1ccc(-c2c3nc(c(-c4cccc(S(=O)(=O)[O-])c4F)c4ccc([nH]4)c(-c4cccc(S(=O)(=O)[O-])c4F)c4nc(c(-c5cccc(S(=O)(=O)[O-])c5F)c5ccc2[nH]5)C=C4)C=C3)cc1
REMARK SMILES IDX 19 1 18 2 16 3 17 4 14 5 10 6 11 7 12 8 13 9 9 10 8 11 7 12
REMARK SMILES IDX 6 13 1 14 2 15 3 16 4 17 5 18 15 19 20 23 21 24 22 25 23 26
REMARK SMILES IDX 24 27 25 28 86 29 26 30 85 31 27 32 28 33 29 34 79 35 30 36
REMARK SMILES IDX 84 37 78 38 80 39 31 40 83 41 77 42 76 43 32 45 64 46 44 47
REMARK SMILES IDX 63 48 45 49 48 50 62 51 81 52 46 53 47 54 61 56 82 57 49 58
REMARK SMILES IDX 33 59 34 60 42 61 35 62 37 63 43 64 36 65 38 66 39 67 40 68
REMARK SMILES IDX 41 69 65 70 66 71 74 72 67 73 69 74 75 75 68 76 70 77 71 78
REMARK SMILES IDX 72 79 73 80 50 81 51 82 59 83 52 84 54 85 60 86 53 87 55 88
REMARK SMILES IDX 56 89 57 90 58 91
REMARK H PARENT 15 20 15 21 15 22 80 44 48 55
REMARK Flexibility Score: inf
ROOT
ATOM      1  C   UNL     1       6.627   0.541   1.864  1.00  0.00     0.274 C 
ENDROOT
BRANCH   1   2
ATOM      2  O   UNL     1       5.194   0.571   1.692  1.00  0.00    -0.457 OA
BRANCH   2   3
ATOM      3  C   UNL     1       4.653  -0.540   1.131  1.00  0.00     0.368 C 
ATOM      4  O   UNL     1       5.300  -1.548   0.851  1.00  0.00    -0.245 OA
BRANCH   3   5
ATOM      5  C   UNL     1       3.168  -0.385   0.678  1.00  0.00     0.195 C 
ATOM      6  C   UNL     1       2.307   0.782   1.199  1.00  0.00     0.063 C 
ATOM      7  C   UNL     1       2.060   0.414   2.656  1.00  0.00     0.011 C 
ATOM      8  C   UNL     1       1.719  -1.068   2.565  1.00  0.00     0.008 C 
ATOM      9  C   UNL     1       2.368  -1.582   1.268  1.00  0.00     0.081 C 
BRANCH   6  10
ATOM     10  C   UNL     1       2.697   2.240   0.975  1.00  0.00     0.022 C 
BRANCH  10  11
ATOM     11  C   UNL     1       2.221   2.838  -0.357  1.00  0.00     0.079 C 
BRANCH  11  12
ATOM     12  S   UNL     1       0.446   3.216  -0.576  1.00  0.00    -0.088 SA
BRANCH  12  13
ATOM     13  C   UNL     1      -0.396   1.705  -0.488  1.00  0.00     0.167 A 
ATOM     14  C   UNL     1       0.518   0.570  -2.568  1.00  0.00     0.152 C 
ATOM     15  N   UNL     1      -0.277   0.662  -1.373  1.00  0.00    -0.329 N 
ATOM     16  C   UNL     1      -1.094  -0.349  -0.926  1.00  0.00     0.108 A 
ATOM     17  C   UNL     1      -1.709   0.153   0.195  1.00  0.00     0.132 A 
ATOM     18  N   UNL     1      -1.277   1.429   0.450  1.00  0.00    -0.231 NA
ENDBRANCH  12  13
ENDBRANCH  11  12
ENDBRANCH  10  11
ENDBRANCH   6  10
BRANCH   5  19
ATOM     19  N   UNL     1       3.168  -0.440  -0.815  1.00  0.00    -0.343 N 
ATOM     20  H   UNL     1       2.213  -0.342  -1.158  1.00  0.00     0.345 HD
ATOM     21  H   UNL     1       3.550  -1.334  -1.122  1.00  0.00     0.345 HD
ATOM     22  H   UNL     1       3.741   0.319  -1.183  1.00  0.00     0.345 HD
ENDBRANCH   5  19
ENDBRANCH   3   5
ENDBRANCH   2   3
ENDBRANCH   1   2
BRANCH   1  23
ATOM     23  C   UNL     1       7.019   0.299   3.317  1.00  0.00     0.275 C 
BRANCH  23  24
ATOM     24  O   UNL     1       6.401  -0.905   3.795  1.00  0.00    -0.458 OA
BRANCH  24  25
ATOM     25  C   UNL     1       5.568  -0.746   4.846  1.00  0.00     0.338 C 
ATOM     26  O   UNL     1       5.367   0.293   5.468  1.00  0.00    -0.246 OA
BRANCH  25  27
ATOM     27  C   UNL     1       4.856  -1.999   5.151  1.00  0.00     0.060 A 
ATOM     28  C   UNL     1       4.342  -2.796   4.130  1.00  0.00     0.016 A 
ATOM     29  C   UNL     1       4.541  -2.286   6.479  1.00  0.00     0.016 A 
ATOM     30  C   UNL     1       3.379  -3.766   4.426  1.00  0.00     0.010 A 
ATOM     31  C   UNL     1       3.671  -3.339   6.775  1.00  0.00     0.010 A 
ATOM     32  C   UNL     1       3.013  -4.043   5.752  1.00  0.00    -0.014 A 
BRANCH  32  33
ATOM     33  C   UNL     1       1.895  -4.978   6.094  1.00  0.00     0.031 A 
ATOM     34  C   UNL     1       0.807  -4.528   7.045  1.00  0.00     0.074 A 
ATOM     35  C   UNL     1       1.829  -6.228   5.590  1.00  0.00     0.049 A 
ATOM     36  N   UNL     1      -0.047  -5.245   7.729  1.00  0.00    -0.248 NA
ATOM     37  C   UNL     1       0.688  -3.079   7.279  1.00  0.00     0.031 C 
ATOM     38  C   UNL     1       2.752  -6.807   4.616  1.00  0.00     0.029 A 
ATOM     39  N   UNL     1       0.936  -7.243   5.842  1.00  0.00    -0.354 N 
ATOM     40  C   UNL     1      -0.711  -4.353   8.565  1.00  0.00     0.074 A 
ATOM     41  C   UNL     1      -0.186  -3.035   8.275  1.00  0.00     0.031 C 
ATOM     42  C   UNL     1       2.352  -8.051   4.314  1.00  0.00     0.029 A 
ATOM     43  C   UNL     1       1.216  -8.403   5.157  1.00  0.00     0.049 A 
ATOM     44  H   UNL     1       0.170  -7.149   6.453  1.00  0.00     0.167 HD
ATOM     45  C   UNL     1      -1.669  -4.606   9.490  1.00  0.00     0.034 A 
ATOM     46  C   UNL     1       0.661  -9.630   5.232  1.00  0.00     0.034 A 
ATOM     47  C   UNL     1      -2.287  -5.892   9.678  1.00  0.00     0.049 A 
ATOM     48  C   UNL     1      -0.433  -9.884   6.230  1.00  0.00     0.074 A 
ATOM     49  C   UNL     1      -3.284  -6.249  10.570  1.00  0.00     0.029 A 
ATOM     50  N   UNL     1      -2.001  -7.021   8.927  1.00  0.00    -0.354 N 
ATOM     51  N   UNL     1      -1.009  -9.045   7.056  1.00  0.00    -0.248 NA
ATOM     52  C   UNL     1      -0.948 -11.258   6.312  1.00  0.00     0.031 C 
ATOM     53  C   UNL     1      -3.611  -7.592  10.347  1.00  0.00     0.029 A 
ATOM     54  C   UNL     1      -2.817  -8.070   9.317  1.00  0.00     0.049 A 
ATOM     55  H   UNL     1      -1.318  -7.071   8.221  1.00  0.00     0.167 HD
ATOM     56  C   UNL     1      -1.966  -9.783   7.742  1.00  0.00     0.074 A 
ATOM     57  C   UNL     1      -1.910 -11.132   7.217  1.00  0.00     0.031 C 
ATOM     58  C   UNL     1      -2.796  -9.388   8.739  1.00  0.00     0.034 A 
BRANCH  45  59
ATOM     59  C   UNL     1      -2.126  -3.463  10.359  1.00  0.00     0.023 A 
ATOM     60  C   UNL     1      -2.970  -2.466   9.832  1.00  0.00     0.012 A 
ATOM     61  C   UNL     1      -1.752  -3.400  11.717  1.00  0.00     0.148 A 
ATOM     62  C   UNL     1      -3.405  -1.408  10.632  1.00  0.00     0.002 A 
ATOM     63  C   UNL     1      -2.224  -2.365  12.519  1.00  0.00     0.091 A 
ATOM     64  F   UNL     1      -0.926  -4.340  12.202  1.00  0.00    -0.205 F 
ATOM     65  C   UNL     1      -3.041  -1.363  11.976  1.00  0.00     0.022 A 
BRANCH  63  66
ATOM     66  S   UNL     1      -1.861  -2.296  14.278  1.00  0.00     0.127 S 
ATOM     67  O   UNL     1      -0.674  -1.443  14.307  1.00  0.00    -0.237 OA
ATOM     68  O   UNL     1      -3.067  -1.677  14.831  1.00  0.00    -0.237 OA
ATOM     69  O   UNL     1      -1.663  -3.681  14.684  1.00  0.00    -0.744 OA
ENDBRANCH  63  66
ENDBRANCH  45  59
BRANCH  46  70
ATOM     70  C   UNL     1       1.126 -10.705   4.310  1.00  0.00     0.023 A 
ATOM     71  C   UNL     1       0.264 -11.146   3.288  1.00  0.00     0.012 A 
ATOM     72  C   UNL     1       2.428 -11.237   4.387  1.00  0.00     0.148 A 
ATOM     73  C   UNL     1       0.688 -12.100   2.363  1.00  0.00     0.002 A 
ATOM     74  C   UNL     1       2.866 -12.136   3.422  1.00  0.00     0.091 A 
ATOM     75  F   UNL     1       3.225 -10.828   5.385  1.00  0.00    -0.205 F 
ATOM     76  C   UNL     1       1.993 -12.581   2.418  1.00  0.00     0.022 A 
BRANCH  74  77
ATOM     77  S   UNL     1       4.579 -12.672   3.322  1.00  0.00     0.127 S 
ATOM     78  O   UNL     1       4.490 -14.050   3.796  1.00  0.00    -0.237 OA
ATOM     79  O   UNL     1       4.859 -12.527   1.892  1.00  0.00    -0.237 OA
ATOM     80  O   UNL     1       5.324 -11.753   4.171  1.00  0.00    -0.744 OA
ENDBRANCH  74  77
ENDBRANCH  46  70
BRANCH  58  81
ATOM     81  C   UNL     1      -3.738 -10.415   9.304  1.00  0.00     0.023 A 
ATOM     82  C   UNL     1      -3.249 -11.389  10.197  1.00  0.00     0.012 A 
ATOM     83  C   UNL     1      -5.112 -10.384   8.997  1.00  0.00     0.148 A 
ATOM     84  C   UNL     1      -4.110 -12.332  10.756  1.00  0.00     0.002 A 
ATOM     85  C   UNL     1      -5.970 -11.305   9.586  1.00  0.00     0.091 A 
ATOM     86  F   UNL     1      -5.554  -9.466   8.124  1.00  0.00    -0.205 F 
ATOM     87  C   UNL     1      -5.471 -12.284  10.460  1.00  0.00     0.022 A 
BRANCH  85  88
ATOM     88  S   UNL     1      -7.745 -11.258   9.311  1.00  0.00     0.127 S 
ATOM     89  O   UNL     1      -7.916 -12.277   8.278  1.00  0.00    -0.237 OA
ATOM     90  O   UNL     1      -8.280 -11.624  10.623  1.00  0.00    -0.237 OA
ATOM     91  O   UNL     1      -8.041  -9.889   8.907  1.00  0.00    -0.744 OA
ENDBRANCH  85  88
ENDBRANCH  58  81
ENDBRANCH  32  33
ENDBRANCH  25  27
ENDBRANCH  24  25
ENDBRANCH  23  24
ENDBRANCH   1  23
TORSDOF 19
