REMARK SMILES C[C@H](O)C[C@@H](Cc1cccc(Br)c1)C(=O)OCCOC(=O)c1ccc(-c2c3nc(c(-c4cccc(S(=O)(=O)[O-])c4F)c4ccc([nH]4)c(-c4cccc(S(=O)(=O)[O-])c4F)c4nc(c(-c5cccc(S(=O)(=O)[O-])c5F)c5ccc2[nH]5)C=C4)C=C3)cc1
REMARK SMILES IDX 17 1 16 2 14 3 15 4 5 5 4 6 2 7 1 8 3 9 6 11 7 12 8 13 13 14
REMARK SMILES IDX 9 15 11 16 10 17 12 18 18 19 19 20 20 21 21 22 22 23 23 24
REMARK SMILES IDX 84 25 24 26 83 27 25 28 26 29 27 30 77 31 28 32 82 33 76 34
REMARK SMILES IDX 78 35 29 36 81 37 75 38 74 39 30 41 62 42 42 43 61 44 43 45
REMARK SMILES IDX 46 46 60 47 79 48 44 49 45 50 59 52 80 53 47 54 31 55 32 56
REMARK SMILES IDX 40 57 33 58 35 59 41 60 34 61 36 62 37 63 38 64 39 65 63 66
REMARK SMILES IDX 64 67 72 68 65 69 67 70 73 71 66 72 68 73 69 74 70 75 71 76
REMARK SMILES IDX 48 77 49 78 57 79 50 80 52 81 58 82 51 83 53 84 54 85 55 86
REMARK SMILES IDX 56 87
REMARK H PARENT 3 10 78 40 46 51
REMARK Flexibility Score: inf
ROOT
ATOM      1  C   UNL     1      -5.044   1.058  -1.843  1.00  0.00     0.274 C 
ENDROOT
BRANCH   1   2
ATOM      2  O   UNL     1      -3.612   0.903  -1.899  1.00  0.00    -0.462 OA
BRANCH   2   3
ATOM      3  C   UNL     1      -2.881   1.785  -1.170  1.00  0.00     0.309 C 
ATOM      4  O   UNL     1      -3.347   2.696  -0.496  1.00  0.00    -0.252 OA
BRANCH   3   5
ATOM      5  C   UNL     1      -1.381   1.580  -1.322  1.00  0.00     0.106 C 
BRANCH   5   6
ATOM      6  C   UNL     1      -0.970   0.099  -1.460  1.00  0.00     0.047 C 
BRANCH   6   7
ATOM      7  C   UNL     1       0.543  -0.135  -1.538  1.00  0.00     0.112 C 
ATOM      8  C   UNL     1       0.856  -1.580  -1.904  1.00  0.00     0.038 C 
BRANCH   7   9
ATOM      9  O   UNL     1       1.151   0.129  -0.279  1.00  0.00    -0.393 OA
ATOM     10  H   UNL     1       0.791  -0.477   0.388  1.00  0.00     0.210 HD
ENDBRANCH   7   9
ENDBRANCH   6   7
ENDBRANCH   5   6
BRANCH   5  11
ATOM     11  C   UNL     1      -0.842   2.562  -2.379  1.00  0.00     0.051 C 
BRANCH  11  12
ATOM     12  C   UNL     1      -1.444   2.498  -3.765  1.00  0.00    -0.046 A 
ATOM     13  C   UNL     1      -1.407   1.335  -4.545  1.00  0.00     0.004 A 
ATOM     14  C   UNL     1      -2.028   3.651  -4.316  1.00  0.00     0.019 A 
ATOM     15  C   UNL     1      -1.992   1.301  -5.812  1.00  0.00     0.001 A 
ATOM     16  C   UNL     1      -2.585   3.621  -5.595  1.00  0.00     0.018 A 
ATOM     17  C   UNL     1      -2.583   2.446  -6.340  1.00  0.00     0.016 A 
ATOM     18  Br  UNL     1      -3.339   5.192  -6.327  1.00  0.00    -0.051 Br
ENDBRANCH  11  12
ENDBRANCH   5  11
ENDBRANCH   3   5
ENDBRANCH   2   3
ENDBRANCH   1   2
BRANCH   1  19
ATOM     19  C   UNL     1      -5.691  -0.042  -0.998  1.00  0.00     0.275 C 
BRANCH  19  20
ATOM     20  O   UNL     1      -5.267   0.039   0.373  1.00  0.00    -0.458 OA
BRANCH  20  21
ATOM     21  C   UNL     1      -4.220  -0.755   0.692  1.00  0.00     0.338 C 
ATOM     22  O   UNL     1      -3.651  -1.559  -0.033  1.00  0.00    -0.246 OA
BRANCH  21  23
ATOM     23  C   UNL     1      -3.748  -0.422   2.042  1.00  0.00     0.060 A 
ATOM     24  C   UNL     1      -2.530   0.249   2.168  1.00  0.00     0.016 A 
ATOM     25  C   UNL     1      -4.449  -0.843   3.172  1.00  0.00     0.016 A 
ATOM     26  C   UNL     1      -1.987   0.482   3.425  1.00  0.00     0.010 A 
ATOM     27  C   UNL     1      -3.909  -0.596   4.437  1.00  0.00     0.010 A 
ATOM     28  C   UNL     1      -2.667   0.050   4.569  1.00  0.00    -0.014 A 
BRANCH  28  29
ATOM     29  C   UNL     1      -2.046   0.235   5.900  1.00  0.00     0.031 A 
ATOM     30  C   UNL     1      -1.478  -0.949   6.627  1.00  0.00     0.074 A 
ATOM     31  C   UNL     1      -1.996   1.463   6.447  1.00  0.00     0.049 A 
ATOM     32  N   UNL     1      -0.963  -1.009   7.826  1.00  0.00    -0.248 NA
ATOM     33  C   UNL     1      -1.495  -2.236   5.912  1.00  0.00     0.031 C 
ATOM     34  C   UNL     1      -2.507   2.685   5.824  1.00  0.00     0.029 A 
ATOM     35  N   UNL     1      -1.511   1.881   7.660  1.00  0.00    -0.354 N 
ATOM     36  C   UNL     1      -0.637  -2.343   8.031  1.00  0.00     0.074 A 
ATOM     37  C   UNL     1      -1.007  -3.060   6.830  1.00  0.00     0.031 C 
ATOM     38  C   UNL     1      -2.328   3.713   6.669  1.00  0.00     0.029 A 
ATOM     39  C   UNL     1      -1.723   3.217   7.902  1.00  0.00     0.049 A 
ATOM     40  H   UNL     1      -1.055   1.282   8.295  1.00  0.00     0.167 HD
ATOM     41  C   UNL     1      -0.069  -2.916   9.118  1.00  0.00     0.034 A 
ATOM     42  C   UNL     1      -1.482   3.952   9.005  1.00  0.00     0.034 A 
ATOM     43  C   UNL     1       0.340  -2.189  10.290  1.00  0.00     0.049 A 
ATOM     44  C   UNL     1      -0.843   3.292  10.197  1.00  0.00     0.074 A 
ATOM     45  C   UNL     1       0.968  -2.671  11.425  1.00  0.00     0.029 A 
ATOM     46  N   UNL     1       0.163  -0.827  10.477  1.00  0.00    -0.354 N 
ATOM     47  N   UNL     1      -0.452   2.048  10.338  1.00  0.00    -0.248 NA
ATOM     48  C   UNL     1      -0.589   4.139  11.370  1.00  0.00     0.031 C 
ATOM     49  C   UNL     1       1.162  -1.599  12.304  1.00  0.00     0.029 A 
ATOM     50  C   UNL     1       0.664  -0.450  11.711  1.00  0.00     0.049 A 
ATOM     51  H   UNL     1      -0.257  -0.218   9.828  1.00  0.00     0.167 HD
ATOM     52  C   UNL     1       0.114   1.968  11.605  1.00  0.00     0.074 A 
ATOM     53  C   UNL     1       0.039   3.295  12.180  1.00  0.00     0.031 C 
ATOM     54  C   UNL     1       0.630   0.889  12.243  1.00  0.00     0.034 A 
BRANCH  41  55
ATOM     55  C   UNL     1       0.173  -4.399   9.080  1.00  0.00     0.023 A 
ATOM     56  C   UNL     1       1.249  -4.908   8.326  1.00  0.00     0.012 A 
ATOM     57  C   UNL     1      -0.628  -5.283   9.829  1.00  0.00     0.148 A 
ATOM     58  C   UNL     1       1.512  -6.277   8.300  1.00  0.00     0.002 A 
ATOM     59  C   UNL     1      -0.339  -6.643   9.826  1.00  0.00     0.091 A 
ATOM     60  F   UNL     1      -1.664  -4.781  10.517  1.00  0.00    -0.205 F 
ATOM     61  C   UNL     1       0.725  -7.142   9.058  1.00  0.00     0.022 A 
BRANCH  59  62
ATOM     62  S   UNL     1      -1.256  -7.824  10.822  1.00  0.00     0.127 S 
ATOM     63  O   UNL     1      -2.076  -8.489   9.811  1.00  0.00    -0.237 OA
ATOM     64  O   UNL     1      -0.189  -8.654  11.382  1.00  0.00    -0.237 OA
ATOM     65  O   UNL     1      -1.986  -7.035  11.805  1.00  0.00    -0.744 OA
ENDBRANCH  59  62
ENDBRANCH  41  55
BRANCH  42  66
ATOM     66  C   UNL     1      -1.817   5.404   9.012  1.00  0.00     0.023 A 
ATOM     67  C   UNL     1      -0.778   6.354   8.999  1.00  0.00     0.012 A 
ATOM     68  C   UNL     1      -3.154   5.846   8.984  1.00  0.00     0.148 A 
ATOM     69  C   UNL     1      -1.066   7.719   8.977  1.00  0.00     0.002 A 
ATOM     70  C   UNL     1      -3.433   7.206   8.907  1.00  0.00     0.091 A 
ATOM     71  F   UNL     1      -4.130   4.927   9.022  1.00  0.00    -0.205 F 
ATOM     72  C   UNL     1      -2.390   8.145   8.917  1.00  0.00     0.022 A 
BRANCH  70  73
ATOM     73  S   UNL     1      -5.105   7.826   8.690  1.00  0.00     0.127 S 
ATOM     74  O   UNL     1      -5.422   8.310  10.030  1.00  0.00    -0.237 OA
ATOM     75  O   UNL     1      -4.916   8.874   7.685  1.00  0.00    -0.237 OA
ATOM     76  O   UNL     1      -5.882   6.686   8.221  1.00  0.00    -0.744 OA
ENDBRANCH  70  73
ENDBRANCH  42  66
BRANCH  54  77
ATOM     77  C   UNL     1       1.171   1.095  13.633  1.00  0.00     0.023 A 
ATOM     78  C   UNL     1       0.274   1.244  14.709  1.00  0.00     0.012 A 
ATOM     79  C   UNL     1       2.556   1.061  13.884  1.00  0.00     0.148 A 
ATOM     80  C   UNL     1       0.749   1.379  16.012  1.00  0.00     0.002 A 
ATOM     81  C   UNL     1       3.021   1.155  15.191  1.00  0.00     0.091 A 
ATOM     82  F   UNL     1       3.394   0.942  12.843  1.00  0.00    -0.205 F 
ATOM     83  C   UNL     1       2.120   1.322  16.255  1.00  0.00     0.022 A 
BRANCH  81  84
ATOM     84  S   UNL     1       4.764   1.002  15.595  1.00  0.00     0.127 S 
ATOM     85  O   UNL     1       5.148   2.398  15.796  1.00  0.00    -0.237 OA
ATOM     86  O   UNL     1       4.736   0.196  16.817  1.00  0.00    -0.237 OA
ATOM     87  O   UNL     1       5.378   0.337  14.454  1.00  0.00    -0.744 OA
ENDBRANCH  81  84
ENDBRANCH  54  77
ENDBRANCH  28  29
ENDBRANCH  21  23
ENDBRANCH  20  21
ENDBRANCH  19  20
ENDBRANCH   1  19
TORSDOF 19
