REMARK SMILES C=Cc1cccc(-c2ccc([C@@H](C)C(=O)OCCOC(=O)c3ccc(-c4c5nc(c(-c6cccc(S(=O)(=O)[O-])c6F)c6ccc([nH]6)c(-c6cccc(S(=O)(=O)[O-])c6F)c6nc(c(-c7cccc(S(=O)(=O)[O-])c7F)c7ccc4[nH]7)C=C6)C=C5)cc3)cc2)c1
REMARK SMILES IDX 17 1 16 2 14 3 15 4 12 5 13 6 11 7 8 8 9 9 86 10 10 11 85 12
REMARK SMILES IDX 7 13 3 14 4 15 87 16 5 17 6 18 2 19 1 20 18 21 19 22 20 23
REMARK SMILES IDX 21 24 22 25 23 26 84 27 24 28 83 29 25 30 26 31 27 32 77 33
REMARK SMILES IDX 28 34 82 35 76 36 78 37 29 38 81 39 75 40 74 41 30 43 62 44
REMARK SMILES IDX 42 45 61 46 43 47 46 48 60 49 79 50 44 51 45 52 59 54 80 55
REMARK SMILES IDX 47 56 31 57 32 58 40 59 33 60 35 61 41 62 34 63 36 64 37 65
REMARK SMILES IDX 38 66 39 67 63 68 64 69 72 70 65 71 67 72 73 73 66 74 68 75
REMARK SMILES IDX 69 76 70 77 71 78 48 79 49 80 57 81 50 82 52 83 58 84 51 85
REMARK SMILES IDX 53 86 54 87 55 88 56 89
REMARK H PARENT 78 42 46 53
REMARK Flexibility Score: inf
ROOT
ATOM      1  C   UNL     1      -6.654  -6.417   2.058  1.00  0.00     0.274 C 
ENDROOT
BRANCH   1   2
ATOM      2  O   UNL     1      -6.669  -5.030   2.447  1.00  0.00    -0.462 OA
BRANCH   2   3
ATOM      3  C   UNL     1      -6.940  -4.768   3.752  1.00  0.00     0.313 C 
ATOM      4  O   UNL     1      -7.261  -5.621   4.574  1.00  0.00    -0.252 OA
BRANCH   3   5
ATOM      5  C   UNL     1      -6.880  -3.289   4.111  1.00  0.00     0.126 C 
ATOM      6  C   UNL     1      -8.297  -2.718   4.170  1.00  0.00     0.025 C 
BRANCH   5   7
ATOM      7  C   UNL     1      -5.946  -2.425   3.277  1.00  0.00    -0.034 A 
ATOM      8  C   UNL     1      -4.232  -0.697   1.803  1.00  0.00    -0.018 A 
ATOM      9  C   UNL     1      -5.375  -1.263   1.217  1.00  0.00     0.009 A 
ATOM     10  C   UNL     1      -3.941  -1.042   3.129  1.00  0.00     0.009 A 
ATOM     11  C   UNL     1      -6.221  -2.110   1.941  1.00  0.00     0.005 A 
ATOM     12  C   UNL     1      -4.785  -1.890   3.856  1.00  0.00     0.005 A 
BRANCH   8  13
ATOM     13  C   UNL     1      -3.402   0.274   1.068  1.00  0.00    -0.018 A 
ATOM     14  C   UNL     1      -1.221   1.096   0.310  1.00  0.00    -0.026 A 
ATOM     15  C   UNL     1      -1.848   2.205  -0.270  1.00  0.00     0.008 A 
ATOM     16  C   UNL     1      -2.004   0.144   0.983  1.00  0.00     0.016 A 
ATOM     17  C   UNL     1      -3.232   2.349  -0.204  1.00  0.00     0.001 A 
ATOM     18  C   UNL     1      -3.999   1.391   0.458  1.00  0.00     0.009 A 
BRANCH  14  19
ATOM     19  C   UNL     1       0.243   1.009   0.248  1.00  0.00     0.000 C 
ATOM     20  C   UNL     1       0.922  -0.126   0.040  1.00  0.00     0.009 C 
ENDBRANCH  14  19
ENDBRANCH   8  13
ENDBRANCH   5   7
ENDBRANCH   3   5
ENDBRANCH   2   3
ENDBRANCH   1   2
BRANCH   1  21
ATOM     21  C   UNL     1      -5.221  -6.935   1.928  1.00  0.00     0.275 C 
BRANCH  21  22
ATOM     22  O   UNL     1      -4.576  -7.001   3.212  1.00  0.00    -0.458 OA
BRANCH  22  23
ATOM     23  C   UNL     1      -3.770  -5.954   3.505  1.00  0.00     0.338 C 
ATOM     24  O   UNL     1      -3.497  -5.005   2.793  1.00  0.00    -0.246 OA
BRANCH  23  25
ATOM     25  C   UNL     1      -3.320  -6.065   4.899  1.00  0.00     0.060 A 
ATOM     26  C   UNL     1      -3.848  -5.178   5.839  1.00  0.00     0.016 A 
ATOM     27  C   UNL     1      -2.325  -6.974   5.257  1.00  0.00     0.016 A 
ATOM     28  C   UNL     1      -3.368  -5.179   7.146  1.00  0.00     0.010 A 
ATOM     29  C   UNL     1      -1.854  -6.985   6.573  1.00  0.00     0.010 A 
ATOM     30  C   UNL     1      -2.359  -6.075   7.520  1.00  0.00    -0.014 A 
BRANCH  30  31
ATOM     31  C   UNL     1      -1.808  -6.038   8.896  1.00  0.00     0.031 A 
ATOM     32  C   UNL     1      -0.429  -5.493   9.136  1.00  0.00     0.074 A 
ATOM     33  C   UNL     1      -2.541  -6.511   9.921  1.00  0.00     0.049 A 
ATOM     34  N   UNL     1       0.254  -5.441  10.249  1.00  0.00    -0.248 NA
ATOM     35  C   UNL     1       0.277  -4.937   7.969  1.00  0.00     0.031 C 
ATOM     36  C   UNL     1      -3.890  -7.066   9.807  1.00  0.00     0.029 A 
ATOM     37  N   UNL     1      -2.243  -6.623  11.255  1.00  0.00    -0.354 N 
ATOM     38  C   UNL     1       1.484  -4.889   9.914  1.00  0.00     0.074 A 
ATOM     39  C   UNL     1       1.453  -4.620   8.492  1.00  0.00     0.031 C 
ATOM     40  C   UNL     1      -4.295  -7.480  11.019  1.00  0.00     0.029 A 
ATOM     41  C   UNL     1      -3.225  -7.248  11.986  1.00  0.00     0.049 A 
ATOM     42  H   UNL     1      -1.406  -6.288  11.652  1.00  0.00     0.167 HD
ATOM     43  C   UNL     1       2.537  -4.618  10.720  1.00  0.00     0.034 A 
ATOM     44  C   UNL     1      -3.251  -7.615  13.282  1.00  0.00     0.034 A 
ATOM     45  C   UNL     1       2.547  -4.846  12.140  1.00  0.00     0.049 A 
ATOM     46  C   UNL     1      -2.069  -7.294  14.157  1.00  0.00     0.074 A 
ATOM     47  C   UNL     1       3.546  -4.553  13.052  1.00  0.00     0.029 A 
ATOM     48  N   UNL     1       1.509  -5.423  12.856  1.00  0.00    -0.354 N 
ATOM     49  N   UNL     1      -0.959  -6.668  13.847  1.00  0.00    -0.248 NA
ATOM     50  C   UNL     1      -2.153  -7.704  15.566  1.00  0.00     0.031 C 
ATOM     51  C   UNL     1       3.116  -4.962  14.319  1.00  0.00     0.029 A 
ATOM     52  C   UNL     1       1.846  -5.502  14.197  1.00  0.00     0.049 A 
ATOM     53  H   UNL     1       0.659  -5.732  12.468  1.00  0.00     0.167 HD
ATOM     54  C   UNL     1      -0.225  -6.588  15.024  1.00  0.00     0.074 A 
ATOM     55  C   UNL     1      -1.027  -7.206  16.060  1.00  0.00     0.031 C 
ATOM     56  C   UNL     1       1.012  -6.068  15.226  1.00  0.00     0.034 A 
BRANCH  43  57
ATOM     57  C   UNL     1       3.759  -4.005  10.092  1.00  0.00     0.023 A 
ATOM     58  C   UNL     1       3.749  -2.640   9.746  1.00  0.00     0.012 A 
ATOM     59  C   UNL     1       4.932  -4.761   9.901  1.00  0.00     0.148 A 
ATOM     60  C   UNL     1       4.882  -2.039   9.198  1.00  0.00     0.002 A 
ATOM     61  C   UNL     1       6.069  -4.147   9.386  1.00  0.00     0.091 A 
ATOM     62  F   UNL     1       4.912  -6.065  10.212  1.00  0.00    -0.205 F 
ATOM     63  C   UNL     1       6.043  -2.789   9.028  1.00  0.00     0.022 A 
BRANCH  61  64
ATOM     64  S   UNL     1       7.629  -5.016   9.193  1.00  0.00     0.127 S 
ATOM     65  O   UNL     1       7.673  -5.226   7.747  1.00  0.00    -0.237 OA
ATOM     66  O   UNL     1       8.595  -4.038   9.695  1.00  0.00    -0.237 OA
ATOM     67  O   UNL     1       7.516  -6.223  10.001  1.00  0.00    -0.744 OA
ENDBRANCH  61  64
ENDBRANCH  43  57
BRANCH  44  68
ATOM     68  C   UNL     1      -4.457  -8.291  13.836  1.00  0.00     0.023 A 
ATOM     69  C   UNL     1      -5.286  -7.597  14.737  1.00  0.00     0.012 A 
ATOM     70  C   UNL     1      -4.808  -9.599  13.446  1.00  0.00     0.148 A 
ATOM     71  C   UNL     1      -6.433  -8.200  15.256  1.00  0.00     0.002 A 
ATOM     72  C   UNL     1      -5.980 -10.173  13.925  1.00  0.00     0.091 A 
ATOM     73  F   UNL     1      -3.993 -10.254  12.607  1.00  0.00    -0.205 F 
ATOM     74  C   UNL     1      -6.787  -9.481  14.841  1.00  0.00     0.022 A 
BRANCH  72  75
ATOM     75  S   UNL     1      -6.571 -11.764  13.334  1.00  0.00     0.127 S 
ATOM     76  O   UNL     1      -6.194 -12.650  14.431  1.00  0.00    -0.237 OA
ATOM     77  O   UNL     1      -8.009 -11.528  13.198  1.00  0.00    -0.237 OA
ATOM     78  O   UNL     1      -5.883 -11.983  12.068  1.00  0.00    -0.744 OA
ENDBRANCH  72  75
ENDBRANCH  44  68
BRANCH  56  79
ATOM     79  C   UNL     1       1.573  -6.126  16.621  1.00  0.00     0.023 A 
ATOM     80  C   UNL     1       2.056  -7.351  17.122  1.00  0.00     0.012 A 
ATOM     81  C   UNL     1       1.694  -4.961  17.402  1.00  0.00     0.148 A 
ATOM     82  C   UNL     1       2.631  -7.419  18.390  1.00  0.00     0.002 A 
ATOM     83  C   UNL     1       2.306  -5.029  18.649  1.00  0.00     0.091 A 
ATOM     84  F   UNL     1       1.208  -3.809  16.917  1.00  0.00    -0.205 F 
ATOM     85  C   UNL     1       2.767  -6.258  19.148  1.00  0.00     0.022 A 
BRANCH  83  86
ATOM     86  S   UNL     1       2.599  -3.566  19.650  1.00  0.00     0.127 S 
ATOM     87  O   UNL     1       1.524  -3.657  20.635  1.00  0.00    -0.237 OA
ATOM     88  O   UNL     1       3.939  -3.812  20.185  1.00  0.00    -0.237 OA
ATOM     89  O   UNL     1       2.519  -2.437  18.731  1.00  0.00    -0.744 OA
ENDBRANCH  83  86
ENDBRANCH  56  79
ENDBRANCH  30  31
ENDBRANCH  23  25
ENDBRANCH  22  23
ENDBRANCH  21  22
ENDBRANCH   1  21
TORSDOF 17
