REMARK SMILES COC(=O)C[C@@H](NC(=O)c1ccccc1C(=O)OCCOC(=O)c1ccc(-c2c3nc(c(-c4cccc(S(=O)(=O)[O-])c4F)c4ccc([nH]4)c(-c4cccc(S(=O)(=O)[O-])c4F)c4nc(c(-c5cccc(S(=O)(=O)[O-])c5F)c5ccc2[nH]5)C=C4)C=C3)cc1)c1cccc(C)c1C
REMARK SMILES IDX 19 1 18 2 16 3 17 4 15 5 10 6 11 7 12 8 14 9 13 10 8 11 7 12
REMARK SMILES IDX 9 14 6 15 5 16 3 17 4 18 2 19 1 20 87 21 88 22 93 23 89 24
REMARK SMILES IDX 91 25 94 26 90 27 92 28 20 29 21 30 22 31 23 32 24 33 25 34
REMARK SMILES IDX 86 35 26 36 85 37 27 38 28 39 29 40 79 41 30 42 84 43 78 44
REMARK SMILES IDX 80 45 31 46 83 47 77 48 76 49 32 51 64 52 44 53 63 54 45 55
REMARK SMILES IDX 48 56 62 57 81 58 46 59 47 60 61 62 82 63 49 64 33 65 34 66
REMARK SMILES IDX 42 67 35 68 37 69 43 70 36 71 38 72 39 73 40 74 41 75 65 76
REMARK SMILES IDX 66 77 74 78 67 79 69 80 75 81 68 82 70 83 71 84 72 85 73 86
REMARK SMILES IDX 50 87 51 88 59 89 52 90 54 91 60 92 53 93 55 94 56 95 57 96
REMARK SMILES IDX 58 97
REMARK H PARENT 7 13 80 50 48 61
REMARK Flexibility Score: inf
ROOT
ATOM      1  C   UNL     1       3.324  -3.075   3.425  1.00  0.00     0.275 C 
ENDROOT
BRANCH   1   2
ATOM      2  O   UNL     1       2.144  -3.231   4.242  1.00  0.00    -0.458 OA
BRANCH   2   3
ATOM      3  C   UNL     1       1.532  -4.422   4.072  1.00  0.00     0.339 C 
ATOM      4  O   UNL     1       1.943  -5.318   3.348  1.00  0.00    -0.246 OA
BRANCH   3   5
ATOM      5  C   UNL     1       0.276  -4.550   4.816  1.00  0.00     0.072 A 
ATOM      6  C   UNL     1      -0.820  -3.745   4.534  1.00  0.00     0.054 A 
ATOM      7  C   UNL     1      -2.038  -3.959   5.209  1.00  0.00     0.015 A 
ATOM      8  C   UNL     1      -2.183  -5.024   6.098  1.00  0.00     0.001 A 
ATOM      9  C   UNL     1       0.126  -5.608   5.728  1.00  0.00     0.016 A 
ATOM     10  C   UNL     1      -1.100  -5.856   6.352  1.00  0.00     0.001 A 
BRANCH   6  11
ATOM     11  C   UNL     1      -0.809  -2.642   3.569  1.00  0.00     0.252 C 
ATOM     12  N   UNL     1      -0.677  -2.816   2.220  1.00  0.00    -0.345 N 
ATOM     13  H   UNL     1      -1.070  -2.066   1.717  1.00  0.00     0.164 HD
ATOM     14  O   UNL     1      -1.074  -1.513   3.986  1.00  0.00    -0.269 OA
BRANCH  12  15
ATOM     15  C   UNL     1      -0.096  -3.840   1.312  1.00  0.00     0.124 C 
BRANCH  15  16
ATOM     16  C   UNL     1      -0.347  -3.409  -0.140  1.00  0.00     0.152 C 
BRANCH  16  17
ATOM     17  C   UNL     1       0.569  -2.267  -0.501  1.00  0.00     0.307 C 
ATOM     18  O   UNL     1       1.537  -2.361  -1.243  1.00  0.00    -0.252 OA
BRANCH  17  19
ATOM     19  O   UNL     1       0.172  -1.121   0.124  1.00  0.00    -0.469 OA
ATOM     20  C   UNL     1       1.017   0.009  -0.114  1.00  0.00     0.282 C 
ENDBRANCH  17  19
ENDBRANCH  16  17
ENDBRANCH  15  16
BRANCH  15  21
ATOM     21  C   UNL     1      -0.526  -5.292   1.519  1.00  0.00    -0.022 A 
ATOM     22  C   UNL     1      -1.749  -5.590   2.139  1.00  0.00     0.006 A 
ATOM     23  C   UNL     1       0.332  -6.377   1.158  1.00  0.00    -0.043 A 
ATOM     24  C   UNL     1      -2.042  -6.884   2.564  1.00  0.00     0.001 A 
ATOM     25  C   UNL     1       0.014  -7.696   1.575  1.00  0.00    -0.048 A 
ATOM     26  C   UNL     1       1.585  -6.179   0.331  1.00  0.00     0.045 C 
ATOM     27  C   UNL     1      -1.151  -7.922   2.316  1.00  0.00     0.004 A 
ATOM     28  C   UNL     1       0.945  -8.862   1.342  1.00  0.00     0.044 C 
ENDBRANCH  15  21
ENDBRANCH  12  15
ENDBRANCH   6  11
ENDBRANCH   3   5
ENDBRANCH   2   3
ENDBRANCH   1   2
BRANCH   1  29
ATOM     29  C   UNL     1       4.604  -3.591   4.093  1.00  0.00     0.275 C 
BRANCH  29  30
ATOM     30  O   UNL     1       4.603  -5.020   4.269  1.00  0.00    -0.458 OA
BRANCH  30  31
ATOM     31  C   UNL     1       4.234  -5.433   5.504  1.00  0.00     0.338 C 
ATOM     32  O   UNL     1       3.934  -4.729   6.452  1.00  0.00    -0.246 OA
BRANCH  31  33
ATOM     33  C   UNL     1       4.180  -6.902   5.593  1.00  0.00     0.060 A 
ATOM     34  C   UNL     1       3.051  -7.571   5.125  1.00  0.00     0.016 A 
ATOM     35  C   UNL     1       5.111  -7.575   6.380  1.00  0.00     0.016 A 
ATOM     36  C   UNL     1       2.762  -8.853   5.567  1.00  0.00     0.010 A 
ATOM     37  C   UNL     1       4.883  -8.912   6.716  1.00  0.00     0.010 A 
ATOM     38  C   UNL     1       3.677  -9.545   6.362  1.00  0.00    -0.014 A 
BRANCH  38  39
ATOM     39  C   UNL     1       3.348 -10.902   6.863  1.00  0.00     0.031 A 
ATOM     40  C   UNL     1       3.350 -11.170   8.342  1.00  0.00     0.074 A 
ATOM     41  C   UNL     1       3.055 -11.889   5.994  1.00  0.00     0.049 A 
ATOM     42  N   UNL     1       3.328 -12.312   8.976  1.00  0.00    -0.248 NA
ATOM     43  C   UNL     1       3.406  -9.994   9.227  1.00  0.00     0.031 C 
ATOM     44  C   UNL     1       2.972 -11.742   4.539  1.00  0.00     0.029 A 
ATOM     45  N   UNL     1       2.794 -13.220   6.207  1.00  0.00    -0.354 N 
ATOM     46  C   UNL     1       3.464 -12.000  10.323  1.00  0.00     0.074 A 
ATOM     47  C   UNL     1       3.547 -10.559  10.418  1.00  0.00     0.031 C 
ATOM     48  C   UNL     1       2.680 -12.929   3.990  1.00  0.00     0.029 A 
ATOM     49  C   UNL     1       2.657 -13.937   5.042  1.00  0.00     0.049 A 
ATOM     50  H   UNL     1       2.714 -13.620   7.103  1.00  0.00     0.167 HD
ATOM     51  C   UNL     1       3.517 -12.843  11.382  1.00  0.00     0.034 A 
ATOM     52  C   UNL     1       2.592 -15.265   4.833  1.00  0.00     0.034 A 
ATOM     53  C   UNL     1       3.364 -14.270  11.270  1.00  0.00     0.049 A 
ATOM     54  C   UNL     1       2.652 -16.182   6.019  1.00  0.00     0.074 A 
ATOM     55  C   UNL     1       3.361 -15.219  12.275  1.00  0.00     0.029 A 
ATOM     56  N   UNL     1       3.179 -14.951  10.075  1.00  0.00    -0.354 N 
ATOM     57  N   UNL     1       2.762 -15.877   7.290  1.00  0.00    -0.248 NA
ATOM     58  C   UNL     1       2.569 -17.622   5.747  1.00  0.00     0.031 C 
ATOM     59  C   UNL     1       3.193 -16.477  11.685  1.00  0.00     0.029 A 
ATOM     60  C   UNL     1       3.064 -16.309  10.315  1.00  0.00     0.049 A 
ATOM     61  H   UNL     1       3.137 -14.530   9.186  1.00  0.00     0.167 HD
ATOM     62  C   UNL     1       2.742 -17.085   7.974  1.00  0.00     0.074 A 
ATOM     63  C   UNL     1       2.582 -18.125   6.975  1.00  0.00     0.031 C 
ATOM     64  C   UNL     1       2.862 -17.318   9.305  1.00  0.00     0.034 A 
BRANCH  51  65
ATOM     65  C   UNL     1       3.753 -12.242  12.745  1.00  0.00     0.023 A 
ATOM     66  C   UNL     1       2.742 -11.488  13.373  1.00  0.00     0.012 A 
ATOM     67  C   UNL     1       4.979 -12.441  13.413  1.00  0.00     0.148 A 
ATOM     68  C   UNL     1       2.962 -10.904  14.621  1.00  0.00     0.002 A 
ATOM     69  C   UNL     1       5.173 -11.895  14.677  1.00  0.00     0.091 A 
ATOM     70  F   UNL     1       5.940 -13.139  12.792  1.00  0.00    -0.205 F 
ATOM     71  C   UNL     1       4.172 -11.114  15.276  1.00  0.00     0.022 A 
BRANCH  69  72
ATOM     72  S   UNL     1       6.670 -12.178  15.630  1.00  0.00     0.127 S 
ATOM     73  O   UNL     1       7.341 -10.884  15.520  1.00  0.00    -0.237 OA
ATOM     74  O   UNL     1       6.137 -12.476  16.961  1.00  0.00    -0.237 OA
ATOM     75  O   UNL     1       7.348 -13.295  14.987  1.00  0.00    -0.744 OA
ENDBRANCH  69  72
ENDBRANCH  51  65
BRANCH  52  76
ATOM     76  C   UNL     1       2.475 -15.783   3.441  1.00  0.00     0.023 A 
ATOM     77  C   UNL     1       1.268 -16.371   3.019  1.00  0.00     0.012 A 
ATOM     78  C   UNL     1       3.523 -15.620   2.512  1.00  0.00     0.148 A 
ATOM     79  C   UNL     1       1.111 -16.798   1.700  1.00  0.00     0.002 A 
ATOM     80  C   UNL     1       3.337 -15.988   1.185  1.00  0.00     0.091 A 
ATOM     81  F   UNL     1       4.669 -15.070   2.938  1.00  0.00    -0.205 F 
ATOM     82  C   UNL     1       2.137 -16.593   0.780  1.00  0.00     0.022 A 
BRANCH  80  83
ATOM     83  S   UNL     1       4.540 -15.618  -0.096  1.00  0.00     0.127 S 
ATOM     84  O   UNL     1       5.025 -16.951  -0.445  1.00  0.00    -0.237 OA
ATOM     85  O   UNL     1       3.707 -14.978  -1.115  1.00  0.00    -0.237 OA
ATOM     86  O   UNL     1       5.517 -14.732   0.523  1.00  0.00    -0.744 OA
ENDBRANCH  80  83
ENDBRANCH  52  76
BRANCH  64  87
ATOM     87  C   UNL     1       2.792 -18.750   9.760  1.00  0.00     0.023 A 
ATOM     88  C   UNL     1       3.881 -19.614   9.528  1.00  0.00     0.012 A 
ATOM     89  C   UNL     1       1.673 -19.219  10.476  1.00  0.00     0.148 A 
ATOM     90  C   UNL     1       3.843 -20.933   9.975  1.00  0.00     0.002 A 
ATOM     91  C   UNL     1       1.664 -20.520  10.961  1.00  0.00     0.091 A 
ATOM     92  F   UNL     1       0.640 -18.386  10.665  1.00  0.00    -0.205 F 
ATOM     93  C   UNL     1       2.742 -21.383  10.701  1.00  0.00     0.022 A 
BRANCH  91  94
ATOM     94  S   UNL     1       0.332 -21.153  11.986  1.00  0.00     0.127 S 
ATOM     95  O   UNL     1      -0.350 -22.058  11.063  1.00  0.00    -0.237 OA
ATOM     96  O   UNL     1       1.061 -21.818  13.066  1.00  0.00    -0.237 OA
ATOM     97  O   UNL     1      -0.438 -19.989  12.405  1.00  0.00    -0.744 OA
ENDBRANCH  91  94
ENDBRANCH  64  87
ENDBRANCH  38  39
ENDBRANCH  31  33
ENDBRANCH  30  31
ENDBRANCH  29  30
ENDBRANCH   1  29
TORSDOF 20
