REMARK SMILES C[C@H](Oc1ccc(Cl)cc1Cl)C(=O)NNC(=O)[C@H]1CCCC[C@H]1C(=O)OCCOC(=O)c1ccc(-c2c3nc(c(-c4cccc(S(=O)(=O)[O-])c4F)c4ccc([nH]4)c(-c4cccc(S(=O)(=O)[O-])c4F)c4nc(c(-c5cccc(S(=O)(=O)[O-])c5F)c5ccc2[nH]5)C=C4)C=C3)cc1
REMARK SMILES IDX 27 1 26 2 24 3 25 4 23 5 18 6 19 7 20 8 22 9 21 10 16 11
REMARK SMILES IDX 15 12 17 14 14 15 12 16 13 17 2 19 1 20 3 21 4 22 5 23 10 24
REMARK SMILES IDX 6 25 9 26 11 27 7 28 8 29 28 30 29 31 30 32 31 33 32 34
REMARK SMILES IDX 33 35 94 36 34 37 93 38 35 39 36 40 37 41 87 42 38 43 92 44
REMARK SMILES IDX 86 45 88 46 39 47 91 48 85 49 84 50 40 52 72 53 52 54 71 55
REMARK SMILES IDX 53 56 56 57 70 58 89 59 54 60 55 61 69 63 90 64 57 65 41 66
REMARK SMILES IDX 42 67 50 68 43 69 45 70 51 71 44 72 46 73 47 74 48 75 49 76
REMARK SMILES IDX 73 77 74 78 82 79 75 80 77 81 83 82 76 83 78 84 79 85 80 86
REMARK SMILES IDX 81 87 58 88 59 89 67 90 60 91 62 92 68 93 61 94 63 95 64 96
REMARK SMILES IDX 65 97 66 98
REMARK H PARENT 15 13 14 18 88 51 56 62
REMARK Flexibility Score: inf
ROOT
ATOM      1  C   UNL     1      -3.326  -0.809  -3.436  1.00  0.00     0.274 C 
ENDROOT
BRANCH   1   2
ATOM      2  O   UNL     1      -3.796   0.431  -2.875  1.00  0.00    -0.462 OA
BRANCH   2   3
ATOM      3  C   UNL     1      -4.137   0.416  -1.576  1.00  0.00     0.309 C 
ATOM      4  O   UNL     1      -4.221  -0.604  -0.898  1.00  0.00    -0.252 OA
BRANCH   3   5
ATOM      5  C   UNL     1      -4.439   1.779  -0.979  1.00  0.00     0.111 C 
ATOM      6  C   UNL     1      -3.776   3.077  -1.489  1.00  0.00     0.094 C 
ATOM      7  C   UNL     1      -3.983   4.174  -0.422  1.00  0.00     0.014 C 
ATOM      8  C   UNL     1      -5.409   4.293   0.144  1.00  0.00     0.001 C 
ATOM      9  C   UNL     1      -5.924   1.965  -0.690  1.00  0.00     0.016 C 
ATOM     10  C   UNL     1      -6.075   2.959   0.461  1.00  0.00     0.001 C 
BRANCH   6  11
ATOM     11  C   UNL     1      -3.974   3.447  -2.977  1.00  0.00     0.242 C 
ATOM     12  N   UNL     1      -4.650   4.534  -3.443  1.00  0.00    -0.267 N 
ATOM     13  H   UNL     1      -4.594   4.678  -4.415  1.00  0.00     0.191 HD
ATOM     14  O   UNL     1      -3.464   2.757  -3.868  1.00  0.00    -0.273 OA
BRANCH  12  15
ATOM     15  N   UNL     1      -5.400   5.459  -2.756  1.00  0.00    -0.264 N 
ATOM     16  C   UNL     1      -6.634   5.897  -3.181  1.00  0.00     0.279 C 
ATOM     17  O   UNL     1      -7.231   6.754  -2.523  1.00  0.00    -0.269 OA
ATOM     18  H   UNL     1      -5.036   5.826  -1.918  1.00  0.00     0.191 HD
BRANCH  16  19
ATOM     19  C   UNL     1      -7.255   5.302  -4.457  1.00  0.00     0.260 C 
ATOM     20  C   UNL     1      -7.726   3.874  -4.210  1.00  0.00     0.064 C 
BRANCH  19  21
ATOM     21  O   UNL     1      -6.253   5.337  -5.476  1.00  0.00    -0.479 OA
BRANCH  21  22
ATOM     22  C   UNL     1      -6.591   5.605  -6.770  1.00  0.00     0.139 A 
ATOM     23  C   UNL     1      -7.872   5.453  -7.304  1.00  0.00     0.049 A 
ATOM     24  C   UNL     1      -5.543   6.004  -7.619  1.00  0.00     0.084 A 
ATOM     25  C   UNL     1      -8.098   5.689  -8.665  1.00  0.00     0.024 A 
ATOM     26  C   UNL     1      -5.766   6.243  -8.976  1.00  0.00     0.045 A 
ATOM     27  Cl  UNL     1      -3.938   6.226  -7.010  1.00  0.00    -0.080 Cl
ATOM     28  C   UNL     1      -7.046   6.077  -9.493  1.00  0.00     0.042 A 
ATOM     29  Cl  UNL     1      -7.332   6.345 -11.168  1.00  0.00    -0.084 Cl
ENDBRANCH  21  22
ENDBRANCH  19  21
ENDBRANCH  16  19
ENDBRANCH  12  15
ENDBRANCH   6  11
ENDBRANCH   3   5
ENDBRANCH   2   3
ENDBRANCH   1   2
BRANCH   1  30
ATOM     30  C   UNL     1      -1.798  -0.832  -3.509  1.00  0.00     0.275 C 
BRANCH  30  31
ATOM     31  O   UNL     1      -1.202  -0.922  -2.199  1.00  0.00    -0.458 OA
BRANCH  31  32
ATOM     32  C   UNL     1      -0.768   0.247  -1.678  1.00  0.00     0.338 C 
ATOM     33  O   UNL     1      -0.807   1.354  -2.196  1.00  0.00    -0.246 OA
BRANCH  32  34
ATOM     34  C   UNL     1      -0.317   0.053  -0.294  1.00  0.00     0.060 A 
ATOM     35  C   UNL     1      -1.045   0.673   0.724  1.00  0.00     0.016 A 
ATOM     36  C   UNL     1       0.868  -0.626  -0.005  1.00  0.00     0.016 A 
ATOM     37  C   UNL     1      -0.591   0.628   2.038  1.00  0.00     0.010 A 
ATOM     38  C   UNL     1       1.322  -0.674   1.317  1.00  0.00     0.010 A 
ATOM     39  C   UNL     1       0.603  -0.035   2.344  1.00  0.00    -0.014 A 
BRANCH  39  40
ATOM     40  C   UNL     1       1.112  -0.023   3.736  1.00  0.00     0.031 A 
ATOM     41  C   UNL     1       2.297   0.826   4.098  1.00  0.00     0.074 A 
ATOM     42  C   UNL     1       0.506  -0.777   4.672  1.00  0.00     0.049 A 
ATOM     43  N   UNL     1       2.920   0.926   5.243  1.00  0.00    -0.248 NA
ATOM     44  C   UNL     1       2.857   1.671   3.031  1.00  0.00     0.031 C 
ATOM     45  C   UNL     1      -0.655  -1.637   4.438  1.00  0.00     0.029 A 
ATOM     46  N   UNL     1       0.796  -0.958   6.001  1.00  0.00    -0.354 N 
ATOM     47  C   UNL     1       3.970   1.810   5.027  1.00  0.00     0.074 A 
ATOM     48  C   UNL     1       3.898   2.222   3.642  1.00  0.00     0.031 C 
ATOM     49  C   UNL     1      -0.967  -2.270   5.581  1.00  0.00     0.029 A 
ATOM     50  C   UNL     1      -0.010  -1.887   6.615  1.00  0.00     0.049 A 
ATOM     51  H   UNL     1       1.511  -0.470   6.469  1.00  0.00     0.167 HD
ATOM     52  C   UNL     1       4.902   2.246   5.908  1.00  0.00     0.034 A 
ATOM     53  C   UNL     1       0.034  -2.392   7.864  1.00  0.00     0.034 A 
ATOM     54  C   UNL     1       4.943   1.868   7.295  1.00  0.00     0.049 A 
ATOM     55  C   UNL     1       1.076  -1.885   8.823  1.00  0.00     0.074 A 
ATOM     56  C   UNL     1       5.816   2.299   8.279  1.00  0.00     0.029 A 
ATOM     57  N   UNL     1       4.077   0.967   7.896  1.00  0.00    -0.354 N 
ATOM     58  N   UNL     1       1.994  -0.967   8.633  1.00  0.00    -0.248 NA
ATOM     59  C   UNL     1       1.075  -2.462  10.175  1.00  0.00     0.031 C 
ATOM     60  C   UNL     1       5.484   1.650   9.473  1.00  0.00     0.029 A 
ATOM     61  C   UNL     1       4.398   0.823   9.235  1.00  0.00     0.049 A 
ATOM     62  H   UNL     1       3.342   0.499   7.439  1.00  0.00     0.167 HD
ATOM     63  C   UNL     1       2.662  -0.840   9.845  1.00  0.00     0.074 A 
ATOM     64  C   UNL     1       2.027  -1.756  10.770  1.00  0.00     0.031 C 
ATOM     65  C   UNL     1       3.721  -0.052  10.158  1.00  0.00     0.034 A 
BRANCH  52  66
ATOM     66  C   UNL     1       5.939   3.213   5.407  1.00  0.00     0.023 A 
ATOM     67  C   UNL     1       5.590   4.564   5.207  1.00  0.00     0.012 A 
ATOM     68  C   UNL     1       7.270   2.803   5.194  1.00  0.00     0.148 A 
ATOM     69  C   UNL     1       6.545   5.487   4.780  1.00  0.00     0.002 A 
ATOM     70  C   UNL     1       8.223   3.736   4.803  1.00  0.00     0.091 A 
ATOM     71  F   UNL     1       7.575   1.508   5.366  1.00  0.00    -0.205 F 
ATOM     72  C   UNL     1       7.861   5.076   4.589  1.00  0.00     0.022 A 
BRANCH  70  73
ATOM     73  S   UNL     1       9.957   3.312   4.596  1.00  0.00     0.127 S 
ATOM     74  O   UNL     1      10.082   3.284   3.140  1.00  0.00    -0.237 OA
ATOM     75  O   UNL     1      10.632   4.438   5.243  1.00  0.00    -0.237 OA
ATOM     76  O   UNL     1      10.137   2.033   5.269  1.00  0.00    -0.744 OA
ENDBRANCH  70  73
ENDBRANCH  52  66
BRANCH  53  77
ATOM     77  C   UNL     1      -0.968  -3.412   8.284  1.00  0.00     0.023 A 
ATOM     78  C   UNL     1      -1.965  -3.063   9.213  1.00  0.00     0.012 A 
ATOM     79  C   UNL     1      -0.963  -4.710   7.736  1.00  0.00     0.148 A 
ATOM     80  C   UNL     1      -2.928  -3.994   9.605  1.00  0.00     0.002 A 
ATOM     81  C   UNL     1      -1.958  -5.615   8.089  1.00  0.00     0.091 A 
ATOM     82  F   UNL     1       0.009  -5.034   6.872  1.00  0.00    -0.205 F 
ATOM     83  C   UNL     1      -2.933  -5.263   9.034  1.00  0.00     0.022 A 
BRANCH  81  84
ATOM     84  S   UNL     1      -2.110  -7.219   7.294  1.00  0.00     0.127 S 
ATOM     85  O   UNL     1      -1.544  -8.109   8.303  1.00  0.00    -0.237 OA
ATOM     86  O   UNL     1      -3.558  -7.337   7.111  1.00  0.00    -0.237 OA
ATOM     87  O   UNL     1      -1.361  -7.104   6.049  1.00  0.00    -0.744 OA
ENDBRANCH  81  84
ENDBRANCH  53  77
BRANCH  65  88
ATOM     88  C   UNL     1       4.255  -0.129  11.563  1.00  0.00     0.023 A 
ATOM     89  C   UNL     1       5.026  -1.242  11.950  1.00  0.00     0.012 A 
ATOM     90  C   UNL     1       4.061   0.930  12.471  1.00  0.00     0.148 A 
ATOM     91  C   UNL     1       5.577  -1.311  13.229  1.00  0.00     0.002 A 
ATOM     92  C   UNL     1       4.648   0.873  13.730  1.00  0.00     0.091 A 
ATOM     93  F   UNL     1       3.305   1.970  12.091  1.00  0.00    -0.205 F 
ATOM     94  C   UNL     1       5.399  -0.250  14.114  1.00  0.00     0.022 A 
BRANCH  92  95
ATOM     95  S   UNL     1       4.539   2.236  14.896  1.00  0.00     0.127 S 
ATOM     96  O   UNL     1       3.508   1.761  15.816  1.00  0.00    -0.237 OA
ATOM     97  O   UNL     1       5.889   2.276  15.462  1.00  0.00    -0.237 OA
ATOM     98  O   UNL     1       4.187   3.406  14.103  1.00  0.00    -0.744 OA
ENDBRANCH  92  95
ENDBRANCH  65  88
ENDBRANCH  39  40
ENDBRANCH  32  34
ENDBRANCH  31  32
ENDBRANCH  30  31
ENDBRANCH   1  30
TORSDOF 19
