REMARK SMILES C[C@@H]1[C@@H](C)CC[C@H]1[NH2+][C@@H](C)[C@@H](C)C(=O)OCCOC(=O)c1ccc(-c2c3nc(c(-c4cccc(S(=O)(=O)[O-])c4F)c4ccc([nH]4)c(-c4cccc(S(=O)(=O)[O-])c4F)c4nc(c(-c5cccc(S(=O)(=O)[O-])c5F)c5ccc2[nH]5)C=C4)C=C3)cc1
REMARK SMILES IDX 16 1 15 2 13 3 14 4 11 5 12 6 9 7 10 8 8 9 7 12 1 13 2 14
REMARK SMILES IDX 3 15 5 16 4 17 6 18 17 19 18 20 19 21 20 22 21 23 22 24
REMARK SMILES IDX 83 25 23 26 82 27 24 28 25 29 26 30 76 31 27 32 81 33 75 34
REMARK SMILES IDX 77 35 28 36 80 37 74 38 73 39 29 41 61 42 41 43 60 44 42 45
REMARK SMILES IDX 45 46 59 47 78 48 43 49 44 50 58 52 79 53 46 54 30 55 31 56
REMARK SMILES IDX 39 57 32 58 34 59 40 60 33 61 35 62 36 63 37 64 38 65 62 66
REMARK SMILES IDX 63 67 71 68 64 69 66 70 72 71 65 72 67 73 68 74 69 75 70 76
REMARK SMILES IDX 47 77 48 78 56 79 49 80 51 81 57 82 50 83 52 84 53 85 54 86
REMARK SMILES IDX 55 87
REMARK H PARENT 8 10 8 11 77 40 45 51
REMARK Flexibility Score: inf
ROOT
ATOM      1  C   UNL     1       5.379  -2.818   6.447  1.00  0.00     0.274 C 
ENDROOT
BRANCH   1   2
ATOM      2  O   UNL     1       4.533  -2.352   5.375  1.00  0.00    -0.462 OA
BRANCH   2   3
ATOM      3  C   UNL     1       3.359  -3.025   5.242  1.00  0.00     0.314 C 
ATOM      4  O   UNL     1       3.081  -4.056   5.846  1.00  0.00    -0.252 OA
BRANCH   3   5
ATOM      5  C   UNL     1       2.410  -2.414   4.226  1.00  0.00     0.154 C 
ATOM      6  C   UNL     1       2.539  -3.248   2.948  1.00  0.00     0.026 C 
BRANCH   5   7
ATOM      7  C   UNL     1       2.551  -0.885   3.974  1.00  0.00     0.193 C 
ATOM      8  C   UNL     1       2.441  -0.094   5.283  1.00  0.00     0.076 C 
BRANCH   7   9
ATOM      9  N   UNL     1       1.471  -0.498   3.047  1.00  0.00    -0.341 N 
ATOM     10  H   UNL     1       1.391  -1.238   2.349  1.00  0.00     0.346 HD
ATOM     11  H   UNL     1       0.656  -0.365   3.646  1.00  0.00     0.346 HD
BRANCH   9  12
ATOM     12  C   UNL     1       1.603   0.764   2.327  1.00  0.00     0.185 C 
ATOM     13  C   UNL     1       0.934  -0.055  -0.010  1.00  0.00     0.014 C 
ATOM     14  C   UNL     1       0.559   0.811   1.188  1.00  0.00     0.047 C 
ATOM     15  C   UNL     1       0.443   2.304   0.825  1.00  0.00    -0.005 C 
ATOM     16  C   UNL     1       0.906   3.070   2.070  1.00  0.00     0.010 C 
ATOM     17  C   UNL     1      -0.976   2.688   0.415  1.00  0.00     0.008 C 
ATOM     18  C   UNL     1       1.238   2.019   3.121  1.00  0.00     0.065 C 
ENDBRANCH   9  12
ENDBRANCH   7   9
ENDBRANCH   5   7
ENDBRANCH   3   5
ENDBRANCH   2   3
ENDBRANCH   1   2
BRANCH   1  19
ATOM     19  C   UNL     1       5.093  -2.040   7.733  1.00  0.00     0.275 C 
BRANCH  19  20
ATOM     20  O   UNL     1       3.708  -2.182   8.090  1.00  0.00    -0.458 OA
BRANCH  20  21
ATOM     21  C   UNL     1       3.164  -1.120   8.730  1.00  0.00     0.338 C 
ATOM     22  O   UNL     1       3.749  -0.106   9.073  1.00  0.00    -0.246 OA
BRANCH  21  23
ATOM     23  C   UNL     1       1.719  -1.346   8.967  1.00  0.00     0.060 A 
ATOM     24  C   UNL     1       0.909  -2.007   8.037  1.00  0.00     0.016 A 
ATOM     25  C   UNL     1       1.154  -0.821  10.130  1.00  0.00     0.016 A 
ATOM     26  C   UNL     1      -0.469  -2.108   8.250  1.00  0.00     0.010 A 
ATOM     27  C   UNL     1      -0.210  -0.984  10.375  1.00  0.00     0.010 A 
ATOM     28  C   UNL     1      -1.040  -1.611   9.430  1.00  0.00    -0.014 A 
BRANCH  28  29
ATOM     29  C   UNL     1      -2.490  -1.759   9.721  1.00  0.00     0.031 A 
ATOM     30  C   UNL     1      -3.355  -0.541   9.905  1.00  0.00     0.074 A 
ATOM     31  C   UNL     1      -3.006  -2.987   9.926  1.00  0.00     0.049 A 
ATOM     32  N   UNL     1      -4.578  -0.457  10.359  1.00  0.00    -0.248 NA
ATOM     33  C   UNL     1      -2.757   0.756   9.548  1.00  0.00     0.031 C 
ATOM     34  C   UNL     1      -2.268  -4.245   9.800  1.00  0.00     0.029 A 
ATOM     35  N   UNL     1      -4.261  -3.375  10.328  1.00  0.00    -0.354 N 
ATOM     36  C   UNL     1      -4.877   0.900  10.402  1.00  0.00     0.074 A 
ATOM     37  C   UNL     1      -3.709   1.604   9.917  1.00  0.00     0.031 C 
ATOM     38  C   UNL     1      -3.074  -5.263  10.139  1.00  0.00     0.029 A 
ATOM     39  C   UNL     1      -4.366  -4.728  10.557  1.00  0.00     0.049 A 
ATOM     40  H   UNL     1      -5.011  -2.748  10.441  1.00  0.00     0.167 HD
ATOM     41  C   UNL     1      -6.022   1.503  10.801  1.00  0.00     0.034 A 
ATOM     42  C   UNL     1      -5.371  -5.456  11.082  1.00  0.00     0.034 A 
ATOM     43  C   UNL     1      -7.201   0.797  11.228  1.00  0.00     0.049 A 
ATOM     44  C   UNL     1      -6.640  -4.764  11.493  1.00  0.00     0.074 A 
ATOM     45  C   UNL     1      -8.435   1.317  11.579  1.00  0.00     0.029 A 
ATOM     46  N   UNL     1      -7.296  -0.580  11.361  1.00  0.00    -0.354 N 
ATOM     47  N   UNL     1      -6.942  -3.490  11.429  1.00  0.00    -0.248 NA
ATOM     48  C   UNL     1      -7.715  -5.611  12.029  1.00  0.00     0.031 C 
ATOM     49  C   UNL     1      -9.273   0.254  11.934  1.00  0.00     0.029 A 
ATOM     50  C   UNL     1      -8.564  -0.928  11.794  1.00  0.00     0.049 A 
ATOM     51  H   UNL     1      -6.568  -1.216  11.176  1.00  0.00     0.167 HD
ATOM     52  C   UNL     1      -8.247  -3.384  11.893  1.00  0.00     0.074 A 
ATOM     53  C   UNL     1      -8.688  -4.727  12.213  1.00  0.00     0.031 C 
ATOM     54  C   UNL     1      -9.006  -2.273  12.058  1.00  0.00     0.034 A 
BRANCH  41  55
ATOM     55  C   UNL     1      -6.080   3.007  10.757  1.00  0.00     0.023 A 
ATOM     56  C   UNL     1      -6.234   3.660   9.518  1.00  0.00     0.012 A 
ATOM     57  C   UNL     1      -6.058   3.768  11.942  1.00  0.00     0.148 A 
ATOM     58  C   UNL     1      -6.344   5.048   9.456  1.00  0.00     0.002 A 
ATOM     59  C   UNL     1      -6.204   5.150  11.876  1.00  0.00     0.091 A 
ATOM     60  F   UNL     1      -5.885   3.132  13.109  1.00  0.00    -0.205 F 
ATOM     61  C   UNL     1      -6.340   5.792  10.634  1.00  0.00     0.022 A 
BRANCH  59  62
ATOM     62  S   UNL     1      -6.281   6.184  13.344  1.00  0.00     0.127 S 
ATOM     63  O   UNL     1      -4.958   6.805  13.337  1.00  0.00    -0.237 OA
ATOM     64  O   UNL     1      -7.383   7.093  13.027  1.00  0.00    -0.237 OA
ATOM     65  O   UNL     1      -6.546   5.279  14.454  1.00  0.00    -0.744 OA
ENDBRANCH  59  62
ENDBRANCH  41  55
BRANCH  42  66
ATOM     66  C   UNL     1      -5.218  -6.932  11.207  1.00  0.00     0.023 A 
ATOM     67  C   UNL     1      -5.943  -7.774  10.343  1.00  0.00     0.012 A 
ATOM     68  C   UNL     1      -4.314  -7.502  12.125  1.00  0.00     0.148 A 
ATOM     69  C   UNL     1      -5.780  -9.158  10.398  1.00  0.00     0.002 A 
ATOM     70  C   UNL     1      -4.115  -8.878  12.136  1.00  0.00     0.091 A 
ATOM     71  F   UNL     1      -3.649  -6.686  12.954  1.00  0.00    -0.205 F 
ATOM     72  C   UNL     1      -4.857  -9.709  11.282  1.00  0.00     0.022 A 
BRANCH  70  73
ATOM     73  S   UNL     1      -2.844  -9.653  13.142  1.00  0.00     0.127 S 
ATOM     74  O   UNL     1      -3.634 -10.257  14.211  1.00  0.00    -0.237 OA
ATOM     75  O   UNL     1      -2.248 -10.605  12.203  1.00  0.00    -0.237 OA
ATOM     76  O   UNL     1      -1.952  -8.573  13.541  1.00  0.00    -0.744 OA
ENDBRANCH  70  73
ENDBRANCH  42  66
BRANCH  54  77
ATOM     77  C   UNL     1     -10.401  -2.457  12.591  1.00  0.00     0.023 A 
ATOM     78  C   UNL     1     -10.589  -2.729  13.961  1.00  0.00     0.012 A 
ATOM     79  C   UNL     1     -11.523  -2.289  11.757  1.00  0.00     0.148 A 
ATOM     80  C   UNL     1     -11.874  -2.856  14.487  1.00  0.00     0.002 A 
ATOM     81  C   UNL     1     -12.801  -2.377  12.297  1.00  0.00     0.091 A 
ATOM     82  F   UNL     1     -11.323  -2.053  10.452  1.00  0.00    -0.205 F 
ATOM     83  C   UNL     1     -12.979  -2.669  13.659  1.00  0.00     0.022 A 
BRANCH  81  84
ATOM     84  S   UNL     1     -14.274  -2.064  11.317  1.00  0.00     0.127 S 
ATOM     85  O   UNL     1     -14.748  -3.420  11.047  1.00  0.00    -0.237 OA
ATOM     86  O   UNL     1     -15.112  -1.298  12.241  1.00  0.00    -0.237 OA
ATOM     87  O   UNL     1     -13.822  -1.311  10.154  1.00  0.00    -0.744 OA
ENDBRANCH  81  84
ENDBRANCH  54  77
ENDBRANCH  28  29
ENDBRANCH  21  23
ENDBRANCH  20  21
ENDBRANCH  19  20
ENDBRANCH   1  19
TORSDOF 17
