REMARK SMILES Cc1ccccc1[C@@H]1[NH2+][C@@H](C(=O)OCCOC(=O)c2ccc(-c3c4nc(c(-c5cccc(S(=O)(=O)[O-])c5F)c5ccc([nH]5)c(-c5cccc(S(=O)(=O)[O-])c5F)c5nc(c(-c6cccc(S(=O)(=O)[O-])c6F)c6ccc3[nH]6)C=C5)C=C4)cc2)CC2=c3ccccc3=N[C@@H]21
REMARK SMILES IDX 15 1 14 2 13 3 11 4 12 5 10 6 8 7 9 8 91 9 83 12 90 13 82 14
REMARK SMILES IDX 84 15 89 16 85 17 88 18 86 19 87 20 7 21 1 22 2 23 3 24 4 25
REMARK SMILES IDX 6 26 5 27 16 28 17 29 18 30 19 31 20 32 81 33 21 34 80 35
REMARK SMILES IDX 22 36 23 37 24 38 74 39 25 40 79 41 73 42 75 43 26 44 78 45
REMARK SMILES IDX 72 46 71 47 27 49 59 50 39 51 58 52 40 53 43 54 57 55 76 56
REMARK SMILES IDX 41 57 42 58 56 60 77 61 44 62 28 63 29 64 37 65 30 66 32 67
REMARK SMILES IDX 38 68 31 69 33 70 34 71 35 72 36 73 60 74 61 75 69 76 62 77
REMARK SMILES IDX 64 78 70 79 63 80 65 81 66 82 67 83 68 84 45 85 46 86 54 87
REMARK SMILES IDX 47 88 49 89 55 90 48 91 50 92 51 93 52 94 53 95
REMARK H PARENT 9 10 9 11 75 48 43 59
REMARK Flexibility Score: inf
ROOT
ATOM      1  C   UNL     1      -1.636   3.614  -1.882  1.00  0.00     0.275 C 
ENDROOT
BRANCH   1   2
ATOM      2  C   UNL     1      -0.164   3.998  -1.951  1.00  0.00     0.274 C 
BRANCH   2   3
ATOM      3  O   UNL     1       0.346   4.229  -0.647  1.00  0.00    -0.458 OA
BRANCH   3   4
ATOM      4  C   UNL     1       1.545   4.865  -0.679  1.00  0.00     0.365 C 
ATOM      5  O   UNL     1       1.883   5.669  -1.537  1.00  0.00    -0.245 OA
BRANCH   4   6
ATOM      6  C   UNL     1       2.534   4.068   0.127  1.00  0.00     0.298 C 
ATOM      7  C   UNL     1       2.013   1.673   0.103  1.00  0.00     0.243 C 
ATOM      8  N   UNL     1       2.584   2.812  -0.663  1.00  0.00    -0.326 N 
ATOM      9  C   UNL     1       3.108   1.372   1.192  1.00  0.00     0.196 C 
ATOM     10  H   UNL     1       2.049   2.938  -1.522  1.00  0.00     0.347 HD
ATOM     11  H   UNL     1       3.560   2.603  -0.874  1.00  0.00     0.347 HD
ATOM     12  C   UNL     1       3.321   2.700   1.970  1.00  0.00    -0.024 C 
ATOM     13  N   UNL     1       4.445   1.150   0.540  1.00  0.00    -0.270 NA
ATOM     14  C   UNL     1       2.328   3.835   1.655  1.00  0.00     0.111 C 
ATOM     15  C   UNL     1       4.622   3.030   2.034  1.00  0.00     0.002 A 
ATOM     16  C   UNL     1       5.150   2.172   0.943  1.00  0.00     0.066 A 
ATOM     17  C   UNL     1       5.199   4.326   2.292  1.00  0.00     0.010 A 
ATOM     18  C   UNL     1       6.317   2.708   0.192  1.00  0.00     0.028 A 
ATOM     19  C   UNL     1       6.179   4.784   1.500  1.00  0.00     0.001 A 
ATOM     20  C   UNL     1       6.722   3.969   0.429  1.00  0.00     0.002 A 
BRANCH   7  21
ATOM     21  C   UNL     1       1.370   0.728  -0.923  1.00  0.00     0.015 A 
ATOM     22  C   UNL     1      -0.877   0.459   0.362  1.00  0.00     0.045 C 
ATOM     23  C   UNL     1      -0.022   0.428  -0.882  1.00  0.00    -0.042 A 
ATOM     24  C   UNL     1      -0.706   0.162  -2.087  1.00  0.00     0.004 A 
ATOM     25  C   UNL     1      -0.043   0.177  -3.311  1.00  0.00     0.000 A 
ATOM     26  C   UNL     1       2.041   0.561  -2.154  1.00  0.00     0.010 A 
ATOM     27  C   UNL     1       1.335   0.340  -3.339  1.00  0.00     0.001 A 
ENDBRANCH   7  21
ENDBRANCH   4   6
ENDBRANCH   3   4
ENDBRANCH   2   3
ENDBRANCH   1   2
BRANCH   1  28
ATOM     28  O   UNL     1      -2.218   3.399  -0.546  1.00  0.00    -0.458 OA
BRANCH  28  29
ATOM     29  C   UNL     1      -2.161   4.187   0.589  1.00  0.00     0.338 C 
ATOM     30  O   UNL     1      -2.361   3.709   1.692  1.00  0.00    -0.246 OA
BRANCH  29  31
ATOM     31  C   UNL     1      -1.832   5.626   0.397  1.00  0.00     0.060 A 
ATOM     32  C   UNL     1      -0.845   6.308   1.135  1.00  0.00     0.016 A 
ATOM     33  C   UNL     1      -2.264   6.144  -0.787  1.00  0.00     0.016 A 
ATOM     34  C   UNL     1      -0.120   7.372   0.536  1.00  0.00     0.010 A 
ATOM     35  C   UNL     1      -1.327   6.888  -1.449  1.00  0.00     0.010 A 
ATOM     36  C   UNL     1      -0.287   7.613  -0.826  1.00  0.00    -0.014 A 
BRANCH  36  37
ATOM     37  C   UNL     1       0.464   8.522  -1.748  1.00  0.00     0.031 A 
ATOM     38  C   UNL     1       1.932   8.862  -1.739  1.00  0.00     0.074 A 
ATOM     39  C   UNL     1      -0.306   9.061  -2.740  1.00  0.00     0.049 A 
ATOM     40  N   UNL     1       2.418   9.825  -2.461  1.00  0.00    -0.248 NA
ATOM     41  C   UNL     1       2.997   8.194  -0.990  1.00  0.00     0.031 C 
ATOM     42  C   UNL     1       0.020   9.848  -3.921  1.00  0.00     0.029 A 
ATOM     43  N   UNL     1      -1.718   9.122  -2.737  1.00  0.00    -0.354 N 
ATOM     44  C   UNL     1       3.800   9.770  -2.463  1.00  0.00     0.074 A 
ATOM     45  C   UNL     1       4.113   8.731  -1.516  1.00  0.00     0.031 C 
ATOM     46  C   UNL     1      -1.062  10.592  -4.242  1.00  0.00     0.029 A 
ATOM     47  C   UNL     1      -2.046  10.385  -3.184  1.00  0.00     0.049 A 
ATOM     48  H   UNL     1      -2.341   8.408  -2.469  1.00  0.00     0.167 HD
ATOM     49  C   UNL     1       4.481  10.571  -3.339  1.00  0.00     0.034 A 
ATOM     50  C   UNL     1      -2.542  11.278  -2.281  1.00  0.00     0.034 A 
ATOM     51  C   UNL     1       3.562  11.560  -3.922  1.00  0.00     0.049 A 
ATOM     52  C   UNL     1      -1.740  12.537  -2.299  1.00  0.00     0.074 A 
ATOM     53  C   UNL     1       2.908  11.656  -5.137  1.00  0.00     0.029 A 
ATOM     54  N   UNL     1       3.023  12.539  -3.097  1.00  0.00    -0.354 N 
ATOM     55  N   UNL     1      -0.497  12.588  -2.678  1.00  0.00    -0.248 NA
ATOM     56  C   UNL     1      -2.297  13.843  -1.990  1.00  0.00     0.031 C 
ATOM     57  C   UNL     1       1.893  12.642  -5.001  1.00  0.00     0.029 A 
ATOM     58  C   UNL     1       1.961  13.167  -3.719  1.00  0.00     0.049 A 
ATOM     59  H   UNL     1       3.351  12.755  -2.194  1.00  0.00     0.167 HD
ATOM     60  C   UNL     1      -0.075  13.882  -2.688  1.00  0.00     0.074 A 
ATOM     61  C   UNL     1      -1.249  14.635  -2.272  1.00  0.00     0.031 C 
ATOM     62  C   UNL     1       1.207  14.207  -3.027  1.00  0.00     0.034 A 
BRANCH  49  63
ATOM     63  C   UNL     1       5.923  10.461  -3.854  1.00  0.00     0.023 A 
ATOM     64  C   UNL     1       6.247  11.245  -4.996  1.00  0.00     0.012 A 
ATOM     65  C   UNL     1       6.959   9.618  -3.390  1.00  0.00     0.148 A 
ATOM     66  C   UNL     1       7.468  11.158  -5.676  1.00  0.00     0.002 A 
ATOM     67  C   UNL     1       8.191   9.531  -4.069  1.00  0.00     0.091 A 
ATOM     68  F   UNL     1       6.777   8.892  -2.285  1.00  0.00    -0.205 F 
ATOM     69  C   UNL     1       8.440  10.289  -5.219  1.00  0.00     0.022 A 
BRANCH  67  70
ATOM     70  S   UNL     1       9.531   8.432  -3.560  1.00  0.00     0.127 S 
ATOM     71  O   UNL     1       9.684   7.571  -4.734  1.00  0.00    -0.237 OA
ATOM     72  O   UNL     1      10.639   9.362  -3.346  1.00  0.00    -0.237 OA
ATOM     73  O   UNL     1       9.067   7.744  -2.362  1.00  0.00    -0.744 OA
ENDBRANCH  67  70
ENDBRANCH  49  63
BRANCH  50  74
ATOM     74  C   UNL     1      -3.213  10.657  -1.077  1.00  0.00     0.023 A 
ATOM     75  C   UNL     1      -4.292   9.763  -1.317  1.00  0.00     0.012 A 
ATOM     76  C   UNL     1      -2.650  10.669   0.216  1.00  0.00     0.148 A 
ATOM     77  C   UNL     1      -4.725   8.851  -0.347  1.00  0.00     0.002 A 
ATOM     78  C   UNL     1      -3.098   9.762   1.187  1.00  0.00     0.091 A 
ATOM     79  F   UNL     1      -1.669  11.541   0.485  1.00  0.00    -0.205 F 
ATOM     80  C   UNL     1      -4.114   8.838   0.899  1.00  0.00     0.022 A 
BRANCH  78  81
ATOM     81  S   UNL     1      -2.350   9.682   2.826  1.00  0.00     0.127 S 
ATOM     82  O   UNL     1      -3.137  10.673   3.557  1.00  0.00    -0.237 OA
ATOM     83  O   UNL     1      -2.593   8.298   3.239  1.00  0.00    -0.237 OA
ATOM     84  O   UNL     1      -0.944   9.997   2.617  1.00  0.00    -0.744 OA
ENDBRANCH  78  81
ENDBRANCH  50  74
BRANCH  62  85
ATOM     85  C   UNL     1       1.856  15.540  -2.740  1.00  0.00     0.023 A 
ATOM     86  C   UNL     1       1.309  16.451  -1.815  1.00  0.00     0.012 A 
ATOM     87  C   UNL     1       3.135  15.856  -3.260  1.00  0.00     0.148 A 
ATOM     88  C   UNL     1       1.950  17.644  -1.476  1.00  0.00     0.002 A 
ATOM     89  C   UNL     1       3.824  16.985  -2.826  1.00  0.00     0.091 A 
ATOM     90  F   UNL     1       3.700  15.070  -4.188  1.00  0.00    -0.205 F 
ATOM     91  C   UNL     1       3.221  17.900  -1.963  1.00  0.00     0.022 A 
BRANCH  89  92
ATOM     92  S   UNL     1       5.563  17.197  -3.223  1.00  0.00     0.127 S 
ATOM     93  O   UNL     1       5.501  17.941  -4.478  1.00  0.00    -0.237 OA
ATOM     94  O   UNL     1       6.057  17.969  -2.081  1.00  0.00    -0.237 OA
ATOM     95  O   UNL     1       6.093  15.842  -3.297  1.00  0.00    -0.744 OA
ENDBRANCH  89  92
ENDBRANCH  62  85
ENDBRANCH  36  37
ENDBRANCH  29  31
ENDBRANCH  28  29
ENDBRANCH   1  28
TORSDOF 15
