REMARK SMILES Cc1ccc(Oc2cc(C(=O)OCCOC(=O)c3ccc(-c4c5nc(c(-c6cccc(S(=O)(=O)[O-])c6F)c6ccc([nH]6)c(-c6cccc(S(=O)(=O)[O-])c6F)c6nc(c(-c7cccc(S(=O)(=O)[O-])c7F)c7ccc4[nH]7)C=C6)C=C5)cc3)nc3ccccc23)cc1
REMARK SMILES IDX 14 1 13 2 12 3 10 4 11 5 9 6 7 7 8 8 87 9 82 10 86 11 81 12
REMARK SMILES IDX 83 13 85 14 84 15 6 16 5 17 1 18 2 19 3 20 89 21 4 22 88 23
REMARK SMILES IDX 15 24 16 25 17 26 18 27 19 28 80 29 20 30 79 31 21 32 22 33
REMARK SMILES IDX 23 34 73 35 24 36 78 37 72 38 74 39 25 40 77 41 71 42 70 43
REMARK SMILES IDX 26 45 58 46 38 47 57 48 39 49 42 50 56 51 75 52 40 53 41 54
REMARK SMILES IDX 55 56 76 57 43 58 27 59 28 60 36 61 29 62 31 63 37 64 30 65
REMARK SMILES IDX 32 66 33 67 34 68 35 69 59 70 60 71 68 72 61 73 63 74 69 75
REMARK SMILES IDX 62 76 64 77 65 78 66 79 67 80 44 81 45 82 53 83 46 84 48 85
REMARK SMILES IDX 54 86 47 87 49 88 50 89 51 90 52 91
REMARK H PARENT 74 44 42 55
REMARK Flexibility Score: inf
ROOT
ATOM      1  C   UNL     1     -10.332   2.897   1.492  1.00  0.00     0.275 C 
ENDROOT
BRANCH   1   2
ATOM      2  C   UNL     1      -9.307   3.699   0.676  1.00  0.00     0.275 C 
BRANCH   2   3
ATOM      3  O   UNL     1      -8.199   2.947   0.147  1.00  0.00    -0.457 OA
BRANCH   3   4
ATOM      4  C   UNL     1      -7.160   3.781  -0.172  1.00  0.00     0.357 C 
ATOM      5  O   UNL     1      -7.194   4.997  -0.007  1.00  0.00    -0.244 OA
BRANCH   4   6
ATOM      6  C   UNL     1      -5.996   3.139  -0.861  1.00  0.00     0.152 A 
ATOM      7  C   UNL     1      -4.194   1.594  -1.139  1.00  0.00     0.139 A 
ATOM      8  C   UNL     1      -5.407   1.935  -0.516  1.00  0.00     0.084 A 
ATOM      9  C   UNL     1      -3.672   2.402  -2.184  1.00  0.00     0.043 A 
ATOM     10  C   UNL     1      -4.355   3.604  -2.433  1.00  0.00     0.075 A 
ATOM     11  C   UNL     1      -2.533   2.116  -2.980  1.00  0.00     0.014 A 
ATOM     12  N   UNL     1      -5.478   3.954  -1.811  1.00  0.00    -0.240 NA
ATOM     13  C   UNL     1      -3.857   4.506  -3.355  1.00  0.00     0.029 A 
ATOM     14  C   UNL     1      -2.042   3.038  -3.905  1.00  0.00     0.001 A 
ATOM     15  C   UNL     1      -2.699   4.246  -4.080  1.00  0.00     0.002 A 
BRANCH   7  16
ATOM     16  O   UNL     1      -3.601   0.422  -0.695  1.00  0.00    -0.457 OA
BRANCH  16  17
ATOM     17  C   UNL     1      -2.250   0.393  -0.388  1.00  0.00     0.127 A 
ATOM     18  C   UNL     1       2.030  -0.004   0.100  1.00  0.00     0.044 C 
ATOM     19  C   UNL     1       0.543   0.133  -0.044  1.00  0.00    -0.051 A 
ATOM     20  C   UNL     1      -0.251  -0.992  -0.292  1.00  0.00     0.007 A 
ATOM     21  C   UNL     1      -0.087   1.372   0.118  1.00  0.00     0.007 A 
ATOM     22  C   UNL     1      -1.635  -0.861  -0.464  1.00  0.00     0.047 A 
ATOM     23  C   UNL     1      -1.476   1.498  -0.028  1.00  0.00     0.047 A 
ENDBRANCH  16  17
ENDBRANCH   7  16
ENDBRANCH   4   6
ENDBRANCH   3   4
ENDBRANCH   2   3
ENDBRANCH   1   2
BRANCH   1  24
ATOM     24  O   UNL     1      -9.967   1.587   1.988  1.00  0.00    -0.458 OA
BRANCH  24  25
ATOM     25  C   UNL     1      -8.856   1.216   2.689  1.00  0.00     0.338 C 
ATOM     26  O   UNL     1      -8.624   0.068   2.973  1.00  0.00    -0.246 OA
BRANCH  25  27
ATOM     27  C   UNL     1      -7.927   2.296   3.060  1.00  0.00     0.060 A 
ATOM     28  C   UNL     1      -6.567   2.167   2.743  1.00  0.00     0.016 A 
ATOM     29  C   UNL     1      -8.429   3.449   3.647  1.00  0.00     0.016 A 
ATOM     30  C   UNL     1      -5.703   3.237   2.944  1.00  0.00     0.010 A 
ATOM     31  C   UNL     1      -7.616   4.551   3.722  1.00  0.00     0.010 A 
ATOM     32  C   UNL     1      -6.241   4.417   3.451  1.00  0.00    -0.014 A 
BRANCH  32  33
ATOM     33  C   UNL     1      -5.442   5.377   4.193  1.00  0.00     0.031 A 
ATOM     34  C   UNL     1      -4.699   6.474   3.574  1.00  0.00     0.074 A 
ATOM     35  C   UNL     1      -5.638   5.237   5.524  1.00  0.00     0.049 A 
ATOM     36  N   UNL     1      -3.797   7.143   4.203  1.00  0.00    -0.248 NA
ATOM     37  C   UNL     1      -4.866   6.891   2.188  1.00  0.00     0.031 C 
ATOM     38  C   UNL     1      -5.458   6.167   6.617  1.00  0.00     0.029 A 
ATOM     39  N   UNL     1      -6.008   4.038   6.158  1.00  0.00    -0.354 N 
ATOM     40  C   UNL     1      -3.506   8.258   3.442  1.00  0.00     0.074 A 
ATOM     41  C   UNL     1      -4.083   7.978   2.149  1.00  0.00     0.031 C 
ATOM     42  C   UNL     1      -5.464   5.468   7.770  1.00  0.00     0.029 A 
ATOM     43  C   UNL     1      -5.431   4.049   7.421  1.00  0.00     0.049 A 
ATOM     44  H   UNL     1      -6.571   3.326   5.778  1.00  0.00     0.167 HD
ATOM     45  C   UNL     1      -2.983   9.346   4.079  1.00  0.00     0.034 A 
ATOM     46  C   UNL     1      -4.468   3.139   7.759  1.00  0.00     0.034 A 
ATOM     47  C   UNL     1      -2.727   9.017   5.495  1.00  0.00     0.049 A 
ATOM     48  C   UNL     1      -3.161   3.845   8.064  1.00  0.00     0.074 A 
ATOM     49  C   UNL     1      -3.481   9.221   6.641  1.00  0.00     0.029 A 
ATOM     50  N   UNL     1      -1.748   8.087   5.831  1.00  0.00    -0.354 N 
ATOM     51  N   UNL     1      -2.909   5.079   7.729  1.00  0.00    -0.248 NA
ATOM     52  C   UNL     1      -2.033   3.210   8.733  1.00  0.00     0.031 C 
ATOM     53  C   UNL     1      -3.016   8.320   7.637  1.00  0.00     0.029 A 
ATOM     54  C   UNL     1      -1.956   7.598   7.115  1.00  0.00     0.049 A 
ATOM     55  H   UNL     1      -1.010   7.813   5.241  1.00  0.00     0.167 HD
ATOM     56  C   UNL     1      -1.620   5.395   8.040  1.00  0.00     0.074 A 
ATOM     57  C   UNL     1      -1.127   4.204   8.717  1.00  0.00     0.031 C 
ATOM     58  C   UNL     1      -1.061   6.587   7.672  1.00  0.00     0.034 A 
BRANCH  45  59
ATOM     59  C   UNL     1      -3.018  10.791   3.581  1.00  0.00     0.023 A 
ATOM     60  C   UNL     1      -2.851  11.800   4.563  1.00  0.00     0.012 A 
ATOM     61  C   UNL     1      -3.271  11.257   2.268  1.00  0.00     0.148 A 
ATOM     62  C   UNL     1      -3.020  13.163   4.295  1.00  0.00     0.002 A 
ATOM     63  C   UNL     1      -3.461  12.621   1.999  1.00  0.00     0.091 A 
ATOM     64  F   UNL     1      -3.288  10.398   1.248  1.00  0.00    -0.205 F 
ATOM     65  C   UNL     1      -3.350  13.574   3.016  1.00  0.00     0.022 A 
BRANCH  63  66
ATOM     66  S   UNL     1      -3.890  13.258   0.365  1.00  0.00     0.127 S 
ATOM     67  O   UNL     1      -5.170  13.920   0.620  1.00  0.00    -0.237 OA
ATOM     68  O   UNL     1      -2.783  14.171   0.084  1.00  0.00    -0.237 OA
ATOM     69  O   UNL     1      -3.973  12.103  -0.520  1.00  0.00    -0.744 OA
ENDBRANCH  63  66
ENDBRANCH  45  59
BRANCH  46  70
ATOM     70  C   UNL     1      -4.555   1.823   7.022  1.00  0.00     0.023 A 
ATOM     71  C   UNL     1      -5.789   1.117   7.046  1.00  0.00     0.012 A 
ATOM     72  C   UNL     1      -3.616   1.476   6.036  1.00  0.00     0.148 A 
ATOM     73  C   UNL     1      -6.122   0.200   6.042  1.00  0.00     0.002 A 
ATOM     74  C   UNL     1      -3.965   0.577   5.027  1.00  0.00     0.091 A 
ATOM     75  F   UNL     1      -2.414   2.064   6.042  1.00  0.00    -0.205 F 
ATOM     76  C   UNL     1      -5.218  -0.051   5.018  1.00  0.00     0.022 A 
BRANCH  74  77
ATOM     77  S   UNL     1      -2.901   0.398   3.586  1.00  0.00     0.127 S 
ATOM     78  O   UNL     1      -3.835  -0.079   2.564  1.00  0.00    -0.237 OA
ATOM     79  O   UNL     1      -2.416   1.752   3.352  1.00  0.00    -0.237 OA
ATOM     80  O   UNL     1      -1.931  -0.586   4.051  1.00  0.00    -0.744 OA
ENDBRANCH  74  77
ENDBRANCH  46  70
BRANCH  58  81
ATOM     81  C   UNL     1       0.403   6.924   7.811  1.00  0.00     0.023 A 
ATOM     82  C   UNL     1       1.405   5.937   7.802  1.00  0.00     0.012 A 
ATOM     83  C   UNL     1       0.826   8.276   7.794  1.00  0.00     0.148 A 
ATOM     84  C   UNL     1       2.761   6.271   7.851  1.00  0.00     0.002 A 
ATOM     85  C   UNL     1       2.173   8.600   7.709  1.00  0.00     0.091 A 
ATOM     86  F   UNL     1      -0.078   9.264   7.878  1.00  0.00    -0.205 F 
ATOM     87  C   UNL     1       3.147   7.603   7.777  1.00  0.00     0.022 A 
BRANCH  85  88
ATOM     88  S   UNL     1       2.686  10.281   7.332  1.00  0.00     0.127 S 
ATOM     89  O   UNL     1       2.901  10.840   8.664  1.00  0.00    -0.237 OA
ATOM     90  O   UNL     1       3.909  10.069   6.555  1.00  0.00    -0.237 OA
ATOM     91  O   UNL     1       1.586  10.849   6.563  1.00  0.00    -0.744 OA
ENDBRANCH  85  88
ENDBRANCH  58  81
ENDBRANCH  32  33
ENDBRANCH  25  27
ENDBRANCH  24  25
ENDBRANCH   1  24
TORSDOF 16
