REMARK SMILES O=C(OCCOC(=O)[C@H]1CCCCN1c1cc(-c2ccccc2)nc(-c2cccc(Cl)c2)n1)c1ccc(-c2c3nc(c(-c4cccc(S(=O)(=O)[O-])c4F)c4ccc([nH]4)c(-c4cccc(S(=O)(=O)[O-])c4F)c4nc(c(-c5cccc(S(=O)(=O)[O-])c5F)c5ccc2[nH]5)C=C4)C=C3)cc1
REMARK SMILES IDX 4 1 3 2 2 3 1 4 34 5 35 6 96 7 36 8 95 9 37 10 38 11 39 12
REMARK SMILES IDX 89 13 40 14 94 15 88 16 90 17 41 18 93 19 87 20 86 21 42 23
REMARK SMILES IDX 74 24 54 25 73 26 55 27 58 28 72 29 91 30 56 31 57 32 71 34
REMARK SMILES IDX 92 35 59 36 43 37 44 38 52 39 45 40 47 41 53 42 46 43 48 44
REMARK SMILES IDX 49 45 50 46 51 47 75 48 76 49 84 50 77 51 79 52 85 53 78 54
REMARK SMILES IDX 80 55 81 56 82 57 83 58 60 59 61 60 69 61 62 62 64 63 70 64
REMARK SMILES IDX 63 65 65 66 66 67 67 68 68 69 5 70 6 71 7 72 8 73 9 74 10 75
REMARK SMILES IDX 14 76 11 77 13 78 12 79 15 80 16 81 33 82 17 83 25 84 24 85
REMARK SMILES IDX 18 86 19 87 23 88 20 89 22 90 21 91 26 92 27 93 32 94 28 95
REMARK SMILES IDX 30 96 29 97 31 98
REMARK H PARENT 90 22 58 33
REMARK Flexibility Score: inf
ROOT
ATOM      1  C   UNL     1      -1.633   2.289   1.103  1.00  0.00     0.275 C 
ENDROOT
BRANCH   1   2
ATOM      2  O   UNL     1      -1.509   3.346   2.068  1.00  0.00    -0.458 OA
BRANCH   2   3
ATOM      3  C   UNL     1      -1.063   3.251   3.357  1.00  0.00     0.338 C 
ATOM      4  O   UNL     1      -1.207   4.139   4.147  1.00  0.00    -0.246 OA
BRANCH   3   5
ATOM      5  C   UNL     1      -0.197   2.090   3.691  1.00  0.00     0.060 A 
ATOM      6  C   UNL     1      -0.472   0.762   3.357  1.00  0.00     0.016 A 
ATOM      7  C   UNL     1       1.016   2.411   4.283  1.00  0.00     0.016 A 
ATOM      8  C   UNL     1       0.557  -0.173   3.313  1.00  0.00     0.010 A 
ATOM      9  C   UNL     1       2.018   1.456   4.303  1.00  0.00     0.010 A 
ATOM     10  C   UNL     1       1.833   0.198   3.712  1.00  0.00    -0.014 A 
BRANCH  10  11
ATOM     11  C   UNL     1       2.946  -0.774   3.655  1.00  0.00     0.031 A 
ATOM     12  C   UNL     1       3.785  -0.705   5.304  1.00  0.00     0.074 A 
ATOM     13  C   UNL     1       3.230  -1.491   2.385  1.00  0.00     0.049 A 
ATOM     14  N   UNL     1       5.092  -0.805   5.580  1.00  0.00    -0.248 NA
ATOM     15  C   UNL     1       3.120  -0.350   6.571  1.00  0.00     0.031 C 
ATOM     16  C   UNL     1       2.874  -1.153   0.974  1.00  0.00     0.029 A 
ATOM     17  N   UNL     1       4.068  -2.605   2.016  1.00  0.00    -0.354 N 
ATOM     18  C   UNL     1       5.401  -0.860   6.907  1.00  0.00     0.074 A 
ATOM     19  C   UNL     1       4.142  -0.337   7.460  1.00  0.00     0.031 C 
ATOM     20  C   UNL     1       3.672  -1.829   0.071  1.00  0.00     0.029 A 
ATOM     21  C   UNL     1       4.621  -2.715   0.760  1.00  0.00     0.049 A 
ATOM     22  H   UNL     1       4.249  -3.307   2.682  1.00  0.00     0.167 HD
ATOM     23  C   UNL     1       6.527  -1.384   7.542  1.00  0.00     0.034 A 
ATOM     24  C   UNL     1       5.729  -3.464   0.372  1.00  0.00     0.034 A 
ATOM     25  C   UNL     1       7.634  -2.316   7.021  1.00  0.00     0.049 A 
ATOM     26  C   UNL     1       6.924  -4.118   1.364  1.00  0.00     0.074 A 
ATOM     27  C   UNL     1       8.275  -3.322   7.757  1.00  0.00     0.029 A 
ATOM     28  N   UNL     1       8.315  -2.421   5.763  1.00  0.00    -0.354 N 
ATOM     29  N   UNL     1       7.535  -3.636   2.433  1.00  0.00    -0.248 NA
ATOM     30  C   UNL     1       7.595  -5.385   0.994  1.00  0.00     0.031 C 
ATOM     31  C   UNL     1       9.033  -4.171   6.899  1.00  0.00     0.029 A 
ATOM     32  C   UNL     1       8.847  -3.772   5.572  1.00  0.00     0.049 A 
ATOM     33  H   UNL     1       8.412  -1.685   5.117  1.00  0.00     0.167 HD
ATOM     34  C   UNL     1       8.407  -4.583   3.026  1.00  0.00     0.074 A 
ATOM     35  C   UNL     1       8.457  -5.614   1.996  1.00  0.00     0.031 C 
ATOM     36  C   UNL     1       8.984  -4.677   4.305  1.00  0.00     0.034 A 
BRANCH  23  37
ATOM     37  C   UNL     1       6.528  -1.224   9.062  1.00  0.00     0.023 A 
ATOM     38  C   UNL     1       5.472  -1.750   9.834  1.00  0.00     0.012 A 
ATOM     39  C   UNL     1       7.622  -0.638   9.738  1.00  0.00     0.148 A 
ATOM     40  C   UNL     1       5.431  -1.582  11.219  1.00  0.00     0.002 A 
ATOM     41  C   UNL     1       7.611  -0.540  11.130  1.00  0.00     0.091 A 
ATOM     42  F   UNL     1       8.655  -0.172   9.020  1.00  0.00    -0.205 F 
ATOM     43  C   UNL     1       6.501  -0.978  11.867  1.00  0.00     0.022 A 
BRANCH  41  44
ATOM     44  S   UNL     1       9.027   0.077  12.055  1.00  0.00     0.127 S 
ATOM     45  O   UNL     1       8.704   1.496  12.189  1.00  0.00    -0.237 OA
ATOM     46  O   UNL     1       8.950  -0.681  13.306  1.00  0.00    -0.237 OA
ATOM     47  O   UNL     1      10.189  -0.241  11.237  1.00  0.00    -0.744 OA
ENDBRANCH  41  44
ENDBRANCH  23  37
BRANCH  24  48
ATOM     48  C   UNL     1       5.944  -3.799  -1.089  1.00  0.00     0.023 A 
ATOM     49  C   UNL     1       5.756  -5.145  -1.480  1.00  0.00     0.012 A 
ATOM     50  C   UNL     1       6.428  -2.898  -2.055  1.00  0.00     0.148 A 
ATOM     51  C   UNL     1       6.173  -5.614  -2.730  1.00  0.00     0.002 A 
ATOM     52  C   UNL     1       6.816  -3.363  -3.317  1.00  0.00     0.091 A 
ATOM     53  F   UNL     1       6.480  -1.598  -1.746  1.00  0.00    -0.205 F 
ATOM     54  C   UNL     1       6.722  -4.725  -3.642  1.00  0.00     0.022 A 
BRANCH  52  55
ATOM     55  S   UNL     1       7.469  -2.286  -4.605  1.00  0.00     0.127 S 
ATOM     56  O   UNL     1       8.629  -3.037  -5.087  1.00  0.00    -0.237 OA
ATOM     57  O   UNL     1       6.346  -2.239  -5.541  1.00  0.00    -0.237 OA
ATOM     58  O   UNL     1       7.788  -1.027  -3.948  1.00  0.00    -0.744 OA
ENDBRANCH  52  55
ENDBRANCH  24  48
BRANCH  36  59
ATOM     59  C   UNL     1       9.654  -6.056   4.572  1.00  0.00     0.023 A 
ATOM     60  C   UNL     1      10.976  -6.258   4.136  1.00  0.00     0.012 A 
ATOM     61  C   UNL     1       9.009  -7.138   5.242  1.00  0.00     0.148 A 
ATOM     62  C   UNL     1      11.632  -7.479   4.349  1.00  0.00     0.002 A 
ATOM     63  C   UNL     1       9.684  -8.340   5.487  1.00  0.00     0.091 A 
ATOM     64  F   UNL     1       7.736  -7.004   5.625  1.00  0.00    -0.205 F 
ATOM     65  C   UNL     1      10.995  -8.513   5.032  1.00  0.00     0.022 A 
BRANCH  63  66
ATOM     66  S   UNL     1       8.970  -9.718   6.415  1.00  0.00     0.127 S 
ATOM     67  O   UNL     1       8.846 -10.748   5.384  1.00  0.00    -0.237 OA
ATOM     68  O   UNL     1      10.004  -9.986   7.416  1.00  0.00    -0.237 OA
ATOM     69  O   UNL     1       7.709  -9.233   6.960  1.00  0.00    -0.744 OA
ENDBRANCH  63  66
ENDBRANCH  36  59
ENDBRANCH  10  11
ENDBRANCH   3   5
ENDBRANCH   2   3
ENDBRANCH   1   2
BRANCH   1  70
ATOM     70  C   UNL     1      -0.430   1.972   0.182  1.00  0.00     0.274 C 
BRANCH  70  71
ATOM     71  O   UNL     1       0.888   1.646   0.707  1.00  0.00    -0.461 OA
BRANCH  71  72
ATOM     72  C   UNL     1       1.712   2.713   0.958  1.00  0.00     0.328 C 
ATOM     73  O   UNL     1       1.216   3.820   1.156  1.00  0.00    -0.250 OA
BRANCH  72  74
ATOM     74  C   UNL     1       3.279   2.441   0.758  1.00  0.00     0.193 C 
ATOM     75  C   UNL     1       3.798   3.707   0.024  1.00  0.00     0.037 C 
ATOM     76  N   UNL     1       4.114   2.204   2.007  1.00  0.00    -0.343 N 
ATOM     77  C   UNL     1       3.842   4.942   0.931  1.00  0.00     0.005 C 
ATOM     78  C   UNL     1       4.261   3.364   2.897  1.00  0.00     0.119 C 
ATOM     79  C   UNL     1       4.662   4.656   2.179  1.00  0.00     0.022 C 
BRANCH  76  80
ATOM     80  C   UNL     1       5.101   1.172   2.076  1.00  0.00     0.134 A 
ATOM     81  C   UNL     1       5.257   0.335   3.214  1.00  0.00     0.076 A 
ATOM     82  N   UNL     1       5.893   0.895   1.068  1.00  0.00    -0.211 NA
ATOM     83  C   UNL     1       5.811  -1.035   3.211  1.00  0.00     0.076 A 
ATOM     84  C   UNL     1       6.779  -0.138   1.268  1.00  0.00     0.162 A 
ATOM     85  N   UNL     1       6.726  -1.141   2.232  1.00  0.00    -0.228 NA
BRANCH  83  86
ATOM     86  C   UNL     1       5.262  -2.531   4.125  1.00  0.00     0.000 A 
ATOM     87  C   UNL     1       6.111  -3.454   4.607  1.00  0.00     0.010 A 
ATOM     88  C   UNL     1       3.941  -3.111   4.562  1.00  0.00     0.010 A 
ATOM     89  C   UNL     1       5.866  -4.610   5.428  1.00  0.00     0.001 A 
ATOM     90  C   UNL     1       3.611  -4.241   5.356  1.00  0.00     0.001 A 
ATOM     91  C   UNL     1       4.619  -4.998   5.835  1.00  0.00     0.000 A 
ENDBRANCH  83  86
BRANCH  84  92
ATOM     92  C   UNL     1       8.011  -0.009   0.457  1.00  0.00     0.021 A 
ATOM     93  C   UNL     1       8.501   1.270   0.097  1.00  0.00     0.012 A 
ATOM     94  C   UNL     1       8.737  -1.119   0.015  1.00  0.00     0.032 A 
ATOM     95  C   UNL     1       9.643   1.429  -0.692  1.00  0.00     0.002 A 
ATOM     96  C   UNL     1       9.855  -0.964  -0.806  1.00  0.00     0.041 A 
ATOM     97  C   UNL     1      10.312   0.303  -1.159  1.00  0.00     0.020 A 
ATOM     98  Cl  UNL     1      10.684  -2.361  -1.381  1.00  0.00    -0.084 Cl
ENDBRANCH  84  92
ENDBRANCH  76  80
ENDBRANCH  72  74
ENDBRANCH  71  72
ENDBRANCH  70  71
ENDBRANCH   1  70
TORSDOF 17
