REMARK SMILES CCn1nc(C)c2nc(SCC(=O)OCCOC(=O)c3ccc(-c4c5nc(c(-c6cccc(S(=O)(=O)[O-])c6F)c6ccc([nH]6)c(-c6cccc(S(=O)(=O)[O-])c6F)c6nc(c(-c7cccc(S(=O)(=O)[O-])c7F)c7ccc4[nH]7)C=C6)C=C5)cc3)n(CC3CC3)c21
REMARK SMILES IDX 15 1 14 2 12 3 13 4 11 5 10 6 9 7 3 8 4 9 88 10 5 11 7 12
REMARK SMILES IDX 83 13 6 14 8 15 2 16 1 17 84 18 85 19 86 20 87 21 16 22
REMARK SMILES IDX 17 23 18 24 19 25 20 26 21 27 82 28 22 29 81 30 23 31 24 32
REMARK SMILES IDX 25 33 75 34 26 35 80 36 74 37 76 38 27 39 79 40 73 41 72 42
REMARK SMILES IDX 28 44 60 45 40 46 59 47 41 48 44 49 58 50 77 51 42 52 43 53
REMARK SMILES IDX 57 55 78 56 45 57 29 58 30 59 38 60 31 61 33 62 39 63 32 64
REMARK SMILES IDX 34 65 35 66 36 67 37 68 61 69 62 70 70 71 63 72 65 73 71 74
REMARK SMILES IDX 64 75 66 76 67 77 68 78 69 79 46 80 47 81 55 82 48 83 50 84
REMARK SMILES IDX 56 85 49 86 51 87 52 88 53 89 54 90
REMARK H PARENT 76 43 44 54
REMARK Flexibility Score: inf
ROOT
ATOM      1  C   UNL     1       7.391  -0.697   2.892  1.00  0.00     0.274 C 
ENDROOT
BRANCH   1   2
ATOM      2  O   UNL     1       6.546  -1.571   3.662  1.00  0.00    -0.461 OA
BRANCH   2   3
ATOM      3  C   UNL     1       6.168  -1.158   4.896  1.00  0.00     0.316 C 
ATOM      4  O   UNL     1       6.707  -0.250   5.523  1.00  0.00    -0.251 OA
BRANCH   3   5
ATOM      5  C   UNL     1       4.905  -1.850   5.370  1.00  0.00     0.200 C 
BRANCH   5   6
ATOM      6  S   UNL     1       4.707  -3.549   4.809  1.00  0.00    -0.076 SA
BRANCH   6   7
ATOM      7  C   UNL     1       3.266  -3.789   3.857  1.00  0.00     0.170 A 
ATOM      8  N   UNL     1       1.351  -3.529   0.930  1.00  0.00    -0.247 N 
ATOM      9  N   UNL     1       0.945  -4.759   0.527  1.00  0.00    -0.174 NA
ATOM     10  C   UNL     1       1.914  -3.572   2.165  1.00  0.00     0.159 A 
ATOM     11  C   UNL     1       1.402  -5.593   1.486  1.00  0.00     0.087 A 
ATOM     12  C   UNL     1       2.093  -4.866   2.458  1.00  0.00     0.132 A 
ATOM     13  N   UNL     1       2.490  -2.863   3.180  1.00  0.00    -0.304 N 
ATOM     14  C   UNL     1       1.151  -7.041   1.370  1.00  0.00     0.071 C 
ATOM     15  N   UNL     1       2.895  -5.033   3.531  1.00  0.00    -0.219 NA
BRANCH   8  16
ATOM     16  C   UNL     1       1.531  -2.479  -0.060  1.00  0.00     0.143 C 
ATOM     17  C   UNL     1       2.976  -1.993  -0.053  1.00  0.00     0.029 C 
ENDBRANCH   8  16
BRANCH  13  18
ATOM     18  C   UNL     1       2.329  -1.430   3.304  1.00  0.00     0.130 C 
BRANCH  18  19
ATOM     19  C   UNL     1       1.725  -0.859   4.552  1.00  0.00     0.009 C 
ATOM     20  C   UNL     1       0.370  -1.299   5.038  1.00  0.00     0.006 C 
ATOM     21  C   UNL     1       1.588  -1.556   5.881  1.00  0.00     0.006 C 
ENDBRANCH  18  19
ENDBRANCH  13  18
ENDBRANCH   6   7
ENDBRANCH   5   6
ENDBRANCH   3   5
ENDBRANCH   2   3
ENDBRANCH   1   2
BRANCH   1  22
ATOM     22  C   UNL     1       6.619  -0.375   1.618  1.00  0.00     0.275 C 
BRANCH  22  23
ATOM     23  O   UNL     1       6.146   0.984   1.577  1.00  0.00    -0.458 OA
BRANCH  23  24
ATOM     24  C   UNL     1       4.989   1.206   2.251  1.00  0.00     0.338 C 
ATOM     25  O   UNL     1       4.778   0.923   3.411  1.00  0.00    -0.246 OA
BRANCH  24  26
ATOM     26  C   UNL     1       3.913   1.546   1.285  1.00  0.00     0.060 A 
ATOM     27  C   UNL     1       2.603   1.425   1.742  1.00  0.00     0.016 A 
ATOM     28  C   UNL     1       4.169   1.703  -0.082  1.00  0.00     0.016 A 
ATOM     29  C   UNL     1       1.597   1.176   0.825  1.00  0.00     0.010 A 
ATOM     30  C   UNL     1       3.138   1.558  -1.002  1.00  0.00     0.010 A 
ATOM     31  C   UNL     1       1.877   1.173  -0.556  1.00  0.00    -0.014 A 
BRANCH  31  32
ATOM     32  C   UNL     1       0.763   0.898  -1.482  1.00  0.00     0.031 A 
ATOM     33  C   UNL     1      -0.429   1.725  -1.125  1.00  0.00     0.074 A 
ATOM     34  C   UNL     1       0.818   0.037  -2.530  1.00  0.00     0.049 A 
ATOM     35  N   UNL     1      -1.616   1.325  -0.799  1.00  0.00    -0.248 NA
ATOM     36  C   UNL     1      -0.185   3.159  -0.850  1.00  0.00     0.031 C 
ATOM     37  C   UNL     1       2.000  -0.677  -3.029  1.00  0.00     0.029 A 
ATOM     38  N   UNL     1      -0.137  -0.326  -3.454  1.00  0.00    -0.354 N 
ATOM     39  C   UNL     1      -2.323   2.501  -0.555  1.00  0.00     0.074 A 
ATOM     40  C   UNL     1      -1.355   3.541  -0.344  1.00  0.00     0.031 C 
ATOM     41  C   UNL     1       1.746  -1.228  -4.227  1.00  0.00     0.029 A 
ATOM     42  C   UNL     1       0.417  -0.846  -4.631  1.00  0.00     0.049 A 
ATOM     43  H   UNL     1      -1.105  -0.231  -3.303  1.00  0.00     0.167 HD
ATOM     44  C   UNL     1      -3.627   2.620  -0.915  1.00  0.00     0.034 A 
ATOM     45  C   UNL     1      -0.058  -0.796  -5.906  1.00  0.00     0.034 A 
ATOM     46  C   UNL     1      -4.273   1.346  -1.017  1.00  0.00     0.049 A 
ATOM     47  C   UNL     1      -1.511  -0.556  -5.833  1.00  0.00     0.074 A 
ATOM     48  C   UNL     1      -4.508   0.306  -0.142  1.00  0.00     0.029 A 
ATOM     49  N   UNL     1      -4.451   0.843  -2.280  1.00  0.00    -0.354 N 
ATOM     50  N   UNL     1      -2.349  -1.432  -5.359  1.00  0.00    -0.248 NA
ATOM     51  C   UNL     1      -1.956   0.827  -5.806  1.00  0.00     0.031 C 
ATOM     52  C   UNL     1      -4.388  -0.873  -0.927  1.00  0.00     0.029 A 
ATOM     53  C   UNL     1      -4.170  -0.495  -2.253  1.00  0.00     0.049 A 
ATOM     54  H   UNL     1      -4.733   1.357  -3.071  1.00  0.00     0.167 HD
ATOM     55  C   UNL     1      -3.166  -0.684  -4.524  1.00  0.00     0.074 A 
ATOM     56  C   UNL     1      -2.939   0.709  -4.910  1.00  0.00     0.031 C 
ATOM     57  C   UNL     1      -3.704  -1.237  -3.401  1.00  0.00     0.034 A 
BRANCH  44  58
ATOM     58  C   UNL     1      -4.156   3.860  -1.592  1.00  0.00     0.023 A 
ATOM     59  C   UNL     1      -5.550   4.016  -1.697  1.00  0.00     0.012 A 
ATOM     60  C   UNL     1      -3.349   4.740  -2.356  1.00  0.00     0.148 A 
ATOM     61  C   UNL     1      -6.108   4.999  -2.525  1.00  0.00     0.002 A 
ATOM     62  C   UNL     1      -3.901   5.773  -3.096  1.00  0.00     0.091 A 
ATOM     63  F   UNL     1      -2.042   4.497  -2.495  1.00  0.00    -0.205 F 
ATOM     64  C   UNL     1      -5.285   5.891  -3.208  1.00  0.00     0.022 A 
BRANCH  62  65
ATOM     65  S   UNL     1      -2.868   6.975  -3.943  1.00  0.00     0.127 S 
ATOM     66  O   UNL     1      -3.083   6.614  -5.341  1.00  0.00    -0.237 OA
ATOM     67  O   UNL     1      -3.477   8.237  -3.524  1.00  0.00    -0.237 OA
ATOM     68  O   UNL     1      -1.519   6.766  -3.430  1.00  0.00    -0.744 OA
ENDBRANCH  62  65
ENDBRANCH  44  58
BRANCH  45  69
ATOM     69  C   UNL     1       0.739  -0.567  -7.152  1.00  0.00     0.023 A 
ATOM     70  C   UNL     1       0.162  -0.760  -8.424  1.00  0.00     0.012 A 
ATOM     71  C   UNL     1       2.004   0.068  -7.112  1.00  0.00     0.148 A 
ATOM     72  C   UNL     1       0.820  -0.337  -9.593  1.00  0.00     0.002 A 
ATOM     73  C   UNL     1       2.671   0.446  -8.271  1.00  0.00     0.091 A 
ATOM     74  F   UNL     1       2.529   0.422  -5.934  1.00  0.00    -0.205 F 
ATOM     75  C   UNL     1       2.078   0.260  -9.518  1.00  0.00     0.022 A 
BRANCH  73  76
ATOM     76  S   UNL     1       4.296   1.214  -8.181  1.00  0.00     0.127 S 
ATOM     77  O   UNL     1       4.984   0.625  -9.330  1.00  0.00    -0.237 OA
ATOM     78  O   UNL     1       3.969   2.630  -8.320  1.00  0.00    -0.237 OA
ATOM     79  O   UNL     1       4.848   0.810  -6.892  1.00  0.00    -0.744 OA
ENDBRANCH  73  76
ENDBRANCH  45  69
BRANCH  57  80
ATOM     80  C   UNL     1      -3.631  -2.733  -3.239  1.00  0.00     0.023 A 
ATOM     81  C   UNL     1      -2.419  -3.433  -3.059  1.00  0.00     0.012 A 
ATOM     82  C   UNL     1      -4.845  -3.420  -3.083  1.00  0.00     0.148 A 
ATOM     83  C   UNL     1      -2.426  -4.795  -2.738  1.00  0.00     0.002 A 
ATOM     84  C   UNL     1      -4.849  -4.760  -2.724  1.00  0.00     0.091 A 
ATOM     85  F   UNL     1      -5.984  -2.733  -3.257  1.00  0.00    -0.205 F 
ATOM     86  C   UNL     1      -3.642  -5.455  -2.557  1.00  0.00     0.022 A 
BRANCH  84  87
ATOM     87  S   UNL     1      -6.383  -5.615  -2.359  1.00  0.00     0.127 S 
ATOM     88  O   UNL     1      -6.562  -6.440  -3.552  1.00  0.00    -0.237 OA
ATOM     89  O   UNL     1      -6.051  -6.357  -1.143  1.00  0.00    -0.237 OA
ATOM     90  O   UNL     1      -7.385  -4.573  -2.162  1.00  0.00    -0.744 OA
ENDBRANCH  84  87
ENDBRANCH  57  80
ENDBRANCH  31  32
ENDBRANCH  24  26
ENDBRANCH  23  24
ENDBRANCH  22  23
ENDBRANCH   1  22
TORSDOF 19
