REMARK SMILES CCC(CC)(CC(=O)Nc1ccc(F)c(F)c1)C(=O)OCCOC(=O)c1ccc(-c2c3nc(c(-c4cccc(S(=O)(=O)[O-])c4F)c4ccc([nH]4)c(-c4cccc(S(=O)(=O)[O-])c4F)c4nc(c(-c5cccc(S(=O)(=O)[O-])c5F)c5ccc2[nH]5)C=C4)C=C3)cc1
REMARK SMILES IDX 21 1 20 2 18 3 19 4 3 5 2 6 1 7 4 8 5 9 6 10 7 11 8 12 9 13
REMARK SMILES IDX 10 15 11 16 17 17 12 18 15 19 13 20 16 21 14 22 22 23 23 24
REMARK SMILES IDX 24 25 25 26 26 27 27 28 88 29 28 30 87 31 29 32 30 33 31 34
REMARK SMILES IDX 81 35 32 36 86 37 80 38 82 39 33 40 85 41 79 42 78 43 34 45
REMARK SMILES IDX 66 46 46 47 65 48 47 49 50 50 64 51 83 52 48 53 49 54 63 56
REMARK SMILES IDX 84 57 51 58 35 59 36 60 44 61 37 62 39 63 45 64 38 65 40 66
REMARK SMILES IDX 41 67 42 68 43 69 67 70 68 71 76 72 69 73 71 74 77 75 70 76
REMARK SMILES IDX 72 77 73 78 74 79 75 80 52 81 53 82 61 83 54 84 56 85 62 86
REMARK SMILES IDX 55 87 57 88 58 89 59 90 60 91
REMARK H PARENT 9 14 82 44 50 55
REMARK Flexibility Score: inf
ROOT
ATOM      1  C   UNL     1       4.259   1.704   3.679  1.00  0.00     0.274 C 
ENDROOT
BRANCH   1   2
ATOM      2  O   UNL     1       2.826   1.565   3.575  1.00  0.00    -0.462 OA
BRANCH   2   3
ATOM      3  C   UNL     1       2.372   1.475   2.296  1.00  0.00     0.312 C 
ATOM      4  O   UNL     1       3.104   1.544   1.313  1.00  0.00    -0.252 OA
BRANCH   3   5
ATOM      5  C   UNL     1       0.839   1.453   2.184  1.00  0.00     0.076 C 
BRANCH   5   6
ATOM      6  C   UNL     1       0.466   0.949   0.761  1.00  0.00     0.016 C 
ATOM      7  C   UNL     1       0.685   1.862  -0.438  1.00  0.00     0.005 C 
ENDBRANCH   5   6
BRANCH   5   8
ATOM      8  C   UNL     1       0.385   2.926   2.398  1.00  0.00     0.016 C 
ATOM      9  C   UNL     1      -1.117   3.169   2.301  1.00  0.00     0.005 C 
ENDBRANCH   5   8
BRANCH   5  10
ATOM     10  C   UNL     1       0.129   0.527   3.215  1.00  0.00     0.119 C 
BRANCH  10  11
ATOM     11  C   UNL     1       0.691  -0.855   3.556  1.00  0.00     0.225 C 
ATOM     12  O   UNL     1       1.738  -0.968   4.193  1.00  0.00    -0.275 OA
ATOM     13  N   UNL     1      -0.116  -1.960   3.405  1.00  0.00    -0.326 N 
ATOM     14  H   UNL     1      -0.028  -2.640   4.112  1.00  0.00     0.169 HD
BRANCH  13  15
ATOM     15  C   UNL     1      -1.045  -2.267   2.398  1.00  0.00     0.044 A 
ATOM     16  C   UNL     1      -0.752  -2.038   1.055  1.00  0.00     0.029 A 
ATOM     17  C   UNL     1      -2.215  -2.953   2.719  1.00  0.00     0.068 A 
ATOM     18  C   UNL     1      -1.651  -2.372   0.040  1.00  0.00     0.044 A 
ATOM     19  C   UNL     1      -3.122  -3.279   1.707  1.00  0.00     0.160 A 
ATOM     20  C   UNL     1      -2.851  -2.975   0.378  1.00  0.00     0.158 A 
ATOM     21  F   UNL     1      -4.272  -3.885   2.032  1.00  0.00    -0.204 F 
ATOM     22  F   UNL     1      -3.732  -3.274  -0.585  1.00  0.00    -0.204 F 
ENDBRANCH  13  15
ENDBRANCH  10  11
ENDBRANCH   5  10
ENDBRANCH   3   5
ENDBRANCH   2   3
ENDBRANCH   1   2
BRANCH   1  23
ATOM     23  C   UNL     1       4.989   0.359   3.718  1.00  0.00     0.275 C 
BRANCH  23  24
ATOM     24  O   UNL     1       4.578  -0.485   2.632  1.00  0.00    -0.458 OA
BRANCH  24  25
ATOM     25  C   UNL     1       4.499  -1.802   2.928  1.00  0.00     0.338 C 
ATOM     26  O   UNL     1       4.843  -2.326   3.983  1.00  0.00    -0.246 OA
BRANCH  25  27
ATOM     27  C   UNL     1       3.957  -2.580   1.787  1.00  0.00     0.060 A 
ATOM     28  C   UNL     1       3.189  -2.005   0.771  1.00  0.00     0.016 A 
ATOM     29  C   UNL     1       4.192  -3.955   1.762  1.00  0.00     0.016 A 
ATOM     30  C   UNL     1       2.589  -2.813  -0.206  1.00  0.00     0.010 A 
ATOM     31  C   UNL     1       3.667  -4.743   0.735  1.00  0.00     0.010 A 
ATOM     32  C   UNL     1       2.822  -4.195  -0.244  1.00  0.00    -0.014 A 
BRANCH  32  33
ATOM     33  C   UNL     1       2.212  -5.104  -1.266  1.00  0.00     0.031 A 
ATOM     34  C   UNL     1       1.534  -6.378  -0.823  1.00  0.00     0.074 A 
ATOM     35  C   UNL     1       2.344  -4.870  -2.588  1.00  0.00     0.049 A 
ATOM     36  N   UNL     1       1.289  -7.469  -1.502  1.00  0.00    -0.248 NA
ATOM     37  C   UNL     1       1.106  -6.442   0.585  1.00  0.00     0.031 C 
ATOM     38  C   UNL     1       2.948  -3.682  -3.187  1.00  0.00     0.029 A 
ATOM     39  N   UNL     1       2.014  -5.656  -3.670  1.00  0.00    -0.354 N 
ATOM     40  C   UNL     1       0.791  -8.386  -0.582  1.00  0.00     0.074 A 
ATOM     41  C   UNL     1       0.732  -7.709   0.696  1.00  0.00     0.031 C 
ATOM     42  C   UNL     1       2.952  -3.813  -4.521  1.00  0.00     0.029 A 
ATOM     43  C   UNL     1       2.455  -5.140  -4.868  1.00  0.00     0.049 A 
ATOM     44  H   UNL     1       1.515  -6.501  -3.595  1.00  0.00     0.167 HD
ATOM     45  C   UNL     1       0.424  -9.676  -0.783  1.00  0.00     0.034 A 
ATOM     46  C   UNL     1       2.535  -5.687  -6.098  1.00  0.00     0.034 A 
ATOM     47  C   UNL     1       0.382 -10.313  -2.073  1.00  0.00     0.049 A 
ATOM     48  C   UNL     1       2.084  -7.102  -6.314  1.00  0.00     0.074 A 
ATOM     49  C   UNL     1      -0.042 -11.593  -2.387  1.00  0.00     0.029 A 
ATOM     50  N   UNL     1       0.754  -9.713  -3.265  1.00  0.00    -0.354 N 
ATOM     51  N   UNL     1       1.605  -7.954  -5.442  1.00  0.00    -0.248 NA
ATOM     52  C   UNL     1       2.179  -7.632  -7.683  1.00  0.00     0.031 C 
ATOM     53  C   UNL     1       0.076 -11.767  -3.770  1.00  0.00     0.029 A 
ATOM     54  C   UNL     1       0.565 -10.593  -4.318  1.00  0.00     0.049 A 
ATOM     55  H   UNL     1       1.102  -8.796  -3.352  1.00  0.00     0.167 HD
ATOM     56  C   UNL     1       1.329  -9.115  -6.154  1.00  0.00     0.074 A 
ATOM     57  C   UNL     1       1.672  -8.850  -7.537  1.00  0.00     0.031 C 
ATOM     58  C   UNL     1       0.857 -10.301  -5.698  1.00  0.00     0.034 A 
BRANCH  45  59
ATOM     59  C   UNL     1       0.016 -10.489   0.418  1.00  0.00     0.023 A 
ATOM     60  C   UNL     1      -1.241 -10.281   1.018  1.00  0.00     0.012 A 
ATOM     61  C   UNL     1       0.857 -11.506   0.916  1.00  0.00     0.148 A 
ATOM     62  C   UNL     1      -1.642 -11.049   2.111  1.00  0.00     0.002 A 
ATOM     63  C   UNL     1       0.434 -12.295   1.980  1.00  0.00     0.091 A 
ATOM     64  F   UNL     1       2.062 -11.677   0.353  1.00  0.00    -0.205 F 
ATOM     65  C   UNL     1      -0.811 -12.062   2.585  1.00  0.00     0.022 A 
BRANCH  63  66
ATOM     66  S   UNL     1       1.417 -13.670   2.590  1.00  0.00     0.127 S 
ATOM     67  O   UNL     1       2.127 -13.056   3.710  1.00  0.00    -0.237 OA
ATOM     68  O   UNL     1       0.396 -14.645   2.978  1.00  0.00    -0.237 OA
ATOM     69  O   UNL     1       2.241 -14.086   1.463  1.00  0.00    -0.744 OA
ENDBRANCH  63  66
ENDBRANCH  45  59
BRANCH  46  70
ATOM     70  C   UNL     1       3.088  -4.866  -7.213  1.00  0.00     0.023 A 
ATOM     71  C   UNL     1       2.220  -4.367  -8.200  1.00  0.00     0.012 A 
ATOM     72  C   UNL     1       4.444  -4.477  -7.226  1.00  0.00     0.148 A 
ATOM     73  C   UNL     1       2.689  -3.487  -9.177  1.00  0.00     0.002 A 
ATOM     74  C   UNL     1       4.887  -3.546  -8.156  1.00  0.00     0.091 A 
ATOM     75  F   UNL     1       5.259  -4.987  -6.292  1.00  0.00    -0.205 F 
ATOM     76  C   UNL     1       4.014  -3.059  -9.141  1.00  0.00     0.022 A 
BRANCH  74  77
ATOM     77  S   UNL     1       6.520  -2.802  -8.061  1.00  0.00     0.127 S 
ATOM     78  O   UNL     1       7.197  -3.418  -9.199  1.00  0.00    -0.237 OA
ATOM     79  O   UNL     1       6.215  -1.379  -8.221  1.00  0.00    -0.237 OA
ATOM     80  O   UNL     1       7.036  -3.157  -6.746  1.00  0.00    -0.744 OA
ENDBRANCH  74  77
ENDBRANCH  46  70
BRANCH  58  81
ATOM     81  C   UNL     1       0.651 -11.404  -6.701  1.00  0.00     0.023 A 
ATOM     82  C   UNL     1       1.763 -12.127  -7.175  1.00  0.00     0.012 A 
ATOM     83  C   UNL     1      -0.644 -11.777  -7.109  1.00  0.00     0.148 A 
ATOM     84  C   UNL     1       1.589 -13.193  -8.057  1.00  0.00     0.002 A 
ATOM     85  C   UNL     1      -0.812 -12.863  -7.959  1.00  0.00     0.091 A 
ATOM     86  F   UNL     1      -1.687 -11.061  -6.661  1.00  0.00    -0.205 F 
ATOM     87  C   UNL     1       0.303 -13.568  -8.440  1.00  0.00     0.022 A 
BRANCH  85  88
ATOM     88  S   UNL     1      -2.436 -13.464  -8.440  1.00  0.00     0.127 S 
ATOM     89  O   UNL     1      -2.532 -12.992  -9.820  1.00  0.00    -0.237 OA
ATOM     90  O   UNL     1      -2.288 -14.913  -8.300  1.00  0.00    -0.237 OA
ATOM     91  O   UNL     1      -3.377 -12.862  -7.505  1.00  0.00    -0.744 OA
ENDBRANCH  85  88
ENDBRANCH  58  81
ENDBRANCH  32  33
ENDBRANCH  25  27
ENDBRANCH  24  25
ENDBRANCH  23  24
ENDBRANCH   1  23
TORSDOF 19
