REMARK SMILES CC(C)OC[C@H](O)CC1(C(=O)OCCOC(=O)c2ccc(-c3c4nc(c(-c5cccc(S(=O)(=O)[O-])c5F)c5ccc([nH]5)c(-c5cccc(S(=O)(=O)[O-])c5F)c5nc(c(-c6cccc(S(=O)(=O)[O-])c6F)c6ccc3[nH]6)C=C5)C=C4)cc2)CCCCC1
REMARK SMILES IDX 13 1 12 2 10 3 11 4 9 5 81 6 85 7 82 8 84 9 83 10 8 11 6 12
REMARK SMILES IDX 5 13 4 14 2 15 1 16 3 17 7 18 14 20 15 21 16 22 17 23 18 24
REMARK SMILES IDX 19 25 80 26 20 27 79 28 21 29 22 30 23 31 73 32 24 33 78 34
REMARK SMILES IDX 72 35 74 36 25 37 77 38 71 39 70 40 26 42 58 43 38 44 57 45
REMARK SMILES IDX 39 46 42 47 56 48 75 49 40 50 41 51 55 53 76 54 43 55 27 56
REMARK SMILES IDX 28 57 36 58 29 59 31 60 37 61 30 62 32 63 33 64 34 65 35 66
REMARK SMILES IDX 59 67 60 68 68 69 61 70 63 71 69 72 62 73 64 74 65 75 66 76
REMARK SMILES IDX 67 77 44 78 45 79 53 80 46 81 48 82 54 83 47 84 49 85 50 86
REMARK SMILES IDX 51 87 52 88
REMARK H PARENT 7 19 74 41 42 52
REMARK Flexibility Score: inf
ROOT
ATOM      1  C   UNL     1      -5.190  -2.041  -5.993  1.00  0.00     0.274 C 
ENDROOT
BRANCH   1   2
ATOM      2  O   UNL     1      -4.734  -1.733  -4.659  1.00  0.00    -0.462 OA
BRANCH   2   3
ATOM      3  C   UNL     1      -3.834  -2.591  -4.114  1.00  0.00     0.312 C 
ATOM      4  O   UNL     1      -3.338  -3.531  -4.726  1.00  0.00    -0.252 OA
BRANCH   3   5
ATOM      5  C   UNL     1      -3.570  -2.341  -2.613  1.00  0.00     0.071 C 
ATOM      6  C   UNL     1      -4.094  -3.616  -1.881  1.00  0.00     0.019 C 
ATOM      7  C   UNL     1      -4.283  -1.092  -2.046  1.00  0.00     0.019 C 
ATOM      8  C   UNL     1      -5.613  -3.715  -1.821  1.00  0.00     0.001 C 
ATOM      9  C   UNL     1      -5.804  -1.215  -1.906  1.00  0.00     0.001 C 
ATOM     10  C   UNL     1      -6.205  -2.480  -1.160  1.00  0.00     0.000 C 
BRANCH   5  11
ATOM     11  C   UNL     1      -2.014  -2.325  -2.392  1.00  0.00     0.053 C 
BRANCH  11  12
ATOM     12  C   UNL     1      -1.242  -1.004  -2.250  1.00  0.00     0.141 C 
BRANCH  12  13
ATOM     13  C   UNL     1       0.300  -1.176  -2.145  1.00  0.00     0.192 C 
BRANCH  13  14
ATOM     14  O   UNL     1       0.742  -2.530  -2.178  1.00  0.00    -0.376 OA
BRANCH  14  15
ATOM     15  C   UNL     1       1.217  -3.186  -1.000  1.00  0.00     0.112 C 
ATOM     16  C   UNL     1       1.836  -2.307   0.081  1.00  0.00     0.038 C 
ATOM     17  C   UNL     1       0.138  -4.088  -0.409  1.00  0.00     0.038 C 
ENDBRANCH  14  15
ENDBRANCH  13  14
ENDBRANCH  12  13
BRANCH  12  18
ATOM     18  O   UNL     1      -1.669  -0.319  -1.064  1.00  0.00    -0.391 OA
ATOM     19  H   UNL     1      -1.453  -0.857  -0.286  1.00  0.00     0.211 HD
ENDBRANCH  12  18
ENDBRANCH  11  12
ENDBRANCH   5  11
ENDBRANCH   3   5
ENDBRANCH   2   3
ENDBRANCH   1   2
BRANCH   1  20
ATOM     20  C   UNL     1      -4.613  -1.059  -7.003  1.00  0.00     0.275 C 
BRANCH  20  21
ATOM     21  O   UNL     1      -3.182  -1.181  -7.023  1.00  0.00    -0.458 OA
BRANCH  21  22
ATOM     22  C   UNL     1      -2.498  -0.117  -6.559  1.00  0.00     0.338 C 
ATOM     23  O   UNL     1      -2.958   0.964  -6.202  1.00  0.00    -0.246 OA
BRANCH  22  24
ATOM     24  C   UNL     1      -1.063  -0.424  -6.517  1.00  0.00     0.060 A 
ATOM     25  C   UNL     1      -0.606  -1.540  -5.817  1.00  0.00     0.016 A 
ATOM     26  C   UNL     1      -0.153   0.476  -7.071  1.00  0.00     0.016 A 
ATOM     27  C   UNL     1       0.760  -1.697  -5.583  1.00  0.00     0.010 A 
ATOM     28  C   UNL     1       1.218   0.256  -6.917  1.00  0.00     0.010 A 
ATOM     29  C   UNL     1       1.698  -0.803  -6.125  1.00  0.00    -0.014 A 
BRANCH  29  30
ATOM     30  C   UNL     1       3.160  -0.929  -5.832  1.00  0.00     0.031 A 
ATOM     31  C   UNL     1       3.938   0.259  -5.315  1.00  0.00     0.074 A 
ATOM     32  C   UNL     1       3.816  -2.089  -6.039  1.00  0.00     0.049 A 
ATOM     33  N   UNL     1       5.233   0.438  -5.253  1.00  0.00    -0.248 NA
ATOM     34  C   UNL     1       3.157   1.409  -4.826  1.00  0.00     0.031 C 
ATOM     35  C   UNL     1       3.213  -3.335  -6.510  1.00  0.00     0.029 A 
ATOM     36  N   UNL     1       5.147  -2.405  -5.888  1.00  0.00    -0.354 N 
ATOM     37  C   UNL     1       5.420   1.749  -4.828  1.00  0.00     0.074 A 
ATOM     38  C   UNL     1       4.105   2.313  -4.614  1.00  0.00     0.031 C 
ATOM     39  C   UNL     1       4.155  -4.288  -6.571  1.00  0.00     0.029 A 
ATOM     40  C   UNL     1       5.448  -3.700  -6.243  1.00  0.00     0.049 A 
ATOM     41  H   UNL     1       5.819  -1.766  -5.557  1.00  0.00     0.167 HD
ATOM     42  C   UNL     1       6.580   2.421  -4.629  1.00  0.00     0.034 A 
ATOM     43  C   UNL     1       6.631  -4.339  -6.346  1.00  0.00     0.034 A 
ATOM     44  C   UNL     1       7.888   1.828  -4.723  1.00  0.00     0.049 A 
ATOM     45  C   UNL     1       7.902  -3.591  -6.060  1.00  0.00     0.074 A 
ATOM     46  C   UNL     1       9.120   2.423  -4.504  1.00  0.00     0.029 A 
ATOM     47  N   UNL     1       8.136   0.499  -5.025  1.00  0.00    -0.354 N 
ATOM     48  N   UNL     1       8.058  -2.350  -5.671  1.00  0.00    -0.248 NA
ATOM     49  C   UNL     1       9.161  -4.332  -6.229  1.00  0.00     0.031 C 
ATOM     50  C   UNL     1      10.112   1.449  -4.663  1.00  0.00     0.029 A 
ATOM     51  C   UNL     1       9.498   0.249  -4.980  1.00  0.00     0.049 A 
ATOM     52  H   UNL     1       7.446  -0.170  -5.239  1.00  0.00     0.167 HD
ATOM     53  C   UNL     1       9.430  -2.159  -5.550  1.00  0.00     0.074 A 
ATOM     54  C   UNL     1      10.058  -3.426  -5.864  1.00  0.00     0.031 C 
ATOM     55  C   UNL     1      10.108  -1.028  -5.242  1.00  0.00     0.034 A 
BRANCH  42  56
ATOM     56  C   UNL     1       6.497   3.877  -4.254  1.00  0.00     0.023 A 
ATOM     57  C   UNL     1       6.156   4.244  -2.938  1.00  0.00     0.012 A 
ATOM     58  C   UNL     1       6.837   4.880  -5.186  1.00  0.00     0.148 A 
ATOM     59  C   UNL     1       6.131   5.587  -2.561  1.00  0.00     0.002 A 
ATOM     60  C   UNL     1       6.848   6.213  -4.791  1.00  0.00     0.091 A 
ATOM     61  F   UNL     1       7.135   4.515  -6.441  1.00  0.00    -0.205 F 
ATOM     62  C   UNL     1       6.488   6.569  -3.482  1.00  0.00     0.022 A 
BRANCH  60  63
ATOM     63  S   UNL     1       7.375   7.533  -5.892  1.00  0.00     0.127 S 
ATOM     64  O   UNL     1       6.095   8.093  -6.319  1.00  0.00    -0.237 OA
ATOM     65  O   UNL     1       8.149   8.397  -4.998  1.00  0.00    -0.237 OA
ATOM     66  O   UNL     1       8.163   6.887  -6.932  1.00  0.00    -0.744 OA
ENDBRANCH  60  63
ENDBRANCH  42  56
BRANCH  43  67
ATOM     67  C   UNL     1       6.654  -5.779  -6.733  1.00  0.00     0.023 A 
ATOM     68  C   UNL     1       7.017  -6.744  -5.775  1.00  0.00     0.012 A 
ATOM     69  C   UNL     1       6.247  -6.202  -8.013  1.00  0.00     0.148 A 
ATOM     70  C   UNL     1       6.979  -8.104  -6.087  1.00  0.00     0.002 A 
ATOM     71  C   UNL     1       6.144  -7.559  -8.294  1.00  0.00     0.091 A 
ATOM     72  F   UNL     1       5.940  -5.271  -8.927  1.00  0.00    -0.205 F 
ATOM     73  C   UNL     1       6.523  -8.512  -7.338  1.00  0.00     0.022 A 
BRANCH  71  74
ATOM     74  S   UNL     1       5.393  -8.145  -9.818  1.00  0.00     0.127 S 
ATOM     75  O   UNL     1       6.563  -8.410 -10.649  1.00  0.00    -0.237 OA
ATOM     76  O   UNL     1       4.670  -9.337  -9.373  1.00  0.00    -0.237 OA
ATOM     77  O   UNL     1       4.526  -7.057 -10.253  1.00  0.00    -0.744 OA
ENDBRANCH  71  74
ENDBRANCH  43  67
BRANCH  55  78
ATOM     78  C   UNL     1      11.610  -1.103  -5.224  1.00  0.00     0.023 A 
ATOM     79  C   UNL     1      12.313  -1.113  -6.445  1.00  0.00     0.012 A 
ATOM     80  C   UNL     1      12.326  -1.101  -4.012  1.00  0.00     0.148 A 
ATOM     81  C   UNL     1      13.707  -1.145  -6.460  1.00  0.00     0.002 A 
ATOM     82  C   UNL     1      13.717  -1.098  -4.035  1.00  0.00     0.091 A 
ATOM     83  F   UNL     1      11.639  -1.116  -2.860  1.00  0.00    -0.205 F 
ATOM     84  C   UNL     1      14.408  -1.127  -5.257  1.00  0.00     0.022 A 
BRANCH  82  85
ATOM     85  S   UNL     1      14.694  -1.003  -2.530  1.00  0.00     0.127 S 
ATOM     86  O   UNL     1      15.091  -2.397  -2.342  1.00  0.00    -0.237 OA
ATOM     87  O   UNL     1      15.785  -0.107  -2.917  1.00  0.00    -0.237 OA
ATOM     88  O   UNL     1      13.803  -0.458  -1.516  1.00  0.00    -0.744 OA
ENDBRANCH  82  85
ENDBRANCH  55  78
ENDBRANCH  29  30
ENDBRANCH  22  24
ENDBRANCH  21  22
ENDBRANCH  20  21
ENDBRANCH   1  20
TORSDOF 20
