REMARK SMILES C[C@@H](Oc1ccc(/C=C2\C(=O)[NH+]=C(OCCOC(=O)c3ccc(-c4c5nc(c(-c6cccc(S(=O)(=O)[O-])c6F)c6ccc([nH]6)c(-c6cccc(S(=O)(=O)[O-])c6F)c6nc(c(-c7cccc(S(=O)(=O)[O-])c7F)c7ccc4[nH]7)C=C6)C=C5)cc3)N(c3ccc4c(c3)OCO4)C2=O)cc1)C(=O)[O-]
REMARK SMILES IDX 15 1 14 2 13 3 8 4 9 5 10 6 93 7 11 8 12 9 83 10 94 11 7 13
REMARK SMILES IDX 4 14 5 15 96 16 6 17 95 18 3 19 2 20 1 21 97 22 98 23 99 24
REMARK SMILES IDX 84 25 85 26 89 27 86 28 88 29 87 30 90 31 92 32 91 33 16 34
REMARK SMILES IDX 17 35 18 36 19 37 20 38 21 39 82 40 22 41 81 42 23 43 24 44
REMARK SMILES IDX 25 45 75 46 26 47 80 48 74 49 76 50 27 51 79 52 73 53 72 54
REMARK SMILES IDX 28 56 60 57 40 58 59 59 41 60 44 61 58 62 77 63 42 64 43 65
REMARK SMILES IDX 57 67 78 68 45 69 29 70 30 71 38 72 31 73 33 74 39 75 32 76
REMARK SMILES IDX 34 77 35 78 36 79 37 80 61 81 62 82 70 83 63 84 65 85 71 86
REMARK SMILES IDX 64 87 66 88 67 89 68 90 69 91 46 92 47 93 55 94 48 95 50 96
REMARK SMILES IDX 56 97 49 98 51 99 52 100 53 101 54 102
REMARK H PARENT 12 12 76 55 44 66
REMARK Flexibility Score: inf
ROOT
ATOM      1  C   UNL     1      10.012  -1.617  -8.327  1.00  0.00     0.279 C 
ENDROOT
BRANCH   1   2
ATOM      2  O   UNL     1       9.300  -2.754  -7.785  1.00  0.00    -0.427 OA
BRANCH   2   3
ATOM      3  C   UNL     1       8.451  -2.619  -6.734  1.00  0.00     0.465 C 
ATOM      4  C   UNL     1       5.891  -2.787  -3.555  1.00  0.00     0.032 C 
ATOM      5  C   UNL     1       6.675  -2.735  -4.660  1.00  0.00     0.155 C 
ATOM      6  C   UNL     1       6.365  -2.030  -5.932  1.00  0.00     0.349 C 
ATOM      7  C   UNL     1       8.028  -3.350  -4.497  1.00  0.00     0.357 C 
ATOM      8  O   UNL     1       5.351  -1.365  -6.083  1.00  0.00    -0.240 OA
ATOM      9  N   UNL     1       7.278  -2.147  -6.946  1.00  0.00    -0.171 N 
ATOM     10  N   UNL     1       8.903  -3.142  -5.547  1.00  0.00    -0.123 N 
ATOM     11  O   UNL     1       8.330  -3.960  -3.472  1.00  0.00    -0.240 OA
ATOM     12  H   UNL     1       7.029  -1.863  -7.855  1.00  0.00     0.319 HD
BRANCH   4  13
ATOM     13  C   UNL     1       4.571  -2.223  -3.197  1.00  0.00    -0.024 A 
ATOM     14  C   UNL     1       2.065  -1.300  -2.250  1.00  0.00     0.120 A 
ATOM     15  C   UNL     1       2.219  -1.722  -3.571  1.00  0.00     0.047 A 
ATOM     16  C   UNL     1       3.155  -1.353  -1.392  1.00  0.00     0.047 A 
ATOM     17  C   UNL     1       3.459  -2.188  -4.039  1.00  0.00     0.012 A 
ATOM     18  C   UNL     1       4.391  -1.811  -1.863  1.00  0.00     0.012 A 
BRANCH  14  19
ATOM     19  O   UNL     1       0.794  -1.049  -1.821  1.00  0.00    -0.485 OA
BRANCH  19  20
ATOM     20  C   UNL     1       0.552   0.237  -1.233  1.00  0.00     0.216 C 
ATOM     21  C   UNL     1       0.833   0.281   0.266  1.00  0.00     0.059 C 
BRANCH  20  22
ATOM     22  C   UNL     1      -0.936   0.512  -1.430  1.00  0.00     0.082 C 
ATOM     23  O   UNL     1      -1.431   1.538  -1.874  1.00  0.00    -0.546 OA
ATOM     24  O   UNL     1      -1.741  -0.495  -1.020  1.00  0.00    -0.546 OA
ENDBRANCH  20  22
ENDBRANCH  19  20
ENDBRANCH  14  19
ENDBRANCH   4  13
BRANCH  10  25
ATOM     25  C   UNL     1      10.269  -3.523  -5.386  1.00  0.00     0.144 A 
ATOM     26  C   UNL     1      11.276  -2.530  -5.373  1.00  0.00     0.056 A 
ATOM     27  C   UNL     1      10.618  -4.861  -5.184  1.00  0.00     0.103 A 
ATOM     28  C   UNL     1      12.621  -2.847  -5.182  1.00  0.00     0.055 A 
ATOM     29  C   UNL     1      11.952  -5.146  -4.978  1.00  0.00     0.170 A 
ATOM     30  C   UNL     1      12.923  -4.168  -4.976  1.00  0.00     0.166 A 
ATOM     31  O   UNL     1      12.474  -6.378  -4.732  1.00  0.00    -0.453 OA
ATOM     32  O   UNL     1      14.161  -4.666  -4.717  1.00  0.00    -0.454 OA
ATOM     33  C   UNL     1      13.813  -6.013  -4.337  1.00  0.00     0.468 C 
ENDBRANCH  10  25
ENDBRANCH   2   3
ENDBRANCH   1   2
BRANCH   1  34
ATOM     34  C   UNL     1       9.531  -0.216  -7.942  1.00  0.00     0.275 C 
BRANCH  34  35
ATOM     35  O   UNL     1       9.634  -0.032  -6.518  1.00  0.00    -0.458 OA
BRANCH  35  36
ATOM     36  C   UNL     1       8.730   0.824  -5.983  1.00  0.00     0.338 C 
ATOM     37  O   UNL     1       7.973   1.548  -6.603  1.00  0.00    -0.246 OA
BRANCH  36  38
ATOM     38  C   UNL     1       8.662   0.611  -4.516  1.00  0.00     0.060 A 
ATOM     39  C   UNL     1       7.391   0.543  -3.943  1.00  0.00     0.016 A 
ATOM     40  C   UNL     1       9.796   0.484  -3.702  1.00  0.00     0.016 A 
ATOM     41  C   UNL     1       7.251   0.341  -2.570  1.00  0.00     0.010 A 
ATOM     42  C   UNL     1       9.652   0.289  -2.317  1.00  0.00     0.010 A 
ATOM     43  C   UNL     1       8.374   0.223  -1.741  1.00  0.00    -0.014 A 
BRANCH  43  44
ATOM     44  C   UNL     1       8.149   0.232  -0.271  1.00  0.00     0.031 A 
ATOM     45  C   UNL     1       7.891   1.555   0.397  1.00  0.00     0.074 A 
ATOM     46  C   UNL     1       8.050  -0.901   0.450  1.00  0.00     0.049 A 
ATOM     47  N   UNL     1       7.451   1.802   1.603  1.00  0.00    -0.248 NA
ATOM     48  C   UNL     1       8.134   2.756  -0.418  1.00  0.00     0.031 C 
ATOM     49  C   UNL     1       8.248  -2.256  -0.058  1.00  0.00     0.029 A 
ATOM     50  N   UNL     1       7.735  -1.083   1.777  1.00  0.00    -0.354 N 
ATOM     51  C   UNL     1       7.340   3.184   1.685  1.00  0.00     0.074 A 
ATOM     52  C   UNL     1       7.777   3.722   0.414  1.00  0.00     0.031 C 
ATOM     53  C   UNL     1       8.054  -3.131   0.947  1.00  0.00     0.029 A 
ATOM     54  C   UNL     1       7.723  -2.401   2.172  1.00  0.00     0.049 A 
ATOM     55  H   UNL     1       7.537  -0.337   2.389  1.00  0.00     0.167 HD
ATOM     56  C   UNL     1       6.902   3.945   2.715  1.00  0.00     0.034 A 
ATOM     57  C   UNL     1       7.473  -2.952   3.379  1.00  0.00     0.034 A 
ATOM     58  C   UNL     1       6.513   3.437   4.000  1.00  0.00     0.049 A 
ATOM     59  C   UNL     1       7.078  -2.069   4.542  1.00  0.00     0.074 A 
ATOM     60  C   UNL     1       6.080   4.146   5.107  1.00  0.00     0.029 A 
ATOM     61  N   UNL     1       6.545   2.103   4.366  1.00  0.00    -0.354 N 
ATOM     62  N   UNL     1       6.835  -0.781   4.561  1.00  0.00    -0.248 NA
ATOM     63  C   UNL     1       6.890  -2.728   5.846  1.00  0.00     0.031 C 
ATOM     64  C   UNL     1       5.878   3.240   6.154  1.00  0.00     0.029 A 
ATOM     65  C   UNL     1       6.159   1.966   5.689  1.00  0.00     0.049 A 
ATOM     66  H   UNL     1       6.804   1.360   3.774  1.00  0.00     0.167 HD
ATOM     67  C   UNL     1       6.434  -0.485   5.862  1.00  0.00     0.074 A 
ATOM     68  C   UNL     1       6.441  -1.731   6.597  1.00  0.00     0.031 C 
ATOM     69  C   UNL     1       6.105   0.716   6.402  1.00  0.00     0.034 A 
BRANCH  56  70
ATOM     70  C   UNL     1       6.819   5.425   2.476  1.00  0.00     0.023 A 
ATOM     71  C   UNL     1       5.756   5.943   1.709  1.00  0.00     0.012 A 
ATOM     72  C   UNL     1       7.781   6.298   3.015  1.00  0.00     0.148 A 
ATOM     73  C   UNL     1       5.667   7.311   1.459  1.00  0.00     0.002 A 
ATOM     74  C   UNL     1       7.667   7.664   2.788  1.00  0.00     0.091 A 
ATOM     75  F   UNL     1       8.798   5.776   3.714  1.00  0.00    -0.205 F 
ATOM     76  C   UNL     1       6.617   8.171   2.005  1.00  0.00     0.022 A 
BRANCH  74  77
ATOM     77  S   UNL     1       8.816   8.853   3.487  1.00  0.00     0.127 S 
ATOM     78  O   UNL     1       9.581   9.251   2.307  1.00  0.00    -0.237 OA
ATOM     79  O   UNL     1       7.916   9.882   4.008  1.00  0.00    -0.237 OA
ATOM     80  O   UNL     1       9.566   8.132   4.506  1.00  0.00    -0.744 OA
ENDBRANCH  74  77
ENDBRANCH  56  70
BRANCH  57  81
ATOM     81  C   UNL     1       7.555  -4.431   3.569  1.00  0.00     0.023 A 
ATOM     82  C   UNL     1       6.390  -5.163   3.873  1.00  0.00     0.012 A 
ATOM     83  C   UNL     1       8.789  -5.106   3.500  1.00  0.00     0.148 A 
ATOM     84  C   UNL     1       6.458  -6.531   4.141  1.00  0.00     0.002 A 
ATOM     85  C   UNL     1       8.842  -6.479   3.717  1.00  0.00     0.091 A 
ATOM     86  F   UNL     1       9.892  -4.390   3.240  1.00  0.00    -0.205 F 
ATOM     87  C   UNL     1       7.681  -7.190   4.056  1.00  0.00     0.022 A 
BRANCH  85  88
ATOM     88  S   UNL     1      10.358  -7.424   3.531  1.00  0.00     0.127 S 
ATOM     89  O   UNL     1      10.681  -7.748   4.918  1.00  0.00    -0.237 OA
ATOM     90  O   UNL     1       9.912  -8.557   2.721  1.00  0.00    -0.237 OA
ATOM     91  O   UNL     1      11.294  -6.535   2.855  1.00  0.00    -0.744 OA
ENDBRANCH  85  88
ENDBRANCH  57  81
BRANCH  69  92
ATOM     92  C   UNL     1       5.694   0.759   7.854  1.00  0.00     0.023 A 
ATOM     93  C   UNL     1       6.661   0.579   8.862  1.00  0.00     0.012 A 
ATOM     94  C   UNL     1       4.370   1.079   8.220  1.00  0.00     0.148 A 
ATOM     95  C   UNL     1       6.314   0.689  10.209  1.00  0.00     0.002 A 
ATOM     96  C   UNL     1       4.042   1.235   9.563  1.00  0.00     0.091 A 
ATOM     97  F   UNL     1       3.456   1.229   7.250  1.00  0.00    -0.205 F 
ATOM     98  C   UNL     1       5.009   1.030  10.559  1.00  0.00     0.022 A 
BRANCH  96  99
ATOM     99  S   UNL     1       2.412   1.773  10.098  1.00  0.00     0.127 S 
ATOM    100  O   UNL     1       1.838   0.528  10.606  1.00  0.00    -0.237 OA
ATOM    101  O   UNL     1       2.731   2.763  11.128  1.00  0.00    -0.237 OA
ATOM    102  O   UNL     1       1.767   2.325   8.914  1.00  0.00    -0.744 OA
ENDBRANCH  96  99
ENDBRANCH  69  92
ENDBRANCH  43  44
ENDBRANCH  36  38
ENDBRANCH  35  36
ENDBRANCH  34  35
ENDBRANCH   1  34
TORSDOF 18
