REMARK SMILES CCC(CC)(CC(=O)NNC(=O)c1cc(C)oc1C)C(=O)OCCOC(=O)c1ccc(-c2c3nc(c(-c4cccc(S(=O)(=O)[O-])c4F)c4ccc([nH]4)c(-c4cccc(S(=O)(=O)[O-])c4F)c4nc(c(-c5cccc(S(=O)(=O)[O-])c5F)c5ccc2[nH]5)C=C4)C=C3)cc1
REMARK SMILES IDX 23 1 22 2 20 3 21 4 3 5 2 6 1 7 4 8 5 9 6 10 7 11 8 12 9 13
REMARK SMILES IDX 10 15 11 16 12 18 13 19 14 20 18 21 15 22 17 23 19 24 16 25
REMARK SMILES IDX 24 26 25 27 26 28 27 29 28 30 29 31 90 32 30 33 89 34 31 35
REMARK SMILES IDX 32 36 33 37 83 38 34 39 88 40 82 41 84 42 35 43 87 44 81 45
REMARK SMILES IDX 80 46 36 48 68 49 48 50 67 51 49 52 52 53 66 54 85 55 50 56
REMARK SMILES IDX 51 57 65 59 86 60 53 61 37 62 38 63 46 64 39 65 41 66 47 67
REMARK SMILES IDX 40 68 42 69 43 70 44 71 45 72 69 73 70 74 78 75 71 76 73 77
REMARK SMILES IDX 79 78 72 79 74 80 75 81 76 82 77 83 54 84 55 85 63 86 56 87
REMARK SMILES IDX 58 88 64 89 57 90 59 91 60 92 61 93 62 94
REMARK H PARENT 9 14 10 17 84 47 52 58
REMARK Flexibility Score: inf
ROOT
ATOM      1  C   UNL     1       4.400  -3.664  -0.202  1.00  0.00     0.274 C 
ENDROOT
BRANCH   1   2
ATOM      2  O   UNL     1       2.958  -3.715  -0.223  1.00  0.00    -0.462 OA
BRANCH   2   3
ATOM      3  C   UNL     1       2.317  -2.570   0.136  1.00  0.00     0.312 C 
ATOM      4  O   UNL     1       2.892  -1.590   0.591  1.00  0.00    -0.252 OA
BRANCH   3   5
ATOM      5  C   UNL     1       0.782  -2.691   0.036  1.00  0.00     0.076 C 
BRANCH   5   6
ATOM      6  C   UNL     1       0.135  -1.313  -0.303  1.00  0.00     0.016 C 
ATOM      7  C   UNL     1       0.302  -0.172   0.698  1.00  0.00     0.005 C 
ENDBRANCH   5   6
BRANCH   5   8
ATOM      8  C   UNL     1       0.332  -3.199   1.438  1.00  0.00     0.016 C 
ATOM      9  C   UNL     1      -1.173  -3.289   1.660  1.00  0.00     0.005 C 
ENDBRANCH   5   8
BRANCH   5  10
ATOM     10  C   UNL     1       0.355  -3.729  -1.050  1.00  0.00     0.120 C 
BRANCH  10  11
ATOM     11  C   UNL     1       0.932  -3.517  -2.448  1.00  0.00     0.239 C 
ATOM     12  O   UNL     1       1.976  -4.072  -2.794  1.00  0.00    -0.273 OA
ATOM     13  N   UNL     1       0.278  -2.726  -3.356  1.00  0.00    -0.267 N 
ATOM     14  H   UNL     1       0.738  -2.528  -4.203  1.00  0.00     0.191 HD
BRANCH  13  15
ATOM     15  N   UNL     1      -0.988  -2.183  -3.167  1.00  0.00    -0.263 N 
ATOM     16  C   UNL     1      -1.468  -1.028  -3.756  1.00  0.00     0.273 C 
ATOM     17  H   UNL     1      -1.596  -2.663  -2.560  1.00  0.00     0.191 HD
ATOM     18  O   UNL     1      -2.430  -0.481  -3.219  1.00  0.00    -0.267 OA
BRANCH  16  19
ATOM     19  C   UNL     1      -0.869  -0.532  -4.982  1.00  0.00     0.082 A 
ATOM     20  C   UNL     1      -0.311  -1.239  -6.093  1.00  0.00     0.059 A 
ATOM     21  C   UNL     1      -0.843   0.804  -5.355  1.00  0.00     0.113 A 
ATOM     22  C   UNL     1       0.030  -0.298  -7.039  1.00  0.00     0.101 A 
ATOM     23  O   UNL     1      -0.286   0.941  -6.588  1.00  0.00    -0.466 OA
ATOM     24  C   UNL     1      -1.282   2.063  -4.709  1.00  0.00     0.088 C 
ATOM     25  C   UNL     1       0.613  -0.365  -8.395  1.00  0.00     0.087 C 
ENDBRANCH  16  19
ENDBRANCH  13  15
ENDBRANCH  10  11
ENDBRANCH   5  10
ENDBRANCH   3   5
ENDBRANCH   2   3
ENDBRANCH   1   2
BRANCH   1  26
ATOM     26  C   UNL     1       4.964  -3.200  -1.547  1.00  0.00     0.275 C 
BRANCH  26  27
ATOM     27  O   UNL     1       4.541  -1.853  -1.809  1.00  0.00    -0.458 OA
BRANCH  27  28
ATOM     28  C   UNL     1       4.448  -1.509  -3.115  1.00  0.00     0.338 C 
ATOM     29  O   UNL     1       4.749  -2.191  -4.079  1.00  0.00    -0.246 OA
BRANCH  28  30
ATOM     30  C   UNL     1       3.926  -0.129  -3.225  1.00  0.00     0.060 A 
ATOM     31  C   UNL     1       2.856   0.290  -2.438  1.00  0.00     0.016 A 
ATOM     32  C   UNL     1       4.464   0.740  -4.174  1.00  0.00     0.016 A 
ATOM     33  C   UNL     1       2.269   1.538  -2.652  1.00  0.00     0.010 A 
ATOM     34  C   UNL     1       3.938   2.031  -4.318  1.00  0.00     0.010 A 
ATOM     35  C   UNL     1       2.807   2.435  -3.589  1.00  0.00    -0.014 A 
BRANCH  35  36
ATOM     36  C   UNL     1       2.170   3.771  -3.797  1.00  0.00     0.031 A 
ATOM     37  C   UNL     1       1.593   4.163  -5.136  1.00  0.00     0.074 A 
ATOM     38  C   UNL     1       2.034   4.625  -2.760  1.00  0.00     0.049 A 
ATOM     39  N   UNL     1       0.880   5.221  -5.441  1.00  0.00    -0.248 NA
ATOM     40  C   UNL     1       1.792   3.240  -6.263  1.00  0.00     0.031 C 
ATOM     41  C   UNL     1       2.528   4.394  -1.402  1.00  0.00     0.029 A 
ATOM     42  N   UNL     1       1.447   5.867  -2.691  1.00  0.00    -0.354 N 
ATOM     43  C   UNL     1       0.490   5.050  -6.764  1.00  0.00     0.074 A 
ATOM     44  C   UNL     1       1.104   3.829  -7.231  1.00  0.00     0.031 C 
ATOM     45  C   UNL     1       2.233   5.458  -0.640  1.00  0.00     0.029 A 
ATOM     46  C   UNL     1       1.589   6.475  -1.466  1.00  0.00     0.049 A 
ATOM     47  H   UNL     1       0.971   6.281  -3.447  1.00  0.00     0.167 HD
ATOM     48  C   UNL     1      -0.355   5.802  -7.506  1.00  0.00     0.034 A 
ATOM     49  C   UNL     1       1.291   7.726  -1.059  1.00  0.00     0.034 A 
ATOM     50  C   UNL     1      -0.926   7.051  -7.087  1.00  0.00     0.049 A 
ATOM     51  C   UNL     1       0.617   8.672  -2.011  1.00  0.00     0.074 A 
ATOM     52  C   UNL     1      -1.801   7.873  -7.775  1.00  0.00     0.029 A 
ATOM     53  N   UNL     1      -0.631   7.688  -5.895  1.00  0.00    -0.354 N 
ATOM     54  N   UNL     1       0.108   8.425  -3.192  1.00  0.00    -0.248 NA
ATOM     55  C   UNL     1       0.469  10.069  -1.574  1.00  0.00     0.031 C 
ATOM     56  C   UNL     1      -1.988   9.039  -7.022  1.00  0.00     0.029 A 
ATOM     57  C   UNL     1      -1.244   8.929  -5.859  1.00  0.00     0.049 A 
ATOM     58  H   UNL     1      -0.069   7.315  -5.179  1.00  0.00     0.167 HD
ATOM     59  C   UNL     1      -0.437   9.627  -3.632  1.00  0.00     0.074 A 
ATOM     60  C   UNL     1      -0.216  10.597  -2.581  1.00  0.00     0.031 C 
ATOM     61  C   UNL     1      -1.050   9.897  -4.811  1.00  0.00     0.034 A 
BRANCH  48  62
ATOM     62  C   UNL     1      -0.767   5.260  -8.845  1.00  0.00     0.023 A 
ATOM     63  C   UNL     1      -1.834   4.340  -8.900  1.00  0.00     0.012 A 
ATOM     64  C   UNL     1      -0.166   5.702 -10.036  1.00  0.00     0.148 A 
ATOM     65  C   UNL     1      -2.300   3.869 -10.125  1.00  0.00     0.002 A 
ATOM     66  C   UNL     1      -0.643   5.236 -11.256  1.00  0.00     0.091 A 
ATOM     67  F   UNL     1       0.861   6.559  -9.951  1.00  0.00    -0.205 F 
ATOM     68  C   UNL     1      -1.711   4.323 -11.302  1.00  0.00     0.022 A 
BRANCH  66  69
ATOM     69  S   UNL     1       0.037   5.762 -12.832  1.00  0.00     0.127 S 
ATOM     70  O   UNL     1       0.622   4.516 -13.329  1.00  0.00    -0.237 OA
ATOM     71  O   UNL     1      -1.157   6.205 -13.550  1.00  0.00    -0.237 OA
ATOM     72  O   UNL     1       0.996   6.815 -12.527  1.00  0.00    -0.744 OA
ENDBRANCH  66  69
ENDBRANCH  48  62
BRANCH  49  73
ATOM     73  C   UNL     1       1.685   8.169   0.309  1.00  0.00     0.023 A 
ATOM     74  C   UNL     1       0.704   8.514   1.257  1.00  0.00     0.012 A 
ATOM     75  C   UNL     1       3.044   8.228   0.678  1.00  0.00     0.148 A 
ATOM     76  C   UNL     1       1.074   8.917   2.543  1.00  0.00     0.002 A 
ATOM     77  C   UNL     1       3.401   8.561   1.978  1.00  0.00     0.091 A 
ATOM     78  F   UNL     1       3.971   7.950  -0.251  1.00  0.00    -0.205 F 
ATOM     79  C   UNL     1       2.418   8.922   2.909  1.00  0.00     0.022 A 
BRANCH  77  80
ATOM     80  S   UNL     1       5.101   8.425   2.538  1.00  0.00     0.127 S 
ATOM     81  O   UNL     1       5.578   9.797   2.394  1.00  0.00    -0.237 OA
ATOM     82  O   UNL     1       4.941   7.971   3.921  1.00  0.00    -0.237 OA
ATOM     83  O   UNL     1       5.709   7.434   1.659  1.00  0.00    -0.744 OA
ENDBRANCH  77  80
ENDBRANCH  49  73
BRANCH  61  84
ATOM     84  C   UNL     1      -1.517  11.307  -5.053  1.00  0.00     0.023 A 
ATOM     85  C   UNL     1      -0.565  12.311  -5.320  1.00  0.00     0.012 A 
ATOM     86  C   UNL     1      -2.887  11.630  -5.088  1.00  0.00     0.148 A 
ATOM     87  C   UNL     1      -0.968  13.618  -5.594  1.00  0.00     0.002 A 
ATOM     88  C   UNL     1      -3.284  12.924  -5.408  1.00  0.00     0.091 A 
ATOM     89  F   UNL     1      -3.780  10.669  -4.805  1.00  0.00    -0.205 F 
ATOM     90  C   UNL     1      -2.326  13.921  -5.651  1.00  0.00     0.022 A 
BRANCH  88  91
ATOM     91  S   UNL     1      -5.013  13.371  -5.600  1.00  0.00     0.127 S 
ATOM     92  O   UNL     1      -5.289  14.050  -4.335  1.00  0.00    -0.237 OA
ATOM     93  O   UNL     1      -4.985  14.251  -6.770  1.00  0.00    -0.237 OA
ATOM     94  O   UNL     1      -5.724  12.117  -5.812  1.00  0.00    -0.744 OA
ENDBRANCH  88  91
ENDBRANCH  61  84
ENDBRANCH  35  36
ENDBRANCH  28  30
ENDBRANCH  27  28
ENDBRANCH  26  27
ENDBRANCH   1  26
TORSDOF 20
