REMARK SMILES CCc1cc(C[NH+]2CCC(C(=O)OCCOC(=O)c3ccc(-c4c5nc(c(-c6cccc(S(=O)(=O)[O-])c6F)c6ccc([nH]6)c(-c6cccc(S(=O)(=O)[O-])c6F)c6nc(c(-c7cccc(S(=O)(=O)[O-])c7F)c7ccc4[nH]7)C=C6)C=C5)cc3)(n3ccc(-c4ccco4)n3)CC2)on1
REMARK SMILES IDX 14 1 13 2 11 3 12 4 10 5 7 6 8 7 93 8 9 10 92 11 6 12 5 13
REMARK SMILES IDX 3 14 4 15 95 16 94 17 2 18 1 19 82 20 83 21 91 22 84 23
REMARK SMILES IDX 85 24 86 25 87 26 90 27 88 28 89 29 15 30 16 31 17 32 18 33
REMARK SMILES IDX 19 34 20 35 81 36 21 37 80 38 22 39 23 40 24 41 74 42 25 43
REMARK SMILES IDX 79 44 73 45 75 46 26 47 78 48 72 49 71 50 27 52 59 53 39 54
REMARK SMILES IDX 58 55 40 56 43 57 57 58 76 59 41 60 42 61 56 63 77 64 44 65
REMARK SMILES IDX 28 66 29 67 37 68 30 69 32 70 38 71 31 72 33 73 34 74 35 75
REMARK SMILES IDX 36 76 60 77 61 78 69 79 62 80 64 81 70 82 63 83 65 84 66 85
REMARK SMILES IDX 67 86 68 87 45 88 46 89 54 90 47 91 49 92 55 93 48 94 50 95
REMARK SMILES IDX 51 96 52 97 53 98
REMARK H PARENT 7 9 75 51 43 62
REMARK Flexibility Score: inf
ROOT
ATOM      1  C   UNL     1      -2.996   5.854   9.253  1.00  0.00     0.274 C 
ENDROOT
BRANCH   1   2
ATOM      2  O   UNL     1      -2.278   5.561   8.033  1.00  0.00    -0.460 OA
BRANCH   2   3
ATOM      3  C   UNL     1      -1.650   4.343   7.997  1.00  0.00     0.334 C 
ATOM      4  O   UNL     1      -1.722   3.563   8.939  1.00  0.00    -0.249 OA
BRANCH   3   5
ATOM      5  C   UNL     1      -0.858   4.123   6.678  1.00  0.00     0.170 C 
ATOM      6  N   UNL     1       0.508   5.006   4.215  1.00  0.00    -0.328 N 
ATOM      7  C   UNL     1      -0.904   4.628   4.155  1.00  0.00     0.265 C 
ATOM      8  C   UNL     1       1.247   4.687   5.440  1.00  0.00     0.265 C 
ATOM      9  H   UNL     1       0.450   6.024   4.245  1.00  0.00     0.348 HD
ATOM     10  C   UNL     1      -1.678   4.626   5.476  1.00  0.00     0.104 C 
ATOM     11  C   UNL     1       0.436   4.957   6.708  1.00  0.00     0.104 C 
BRANCH   6  12
ATOM     12  C   UNL     1       1.255   4.585   3.005  1.00  0.00     0.341 C 
BRANCH  12  13
ATOM     13  C   UNL     1       1.237   3.126   2.677  1.00  0.00     0.191 A 
ATOM     14  C   UNL     1       1.012   1.043   1.971  1.00  0.00     0.084 A 
ATOM     15  C   UNL     1       0.511   2.354   1.798  1.00  0.00     0.078 A 
ATOM     16  N   UNL     1       1.991   1.021   2.883  1.00  0.00    -0.085 NA
ATOM     17  O   UNL     1       2.129   2.326   3.325  1.00  0.00    -0.355 OA
BRANCH  14  18
ATOM     18  C   UNL     1       0.591  -0.205   1.272  1.00  0.00     0.056 C 
ATOM     19  C   UNL     1       1.024  -0.220  -0.188  1.00  0.00     0.011 C 
ENDBRANCH  14  18
ENDBRANCH  12  13
ENDBRANCH   6  12
BRANCH   5  20
ATOM     20  N   UNL     1      -0.478   2.700   6.584  1.00  0.00    -0.254 N 
ATOM     21  C   UNL     1      -0.670   1.782   5.583  1.00  0.00     0.111 A 
ATOM     22  N   UNL     1       0.262   2.185   7.583  1.00  0.00    -0.168 NA
ATOM     23  C   UNL     1      -0.081   0.608   5.995  1.00  0.00     0.054 A 
ATOM     24  C   UNL     1       0.237   0.876   7.332  1.00  0.00     0.128 A 
BRANCH  24  25
ATOM     25  C   UNL     1       0.129  -0.128   8.405  1.00  0.00     0.154 A 
ATOM     26  C   UNL     1      -0.200   0.201   9.703  1.00  0.00     0.052 A 
ATOM     27  O   UNL     1      -0.014  -1.466   8.197  1.00  0.00    -0.463 OA
ATOM     28  C   UNL     1      -0.696  -0.982  10.278  1.00  0.00     0.043 A 
ATOM     29  C   UNL     1      -0.546  -1.973   9.336  1.00  0.00     0.196 A 
ENDBRANCH  24  25
ENDBRANCH   5  20
ENDBRANCH   3   5
ENDBRANCH   2   3
ENDBRANCH   1   2
BRANCH   1  30
ATOM     30  C   UNL     1      -4.468   5.410   9.220  1.00  0.00     0.275 C 
BRANCH  30  31
ATOM     31  O   UNL     1      -4.647   3.986   9.365  1.00  0.00    -0.458 OA
BRANCH  31  32
ATOM     32  C   UNL     1      -4.703   3.281   8.207  1.00  0.00     0.338 C 
ATOM     33  O   UNL     1      -4.627   3.741   7.081  1.00  0.00    -0.246 OA
BRANCH  32  34
ATOM     34  C   UNL     1      -4.724   1.824   8.482  1.00  0.00     0.060 A 
ATOM     35  C   UNL     1      -3.750   1.047   7.856  1.00  0.00     0.016 A 
ATOM     36  C   UNL     1      -5.691   1.206   9.282  1.00  0.00     0.016 A 
ATOM     37  C   UNL     1      -3.712  -0.333   8.053  1.00  0.00     0.010 A 
ATOM     38  C   UNL     1      -5.666  -0.192   9.462  1.00  0.00     0.010 A 
ATOM     39  C   UNL     1      -4.667  -0.972   8.858  1.00  0.00    -0.014 A 
BRANCH  39  40
ATOM     40  C   UNL     1      -4.582  -2.456   8.983  1.00  0.00     0.031 A 
ATOM     41  C   UNL     1      -5.053  -3.317   7.852  1.00  0.00     0.074 A 
ATOM     42  C   UNL     1      -3.960  -3.031  10.032  1.00  0.00     0.049 A 
ATOM     43  N   UNL     1      -4.897  -4.603   7.679  1.00  0.00    -0.248 NA
ATOM     44  C   UNL     1      -5.841  -2.652   6.805  1.00  0.00     0.031 C 
ATOM     45  C   UNL     1      -3.518  -2.319  11.220  1.00  0.00     0.029 A 
ATOM     46  N   UNL     1      -3.492  -4.316  10.223  1.00  0.00    -0.354 N 
ATOM     47  C   UNL     1      -5.674  -4.926   6.576  1.00  0.00     0.074 A 
ATOM     48  C   UNL     1      -6.206  -3.683   6.055  1.00  0.00     0.031 C 
ATOM     49  C   UNL     1      -2.683  -3.109  11.915  1.00  0.00     0.029 A 
ATOM     50  C   UNL     1      -2.583  -4.411  11.264  1.00  0.00     0.049 A 
ATOM     51  H   UNL     1      -3.775  -5.084   9.677  1.00  0.00     0.167 HD
ATOM     52  C   UNL     1      -5.982  -6.156   6.103  1.00  0.00     0.034 A 
ATOM     53  C   UNL     1      -1.741  -5.414  11.608  1.00  0.00     0.034 A 
ATOM     54  C   UNL     1      -5.467  -7.385   6.647  1.00  0.00     0.049 A 
ATOM     55  C   UNL     1      -1.942  -6.750  10.937  1.00  0.00     0.074 A 
ATOM     56  C   UNL     1      -5.785  -8.685   6.295  1.00  0.00     0.029 A 
ATOM     57  N   UNL     1      -4.534  -7.466   7.669  1.00  0.00    -0.354 N 
ATOM     58  N   UNL     1      -2.678  -7.048   9.895  1.00  0.00    -0.248 NA
ATOM     59  C   UNL     1      -1.263  -7.906  11.544  1.00  0.00     0.031 C 
ATOM     60  C   UNL     1      -5.071  -9.552   7.130  1.00  0.00     0.029 A 
ATOM     61  C   UNL     1      -4.267  -8.792   7.964  1.00  0.00     0.049 A 
ATOM     62  H   UNL     1      -4.121  -6.694   8.119  1.00  0.00     0.167 HD
ATOM     63  C   UNL     1      -2.608  -8.430   9.767  1.00  0.00     0.074 A 
ATOM     64  C   UNL     1      -1.671  -8.899  10.766  1.00  0.00     0.031 C 
ATOM     65  C   UNL     1      -3.317  -9.244   8.948  1.00  0.00     0.034 A 
BRANCH  52  66
ATOM     66  C   UNL     1      -7.027  -6.225   5.024  1.00  0.00     0.023 A 
ATOM     67  C   UNL     1      -6.730  -5.835   3.705  1.00  0.00     0.012 A 
ATOM     68  C   UNL     1      -8.326  -6.671   5.343  1.00  0.00     0.148 A 
ATOM     69  C   UNL     1      -7.726  -5.845   2.728  1.00  0.00     0.002 A 
ATOM     70  C   UNL     1      -9.298  -6.723   4.354  1.00  0.00     0.091 A 
ATOM     71  F   UNL     1      -8.590  -7.015   6.611  1.00  0.00    -0.205 F 
ATOM     72  C   UNL     1      -9.005  -6.294   3.050  1.00  0.00     0.022 A 
BRANCH  70  73
ATOM     73  S   UNL     1     -10.955  -7.345   4.658  1.00  0.00     0.127 S 
ATOM     74  O   UNL     1     -11.761  -6.139   4.471  1.00  0.00    -0.237 OA
ATOM     75  O   UNL     1     -11.101  -8.346   3.601  1.00  0.00    -0.237 OA
ATOM     76  O   UNL     1     -10.947  -7.881   6.011  1.00  0.00    -0.744 OA
ENDBRANCH  70  73
ENDBRANCH  52  66
BRANCH  53  77
ATOM     77  C   UNL     1      -0.641  -5.244  12.617  1.00  0.00     0.023 A 
ATOM     78  C   UNL     1       0.691  -5.567  12.262  1.00  0.00     0.012 A 
ATOM     79  C   UNL     1      -0.879  -4.792  13.926  1.00  0.00     0.148 A 
ATOM     80  C   UNL     1       1.737  -5.465  13.188  1.00  0.00     0.002 A 
ATOM     81  C   UNL     1       0.180  -4.585  14.806  1.00  0.00     0.091 A 
ATOM     82  F   UNL     1      -2.146  -4.592  14.316  1.00  0.00    -0.205 F 
ATOM     83  C   UNL     1       1.486  -4.948  14.453  1.00  0.00     0.022 A 
BRANCH  81  84
ATOM     84  S   UNL     1      -0.069  -3.715  16.357  1.00  0.00     0.127 S 
ATOM     85  O   UNL     1      -0.178  -4.816  17.309  1.00  0.00    -0.237 OA
ATOM     86  O   UNL     1       1.153  -2.918  16.471  1.00  0.00    -0.237 OA
ATOM     87  O   UNL     1      -1.274  -2.921  16.147  1.00  0.00    -0.744 OA
ENDBRANCH  81  84
ENDBRANCH  53  77
BRANCH  65  88
ATOM     88  C   UNL     1      -3.134 -10.729   9.116  1.00  0.00     0.023 A 
ATOM     89  C   UNL     1      -3.658 -11.376  10.254  1.00  0.00     0.012 A 
ATOM     90  C   UNL     1      -2.515 -11.493   8.109  1.00  0.00     0.148 A 
ATOM     91  C   UNL     1      -3.542 -12.758  10.402  1.00  0.00     0.002 A 
ATOM     92  C   UNL     1      -2.448 -12.874   8.239  1.00  0.00     0.091 A 
ATOM     93  F   UNL     1      -2.008 -10.855   7.045  1.00  0.00    -0.205 F 
ATOM     94  C   UNL     1      -2.949 -13.507   9.389  1.00  0.00     0.022 A 
BRANCH  92  95
ATOM     95  S   UNL     1      -1.788 -13.930   6.946  1.00  0.00     0.127 S 
ATOM     96  O   UNL     1      -0.556 -14.421   7.562  1.00  0.00    -0.237 OA
ATOM     97  O   UNL     1      -2.841 -14.935   6.801  1.00  0.00    -0.237 OA
ATOM     98  O   UNL     1      -1.602 -13.075   5.782  1.00  0.00    -0.744 OA
ENDBRANCH  92  95
ENDBRANCH  65  88
ENDBRANCH  39  40
ENDBRANCH  32  34
ENDBRANCH  31  32
ENDBRANCH  30  31
ENDBRANCH   1  30
TORSDOF 19
