REMARK SMILES Cc1coc2cc3c(cc12)[C@@H](C)[C@H](CCC(=O)N[C@@H](Cc1c[nH]c2ccccc12)C(=O)OCCOC(=O)c1ccc(-c2c4nc(c(-c5cccc(S(=O)(=O)[O-])c5F)c5ccc([nH]5)c(-c5cccc(S(=O)(=O)[O-])c5F)c5nc(c(-c6cccc(S(=O)(=O)[O-])c6F)c6ccc2[nH]6)C=C5)C=C4)cc1)C(=O)O3
REMARK SMILES IDX 33 1 32 2 30 3 31 4 19 5 18 6 16 7 17 8 15 10 14 11 13 12
REMARK SMILES IDX 1 13 2 14 3 15 10 16 4 17 5 18 9 19 6 20 8 21 7 22 11 23
REMARK SMILES IDX 103 24 12 25 101 26 102 27 20 28 21 29 22 30 29 31 23 32
REMARK SMILES IDX 24 33 28 34 25 36 27 37 26 38 34 39 35 40 36 41 37 42 38 43
REMARK SMILES IDX 39 44 100 45 40 46 99 47 41 48 42 49 43 50 93 51 44 52 98 53
REMARK SMILES IDX 92 54 94 55 45 56 97 57 91 58 90 59 46 61 78 62 58 63 77 64
REMARK SMILES IDX 59 65 62 66 76 67 95 68 60 69 61 70 75 72 96 73 63 74 47 75
REMARK SMILES IDX 48 76 56 77 49 78 51 79 57 80 50 81 52 82 53 83 54 84 55 85
REMARK SMILES IDX 79 86 80 87 88 88 81 89 83 90 89 91 82 92 84 93 85 94 86 95
REMARK SMILES IDX 87 96 64 97 65 98 73 99 66 100 68 101 74 102 67 103 69 104
REMARK SMILES IDX 70 105 71 106 72 107
REMARK H PARENT 18 9 23 35 94 60 62 71
REMARK Flexibility Score: inf
ROOT
ATOM      1  C   UNL     1       1.019 -10.619   3.615  1.00  0.00     0.274 C 
ENDROOT
BRANCH   1   2
ATOM      2  O   UNL     1       1.077  -9.555   2.648  1.00  0.00    -0.461 OA
BRANCH   2   3
ATOM      3  C   UNL     1       2.008  -8.618   2.910  1.00  0.00     0.329 C 
ATOM      4  O   UNL     1       2.637  -8.569   3.966  1.00  0.00    -0.250 OA
BRANCH   3   5
ATOM      5  C   UNL     1       2.118  -7.528   1.839  1.00  0.00     0.196 C 
BRANCH   5   6
ATOM      6  N   UNL     1       1.843  -7.680   0.349  1.00  0.00    -0.342 N 
ATOM      7  C   UNL     1       2.480  -7.429  -0.859  1.00  0.00     0.220 C 
ATOM      8  O   UNL     1       1.756  -7.634  -1.850  1.00  0.00    -0.275 OA
ATOM      9  H   UNL     1       0.952  -8.071   0.198  1.00  0.00     0.164 HD
BRANCH   7  10
ATOM     10  C   UNL     1       3.982  -6.965  -1.165  1.00  0.00     0.101 C 
BRANCH  10  11
ATOM     11  C   UNL     1       4.548  -5.468  -1.318  1.00  0.00     0.026 C 
BRANCH  11  12
ATOM     12  C   UNL     1       4.739  -4.614  -0.031  1.00  0.00     0.107 C 
ATOM     13  C   UNL     1       0.271   0.806  -0.262  1.00  0.00     0.048 C 
ATOM     14  C   UNL     1      -0.040  -0.598  -0.611  1.00  0.00    -0.005 A 
ATOM     15  C   UNL     1      -1.233  -1.175  -0.988  1.00  0.00     0.199 A 
ATOM     16  C   UNL     1       0.898  -1.653  -0.585  1.00  0.00     0.024 A 
ATOM     17  O   UNL     1      -1.112  -2.526  -1.103  1.00  0.00    -0.464 OA
ATOM     18  C   UNL     1       0.183  -2.821  -0.816  1.00  0.00     0.137 A 
ATOM     19  C   UNL     1       2.271  -1.714  -0.327  1.00  0.00     0.020 A 
ATOM     20  C   UNL     1       0.716  -4.087  -0.685  1.00  0.00     0.095 A 
ATOM     21  C   UNL     1       2.866  -2.958  -0.241  1.00  0.00    -0.001 A 
ATOM     22  C   UNL     1       2.046  -4.072  -0.288  1.00  0.00     0.138 A 
ATOM     23  C   UNL     1       4.298  -3.141   0.170  1.00  0.00     0.034 C 
ATOM     24  O   UNL     1       2.509  -5.220   0.351  1.00  0.00    -0.426 OA
ATOM     25  C   UNL     1       4.294  -2.795   1.676  1.00  0.00     0.014 C 
ATOM     26  C   UNL     1       3.791  -5.224   0.867  1.00  0.00     0.314 C 
ATOM     27  O   UNL     1       4.108  -5.697   1.951  1.00  0.00    -0.251 OA
ENDBRANCH  11  12
ENDBRANCH  10  11
ENDBRANCH   7  10
ENDBRANCH   5   6
BRANCH   5  28
ATOM     28  C   UNL     1       1.478  -6.309   2.600  1.00  0.00     0.074 C 
BRANCH  28  29
ATOM     29  C   UNL     1      -0.001  -6.093   2.697  1.00  0.00    -0.020 A 
ATOM     30  C   UNL     1      -0.510  -4.933   3.266  1.00  0.00     0.087 A 
ATOM     31  C   UNL     1      -1.122  -6.921   2.396  1.00  0.00     0.003 A 
ATOM     32  N   UNL     1      -1.855  -5.075   3.418  1.00  0.00    -0.361 N 
ATOM     33  C   UNL     1      -2.242  -6.314   2.973  1.00  0.00     0.046 A 
ATOM     34  C   UNL     1      -1.316  -8.160   1.760  1.00  0.00     0.010 A 
ATOM     35  H   UNL     1      -2.458  -4.392   3.790  1.00  0.00     0.166 HD
ATOM     36  C   UNL     1      -3.489  -6.943   3.050  1.00  0.00     0.026 A 
ATOM     37  C   UNL     1      -2.549  -8.807   1.826  1.00  0.00     0.001 A 
ATOM     38  C   UNL     1      -3.612  -8.217   2.491  1.00  0.00     0.002 A 
ENDBRANCH  28  29
ENDBRANCH   5  28
ENDBRANCH   3   5
ENDBRANCH   2   3
ENDBRANCH   1   2
BRANCH   1  39
ATOM     39  C   UNL     1       1.772 -11.784   2.986  1.00  0.00     0.275 C 
BRANCH  39  40
ATOM     40  O   UNL     1       3.190 -11.542   3.138  1.00  0.00    -0.458 OA
BRANCH  40  41
ATOM     41  C   UNL     1       3.865 -11.187   2.015  1.00  0.00     0.338 C 
ATOM     42  O   UNL     1       3.510 -11.417   0.869  1.00  0.00    -0.246 OA
BRANCH  41  43
ATOM     43  C   UNL     1       4.903 -10.177   2.374  1.00  0.00     0.060 A 
ATOM     44  C   UNL     1       5.476 -10.030   3.640  1.00  0.00     0.016 A 
ATOM     45  C   UNL     1       5.120  -9.182   1.438  1.00  0.00     0.016 A 
ATOM     46  C   UNL     1       6.024  -8.785   4.037  1.00  0.00     0.010 A 
ATOM     47  C   UNL     1       5.672  -7.966   1.847  1.00  0.00     0.010 A 
ATOM     48  C   UNL     1       5.982  -7.679   3.184  1.00  0.00    -0.014 A 
BRANCH  48  49
ATOM     49  C   UNL     1       6.543  -6.325   3.517  1.00  0.00     0.031 A 
ATOM     50  C   UNL     1       7.932  -6.251   2.999  1.00  0.00     0.074 A 
ATOM     51  C   UNL     1       6.025  -5.192   4.093  1.00  0.00     0.049 A 
ATOM     52  N   UNL     1       8.968  -6.574   3.698  1.00  0.00    -0.248 NA
ATOM     53  C   UNL     1       8.217  -6.064   1.569  1.00  0.00     0.031 C 
ATOM     54  C   UNL     1       4.654  -4.883   4.533  1.00  0.00     0.029 A 
ATOM     55  N   UNL     1       6.645  -3.971   4.330  1.00  0.00    -0.354 N 
ATOM     56  C   UNL     1      10.049  -6.380   2.861  1.00  0.00     0.074 A 
ATOM     57  C   UNL     1       9.523  -6.338   1.525  1.00  0.00     0.031 C 
ATOM     58  C   UNL     1       4.505  -3.541   4.744  1.00  0.00     0.029 A 
ATOM     59  C   UNL     1       5.796  -2.872   4.616  1.00  0.00     0.049 A 
ATOM     60  H   UNL     1       7.624  -3.874   4.300  1.00  0.00     0.167 HD
ATOM     61  C   UNL     1      11.251  -5.995   3.360  1.00  0.00     0.034 A 
ATOM     62  C   UNL     1       6.168  -1.550   4.741  1.00  0.00     0.034 A 
ATOM     63  C   UNL     1      11.250  -6.025   4.805  1.00  0.00     0.049 A 
ATOM     64  C   UNL     1       7.538  -1.592   5.275  1.00  0.00     0.074 A 
ATOM     65  C   UNL     1      11.011  -6.996   5.759  1.00  0.00     0.029 A 
ATOM     66  N   UNL     1      11.064  -4.820   5.439  1.00  0.00    -0.354 N 
ATOM     67  N   UNL     1       7.830  -2.081   6.443  1.00  0.00    -0.248 NA
ATOM     68  C   UNL     1       8.628  -1.467   4.331  1.00  0.00     0.031 C 
ATOM     69  C   UNL     1      10.248  -6.343   6.772  1.00  0.00     0.029 A 
ATOM     70  C   UNL     1      10.134  -4.995   6.432  1.00  0.00     0.049 A 
ATOM     71  H   UNL     1      11.520  -3.975   5.218  1.00  0.00     0.167 HD
ATOM     72  C   UNL     1       8.980  -2.809   6.197  1.00  0.00     0.074 A 
ATOM     73  C   UNL     1       9.490  -2.296   4.922  1.00  0.00     0.031 C 
ATOM     74  C   UNL     1       9.232  -3.960   6.883  1.00  0.00     0.034 A 
BRANCH  61  75
ATOM     75  C   UNL     1      12.306  -5.269   2.579  1.00  0.00     0.023 A 
ATOM     76  C   UNL     1      13.602  -5.240   3.131  1.00  0.00     0.012 A 
ATOM     77  C   UNL     1      12.060  -4.450   1.453  1.00  0.00     0.148 A 
ATOM     78  C   UNL     1      14.604  -4.429   2.594  1.00  0.00     0.002 A 
ATOM     79  C   UNL     1      13.082  -3.716   0.867  1.00  0.00     0.091 A 
ATOM     80  F   UNL     1      10.809  -4.274   1.016  1.00  0.00    -0.205 F 
ATOM     81  C   UNL     1      14.350  -3.681   1.450  1.00  0.00     0.022 A 
BRANCH  79  82
ATOM     82  S   UNL     1      12.837  -2.786  -0.651  1.00  0.00     0.127 S 
ATOM     83  O   UNL     1      12.958  -1.411  -0.176  1.00  0.00    -0.237 OA
ATOM     84  O   UNL     1      13.952  -3.260  -1.471  1.00  0.00    -0.237 OA
ATOM     85  O   UNL     1      11.523  -3.179  -1.144  1.00  0.00    -0.744 OA
ENDBRANCH  79  82
ENDBRANCH  61  75
BRANCH  62  86
ATOM     86  C   UNL     1       5.659  -0.185   4.343  1.00  0.00     0.023 A 
ATOM     87  C   UNL     1       5.853   0.956   5.155  1.00  0.00     0.012 A 
ATOM     88  C   UNL     1       5.417   0.097   2.981  1.00  0.00     0.148 A 
ATOM     89  C   UNL     1       5.727   2.270   4.642  1.00  0.00     0.002 A 
ATOM     90  C   UNL     1       5.154   1.383   2.497  1.00  0.00     0.091 A 
ATOM     91  F   UNL     1       5.743  -0.848   2.099  1.00  0.00    -0.205 F 
ATOM     92  C   UNL     1       5.336   2.485   3.324  1.00  0.00     0.022 A 
BRANCH  90  93
ATOM     93  S   UNL     1       4.674   1.694   0.789  1.00  0.00     0.127 S 
ATOM     94  O   UNL     1       3.306   2.187   0.953  1.00  0.00    -0.237 OA
ATOM     95  O   UNL     1       5.640   2.701   0.359  1.00  0.00    -0.237 OA
ATOM     96  O   UNL     1       4.778   0.411   0.110  1.00  0.00    -0.744 OA
ENDBRANCH  90  93
ENDBRANCH  62  86
BRANCH  74  97
ATOM     97  C   UNL     1       8.341  -4.300   8.062  1.00  0.00     0.023 A 
ATOM     98  C   UNL     1       6.962  -4.576   7.930  1.00  0.00     0.012 A 
ATOM     99  C   UNL     1       8.949  -4.526   9.306  1.00  0.00     0.148 A 
ATOM    100  C   UNL     1       6.210  -5.060   9.006  1.00  0.00     0.002 A 
ATOM    101  C   UNL     1       8.212  -5.055  10.361  1.00  0.00     0.091 A 
ATOM    102  F   UNL     1      10.256  -4.250   9.427  1.00  0.00    -0.205 F 
ATOM    103  C   UNL     1       6.840  -5.316  10.219  1.00  0.00     0.022 A 
BRANCH 101 104
ATOM    104  S   UNL     1       8.994  -5.537  11.901  1.00  0.00     0.127 S 
ATOM    105  O   UNL     1       8.495  -4.522  12.827  1.00  0.00    -0.237 OA
ATOM    106  O   UNL     1       8.454  -6.881  12.117  1.00  0.00    -0.237 OA
ATOM    107  O   UNL     1      10.430  -5.504  11.652  1.00  0.00    -0.744 OA
ENDBRANCH 101 104
ENDBRANCH  74  97
ENDBRANCH  48  49
ENDBRANCH  41  43
ENDBRANCH  40  41
ENDBRANCH  39  40
ENDBRANCH   1  39
TORSDOF 20
