REMARK SMILES O=C(OCCOC(=O)[C@@]1([NH2+]C2CC2)CC[C@H](OC2CCC2)C1)c1ccc(-c2c3nc(c(-c4cccc(S(=O)(=O)[O-])c4F)c4ccc([nH]4)c(-c4cccc(S(=O)(=O)[O-])c4F)c4nc(c(-c5cccc(S(=O)(=O)[O-])c5F)c5ccc2[nH]5)C=C4)C=C3)cc1
REMARK SMILES IDX 4 1 3 2 2 3 1 4 23 5 24 6 85 7 25 8 84 9 26 10 27 11 28 12
REMARK SMILES IDX 78 13 29 14 83 15 77 16 79 17 30 18 82 19 76 20 75 21 31 23
REMARK SMILES IDX 63 24 43 25 62 26 44 27 47 28 61 29 80 30 45 31 46 32 60 34
REMARK SMILES IDX 81 35 48 36 32 37 33 38 41 39 34 40 36 41 42 42 35 43 37 44
REMARK SMILES IDX 38 45 39 46 40 47 64 48 65 49 73 50 66 51 68 52 74 53 67 54
REMARK SMILES IDX 69 55 70 56 71 57 72 58 49 59 50 60 58 61 51 62 53 63 59 64
REMARK SMILES IDX 52 65 54 66 55 67 56 68 57 69 5 70 6 71 7 72 8 73 9 74 14 75
REMARK SMILES IDX 22 76 15 77 16 78 10 79 11 82 12 83 13 84 17 85 18 86 19 87
REMARK SMILES IDX 21 88 20 89
REMARK H PARENT 79 22 47 33 10 80 10 81
REMARK Flexibility Score: inf
ROOT
ATOM      1  C   UNL     1       4.098   1.405  -0.992  1.00  0.00     0.275 C 
ENDROOT
BRANCH   1   2
ATOM      2  O   UNL     1       3.149   0.421  -1.427  1.00  0.00    -0.458 OA
BRANCH   2   3
ATOM      3  C   UNL     1       3.131  -0.916  -1.224  1.00  0.00     0.338 C 
ATOM      4  O   UNL     1       2.266  -1.576  -1.802  1.00  0.00    -0.246 OA
BRANCH   3   5
ATOM      5  C   UNL     1       4.007  -1.631  -0.237  1.00  0.00     0.060 A 
ATOM      6  C   UNL     1       5.200  -1.161   0.318  1.00  0.00     0.016 A 
ATOM      7  C   UNL     1       3.507  -2.855   0.244  1.00  0.00     0.016 A 
ATOM      8  C   UNL     1       5.801  -1.806   1.403  1.00  0.00     0.010 A 
ATOM      9  C   UNL     1       4.067  -3.466   1.370  1.00  0.00     0.010 A 
ATOM     10  C   UNL     1       5.218  -2.938   1.969  1.00  0.00    -0.014 A 
BRANCH  10  11
ATOM     11  C   UNL     1       5.887  -3.616   3.106  1.00  0.00     0.031 A 
ATOM     12  C   UNL     1       6.434  -4.994   2.869  1.00  0.00     0.074 A 
ATOM     13  C   UNL     1       6.049  -3.007   4.302  1.00  0.00     0.049 A 
ATOM     14  N   UNL     1       7.172  -5.733   3.651  1.00  0.00    -0.248 NA
ATOM     15  C   UNL     1       6.109  -5.630   1.578  1.00  0.00     0.031 C 
ATOM     16  C   UNL     1       5.532  -1.687   4.676  1.00  0.00     0.029 A 
ATOM     17  N   UNL     1       6.703  -3.426   5.436  1.00  0.00    -0.354 N 
ATOM     18  C   UNL     1       7.412  -6.897   2.937  1.00  0.00     0.074 A 
ATOM     19  C   UNL     1       6.647  -6.827   1.718  1.00  0.00     0.031 C 
ATOM     20  C   UNL     1       5.865  -1.419   5.952  1.00  0.00     0.029 A 
ATOM     21  C   UNL     1       6.642  -2.531   6.483  1.00  0.00     0.049 A 
ATOM     22  H   UNL     1       7.173  -4.290   5.496  1.00  0.00     0.167 HD
ATOM     23  C   UNL     1       8.266  -7.904   3.219  1.00  0.00     0.034 A 
ATOM     24  C   UNL     1       7.178  -2.596   7.719  1.00  0.00     0.034 A 
ATOM     25  C   UNL     1       9.032  -7.973   4.424  1.00  0.00     0.049 A 
ATOM     26  C   UNL     1       8.083  -3.762   8.040  1.00  0.00     0.074 A 
ATOM     27  C   UNL     1       9.928  -8.944   4.821  1.00  0.00     0.029 A 
ATOM     28  N   UNL     1       8.975  -7.029   5.437  1.00  0.00    -0.354 N 
ATOM     29  N   UNL     1       8.431  -4.772   7.279  1.00  0.00    -0.248 NA
ATOM     30  C   UNL     1       8.724  -3.763   9.364  1.00  0.00     0.031 C 
ATOM     31  C   UNL     1      10.394  -8.600   6.094  1.00  0.00     0.029 A 
ATOM     32  C   UNL     1       9.815  -7.396   6.468  1.00  0.00     0.049 A 
ATOM     33  H   UNL     1       8.417  -6.217   5.422  1.00  0.00     0.167 HD
ATOM     34  C   UNL     1       9.367  -5.497   8.007  1.00  0.00     0.074 A 
ATOM     35  C   UNL     1       9.549  -4.796   9.262  1.00  0.00     0.031 C 
ATOM     36  C   UNL     1      10.014  -6.642   7.679  1.00  0.00     0.034 A 
BRANCH  23  37
ATOM     37  C   UNL     1       8.425  -8.956   2.160  1.00  0.00     0.023 A 
ATOM     38  C   UNL     1       9.078  -8.624   0.951  1.00  0.00     0.012 A 
ATOM     39  C   UNL     1       7.878 -10.238   2.324  1.00  0.00     0.148 A 
ATOM     40  C   UNL     1       9.131  -9.536  -0.100  1.00  0.00     0.002 A 
ATOM     41  C   UNL     1       7.976 -11.158   1.289  1.00  0.00     0.091 A 
ATOM     42  F   UNL     1       7.241 -10.518   3.469  1.00  0.00    -0.205 F 
ATOM     43  C   UNL     1       8.585 -10.804   0.071  1.00  0.00     0.022 A 
BRANCH  41  44
ATOM     44  S   UNL     1       7.351 -12.835   1.419  1.00  0.00     0.127 S 
ATOM     45  O   UNL     1       6.325 -12.850   0.378  1.00  0.00    -0.237 OA
ATOM     46  O   UNL     1       8.543 -13.624   1.117  1.00  0.00    -0.237 OA
ATOM     47  O   UNL     1       6.850 -12.974   2.782  1.00  0.00    -0.744 OA
ENDBRANCH  41  44
ENDBRANCH  23  37
BRANCH  24  48
ATOM     48  C   UNL     1       6.958  -1.509   8.724  1.00  0.00     0.023 A 
ATOM     49  C   UNL     1       8.040  -0.701   9.133  1.00  0.00     0.012 A 
ATOM     50  C   UNL     1       5.698  -1.312   9.324  1.00  0.00     0.148 A 
ATOM     51  C   UNL     1       7.888   0.235  10.159  1.00  0.00     0.002 A 
ATOM     52  C   UNL     1       5.542  -0.345  10.314  1.00  0.00     0.091 A 
ATOM     53  F   UNL     1       4.680  -2.090   8.932  1.00  0.00    -0.205 F 
ATOM     54  C   UNL     1       6.640   0.413  10.749  1.00  0.00     0.022 A 
BRANCH  52  55
ATOM     55  S   UNL     1       3.954   0.021  11.072  1.00  0.00     0.127 S 
ATOM     56  O   UNL     1       4.142  -0.496  12.425  1.00  0.00    -0.237 OA
ATOM     57  O   UNL     1       3.901   1.480  10.973  1.00  0.00    -0.237 OA
ATOM     58  O   UNL     1       2.962  -0.673  10.263  1.00  0.00    -0.744 OA
ENDBRANCH  52  55
ENDBRANCH  24  48
BRANCH  36  59
ATOM     59  C   UNL     1      11.011  -7.189   8.664  1.00  0.00     0.023 A 
ATOM     60  C   UNL     1      10.566  -7.765   9.869  1.00  0.00     0.012 A 
ATOM     61  C   UNL     1      12.381  -7.219   8.341  1.00  0.00     0.148 A 
ATOM     62  C   UNL     1      11.477  -8.333  10.757  1.00  0.00     0.002 A 
ATOM     63  C   UNL     1      13.275  -7.841   9.202  1.00  0.00     0.091 A 
ATOM     64  F   UNL     1      12.784  -6.648   7.197  1.00  0.00    -0.205 F 
ATOM     65  C   UNL     1      12.828  -8.385  10.417  1.00  0.00     0.022 A 
BRANCH  63  66
ATOM     66  S   UNL     1      15.007  -8.063   8.785  1.00  0.00     0.127 S 
ATOM     67  O   UNL     1      15.652  -7.094   9.669  1.00  0.00    -0.237 OA
ATOM     68  O   UNL     1      15.235  -9.463   9.143  1.00  0.00    -0.237 OA
ATOM     69  O   UNL     1      15.116  -7.780   7.360  1.00  0.00    -0.744 OA
ENDBRANCH  63  66
ENDBRANCH  36  59
ENDBRANCH  10  11
ENDBRANCH   3   5
ENDBRANCH   2   3
ENDBRANCH   1   2
BRANCH   1  70
ATOM     70  C   UNL     1       3.862   1.969   0.413  1.00  0.00     0.274 C 
BRANCH  70  71
ATOM     71  O   UNL     1       3.425   1.018   1.398  1.00  0.00    -0.457 OA
BRANCH  71  72
ATOM     72  C   UNL     1       2.071   0.972   1.607  1.00  0.00     0.368 C 
ATOM     73  O   UNL     1       1.262   1.554   0.890  1.00  0.00    -0.245 OA
BRANCH  72  74
ATOM     74  C   UNL     1       1.672   0.132   2.844  1.00  0.00     0.197 C 
ATOM     75  C   UNL     1       0.160  -0.136   2.889  1.00  0.00     0.084 C 
ATOM     76  C   UNL     1       2.124  -1.319   2.648  1.00  0.00     0.113 C 
ATOM     77  C   UNL     1       0.003  -1.354   3.792  1.00  0.00     0.039 C 
ATOM     78  C   UNL     1       1.209  -2.232   3.474  1.00  0.00     0.125 C 
BRANCH  74  79
ATOM     79  N   UNL     1       2.306   0.604   4.085  1.00  0.00    -0.330 N 
ATOM     80  H   UNL     1       3.309   0.482   3.944  1.00  0.00     0.347 HD
ATOM     81  H   UNL     1       1.798   0.055   4.777  1.00  0.00     0.347 HD
BRANCH  79  82
ATOM     82  C   UNL     1       2.149   1.940   4.634  1.00  0.00     0.183 C 
ATOM     83  C   UNL     1       1.610   3.131   3.904  1.00  0.00     0.071 C 
ATOM     84  C   UNL     1       0.812   2.503   5.011  1.00  0.00     0.071 C 
ENDBRANCH  79  82
ENDBRANCH  74  79
BRANCH  78  85
ATOM     85  O   UNL     1       1.897  -2.648   4.645  1.00  0.00    -0.375 OA
BRANCH  85  86
ATOM     86  C   UNL     1       1.479  -3.817   5.396  1.00  0.00     0.118 C 
ATOM     87  C   UNL     1       0.067  -3.823   6.023  1.00  0.00     0.032 C 
ATOM     88  C   UNL     1       1.097  -5.128   4.666  1.00  0.00     0.032 C 
ATOM     89  C   UNL     1      -0.029  -5.322   5.700  1.00  0.00     0.005 C 
ENDBRANCH  85  86
ENDBRANCH  78  85
ENDBRANCH  72  74
ENDBRANCH  71  72
ENDBRANCH  70  71
ENDBRANCH   1  70
TORSDOF 18
