REMARK SMILES NS(=O)(=O)c1ccc(-c2coc(=O)n2-c2ccc(C(=O)OCCOC(=O)c3ccc(-c4c5nc(c(-c6cccc(S(=O)(=O)[O-])c6F)c6ccc([nH]6)c(-c6cccc(S(=O)(=O)[O-])c6F)c6nc(c(-c7cccc(S(=O)(=O)[O-])c7F)c7ccc4[nH]7)C=C6)C=C5)cc3)cc2)cc1
REMARK SMILES IDX 22 1 21 2 19 3 20 4 18 5 15 6 16 7 91 8 17 9 90 10 14 11
REMARK SMILES IDX 9 12 10 13 11 14 12 15 13 16 8 17 5 18 6 19 93 20 7 21 92 22
REMARK SMILES IDX 2 23 3 24 4 25 1 26 23 29 24 30 25 31 26 32 27 33 28 34
REMARK SMILES IDX 89 35 29 36 88 37 30 38 31 39 32 40 82 41 33 42 87 43 81 44
REMARK SMILES IDX 83 45 34 46 86 47 80 48 79 49 35 51 67 52 47 53 66 54 48 55
REMARK SMILES IDX 51 56 65 57 84 58 49 59 50 60 64 62 85 63 52 64 36 65 37 66
REMARK SMILES IDX 45 67 38 68 40 69 46 70 39 71 41 72 42 73 43 74 44 75 68 76
REMARK SMILES IDX 69 77 77 78 70 79 72 80 78 81 71 82 73 83 74 84 75 85 76 86
REMARK SMILES IDX 53 87 54 88 62 89 55 90 57 91 63 92 56 93 58 94 59 95 60 96
REMARK SMILES IDX 61 97
REMARK H PARENT 1 27 1 28 83 50 51 61
REMARK Flexibility Score: inf
ROOT
ATOM      1  C   UNL     1       7.347  -3.722   1.148  1.00  0.00     0.275 C 
ENDROOT
BRANCH   1   2
ATOM      2  O   UNL     1       6.535  -3.060   2.134  1.00  0.00    -0.458 OA
BRANCH   2   3
ATOM      3  C   UNL     1       5.493  -3.784   2.623  1.00  0.00     0.338 C 
ATOM      4  O   UNL     1       5.059  -4.832   2.170  1.00  0.00    -0.246 OA
BRANCH   3   5
ATOM      5  C   UNL     1       4.971  -3.169   3.867  1.00  0.00     0.060 A 
ATOM      6  C   UNL     1       3.713  -2.037   6.088  1.00  0.00     0.053 A 
ATOM      7  C   UNL     1       3.749  -3.427   5.954  1.00  0.00     0.028 A 
ATOM      8  C   UNL     1       4.417  -1.232   5.179  1.00  0.00     0.028 A 
ATOM      9  C   UNL     1       4.350  -3.989   4.824  1.00  0.00     0.018 A 
ATOM     10  C   UNL     1       5.062  -1.794   4.082  1.00  0.00     0.018 A 
BRANCH   6  11
ATOM     11  N   UNL     1       2.834  -1.432   7.006  1.00  0.00    -0.242 N 
ATOM     12  C   UNL     1       1.886  -0.485   6.729  1.00  0.00     0.095 A 
ATOM     13  C   UNL     1       1.303  -0.199   7.887  1.00  0.00     0.228 A 
ATOM     14  O   UNL     1       1.798  -0.923   8.970  1.00  0.00    -0.415 OA
ATOM     15  C   UNL     1       2.756  -1.739   8.361  1.00  0.00     0.424 A 
ATOM     16  O   UNL     1       3.407  -2.562   8.987  1.00  0.00    -0.223 OA
BRANCH  12  17
ATOM     17  C   UNL     1       1.480  -0.055   5.391  1.00  0.00     0.002 A 
ATOM     18  C   UNL     1       0.795   0.708   2.783  1.00  0.00     0.082 A 
ATOM     19  C   UNL     1       0.756  -0.640   3.134  1.00  0.00     0.022 A 
ATOM     20  C   UNL     1       1.161   1.678   3.722  1.00  0.00     0.022 A 
ATOM     21  C   UNL     1       1.092  -1.015   4.436  1.00  0.00     0.012 A 
ATOM     22  C   UNL     1       1.496   1.295   5.026  1.00  0.00     0.012 A 
BRANCH  18  23
ATOM     23  S   UNL     1       0.423   1.200   1.126  1.00  0.00     0.238 S 
ATOM     24  O   UNL     1       1.120   2.429   0.833  1.00  0.00    -0.207 OA
ATOM     25  O   UNL     1      -0.999   1.041   0.912  1.00  0.00    -0.207 OA
BRANCH  23  26
ATOM     26  N   UNL     1       1.177   0.030   0.189  1.00  0.00    -0.225 NA
ATOM     27  H   UNL     1       1.018   0.230  -0.799  1.00  0.00     0.137 HD
ATOM     28  H   UNL     1       0.794  -0.887   0.416  1.00  0.00     0.137 HD
ENDBRANCH  23  26
ENDBRANCH  18  23
ENDBRANCH  12  17
ENDBRANCH   6  11
ENDBRANCH   3   5
ENDBRANCH   2   3
ENDBRANCH   1   2
BRANCH   1  29
ATOM     29  C   UNL     1       8.450  -4.540   1.800  1.00  0.00     0.275 C 
BRANCH  29  30
ATOM     30  O   UNL     1       7.902  -5.646   2.511  1.00  0.00    -0.458 OA
BRANCH  30  31
ATOM     31  C   UNL     1       7.707  -5.421   3.829  1.00  0.00     0.338 C 
ATOM     32  O   UNL     1       7.647  -4.340   4.394  1.00  0.00    -0.246 OA
BRANCH  31  33
ATOM     33  C   UNL     1       7.861  -6.680   4.554  1.00  0.00     0.060 A 
ATOM     34  C   UNL     1       7.685  -6.622   5.940  1.00  0.00     0.016 A 
ATOM     35  C   UNL     1       8.566  -7.713   3.924  1.00  0.00     0.016 A 
ATOM     36  C   UNL     1       8.419  -7.485   6.716  1.00  0.00     0.010 A 
ATOM     37  C   UNL     1       9.329  -8.542   4.699  1.00  0.00     0.010 A 
ATOM     38  C   UNL     1       9.300  -8.364   6.080  1.00  0.00    -0.014 A 
BRANCH  38  39
ATOM     39  C   UNL     1      10.088  -9.250   6.901  1.00  0.00     0.031 A 
ATOM     40  C   UNL     1       9.253 -10.344   7.452  1.00  0.00     0.074 A 
ATOM     41  C   UNL     1      11.427  -9.136   6.985  1.00  0.00     0.049 A 
ATOM     42  N   UNL     1       8.948 -10.559   8.687  1.00  0.00    -0.248 NA
ATOM     43  C   UNL     1       8.471 -11.150   6.494  1.00  0.00     0.031 C 
ATOM     44  C   UNL     1      12.306  -8.263   6.200  1.00  0.00     0.029 A 
ATOM     45  N   UNL     1      12.306  -9.906   7.675  1.00  0.00    -0.354 N 
ATOM     46  C   UNL     1       8.145 -11.697   8.662  1.00  0.00     0.074 A 
ATOM     47  C   UNL     1       7.675 -11.833   7.314  1.00  0.00     0.031 C 
ATOM     48  C   UNL     1      13.566  -8.754   6.249  1.00  0.00     0.029 A 
ATOM     49  C   UNL     1      13.594  -9.898   7.145  1.00  0.00     0.049 A 
ATOM     50  H   UNL     1      12.056 -10.423   8.475  1.00  0.00     0.167 HD
ATOM     51  C   UNL     1       8.211 -12.614   9.663  1.00  0.00     0.034 A 
ATOM     52  C   UNL     1      14.547 -10.846   7.345  1.00  0.00     0.034 A 
ATOM     53  C   UNL     1       8.796 -12.038  10.849  1.00  0.00     0.049 A 
ATOM     54  C   UNL     1      14.123 -11.653   8.519  1.00  0.00     0.074 A 
ATOM     55  C   UNL     1       8.507 -10.937  11.632  1.00  0.00     0.029 A 
ATOM     56  N   UNL     1      10.101 -12.369  11.127  1.00  0.00    -0.354 N 
ATOM     57  N   UNL     1      14.078 -11.189   9.736  1.00  0.00    -0.248 NA
ATOM     58  C   UNL     1      13.303 -12.828   8.263  1.00  0.00     0.031 C 
ATOM     59  C   UNL     1       9.777 -10.377  11.959  1.00  0.00     0.029 A 
ATOM     60  C   UNL     1      10.765 -11.213  11.437  1.00  0.00     0.049 A 
ATOM     61  H   UNL     1      10.488 -13.274  11.107  1.00  0.00     0.167 HD
ATOM     62  C   UNL     1      12.895 -11.703  10.252  1.00  0.00     0.074 A 
ATOM     63  C   UNL     1      12.509 -12.777   9.337  1.00  0.00     0.031 C 
ATOM     64  C   UNL     1      12.174 -11.013  11.184  1.00  0.00     0.034 A 
BRANCH  51  65
ATOM     65  C   UNL     1       8.151 -14.112   9.444  1.00  0.00     0.023 A 
ATOM     66  C   UNL     1       8.180 -14.921  10.602  1.00  0.00     0.012 A 
ATOM     67  C   UNL     1       8.348 -14.771   8.205  1.00  0.00     0.148 A 
ATOM     68  C   UNL     1       8.470 -16.287  10.536  1.00  0.00     0.002 A 
ATOM     69  C   UNL     1       8.556 -16.143   8.138  1.00  0.00     0.091 A 
ATOM     70  F   UNL     1       8.470 -14.075   7.075  1.00  0.00    -0.205 F 
ATOM     71  C   UNL     1       8.655 -16.900   9.304  1.00  0.00     0.022 A 
BRANCH  69  72
ATOM     72  S   UNL     1       8.756 -16.990   6.564  1.00  0.00     0.127 S 
ATOM     73  O   UNL     1      10.175 -17.331   6.593  1.00  0.00    -0.237 OA
ATOM     74  O   UNL     1       7.840 -18.121   6.719  1.00  0.00    -0.237 OA
ATOM     75  O   UNL     1       8.351 -16.033   5.541  1.00  0.00    -0.744 OA
ENDBRANCH  69  72
ENDBRANCH  51  65
BRANCH  52  76
ATOM     76  C   UNL     1      15.623 -11.331   6.441  1.00  0.00     0.023 A 
ATOM     77  C   UNL     1      16.669 -12.114   6.975  1.00  0.00     0.012 A 
ATOM     78  C   UNL     1      15.484 -11.288   5.036  1.00  0.00     0.148 A 
ATOM     79  C   UNL     1      17.515 -12.861   6.145  1.00  0.00     0.002 A 
ATOM     80  C   UNL     1      16.333 -12.026   4.214  1.00  0.00     0.091 A 
ATOM     81  F   UNL     1      14.461 -10.607   4.505  1.00  0.00    -0.205 F 
ATOM     82  C   UNL     1      17.341 -12.825   4.765  1.00  0.00     0.022 A 
BRANCH  80  83
ATOM     83  S   UNL     1      16.141 -12.048   2.425  1.00  0.00     0.127 S 
ATOM     84  O   UNL     1      17.523 -11.896   1.968  1.00  0.00    -0.237 OA
ATOM     85  O   UNL     1      15.563 -13.369   2.200  1.00  0.00    -0.237 OA
ATOM     86  O   UNL     1      15.280 -10.915   2.106  1.00  0.00    -0.744 OA
ENDBRANCH  80  83
ENDBRANCH  52  76
BRANCH  64  87
ATOM     87  C   UNL     1      12.807  -9.813  11.838  1.00  0.00     0.023 A 
ATOM     88  C   UNL     1      13.224  -8.672  11.119  1.00  0.00     0.012 A 
ATOM     89  C   UNL     1      12.830  -9.774  13.241  1.00  0.00     0.148 A 
ATOM     90  C   UNL     1      13.678  -7.532  11.789  1.00  0.00     0.002 A 
ATOM     91  C   UNL     1      13.234  -8.623  13.903  1.00  0.00     0.091 A 
ATOM     92  F   UNL     1      12.434 -10.867  13.913  1.00  0.00    -0.205 F 
ATOM     93  C   UNL     1      13.670  -7.502  13.182  1.00  0.00     0.022 A 
BRANCH  91  94
ATOM     94  S   UNL     1      13.123  -8.503  15.688  1.00  0.00     0.127 S 
ATOM     95  O   UNL     1      14.499  -8.768  16.098  1.00  0.00    -0.237 OA
ATOM     96  O   UNL     1      12.679  -7.122  15.888  1.00  0.00    -0.237 OA
ATOM     97  O   UNL     1      12.139  -9.502  16.090  1.00  0.00    -0.744 OA
ENDBRANCH  91  94
ENDBRANCH  64  87
ENDBRANCH  38  39
ENDBRANCH  31  33
ENDBRANCH  30  31
ENDBRANCH  29  30
ENDBRANCH   1  29
TORSDOF 18
