REMARK SMILES Cc1cccc(-c2cccc(C(=O)OCCOC(=O)c3ccc(-c4c5nc(c(-c6cccc(S(=O)(=O)[O-])c6F)c6ccc([nH]6)c(-c6cccc(S(=O)(=O)[O-])c6F)c6nc(c(-c7cccc(S(=O)(=O)[O-])c7F)c7ccc4[nH]7)C=C6)C=C5)cc3)c2)c1
REMARK SMILES IDX 16 1 15 2 14 3 12 4 13 5 11 6 7 7 8 8 83 9 9 10 10 11 6 12
REMARK SMILES IDX 1 13 2 14 3 15 84 16 4 17 5 18 17 19 18 20 19 21 20 22 21 23
REMARK SMILES IDX 82 24 22 25 81 26 23 27 24 28 25 29 75 30 26 31 80 32 74 33
REMARK SMILES IDX 76 34 27 35 79 36 73 37 72 38 28 40 60 41 40 42 59 43 41 44
REMARK SMILES IDX 44 45 58 46 77 47 42 48 43 49 57 51 78 52 45 53 29 54 30 55
REMARK SMILES IDX 38 56 31 57 33 58 39 59 32 60 34 61 35 62 36 63 37 64 61 65
REMARK SMILES IDX 62 66 70 67 63 68 65 69 71 70 64 71 66 72 67 73 68 74 69 75
REMARK SMILES IDX 46 76 47 77 55 78 48 79 50 80 56 81 49 82 51 83 52 84 53 85
REMARK SMILES IDX 54 86
REMARK H PARENT 76 39 44 50
REMARK Flexibility Score: inf
ROOT
ATOM      1  C   UNL     1      -8.145   4.381   1.813  1.00  0.00     0.275 C 
ENDROOT
BRANCH   1   2
ATOM      2  C   UNL     1      -7.140   5.130   0.924  1.00  0.00     0.275 C 
BRANCH   2   3
ATOM      3  O   UNL     1      -6.106   4.326   0.317  1.00  0.00    -0.458 OA
BRANCH   3   4
ATOM      4  C   UNL     1      -5.107   5.125  -0.162  1.00  0.00     0.338 C 
ATOM      5  O   UNL     1      -5.174   6.352  -0.149  1.00  0.00    -0.246 OA
BRANCH   4   6
ATOM      6  C   UNL     1      -3.914   4.455  -0.772  1.00  0.00     0.060 A 
ATOM      7  C   UNL     1      -2.163   2.735  -0.998  1.00  0.00    -0.018 A 
ATOM      8  C   UNL     1      -1.478   3.623  -1.855  1.00  0.00     0.009 A 
ATOM      9  C   UNL     1      -3.429   3.156  -0.503  1.00  0.00     0.024 A 
ATOM     10  C   UNL     1      -1.966   4.886  -2.159  1.00  0.00     0.002 A 
ATOM     11  C   UNL     1      -3.166   5.301  -1.607  1.00  0.00     0.016 A 
BRANCH   7  12
ATOM     12  C   UNL     1      -1.485   1.452  -0.638  1.00  0.00    -0.018 A 
ATOM     13  C   UNL     1       2.126   0.248  -0.031  1.00  0.00     0.044 C 
ATOM     14  C   UNL     1       0.633   0.234  -0.191  1.00  0.00    -0.051 A 
ATOM     15  C   UNL     1      -0.078  -0.958  -0.076  1.00  0.00     0.003 A 
ATOM     16  C   UNL     1      -0.077   1.417  -0.456  1.00  0.00     0.012 A 
ATOM     17  C   UNL     1      -1.468  -0.953  -0.204  1.00  0.00     0.001 A 
ATOM     18  C   UNL     1      -2.163   0.236  -0.484  1.00  0.00     0.009 A 
ENDBRANCH   7  12
ENDBRANCH   4   6
ENDBRANCH   3   4
ENDBRANCH   2   3
ENDBRANCH   1   2
BRANCH   1  19
ATOM     19  O   UNL     1      -7.819   3.041   2.261  1.00  0.00    -0.458 OA
BRANCH  19  20
ATOM     20  C   UNL     1      -6.652   2.602   2.816  1.00  0.00     0.338 C 
ATOM     21  O   UNL     1      -6.416   1.429   2.989  1.00  0.00    -0.246 OA
BRANCH  20  22
ATOM     22  C   UNL     1      -5.685   3.643   3.187  1.00  0.00     0.060 A 
ATOM     23  C   UNL     1      -4.354   3.534   2.759  1.00  0.00     0.016 A 
ATOM     24  C   UNL     1      -6.147   4.767   3.859  1.00  0.00     0.016 A 
ATOM     25  C   UNL     1      -3.480   4.593   2.948  1.00  0.00     0.010 A 
ATOM     26  C   UNL     1      -5.346   5.873   3.893  1.00  0.00     0.010 A 
ATOM     27  C   UNL     1      -3.990   5.739   3.541  1.00  0.00    -0.014 A 
BRANCH  27  28
ATOM     28  C   UNL     1      -3.152   6.678   4.259  1.00  0.00     0.031 A 
ATOM     29  C   UNL     1      -2.431   7.749   3.578  1.00  0.00     0.074 A 
ATOM     30  C   UNL     1      -3.338   6.546   5.595  1.00  0.00     0.049 A 
ATOM     31  N   UNL     1      -1.485   8.416   4.134  1.00  0.00    -0.248 NA
ATOM     32  C   UNL     1      -2.669   8.135   2.190  1.00  0.00     0.031 C 
ATOM     33  C   UNL     1      -3.182   7.482   6.683  1.00  0.00     0.029 A 
ATOM     34  N   UNL     1      -3.735   5.358   6.237  1.00  0.00    -0.354 N 
ATOM     35  C   UNL     1      -1.270   9.530   3.349  1.00  0.00     0.074 A 
ATOM     36  C   UNL     1      -1.874   9.208   2.081  1.00  0.00     0.031 C 
ATOM     37  C   UNL     1      -3.219   6.794   7.845  1.00  0.00     0.029 A 
ATOM     38  C   UNL     1      -3.194   5.370   7.515  1.00  0.00     0.049 A 
ATOM     39  H   UNL     1      -4.295   4.646   5.849  1.00  0.00     0.167 HD
ATOM     40  C   UNL     1      -0.813  10.657   3.968  1.00  0.00     0.034 A 
ATOM     41  C   UNL     1      -2.236   4.458   7.869  1.00  0.00     0.034 A 
ATOM     42  C   UNL     1      -0.535  10.351   5.388  1.00  0.00     0.049 A 
ATOM     43  C   UNL     1      -0.910   5.175   8.089  1.00  0.00     0.074 A 
ATOM     44  C   UNL     1      -1.285  10.543   6.538  1.00  0.00     0.029 A 
ATOM     45  N   UNL     1       0.454   9.428   5.719  1.00  0.00    -0.354 N 
ATOM     46  N   UNL     1      -0.673   6.402   7.715  1.00  0.00    -0.248 NA
ATOM     47  C   UNL     1       0.251   4.556   8.715  1.00  0.00     0.031 C 
ATOM     48  C   UNL     1      -0.804   9.642   7.530  1.00  0.00     0.029 A 
ATOM     49  C   UNL     1       0.255   8.924   7.000  1.00  0.00     0.049 A 
ATOM     50  H   UNL     1       1.196   9.168   5.126  1.00  0.00     0.167 HD
ATOM     51  C   UNL     1       0.628   6.728   7.955  1.00  0.00     0.074 A 
ATOM     52  C   UNL     1       1.153   5.550   8.632  1.00  0.00     0.031 C 
ATOM     53  C   UNL     1       1.168   7.916   7.540  1.00  0.00     0.034 A 
BRANCH  40  54
ATOM     54  C   UNL     1      -0.916  12.094   3.455  1.00  0.00     0.023 A 
ATOM     55  C   UNL     1      -0.683  13.116   4.409  1.00  0.00     0.012 A 
ATOM     56  C   UNL     1      -1.276  12.545   2.160  1.00  0.00     0.148 A 
ATOM     57  C   UNL     1      -0.861  14.476   4.132  1.00  0.00     0.002 A 
ATOM     58  C   UNL     1      -1.452  13.909   1.877  1.00  0.00     0.091 A 
ATOM     59  F   UNL     1      -1.445  11.671   1.168  1.00  0.00    -0.205 F 
ATOM     60  C   UNL     1      -1.257  14.875   2.867  1.00  0.00     0.022 A 
BRANCH  58  61
ATOM     61  S   UNL     1      -1.943  14.529   0.253  1.00  0.00     0.127 S 
ATOM     62  O   UNL     1      -3.216  15.190   0.548  1.00  0.00    -0.237 OA
ATOM     63  O   UNL     1      -0.850  15.444  -0.077  1.00  0.00    -0.237 OA
ATOM     64  O   UNL     1      -2.051  13.367  -0.621  1.00  0.00    -0.744 OA
ENDBRANCH  58  61
ENDBRANCH  40  54
BRANCH  41  65
ATOM     65  C   UNL     1      -2.358   3.126   7.161  1.00  0.00     0.023 A 
ATOM     66  C   UNL     1      -3.618   2.465   7.168  1.00  0.00     0.012 A 
ATOM     67  C   UNL     1      -1.427   2.755   6.180  1.00  0.00     0.148 A 
ATOM     68  C   UNL     1      -3.991   1.605   6.128  1.00  0.00     0.002 A 
ATOM     69  C   UNL     1      -1.820   1.932   5.128  1.00  0.00     0.091 A 
ATOM     70  F   UNL     1      -0.185   3.251   6.227  1.00  0.00    -0.205 F 
ATOM     71  C   UNL     1      -3.103   1.370   5.085  1.00  0.00     0.022 A 
BRANCH  69  72
ATOM     72  S   UNL     1      -0.766   1.829   3.675  1.00  0.00     0.127 S 
ATOM     73  O   UNL     1      -1.704   1.382   2.650  1.00  0.00    -0.237 OA
ATOM     74  O   UNL     1      -0.301   3.199   3.496  1.00  0.00    -0.237 OA
ATOM     75  O   UNL     1       0.230   0.845   4.087  1.00  0.00    -0.744 OA
ENDBRANCH  69  72
ENDBRANCH  41  65
BRANCH  53  76
ATOM     76  C   UNL     1       2.636   8.263   7.622  1.00  0.00     0.023 A 
ATOM     77  C   UNL     1       3.643   7.282   7.644  1.00  0.00     0.012 A 
ATOM     78  C   UNL     1       3.057   9.614   7.535  1.00  0.00     0.148 A 
ATOM     79  C   UNL     1       4.998   7.622   7.680  1.00  0.00     0.002 A 
ATOM     80  C   UNL     1       4.402   9.938   7.422  1.00  0.00     0.091 A 
ATOM     81  F   UNL     1       2.155  10.605   7.584  1.00  0.00    -0.205 F 
ATOM     82  C   UNL     1       5.378   8.950   7.544  1.00  0.00     0.022 A 
BRANCH  80  83
ATOM     83  S   UNL     1       4.915  11.593   6.946  1.00  0.00     0.127 S 
ATOM     84  O   UNL     1       5.236  12.194   8.238  1.00  0.00    -0.237 OA
ATOM     85  O   UNL     1       6.075  11.324   6.093  1.00  0.00    -0.237 OA
ATOM     86  O   UNL     1       3.776  12.162   6.238  1.00  0.00    -0.744 OA
ENDBRANCH  80  83
ENDBRANCH  53  76
ENDBRANCH  27  28
ENDBRANCH  20  22
ENDBRANCH  19  20
ENDBRANCH   1  19
TORSDOF 15
