REMARK SMILES CCn1ccc2cc(S(=O)(=O)N3CCC[C@@H](C(=O)OCCOC(=O)c4ccc(-c5c6nc(c(-c7cccc(S(=O)(=O)[O-])c7F)c7ccc([nH]7)c(-c7cccc(S(=O)(=O)[O-])c7F)c7nc(c(-c8cccc(S(=O)(=O)[O-])c8F)c8ccc5[nH]8)C=C7)C=C6)cc4)C3)ccc21
REMARK SMILES IDX 20 1 19 2 17 3 18 4 16 5 12 6 13 7 88 8 14 9 15 10 9 11
REMARK SMILES IDX 10 12 11 13 8 14 3 15 4 16 91 17 5 18 6 19 90 20 7 21 89 22
REMARK SMILES IDX 2 23 1 24 21 25 22 26 23 27 24 28 25 29 26 30 87 31 27 32
REMARK SMILES IDX 86 33 28 34 29 35 30 36 80 37 31 38 85 39 79 40 81 41 32 42
REMARK SMILES IDX 84 43 78 44 77 45 33 47 65 48 45 49 64 50 46 51 49 52 63 53
REMARK SMILES IDX 82 54 47 55 48 56 62 58 83 59 50 60 34 61 35 62 43 63 36 64
REMARK SMILES IDX 38 65 44 66 37 67 39 68 40 69 41 70 42 71 66 72 67 73 75 74
REMARK SMILES IDX 68 75 70 76 76 77 69 78 71 79 72 80 73 81 74 82 51 83 52 84
REMARK SMILES IDX 60 85 53 86 55 87 61 88 54 89 56 90 57 91 58 92 59 93
REMARK H PARENT 81 46 49 57
REMARK Flexibility Score: inf
ROOT
ATOM      1  C   UNL     1       9.320  -0.903   5.180  1.00  0.00     0.274 C 
ENDROOT
BRANCH   1   2
ATOM      2  O   UNL     1       8.771  -0.084   6.238  1.00  0.00    -0.462 OA
BRANCH   2   3
ATOM      3  C   UNL     1       7.414   0.004   6.293  1.00  0.00     0.310 C 
ATOM      4  O   UNL     1       6.650  -0.582   5.537  1.00  0.00    -0.252 OA
BRANCH   3   5
ATOM      5  C   UNL     1       6.954   0.998   7.353  1.00  0.00     0.114 C 
ATOM      6  N   UNL     1       5.161   2.801   7.037  1.00  0.00    -0.197 NA
ATOM      7  C   UNL     1       4.207   2.005   7.825  1.00  0.00     0.102 C 
ATOM      8  C   UNL     1       6.440   2.215   6.592  1.00  0.00     0.117 C 
ATOM      9  C   UNL     1       4.936   1.243   8.914  1.00  0.00     0.018 C 
ATOM     10  C   UNL     1       5.952   0.324   8.273  1.00  0.00     0.018 C 
BRANCH   6  11
ATOM     11  S   UNL     1       4.520   4.027   6.040  1.00  0.00     0.243 S 
ATOM     12  O   UNL     1       5.643   4.744   5.484  1.00  0.00    -0.207 OA
ATOM     13  O   UNL     1       3.519   4.721   6.830  1.00  0.00    -0.207 OA
BRANCH  11  14
ATOM     14  C   UNL     1       3.678   3.275   4.650  1.00  0.00     0.083 A 
ATOM     15  N   UNL     1       1.264   1.891   1.576  1.00  0.00    -0.348 N 
ATOM     16  C   UNL     1       0.522   3.008   1.273  1.00  0.00     0.087 A 
ATOM     17  C   UNL     1       2.235   2.214   2.506  1.00  0.00     0.048 A 
ATOM     18  C   UNL     1       0.895   4.008   2.140  1.00  0.00     0.028 A 
ATOM     19  C   UNL     1       1.940   3.503   2.959  1.00  0.00     0.001 A 
ATOM     20  C   UNL     1       3.295   1.472   3.047  1.00  0.00     0.028 A 
ATOM     21  C   UNL     1       2.650   4.027   4.059  1.00  0.00     0.032 A 
ATOM     22  C   UNL     1       4.013   2.027   4.122  1.00  0.00     0.024 A 
BRANCH  15  23
ATOM     23  C   UNL     1       0.891   0.549   1.154  1.00  0.00     0.119 C 
ATOM     24  C   UNL     1       1.281   0.227  -0.276  1.00  0.00     0.027 C 
ENDBRANCH  15  23
ENDBRANCH  11  14
ENDBRANCH   6  11
ENDBRANCH   3   5
ENDBRANCH   2   3
ENDBRANCH   1   2
BRANCH   1  25
ATOM     25  C   UNL     1       9.923  -2.190   5.748  1.00  0.00     0.275 C 
BRANCH  25  26
ATOM     26  O   UNL     1       8.864  -3.121   6.008  1.00  0.00    -0.458 OA
BRANCH  26  27
ATOM     27  C   UNL     1       8.478  -3.248   7.300  1.00  0.00     0.338 C 
ATOM     28  O   UNL     1       9.150  -2.992   8.285  1.00  0.00    -0.246 OA
BRANCH  27  29
ATOM     29  C   UNL     1       7.007  -3.429   7.309  1.00  0.00     0.060 A 
ATOM     30  C   UNL     1       6.301  -3.844   6.172  1.00  0.00     0.016 A 
ATOM     31  C   UNL     1       6.321  -2.926   8.411  1.00  0.00     0.016 A 
ATOM     32  C   UNL     1       4.939  -3.562   6.061  1.00  0.00     0.010 A 
ATOM     33  C   UNL     1       4.963  -2.654   8.296  1.00  0.00     0.010 A 
ATOM     34  C   UNL     1       4.287  -2.873   7.087  1.00  0.00    -0.014 A 
BRANCH  34  35
ATOM     35  C   UNL     1       2.833  -2.673   7.047  1.00  0.00     0.031 A 
ATOM     36  C   UNL     1       2.176  -3.731   7.816  1.00  0.00     0.074 A 
ATOM     37  C   UNL     1       2.070  -1.708   6.485  1.00  0.00     0.049 A 
ATOM     38  N   UNL     1       1.945  -4.920   7.366  1.00  0.00    -0.248 NA
ATOM     39  C   UNL     1       1.976  -3.567   9.262  1.00  0.00     0.031 C 
ATOM     40  C   UNL     1       2.534  -0.456   5.915  1.00  0.00     0.029 A 
ATOM     41  N   UNL     1       0.701  -1.590   6.382  1.00  0.00    -0.354 N 
ATOM     42  C   UNL     1       1.200  -5.490   8.372  1.00  0.00     0.074 A 
ATOM     43  C   UNL     1       1.541  -4.788   9.587  1.00  0.00     0.031 C 
ATOM     44  C   UNL     1       1.488   0.394   5.755  1.00  0.00     0.029 A 
ATOM     45  C   UNL     1       0.254  -0.324   5.987  1.00  0.00     0.049 A 
ATOM     46  H   UNL     1       0.087  -2.336   6.571  1.00  0.00     0.167 HD
ATOM     47  C   UNL     1       0.030  -6.102   8.056  1.00  0.00     0.034 A 
ATOM     48  C   UNL     1      -1.019   0.105   5.770  1.00  0.00     0.034 A 
ATOM     49  C   UNL     1      -0.150  -6.254   6.636  1.00  0.00     0.049 A 
ATOM     50  C   UNL     1      -1.761  -1.093   5.319  1.00  0.00     0.074 A 
ATOM     51  C   UNL     1       0.443  -6.962   5.614  1.00  0.00     0.029 A 
ATOM     52  N   UNL     1      -0.866  -5.234   6.064  1.00  0.00    -0.354 N 
ATOM     53  N   UNL     1      -1.536  -1.691   4.179  1.00  0.00    -0.248 NA
ATOM     54  C   UNL     1      -2.618  -1.812   6.256  1.00  0.00     0.031 C 
ATOM     55  C   UNL     1       0.117  -6.285   4.404  1.00  0.00     0.029 A 
ATOM     56  C   UNL     1      -0.675  -5.183   4.710  1.00  0.00     0.049 A 
ATOM     57  H   UNL     1      -1.445  -4.616   6.565  1.00  0.00     0.167 HD
ATOM     58  C   UNL     1      -1.821  -3.012   4.456  1.00  0.00     0.074 A 
ATOM     59  C   UNL     1      -2.652  -3.000   5.650  1.00  0.00     0.031 C 
ATOM     60  C   UNL     1      -1.044  -4.008   3.953  1.00  0.00     0.034 A 
BRANCH  47  61
ATOM     61  C   UNL     1      -1.157  -6.091   8.968  1.00  0.00     0.023 A 
ATOM     62  C   UNL     1      -2.093  -7.127   8.833  1.00  0.00     0.012 A 
ATOM     63  C   UNL     1      -1.504  -4.990   9.780  1.00  0.00     0.148 A 
ATOM     64  C   UNL     1      -3.305  -7.091   9.527  1.00  0.00     0.002 A 
ATOM     65  C   UNL     1      -2.651  -5.012  10.553  1.00  0.00     0.091 A 
ATOM     66  F   UNL     1      -0.801  -3.854   9.692  1.00  0.00    -0.205 F 
ATOM     67  C   UNL     1      -3.568  -6.053  10.416  1.00  0.00     0.022 A 
BRANCH  65  68
ATOM     68  S   UNL     1      -2.971  -3.731  11.767  1.00  0.00     0.127 S 
ATOM     69  O   UNL     1      -4.021  -2.962  11.107  1.00  0.00    -0.237 OA
ATOM     70  O   UNL     1      -3.402  -4.518  12.923  1.00  0.00    -0.237 OA
ATOM     71  O   UNL     1      -1.692  -3.055  11.950  1.00  0.00    -0.744 OA
ENDBRANCH  65  68
ENDBRANCH  47  61
BRANCH  48  72
ATOM     72  C   UNL     1      -1.694   1.439   5.798  1.00  0.00     0.023 A 
ATOM     73  C   UNL     1      -2.981   1.577   5.219  1.00  0.00     0.012 A 
ATOM     74  C   UNL     1      -1.246   2.491   6.626  1.00  0.00     0.148 A 
ATOM     75  C   UNL     1      -3.812   2.668   5.505  1.00  0.00     0.002 A 
ATOM     76  C   UNL     1      -2.078   3.584   6.904  1.00  0.00     0.091 A 
ATOM     77  F   UNL     1      -0.047   2.381   7.216  1.00  0.00    -0.205 F 
ATOM     78  C   UNL     1      -3.366   3.666   6.360  1.00  0.00     0.022 A 
BRANCH  76  79
ATOM     79  S   UNL     1      -1.579   4.912   8.011  1.00  0.00     0.127 S 
ATOM     80  O   UNL     1      -2.200   6.089   7.397  1.00  0.00    -0.237 OA
ATOM     81  O   UNL     1      -2.183   4.500   9.275  1.00  0.00    -0.237 OA
ATOM     82  O   UNL     1      -0.124   4.914   7.965  1.00  0.00    -0.744 OA
ENDBRANCH  76  79
ENDBRANCH  48  72
BRANCH  60  83
ATOM     83  C   UNL     1      -0.372  -3.800   2.635  1.00  0.00     0.023 A 
ATOM     84  C   UNL     1       0.834  -3.091   2.501  1.00  0.00     0.012 A 
ATOM     85  C   UNL     1      -0.877  -4.527   1.544  1.00  0.00     0.148 A 
ATOM     86  C   UNL     1       1.541  -3.133   1.296  1.00  0.00     0.002 A 
ATOM     87  C   UNL     1      -0.153  -4.598   0.364  1.00  0.00     0.091 A 
ATOM     88  F   UNL     1      -2.036  -5.184   1.706  1.00  0.00    -0.205 F 
ATOM     89  C   UNL     1       1.057  -3.898   0.234  1.00  0.00     0.022 A 
BRANCH  87  90
ATOM     90  S   UNL     1      -0.643  -5.681  -0.980  1.00  0.00     0.127 S 
ATOM     91  O   UNL     1      -1.014  -4.725  -2.021  1.00  0.00    -0.237 OA
ATOM     92  O   UNL     1       0.592  -6.423  -1.240  1.00  0.00    -0.237 OA
ATOM     93  O   UNL     1      -1.735  -6.497  -0.465  1.00  0.00    -0.744 OA
ENDBRANCH  87  90
ENDBRANCH  60  83
ENDBRANCH  34  35
ENDBRANCH  27  29
ENDBRANCH  26  27
ENDBRANCH  25  26
ENDBRANCH   1  25
TORSDOF 17
