REMARK SMILES CCCC[C@@H](C(=O)OCCOC(=O)c1ccc(-c2c3nc(c(-c4cccc(S(=O)(=O)[O-])c4F)c4ccc([nH]4)c(-c4cccc(S(=O)(=O)[O-])c4F)c4nc(c(-c5cccc(S(=O)(=O)[O-])c5F)c5ccc2[nH]5)C=C4)C=C3)cc1)[C@H](O)c1cncn1C(C)C
REMARK SMILES IDX 9 1 8 2 6 3 7 4 5 5 4 6 3 7 2 8 1 9 77 10 79 11 80 12 83 13
REMARK SMILES IDX 81 14 82 15 84 16 85 17 86 18 78 19 10 21 11 22 12 23 13 24
REMARK SMILES IDX 14 25 15 26 76 27 16 28 75 29 17 30 18 31 19 32 69 33 20 34
REMARK SMILES IDX 74 35 68 36 70 37 21 38 73 39 67 40 66 41 22 43 54 44 34 45
REMARK SMILES IDX 53 46 35 47 38 48 52 49 71 50 36 51 37 52 51 54 72 55 39 56
REMARK SMILES IDX 23 57 24 58 32 59 25 60 27 61 33 62 26 63 28 64 29 65 30 66
REMARK SMILES IDX 31 67 55 68 56 69 64 70 57 71 59 72 65 73 58 74 60 75 61 76
REMARK SMILES IDX 62 77 63 78 40 79 41 80 49 81 42 82 44 83 50 84 43 85 45 86
REMARK SMILES IDX 46 87 47 88 48 89
REMARK H PARENT 78 20 70 42 38 53
REMARK Flexibility Score: inf
ROOT
ATOM      1  C   UNL     1       2.045   3.596  -3.818  1.00  0.00     0.274 C 
ENDROOT
BRANCH   1   2
ATOM      2  O   UNL     1       0.625   3.351  -3.739  1.00  0.00    -0.462 OA
BRANCH   2   3
ATOM      3  C   UNL     1       0.151   2.745  -2.625  1.00  0.00     0.312 C 
ATOM      4  O   UNL     1       0.848   2.413  -1.670  1.00  0.00    -0.252 OA
BRANCH   3   5
ATOM      5  C   UNL     1      -1.359   2.529  -2.629  1.00  0.00     0.134 C 
BRANCH   5   6
ATOM      6  C   UNL     1      -2.069   3.050  -3.899  1.00  0.00     0.018 C 
BRANCH   6   7
ATOM      7  C   UNL     1      -1.733   2.332  -5.216  1.00  0.00     0.001 C 
BRANCH   7   8
ATOM      8  C   UNL     1      -1.708   0.804  -5.165  1.00  0.00    -0.003 C 
ATOM      9  C   UNL     1      -3.022   0.187  -4.712  1.00  0.00     0.004 C 
ENDBRANCH   7   8
ENDBRANCH   6   7
ENDBRANCH   5   6
BRANCH   5  10
ATOM     10  C   UNL     1      -1.891   3.207  -1.344  1.00  0.00     0.177 C 
BRANCH  10  11
ATOM     11  C   UNL     1      -3.375   3.208  -1.205  1.00  0.00     0.067 A 
ATOM     12  C   UNL     1      -4.253   2.145  -1.102  1.00  0.00     0.137 A 
ATOM     13  N   UNL     1      -4.186   4.324  -1.124  1.00  0.00    -0.330 N 
ATOM     14  N   UNL     1      -5.552   2.567  -1.063  1.00  0.00    -0.245 NA
ATOM     15  C   UNL     1      -5.482   3.876  -1.067  1.00  0.00     0.199 A 
BRANCH  13  16
ATOM     16  C   UNL     1      -3.800   5.733  -1.114  1.00  0.00     0.082 C 
ATOM     17  C   UNL     1      -4.186   6.426  -2.421  1.00  0.00     0.031 C 
ATOM     18  C   UNL     1      -4.358   6.481   0.098  1.00  0.00     0.031 C 
ENDBRANCH  13  16
ENDBRANCH  10  11
BRANCH  10  19
ATOM     19  O   UNL     1      -1.435   2.529  -0.176  1.00  0.00    -0.386 OA
ATOM     20  H   UNL     1      -1.802   1.631  -0.159  1.00  0.00     0.211 HD
ENDBRANCH  10  19
ENDBRANCH   5  10
ENDBRANCH   3   5
ENDBRANCH   2   3
ENDBRANCH   1   2
BRANCH   1  21
ATOM     21  C   UNL     1       2.298   5.097  -3.916  1.00  0.00     0.275 C 
BRANCH  21  22
ATOM     22  O   UNL     1       1.952   5.700  -2.658  1.00  0.00    -0.458 OA
BRANCH  22  23
ATOM     23  C   UNL     1       0.892   6.539  -2.665  1.00  0.00     0.338 C 
ATOM     24  O   UNL     1       0.242   6.916  -3.623  1.00  0.00    -0.246 OA
BRANCH  23  25
ATOM     25  C   UNL     1       0.568   6.894  -1.275  1.00  0.00     0.060 A 
ATOM     26  C   UNL     1       0.271   5.880  -0.368  1.00  0.00     0.016 A 
ATOM     27  C   UNL     1       0.460   8.230  -0.895  1.00  0.00     0.016 A 
ATOM     28  C   UNL     1      -0.244   6.195   0.885  1.00  0.00     0.010 A 
ATOM     29  C   UNL     1       0.083   8.540   0.416  1.00  0.00     0.010 A 
ATOM     30  C   UNL     1      -0.302   7.529   1.316  1.00  0.00    -0.014 A 
BRANCH  30  31
ATOM     31  C   UNL     1      -0.703   7.854   2.716  1.00  0.00     0.031 A 
ATOM     32  C   UNL     1      -1.825   8.820   3.005  1.00  0.00     0.074 A 
ATOM     33  C   UNL     1      -0.029   7.299   3.746  1.00  0.00     0.049 A 
ATOM     34  N   UNL     1      -2.232   9.290   4.156  1.00  0.00    -0.248 NA
ATOM     35  C   UNL     1      -2.590   9.326   1.854  1.00  0.00     0.031 C 
ATOM     36  C   UNL     1       1.083   6.354   3.617  1.00  0.00     0.029 A 
ATOM     37  N   UNL     1      -0.165   7.460   5.104  1.00  0.00    -0.354 N 
ATOM     38  C   UNL     1      -3.271  10.167   3.868  1.00  0.00     0.074 A 
ATOM     39  C   UNL     1      -3.439  10.164   2.432  1.00  0.00     0.031 C 
ATOM     40  C   UNL     1       1.512   6.003   4.836  1.00  0.00     0.029 A 
ATOM     41  C   UNL     1       0.775   6.768   5.834  1.00  0.00     0.049 A 
ATOM     42  H   UNL     1      -0.865   8.016   5.515  1.00  0.00     0.167 HD
ATOM     43  C   UNL     1      -4.025  10.902   4.719  1.00  0.00     0.034 A 
ATOM     44  C   UNL     1       1.062   6.782   7.150  1.00  0.00     0.034 A 
ATOM     45  C   UNL     1      -3.878  10.894   6.149  1.00  0.00     0.049 A 
ATOM     46  C   UNL     1       0.266   7.666   8.062  1.00  0.00     0.074 A 
ATOM     47  C   UNL     1      -4.633  11.567   7.094  1.00  0.00     0.029 A 
ATOM     48  N   UNL     1      -2.901  10.195   6.839  1.00  0.00    -0.354 N 
ATOM     49  N   UNL     1      -0.773   8.413   7.780  1.00  0.00    -0.248 NA
ATOM     50  C   UNL     1       0.683   7.718   9.469  1.00  0.00     0.031 C 
ATOM     51  C   UNL     1      -4.095  11.293   8.357  1.00  0.00     0.029 A 
ATOM     52  C   UNL     1      -3.010  10.446   8.196  1.00  0.00     0.049 A 
ATOM     53  H   UNL     1      -2.229   9.607   6.425  1.00  0.00     0.167 HD
ATOM     54  C   UNL     1      -1.135   9.026   8.973  1.00  0.00     0.074 A 
ATOM     55  C   UNL     1      -0.225   8.535   9.988  1.00  0.00     0.031 C 
ATOM     56  C   UNL     1      -2.114   9.934   9.200  1.00  0.00     0.034 A 
BRANCH  43  57
ATOM     57  C   UNL     1      -5.105  11.764   4.126  1.00  0.00     0.023 A 
ATOM     58  C   UNL     1      -6.334  11.179   3.763  1.00  0.00     0.012 A 
ATOM     59  C   UNL     1      -4.927  13.153   3.981  1.00  0.00     0.148 A 
ATOM     60  C   UNL     1      -7.367  11.963   3.251  1.00  0.00     0.002 A 
ATOM     61  C   UNL     1      -5.970  13.932   3.492  1.00  0.00     0.091 A 
ATOM     62  F   UNL     1      -3.738  13.682   4.303  1.00  0.00    -0.205 F 
ATOM     63  C   UNL     1      -7.189  13.338   3.125  1.00  0.00     0.022 A 
BRANCH  61  64
ATOM     64  S   UNL     1      -5.845  15.717   3.331  1.00  0.00     0.127 S 
ATOM     65  O   UNL     1      -5.675  15.870   1.887  1.00  0.00    -0.237 OA
ATOM     66  O   UNL     1      -7.139  16.168   3.844  1.00  0.00    -0.237 OA
ATOM     67  O   UNL     1      -4.702  16.110   4.144  1.00  0.00    -0.744 OA
ENDBRANCH  61  64
ENDBRANCH  43  57
BRANCH  44  68
ATOM     68  C   UNL     1       2.176   5.935   7.664  1.00  0.00     0.023 A 
ATOM     69  C   UNL     1       1.887   4.820   8.470  1.00  0.00     0.012 A 
ATOM     70  C   UNL     1       3.512   6.181   7.286  1.00  0.00     0.148 A 
ATOM     71  C   UNL     1       2.908   3.965   8.890  1.00  0.00     0.002 A 
ATOM     72  C   UNL     1       4.513   5.288   7.650  1.00  0.00     0.091 A 
ATOM     73  F   UNL     1       3.779   7.269   6.548  1.00  0.00    -0.205 F 
ATOM     74  C   UNL     1       4.216   4.186   8.464  1.00  0.00     0.022 A 
BRANCH  72  75
ATOM     75  S   UNL     1       6.174   5.430   6.980  1.00  0.00     0.127 S 
ATOM     76  O   UNL     1       6.864   6.170   8.032  1.00  0.00    -0.237 OA
ATOM     77  O   UNL     1       6.580   4.030   6.843  1.00  0.00    -0.237 OA
ATOM     78  O   UNL     1       6.006   6.121   5.707  1.00  0.00    -0.744 OA
ENDBRANCH  72  75
ENDBRANCH  44  68
BRANCH  56  79
ATOM     79  C   UNL     1      -2.239  10.482  10.594  1.00  0.00     0.023 A 
ATOM     80  C   UNL     1      -1.319  11.455  11.030  1.00  0.00     0.012 A 
ATOM     81  C   UNL     1      -3.295  10.095  11.440  1.00  0.00     0.148 A 
ATOM     82  C   UNL     1      -1.437  12.023  12.297  1.00  0.00     0.002 A 
ATOM     83  C   UNL     1      -3.428  10.693  12.688  1.00  0.00     0.091 A 
ATOM     84  F   UNL     1      -4.145   9.149  11.013  1.00  0.00    -0.205 F 
ATOM     85  C   UNL     1      -2.497  11.651  13.120  1.00  0.00     0.022 A 
BRANCH  83  86
ATOM     86  S   UNL     1      -4.810  10.333  13.778  1.00  0.00     0.127 S 
ATOM     87  O   UNL     1      -4.188   9.455  14.768  1.00  0.00    -0.237 OA
ATOM     88  O   UNL     1      -5.169  11.660  14.279  1.00  0.00    -0.237 OA
ATOM     89  O   UNL     1      -5.826   9.714  12.937  1.00  0.00    -0.744 OA
ENDBRANCH  83  86
ENDBRANCH  56  79
ENDBRANCH  30  31
ENDBRANCH  23  25
ENDBRANCH  22  23
ENDBRANCH  21  22
ENDBRANCH   1  21
TORSDOF 21
