REMARK SMILES CC1=C[C@H](C)[C@@H](C(=O)OCCOC(=O)c2ccc(-c3c4nc(c(-c5cccc(S(=O)(=O)[O-])c5F)c5ccc([nH]5)c(-c5cccc(S(=O)(=O)[O-])c5F)c5nc(c(-c6cccc(S(=O)(=O)[O-])c6F)c6ccc3[nH]6)C=C5)C=C4)cc2)[C@H](C(=O)Nc2cccnc2)C1
REMARK SMILES IDX 11 1 10 2 9 3 7 4 8 5 6 6 1 7 2 8 3 9 88 10 4 11 78 12 5 13
REMARK SMILES IDX 79 14 80 15 81 16 82 18 83 19 87 20 84 21 86 22 85 23 12 24
REMARK SMILES IDX 13 25 14 26 15 27 16 28 77 29 17 30 76 31 18 32 19 33 20 34
REMARK SMILES IDX 70 35 21 36 75 37 69 38 71 39 22 40 74 41 68 42 67 43 23 45
REMARK SMILES IDX 55 46 35 47 54 48 36 49 39 50 53 51 72 52 37 53 38 54 52 56
REMARK SMILES IDX 73 57 40 58 24 59 25 60 33 61 26 62 28 63 34 64 27 65 29 66
REMARK SMILES IDX 30 67 31 68 32 69 56 70 57 71 65 72 58 73 60 74 66 75 59 76
REMARK SMILES IDX 61 77 62 78 63 79 64 80 41 81 42 82 50 83 43 84 45 85 51 86
REMARK SMILES IDX 44 87 46 88 47 89 48 90 49 91
REMARK H PARENT 81 17 71 44 39 55
REMARK Flexibility Score: inf
ROOT
ATOM      1  C   UNL     1       3.534   5.511   3.994  1.00  0.00     0.275 C 
ENDROOT
BRANCH   1   2
ATOM      2  C   UNL     1       2.980   4.103   4.231  1.00  0.00     0.274 C 
BRANCH   2   3
ATOM      3  O   UNL     1       2.123   3.639   3.169  1.00  0.00    -0.462 OA
BRANCH   3   4
ATOM      4  C   UNL     1       0.794   3.876   3.344  1.00  0.00     0.310 C 
ATOM      5  O   UNL     1       0.315   4.466   4.305  1.00  0.00    -0.252 OA
BRANCH   4   6
ATOM      6  C   UNL     1      -0.080   3.170   2.312  1.00  0.00     0.118 C 
ATOM      7  C   UNL     1       0.794  -0.586   0.072  1.00  0.00     0.039 C 
ATOM      8  C   UNL     1       0.510   0.650   0.875  1.00  0.00    -0.076 C 
ATOM      9  C   UNL     1      -0.184   0.606   2.022  1.00  0.00    -0.024 C 
ATOM     10  C   UNL     1       1.113   1.920   0.347  1.00  0.00     0.044 C 
ATOM     11  C   UNL     1      -0.345   1.779   2.944  1.00  0.00     0.023 C 
ATOM     12  C   UNL     1       0.508   3.221   0.884  1.00  0.00     0.097 C 
ATOM     13  C   UNL     1      -1.683   1.765   3.708  1.00  0.00     0.013 C 
BRANCH  12  14
ATOM     14  C   UNL     1      -0.340   3.975  -0.171  1.00  0.00     0.228 C 
ATOM     15  O   UNL     1      -0.168   5.188  -0.333  1.00  0.00    -0.274 OA
ATOM     16  N   UNL     1      -1.184   3.368  -1.052  1.00  0.00    -0.324 N 
ATOM     17  H   UNL     1      -1.247   3.814  -1.928  1.00  0.00     0.169 HD
BRANCH  16  18
ATOM     18  C   UNL     1      -1.974   2.223  -0.930  1.00  0.00     0.059 A 
ATOM     19  C   UNL     1      -2.599   1.893   0.259  1.00  0.00     0.029 A 
ATOM     20  C   UNL     1      -2.274   1.445  -2.042  1.00  0.00     0.137 A 
ATOM     21  C   UNL     1      -3.391   0.751   0.341  1.00  0.00     0.022 A 
ATOM     22  N   UNL     1      -3.034   0.322  -2.003  1.00  0.00    -0.263 NA
ATOM     23  C   UNL     1      -3.562  -0.006  -0.804  1.00  0.00     0.111 A 
ENDBRANCH  16  18
ENDBRANCH  12  14
ENDBRANCH   4   6
ENDBRANCH   3   4
ENDBRANCH   2   3
ENDBRANCH   1   2
BRANCH   1  24
ATOM     24  O   UNL     1       2.497   6.501   3.910  1.00  0.00    -0.458 OA
BRANCH  24  25
ATOM     25  C   UNL     1       2.069   6.760   2.650  1.00  0.00     0.338 C 
ATOM     26  O   UNL     1       2.519   6.290   1.619  1.00  0.00    -0.246 OA
BRANCH  25  27
ATOM     27  C   UNL     1       0.853   7.590   2.698  1.00  0.00     0.060 A 
ATOM     28  C   UNL     1      -0.348   7.010   2.286  1.00  0.00     0.016 A 
ATOM     29  C   UNL     1       0.899   8.936   3.053  1.00  0.00     0.016 A 
ATOM     30  C   UNL     1      -1.510   7.765   2.204  1.00  0.00     0.010 A 
ATOM     31  C   UNL     1      -0.272   9.700   2.972  1.00  0.00     0.010 A 
ATOM     32  C   UNL     1      -1.477   9.122   2.531  1.00  0.00    -0.014 A 
BRANCH  32  33
ATOM     33  C   UNL     1      -2.688   9.950   2.330  1.00  0.00     0.031 A 
ATOM     34  C   UNL     1      -2.729  10.927   1.191  1.00  0.00     0.074 A 
ATOM     35  C   UNL     1      -3.739   9.825   3.163  1.00  0.00     0.049 A 
ATOM     36  N   UNL     1      -3.622  11.841   0.920  1.00  0.00    -0.248 NA
ATOM     37  C   UNL     1      -1.612  10.871   0.232  1.00  0.00     0.031 C 
ATOM     38  C   UNL     1      -3.825   8.883   4.278  1.00  0.00     0.029 A 
ATOM     39  N   UNL     1      -4.923  10.517   3.215  1.00  0.00    -0.354 N 
ATOM     40  C   UNL     1      -3.146  12.513  -0.199  1.00  0.00     0.074 A 
ATOM     41  C   UNL     1      -1.895  11.888  -0.571  1.00  0.00     0.031 C 
ATOM     42  C   UNL     1      -4.985   9.077   4.926  1.00  0.00     0.029 A 
ATOM     43  C   UNL     1      -5.700  10.185   4.300  1.00  0.00     0.049 A 
ATOM     44  H   UNL     1      -5.190  11.183   2.541  1.00  0.00     0.167 HD
ATOM     45  C   UNL     1      -3.708  13.553  -0.857  1.00  0.00     0.034 A 
ATOM     46  C   UNL     1      -6.838  10.743   4.760  1.00  0.00     0.034 A 
ATOM     47  C   UNL     1      -4.981  14.127  -0.516  1.00  0.00     0.049 A 
ATOM     48  C   UNL     1      -7.440  11.898   4.004  1.00  0.00     0.074 A 
ATOM     49  C   UNL     1      -5.659  15.153  -1.150  1.00  0.00     0.029 A 
ATOM     50  N   UNL     1      -5.770  13.724   0.550  1.00  0.00    -0.354 N 
ATOM     51  N   UNL     1      -7.021  12.472   2.902  1.00  0.00    -0.248 NA
ATOM     52  C   UNL     1      -8.684  12.470   4.541  1.00  0.00     0.031 C 
ATOM     53  C   UNL     1      -6.854  15.379  -0.459  1.00  0.00     0.029 A 
ATOM     54  C   UNL     1      -6.926  14.482   0.595  1.00  0.00     0.049 A 
ATOM     55  H   UNL     1      -5.542  13.004   1.181  1.00  0.00     0.167 HD
ATOM     56  C   UNL     1      -7.961  13.450   2.599  1.00  0.00     0.074 A 
ATOM     57  C   UNL     1      -8.986  13.374   3.619  1.00  0.00     0.031 C 
ATOM     58  C   UNL     1      -7.966  14.346   1.582  1.00  0.00     0.034 A 
BRANCH  45  59
ATOM     59  C   UNL     1      -2.962  14.135  -2.027  1.00  0.00     0.023 A 
ATOM     60  C   UNL     1      -2.948  13.453  -3.259  1.00  0.00     0.012 A 
ATOM     61  C   UNL     1      -2.341  15.396  -1.925  1.00  0.00     0.148 A 
ATOM     62  C   UNL     1      -2.312  14.009  -4.368  1.00  0.00     0.002 A 
ATOM     63  C   UNL     1      -1.743  15.961  -3.044  1.00  0.00     0.091 A 
ATOM     64  F   UNL     1      -2.348  16.017  -0.736  1.00  0.00    -0.205 F 
ATOM     65  C   UNL     1      -1.721  15.266  -4.264  1.00  0.00     0.022 A 
BRANCH  63  66
ATOM     66  S   UNL     1      -1.020  17.606  -3.033  1.00  0.00     0.127 S 
ATOM     67  O   UNL     1       0.404  17.304  -3.175  1.00  0.00    -0.237 OA
ATOM     68  O   UNL     1      -1.634  18.220  -4.210  1.00  0.00    -0.237 OA
ATOM     69  O   UNL     1      -1.405  18.207  -1.763  1.00  0.00    -0.744 OA
ENDBRANCH  63  66
ENDBRANCH  45  59
BRANCH  46  70
ATOM     70  C   UNL     1      -7.484  10.214   5.994  1.00  0.00     0.023 A 
ATOM     71  C   UNL     1      -8.728   9.560   5.902  1.00  0.00     0.012 A 
ATOM     72  C   UNL     1      -6.870  10.341   7.255  1.00  0.00     0.148 A 
ATOM     73  C   UNL     1      -9.361   9.070   7.045  1.00  0.00     0.002 A 
ATOM     74  C   UNL     1      -7.478   9.799   8.382  1.00  0.00     0.091 A 
ATOM     75  F   UNL     1      -5.699  10.991   7.333  1.00  0.00    -0.205 F 
ATOM     76  C   UNL     1      -8.732   9.178   8.282  1.00  0.00     0.022 A 
BRANCH  74  77
ATOM     77  S   UNL     1      -6.663   9.779   9.983  1.00  0.00     0.127 S 
ATOM     78  O   UNL     1      -7.318  10.890  10.668  1.00  0.00    -0.237 OA
ATOM     79  O   UNL     1      -7.013   8.451  10.491  1.00  0.00    -0.237 OA
ATOM     80  O   UNL     1      -5.246   9.950   9.694  1.00  0.00    -0.744 OA
ENDBRANCH  74  77
ENDBRANCH  46  70
BRANCH  58  81
ATOM     81  C   UNL     1      -9.131  15.296   1.495  1.00  0.00     0.023 A 
ATOM     82  C   UNL     1      -9.220  16.373   2.397  1.00  0.00     0.012 A 
ATOM     83  C   UNL     1     -10.090  15.167   0.471  1.00  0.00     0.148 A 
ATOM     84  C   UNL     1     -10.262  17.294   2.299  1.00  0.00     0.002 A 
ATOM     85  C   UNL     1     -11.100  16.114   0.351  1.00  0.00     0.091 A 
ATOM     86  F   UNL     1      -9.998  14.123  -0.366  1.00  0.00    -0.205 F 
ATOM     87  C   UNL     1     -11.193  17.172   1.270  1.00  0.00     0.022 A 
BRANCH  85  88
ATOM     88  S   UNL     1     -12.285  16.085  -0.999  1.00  0.00     0.127 S 
ATOM     89  O   UNL     1     -13.483  15.579  -0.334  1.00  0.00    -0.237 OA
ATOM     90  O   UNL     1     -12.352  17.495  -1.387  1.00  0.00    -0.237 OA
ATOM     91  O   UNL     1     -11.711  15.210  -2.013  1.00  0.00    -0.744 OA
ENDBRANCH  85  88
ENDBRANCH  58  81
ENDBRANCH  32  33
ENDBRANCH  25  27
ENDBRANCH  24  25
ENDBRANCH   1  24
TORSDOF 16
