REMARK SMILES CC1(C)C[C@@H]([C@H](CCNC(=O)c2ccccc2C(=O)OCCOC(=O)c2ccc(-c3c4nc(c(-c5cccc(S(=O)(=O)[O-])c5F)c5ccc([nH]5)c(-c5cccc(S(=O)(=O)[O-])c5F)c5nc(c(-c6cccc(S(=O)(=O)[O-])c6F)c6ccc3[nH]6)C=C5)C=C4)cc2)c2ccccc2)CCO1
REMARK SMILES IDX 21 1 20 2 18 3 19 4 17 5 12 6 13 7 14 8 16 9 15 10 10 11
REMARK SMILES IDX 9 12 11 14 8 15 7 16 6 17 5 18 1 19 2 20 3 21 4 22 97 23
REMARK SMILES IDX 96 24 95 25 89 26 90 27 94 28 91 29 93 30 92 31 22 32 23 33
REMARK SMILES IDX 24 34 25 35 26 36 27 37 88 38 28 39 87 40 29 41 30 42 31 43
REMARK SMILES IDX 81 44 32 45 86 46 80 47 82 48 33 49 85 50 79 51 78 52 34 54
REMARK SMILES IDX 66 55 46 56 65 57 47 58 50 59 64 60 83 61 48 62 49 63 63 65
REMARK SMILES IDX 84 66 51 67 35 68 36 69 44 70 37 71 39 72 45 73 38 74 40 75
REMARK SMILES IDX 41 76 42 77 43 78 67 79 68 80 76 81 69 82 71 83 77 84 70 85
REMARK SMILES IDX 72 86 73 87 74 88 75 89 52 90 53 91 61 92 54 93 56 94 62 95
REMARK SMILES IDX 55 96 57 97 58 98 59 99 60 100
REMARK H PARENT 9 13 82 53 50 64
REMARK Flexibility Score: inf
ROOT
ATOM      1  C   UNL     1       0.016   1.116   6.282  1.00  0.00     0.275 C 
ENDROOT
BRANCH   1   2
ATOM      2  O   UNL     1      -0.971   2.131   6.038  1.00  0.00    -0.458 OA
BRANCH   2   3
ATOM      3  C   UNL     1      -1.897   1.811   5.106  1.00  0.00     0.339 C 
ATOM      4  O   UNL     1      -2.159   0.697   4.671  1.00  0.00    -0.246 OA
BRANCH   3   5
ATOM      5  C   UNL     1      -2.560   3.004   4.582  1.00  0.00     0.072 A 
ATOM      6  C   UNL     1      -1.847   4.009   3.926  1.00  0.00     0.054 A 
ATOM      7  C   UNL     1      -2.549   5.141   3.474  1.00  0.00     0.015 A 
ATOM      8  C   UNL     1      -3.939   5.231   3.613  1.00  0.00     0.001 A 
ATOM      9  C   UNL     1      -3.961   3.077   4.680  1.00  0.00     0.016 A 
ATOM     10  C   UNL     1      -4.647   4.191   4.203  1.00  0.00     0.001 A 
BRANCH   6  11
ATOM     11  C   UNL     1      -0.378   4.002   3.705  1.00  0.00     0.252 C 
ATOM     12  N   UNL     1       0.289   2.958   3.104  1.00  0.00    -0.352 N 
ATOM     13  H   UNL     1       1.248   3.117   2.947  1.00  0.00     0.163 HD
ATOM     14  O   UNL     1       0.263   5.009   4.008  1.00  0.00    -0.269 OA
BRANCH  12  15
ATOM     15  C   UNL     1      -0.191   1.659   2.663  1.00  0.00     0.117 C 
BRANCH  15  16
ATOM     16  C   UNL     1       0.567   1.031   1.505  1.00  0.00     0.030 C 
BRANCH  16  17
ATOM     17  C   UNL     1       1.905   0.228   1.750  1.00  0.00     0.024 C 
BRANCH  17  18
ATOM     18  C   UNL     1       2.602   0.381   3.181  1.00  0.00     0.002 C 
ATOM     19  C   UNL     1       5.044  -1.198   1.512  1.00  0.00     0.042 C 
ATOM     20  C   UNL     1       4.786  -1.004   3.016  1.00  0.00     0.063 C 
ATOM     21  C   UNL     1       6.127  -1.216   3.732  1.00  0.00     0.042 C 
ATOM     22  C   UNL     1       4.159   0.384   3.242  1.00  0.00     0.039 C 
ATOM     23  O   UNL     1       3.926  -2.043   3.501  1.00  0.00    -0.376 OA
ATOM     24  C   UNL     1       3.126  -1.689   4.627  1.00  0.00     0.161 C 
ATOM     25  C   UNL     1       2.140  -0.561   4.298  1.00  0.00     0.033 C 
ENDBRANCH  17  18
BRANCH  17  26
ATOM     26  C   UNL     1       1.756  -1.141   1.044  1.00  0.00    -0.045 A 
ATOM     27  C   UNL     1       1.793  -2.381   1.682  1.00  0.00     0.004 A 
ATOM     28  C   UNL     1       1.552  -1.182  -0.350  1.00  0.00     0.004 A 
ATOM     29  C   UNL     1       1.842  -3.591   0.983  1.00  0.00     0.000 A 
ATOM     30  C   UNL     1       1.493  -2.395  -1.053  1.00  0.00     0.000 A 
ATOM     31  C   UNL     1       1.694  -3.600  -0.391  1.00  0.00     0.000 A 
ENDBRANCH  17  26
ENDBRANCH  16  17
ENDBRANCH  15  16
ENDBRANCH  12  15
ENDBRANCH   6  11
ENDBRANCH   3   5
ENDBRANCH   2   3
ENDBRANCH   1   2
BRANCH   1  32
ATOM     32  C   UNL     1       0.021   0.514   7.680  1.00  0.00     0.275 C 
BRANCH  32  33
ATOM     33  O   UNL     1      -1.199  -0.198   7.901  1.00  0.00    -0.458 OA
BRANCH  33  34
ATOM     34  C   UNL     1      -2.140   0.560   8.498  1.00  0.00     0.338 C 
ATOM     35  O   UNL     1      -2.008   1.675   8.974  1.00  0.00    -0.246 OA
BRANCH  34  36
ATOM     36  C   UNL     1      -3.449  -0.065   8.345  1.00  0.00     0.060 A 
ATOM     37  C   UNL     1      -4.163   0.270   7.200  1.00  0.00     0.016 A 
ATOM     38  C   UNL     1      -4.063  -0.700   9.414  1.00  0.00     0.016 A 
ATOM     39  C   UNL     1      -5.533   0.135   7.169  1.00  0.00     0.010 A 
ATOM     40  C   UNL     1      -5.435  -0.929   9.347  1.00  0.00     0.010 A 
ATOM     41  C   UNL     1      -6.183  -0.439   8.258  1.00  0.00    -0.014 A 
BRANCH  41  42
ATOM     42  C   UNL     1      -7.657  -0.395   8.316  1.00  0.00     0.031 A 
ATOM     43  C   UNL     1      -8.311   0.357   9.437  1.00  0.00     0.074 A 
ATOM     44  C   UNL     1      -8.381  -1.004   7.362  1.00  0.00     0.049 A 
ATOM     45  N   UNL     1      -9.555   0.338   9.826  1.00  0.00    -0.248 NA
ATOM     46  C   UNL     1      -7.440   1.225  10.252  1.00  0.00     0.031 C 
ATOM     47  C   UNL     1      -7.832  -1.702   6.197  1.00  0.00     0.029 A 
ATOM     48  N   UNL     1      -9.736  -1.159   7.238  1.00  0.00    -0.354 N 
ATOM     49  C   UNL     1      -9.596   1.099  10.988  1.00  0.00     0.074 A 
ATOM     50  C   UNL     1      -8.258   1.588  11.228  1.00  0.00     0.031 C 
ATOM     51  C   UNL     1      -8.838  -2.227   5.484  1.00  0.00     0.029 A 
ATOM     52  C   UNL     1     -10.085  -1.986   6.197  1.00  0.00     0.049 A 
ATOM     53  H   UNL     1     -10.390  -0.725   7.832  1.00  0.00     0.167 HD
ATOM     54  C   UNL     1     -10.662   1.348  11.783  1.00  0.00     0.034 A 
ATOM     55  C   UNL     1     -11.267  -2.551   5.899  1.00  0.00     0.034 A 
ATOM     56  C   UNL     1     -11.991   0.893  11.474  1.00  0.00     0.049 A 
ATOM     57  C   UNL     1     -12.437  -2.249   6.787  1.00  0.00     0.074 A 
ATOM     58  C   UNL     1     -13.165   1.124  12.165  1.00  0.00     0.029 A 
ATOM     59  N   UNL     1     -12.319   0.109  10.375  1.00  0.00    -0.354 N 
ATOM     60  N   UNL     1     -12.480  -1.508   7.870  1.00  0.00    -0.248 NA
ATOM     61  C   UNL     1     -13.723  -2.838   6.404  1.00  0.00     0.031 C 
ATOM     62  C   UNL     1     -14.197   0.449  11.502  1.00  0.00     0.029 A 
ATOM     63  C   UNL     1     -13.674  -0.163  10.372  1.00  0.00     0.049 A 
ATOM     64  H   UNL     1     -11.678  -0.206   9.697  1.00  0.00     0.167 HD
ATOM     65  C   UNL     1     -13.803  -1.520   8.287  1.00  0.00     0.074 A 
ATOM     66  C   UNL     1     -14.531  -2.321   7.320  1.00  0.00     0.031 C 
ATOM     67  C   UNL     1     -14.368  -0.936   9.373  1.00  0.00     0.034 A 
BRANCH  54  68
ATOM     68  C   UNL     1     -10.427   2.114  13.059  1.00  0.00     0.023 A 
ATOM     69  C   UNL     1     -10.087   3.482  13.026  1.00  0.00     0.012 A 
ATOM     70  C   UNL     1     -10.562   1.470  14.306  1.00  0.00     0.148 A 
ATOM     71  C   UNL     1      -9.844   4.183  14.208  1.00  0.00     0.002 A 
ATOM     72  C   UNL     1     -10.371   2.187  15.480  1.00  0.00     0.091 A 
ATOM     73  F   UNL     1     -10.858   0.162  14.321  1.00  0.00    -0.205 F 
ATOM     74  C   UNL     1      -9.996   3.539  15.434  1.00  0.00     0.022 A 
BRANCH  72  75
ATOM     75  S   UNL     1     -10.625   1.468  17.107  1.00  0.00     0.127 S 
ATOM     76  O   UNL     1      -9.257   1.407  17.621  1.00  0.00    -0.237 OA
ATOM     77  O   UNL     1     -11.475   2.469  17.754  1.00  0.00    -0.237 OA
ATOM     78  O   UNL     1     -11.266   0.180  16.883  1.00  0.00    -0.744 OA
ENDBRANCH  72  75
ENDBRANCH  54  68
BRANCH  55  79
ATOM     79  C   UNL     1     -11.372  -3.465   4.729  1.00  0.00     0.023 A 
ATOM     80  C   UNL     1     -12.094  -3.061   3.593  1.00  0.00     0.012 A 
ATOM     81  C   UNL     1     -10.694  -4.701   4.711  1.00  0.00     0.148 A 
ATOM     82  C   UNL     1     -12.159  -3.881   2.466  1.00  0.00     0.002 A 
ATOM     83  C   UNL     1     -10.709  -5.483   3.564  1.00  0.00     0.091 A 
ATOM     84  F   UNL     1     -10.017  -5.071   5.808  1.00  0.00    -0.205 F 
ATOM     85  C   UNL     1     -11.456  -5.083   2.446  1.00  0.00     0.022 A 
BRANCH  83  86
ATOM     86  S   UNL     1      -9.713  -6.969   3.396  1.00  0.00     0.127 S 
ATOM     87  O   UNL     1     -10.735  -8.013   3.381  1.00  0.00    -0.237 OA
ATOM     88  O   UNL     1      -9.046  -6.740   2.114  1.00  0.00    -0.237 OA
ATOM     89  O   UNL     1      -8.819  -6.977   4.545  1.00  0.00    -0.744 OA
ENDBRANCH  83  86
ENDBRANCH  55  79
BRANCH  67  90
ATOM     90  C   UNL     1     -15.853  -1.107   9.537  1.00  0.00     0.023 A 
ATOM     91  C   UNL     1     -16.386  -2.359   9.902  1.00  0.00     0.012 A 
ATOM     92  C   UNL     1     -16.715  -0.006   9.370  1.00  0.00     0.148 A 
ATOM     93  C   UNL     1     -17.762  -2.523  10.050  1.00  0.00     0.002 A 
ATOM     94  C   UNL     1     -18.078  -0.163   9.577  1.00  0.00     0.091 A 
ATOM     95  F   UNL     1     -16.187   1.171   9.003  1.00  0.00    -0.205 F 
ATOM     96  C   UNL     1     -18.605  -1.424   9.900  1.00  0.00     0.022 A 
BRANCH  94  97
ATOM     97  S   UNL     1     -19.221   1.218   9.508  1.00  0.00     0.127 S 
ATOM     98  O   UNL     1     -19.917   0.965   8.248  1.00  0.00    -0.237 OA
ATOM     99  O   UNL     1     -20.033   1.009  10.707  1.00  0.00    -0.237 OA
ATOM    100  O   UNL     1     -18.400   2.421   9.539  1.00  0.00    -0.744 OA
ENDBRANCH  94  97
ENDBRANCH  67  90
ENDBRANCH  41  42
ENDBRANCH  34  36
ENDBRANCH  33  34
ENDBRANCH  32  33
ENDBRANCH   1  32
TORSDOF 20
