REMARK SMILES Cc1cc(F)cc(NC(=O)N[C@@H]2COC[C@H]2C(=O)OCCOC(=O)c2ccc(-c3c4nc(c(-c5cccc(S(=O)(=O)[O-])c5F)c5ccc([nH]5)c(-c5cccc(S(=O)(=O)[O-])c5F)c5nc(c(-c6cccc(S(=O)(=O)[O-])c6F)c6ccc3[nH]6)C=C5)C=C4)cc2)c1
REMARK SMILES IDX 21 1 20 2 19 3 17 4 18 5 16 6 12 7 13 8 14 9 15 10 11 11
REMARK SMILES IDX 8 12 9 13 10 15 7 17 1 18 2 19 3 20 88 21 4 22 5 23 6 24
REMARK SMILES IDX 22 25 23 26 24 27 25 28 26 29 87 30 27 31 86 32 28 33 29 34
REMARK SMILES IDX 30 35 80 36 31 37 85 38 79 39 81 40 32 41 84 42 78 43 77 44
REMARK SMILES IDX 33 46 65 47 45 48 64 49 46 50 49 51 63 52 82 53 47 54 48 55
REMARK SMILES IDX 62 57 83 58 50 59 34 60 35 61 43 62 36 63 38 64 44 65 37 66
REMARK SMILES IDX 39 67 40 68 41 69 42 70 66 71 67 72 75 73 68 74 70 75 76 76
REMARK SMILES IDX 69 77 71 78 72 79 73 80 74 81 51 82 52 83 60 84 53 85 55 86
REMARK SMILES IDX 61 87 54 88 56 89 57 90 58 91 59 92
REMARK H PARENT 8 14 11 16 81 45 49 56
REMARK Flexibility Score: inf
ROOT
ATOM      1  C   UNL     1      -4.890  -3.833   4.157  1.00  0.00     0.275 C 
ENDROOT
BRANCH   1   2
ATOM      2  C   UNL     1      -5.378  -2.469   3.663  1.00  0.00     0.274 C 
BRANCH   2   3
ATOM      3  O   UNL     1      -4.760  -2.110   2.412  1.00  0.00    -0.462 OA
BRANCH   3   4
ATOM      4  C   UNL     1      -3.700  -1.266   2.490  1.00  0.00     0.313 C 
ATOM      5  O   UNL     1      -3.332  -0.709   3.518  1.00  0.00    -0.252 OA
BRANCH   4   6
ATOM      6  C   UNL     1      -3.037  -1.002   1.161  1.00  0.00     0.150 C 
ATOM      7  C   UNL     1      -3.080  -2.112   0.135  1.00  0.00     0.126 C 
ATOM      8  C   UNL     1      -3.363  -1.445  -1.201  1.00  0.00     0.186 C 
ATOM      9  O   UNL     1      -3.758  -0.094  -0.941  1.00  0.00    -0.378 OA
ATOM     10  C   UNL     1      -3.760   0.141   0.475  1.00  0.00     0.177 C 
BRANCH   7  11
ATOM     11  N   UNL     1      -1.990  -3.086   0.127  1.00  0.00    -0.332 N 
ATOM     12  N   UNL     1       0.311  -2.420  -0.159  1.00  0.00    -0.308 N 
ATOM     13  C   UNL     1      -0.696  -3.276  -0.051  1.00  0.00     0.319 C 
ATOM     14  H   UNL     1       1.149  -2.933  -0.227  1.00  0.00     0.171 HD
ATOM     15  O   UNL     1      -0.351  -4.469  -0.048  1.00  0.00    -0.248 OA
ATOM     16  H   UNL     1      -2.384  -3.962   0.342  1.00  0.00     0.165 HD
BRANCH  12  17
ATOM     17  C   UNL     1       0.624  -1.058  -0.212  1.00  0.00     0.046 A 
ATOM     18  C   UNL     1       3.893   0.931   0.093  1.00  0.00     0.044 C 
ATOM     19  C   UNL     1       2.438   0.601  -0.067  1.00  0.00    -0.046 A 
ATOM     20  C   UNL     1       1.503   1.625  -0.208  1.00  0.00     0.042 A 
ATOM     21  C   UNL     1       1.987  -0.730  -0.058  1.00  0.00     0.029 A 
ATOM     22  C   UNL     1       0.168   1.301  -0.394  1.00  0.00     0.125 A 
ATOM     23  F   UNL     1      -0.730   2.282  -0.558  1.00  0.00    -0.207 F 
ATOM     24  C   UNL     1      -0.262  -0.024  -0.423  1.00  0.00     0.065 A 
ENDBRANCH  12  17
ENDBRANCH   7  11
ENDBRANCH   4   6
ENDBRANCH   3   4
ENDBRANCH   2   3
ENDBRANCH   1   2
BRANCH   1  25
ATOM     25  O   UNL     1      -3.491  -3.818   4.495  1.00  0.00    -0.458 OA
BRANCH  25  26
ATOM     26  C   UNL     1      -2.654  -4.176   3.494  1.00  0.00     0.338 C 
ATOM     27  O   UNL     1      -2.970  -4.492   2.354  1.00  0.00    -0.246 OA
BRANCH  26  28
ATOM     28  C   UNL     1      -1.259  -4.058   3.945  1.00  0.00     0.060 A 
ATOM     29  C   UNL     1      -0.448  -3.058   3.402  1.00  0.00     0.016 A 
ATOM     30  C   UNL     1      -0.729  -4.993   4.833  1.00  0.00     0.016 A 
ATOM     31  C   UNL     1       0.912  -3.014   3.712  1.00  0.00     0.010 A 
ATOM     32  C   UNL     1       0.628  -4.933   5.163  1.00  0.00     0.010 A 
ATOM     33  C   UNL     1       1.465  -3.959   4.588  1.00  0.00    -0.014 A 
BRANCH  33  34
ATOM     34  C   UNL     1       2.918  -3.953   4.897  1.00  0.00     0.031 A 
ATOM     35  C   UNL     1       3.800  -5.066   4.399  1.00  0.00     0.074 A 
ATOM     36  C   UNL     1       3.437  -2.979   5.669  1.00  0.00     0.049 A 
ATOM     37  N   UNL     1       5.057  -5.306   4.670  1.00  0.00    -0.248 NA
ATOM     38  C   UNL     1       3.186  -6.039   3.481  1.00  0.00     0.031 C 
ATOM     39  C   UNL     1       2.687  -1.853   6.225  1.00  0.00     0.029 A 
ATOM     40  N   UNL     1       4.711  -2.804   6.150  1.00  0.00    -0.354 N 
ATOM     41  C   UNL     1       5.377  -6.475   3.989  1.00  0.00     0.074 A 
ATOM     42  C   UNL     1       4.178  -6.899   3.296  1.00  0.00     0.031 C 
ATOM     43  C   UNL     1       3.505  -1.123   7.000  1.00  0.00     0.029 A 
ATOM     44  C   UNL     1       4.826  -1.746   7.022  1.00  0.00     0.049 A 
ATOM     45  H   UNL     1       5.469  -3.380   5.897  1.00  0.00     0.167 HD
ATOM     46  C   UNL     1       6.564  -7.125   3.929  1.00  0.00     0.034 A 
ATOM     47  C   UNL     1       5.865  -1.341   7.778  1.00  0.00     0.034 A 
ATOM     48  C   UNL     1       7.766  -6.686   4.589  1.00  0.00     0.049 A 
ATOM     49  C   UNL     1       7.173  -2.081   7.692  1.00  0.00     0.074 A 
ATOM     50  C   UNL     1       9.024  -7.264   4.559  1.00  0.00     0.029 A 
ATOM     51  N   UNL     1       7.863  -5.562   5.394  1.00  0.00    -0.354 N 
ATOM     52  N   UNL     1       7.485  -3.124   6.963  1.00  0.00    -0.248 NA
ATOM     53  C   UNL     1       8.283  -1.568   8.510  1.00  0.00     0.031 C 
ATOM     54  C   UNL     1       9.881  -6.490   5.349  1.00  0.00     0.029 A 
ATOM     55  C   UNL     1       9.159  -5.425   5.863  1.00  0.00     0.049 A 
ATOM     56  H   UNL     1       7.120  -4.951   5.603  1.00  0.00     0.167 HD
ATOM     57  C   UNL     1       8.829  -3.376   7.212  1.00  0.00     0.074 A 
ATOM     58  C   UNL     1       9.281  -2.359   8.139  1.00  0.00     0.031 C 
ATOM     59  C   UNL     1       9.614  -4.373   6.734  1.00  0.00     0.034 A 
BRANCH  46  60
ATOM     60  C   UNL     1       6.644  -8.360   3.072  1.00  0.00     0.023 A 
ATOM     61  C   UNL     1       6.692  -8.221   1.670  1.00  0.00     0.012 A 
ATOM     62  C   UNL     1       6.749  -9.643   3.644  1.00  0.00     0.148 A 
ATOM     63  C   UNL     1       6.821  -9.340   0.849  1.00  0.00     0.002 A 
ATOM     64  C   UNL     1       6.914 -10.751   2.820  1.00  0.00     0.091 A 
ATOM     65  F   UNL     1       6.681  -9.757   4.978  1.00  0.00    -0.205 F 
ATOM     66  C   UNL     1       6.943 -10.602   1.423  1.00  0.00     0.022 A 
BRANCH  64  67
ATOM     67  S   UNL     1       7.153 -12.411   3.466  1.00  0.00     0.127 S 
ATOM     68  O   UNL     1       5.866 -13.035   3.162  1.00  0.00    -0.237 OA
ATOM     69  O   UNL     1       8.273 -12.900   2.660  1.00  0.00    -0.237 OA
ATOM     70  O   UNL     1       7.452 -12.250   4.882  1.00  0.00    -0.744 OA
ENDBRANCH  64  67
ENDBRANCH  46  60
BRANCH  47  71
ATOM     71  C   UNL     1       5.717  -0.153   8.664  1.00  0.00     0.023 A 
ATOM     72  C   UNL     1       6.393   1.039   8.341  1.00  0.00     0.012 A 
ATOM     73  C   UNL     1       4.893  -0.188   9.805  1.00  0.00     0.148 A 
ATOM     74  C   UNL     1       6.273   2.167   9.155  1.00  0.00     0.002 A 
ATOM     75  C   UNL     1       4.733   0.955  10.580  1.00  0.00     0.091 A 
ATOM     76  F   UNL     1       4.276  -1.339  10.111  1.00  0.00    -0.205 F 
ATOM     77  C   UNL     1       5.434   2.129  10.266  1.00  0.00     0.022 A 
BRANCH  75  78
ATOM     78  S   UNL     1       3.566   1.020  11.944  1.00  0.00     0.127 S 
ATOM     79  O   UNL     1       4.444   0.847  13.098  1.00  0.00    -0.237 OA
ATOM     80  O   UNL     1       2.996   2.360  11.800  1.00  0.00    -0.237 OA
ATOM     81  O   UNL     1       2.620  -0.059  11.690  1.00  0.00    -0.744 OA
ENDBRANCH  75  78
ENDBRANCH  47  71
BRANCH  59  82
ATOM     82  C   UNL     1      11.053  -4.403   7.176  1.00  0.00     0.023 A 
ATOM     83  C   UNL     1      11.370  -4.831   8.481  1.00  0.00     0.012 A 
ATOM     84  C   UNL     1      12.093  -4.077   6.283  1.00  0.00     0.148 A 
ATOM     85  C   UNL     1      12.698  -4.908   8.898  1.00  0.00     0.002 A 
ATOM     86  C   UNL     1      13.416  -4.196   6.693  1.00  0.00     0.091 A 
ATOM     87  F   UNL     1      11.771  -3.651   5.053  1.00  0.00    -0.205 F 
ATOM     88  C   UNL     1      13.720  -4.602   8.003  1.00  0.00     0.022 A 
BRANCH  86  89
ATOM     89  S   UNL     1      14.795  -3.902   5.579  1.00  0.00     0.127 S 
ATOM     90  O   UNL     1      15.252  -2.583   6.011  1.00  0.00    -0.237 OA
ATOM     91  O   UNL     1      15.704  -5.000   5.908  1.00  0.00    -0.237 OA
ATOM     92  O   UNL     1      14.238  -3.966   4.234  1.00  0.00    -0.744 OA
ENDBRANCH  86  89
ENDBRANCH  59  82
ENDBRANCH  33  34
ENDBRANCH  26  28
ENDBRANCH  25  26
ENDBRANCH   1  25
TORSDOF 16
