REMARK SMILES C[C@@H]1CCC[C@H](C)[N@H+]1Cc1cc2c(cc1Cl)C=C(C(=O)OCCOC(=O)c1ccc(-c3c4nc(c(-c5cccc(S(=O)(=O)[O-])c5F)c5ccc([nH]5)c(-c5cccc(S(=O)(=O)[O-])c5F)c5nc(c(-c6cccc(S(=O)(=O)[O-])c6F)c6ccc3[nH]6)C=C5)C=C4)cc1)[C@@H](C(F)(F)F)O2
REMARK SMILES IDX 23 1 22 2 21 3 19 4 20 5 18 6 10 7 11 8 15 9 12 10 14 11
REMARK SMILES IDX 16 12 13 13 95 14 17 15 90 16 9 17 8 18 7 19 6 20 5 21 4 22
REMARK SMILES IDX 2 23 3 25 1 26 91 27 92 28 93 29 94 30 24 31 25 32 26 33
REMARK SMILES IDX 27 34 28 35 89 36 29 37 88 38 30 39 31 40 32 41 82 42 33 43
REMARK SMILES IDX 87 44 81 45 83 46 34 47 86 48 80 49 79 50 35 52 67 53 47 54
REMARK SMILES IDX 66 55 48 56 51 57 65 58 84 59 49 60 50 61 64 63 85 64 52 65
REMARK SMILES IDX 36 66 37 67 45 68 38 69 40 70 46 71 39 72 41 73 42 74 43 75
REMARK SMILES IDX 44 76 68 77 69 78 77 79 70 80 72 81 78 82 71 83 73 84 74 85
REMARK SMILES IDX 75 86 76 87 53 88 54 89 62 90 55 91 57 92 63 93 56 94 58 95
REMARK SMILES IDX 59 96 60 97 61 98
REMARK H PARENT 8 24 83 51 51 62
REMARK Flexibility Score: inf
ROOT
ATOM      1  C   UNL     1      -6.717   8.208  -1.201  1.00  0.00     0.275 C 
ENDROOT
BRANCH   1   2
ATOM      2  C   UNL     1      -6.666   7.756  -2.662  1.00  0.00     0.275 C 
BRANCH   2   3
ATOM      3  O   UNL     1      -5.760   6.650  -2.868  1.00  0.00    -0.459 OA
BRANCH   3   4
ATOM      4  C   UNL     1      -4.559   6.989  -3.403  1.00  0.00     0.338 C 
ATOM      5  O   UNL     1      -4.198   8.115  -3.683  1.00  0.00    -0.246 OA
BRANCH   4   6
ATOM      6  C   UNL     1      -3.690   5.803  -3.570  1.00  0.00     0.087 C 
ATOM      7  C   UNL     1       0.253   2.666  -3.570  1.00  0.00     0.029 A 
ATOM      8  C   UNL     1      -1.147   2.487  -3.652  1.00  0.00     0.058 A 
ATOM      9  C   UNL     1       0.756   3.970  -3.701  1.00  0.00     0.050 A 
ATOM     10  C   UNL     1      -2.013   3.584  -3.704  1.00  0.00     0.128 A 
ATOM     11  C   UNL     1      -0.108   5.065  -3.697  1.00  0.00     0.033 A 
ATOM     12  Cl  UNL     1       2.438   4.321  -3.877  1.00  0.00    -0.084 Cl
ATOM     13  C   UNL     1      -1.487   4.872  -3.659  1.00  0.00     0.019 A 
ATOM     14  O   UNL     1      -3.360   3.333  -3.718  1.00  0.00    -0.475 OA
ATOM     15  C   UNL     1      -2.369   6.011  -3.505  1.00  0.00     0.027 C 
ATOM     16  C   UNL     1      -4.257   4.463  -3.946  1.00  0.00     0.316 C 
BRANCH   7  17
ATOM     17  C   UNL     1       1.147   1.475  -3.276  1.00  0.00     0.301 C 
BRANCH  17  18
ATOM     18  N   UNL     1       1.387   1.141  -1.853  1.00  0.00    -0.327 N 
ATOM     19  C   UNL     1       0.667  -0.564  -0.211  1.00  0.00     0.075 C 
ATOM     20  C   UNL     1       0.233   0.589  -1.131  1.00  0.00     0.181 C 
ATOM     21  C   UNL     1      -0.580   1.630  -0.343  1.00  0.00     0.065 C 
ATOM     22  C   UNL     1       0.285   2.555   0.503  1.00  0.00     0.012 C 
ATOM     23  C   UNL     1       2.216   2.109  -1.110  1.00  0.00     0.181 C 
ATOM     24  H   UNL     1       2.005   0.331  -1.909  1.00  0.00     0.348 HD
ATOM     25  C   UNL     1       1.412   3.158  -0.324  1.00  0.00     0.065 C 
ATOM     26  C   UNL     1       3.228   1.405  -0.194  1.00  0.00     0.075 C 
ENDBRANCH  17  18
ENDBRANCH   7  17
BRANCH  16  27
ATOM     27  C   UNL     1      -4.706   4.504  -5.418  1.00  0.00     0.430 C 
ATOM     28  F   UNL     1      -5.209   3.314  -5.824  1.00  0.00    -0.167 F 
ATOM     29  F   UNL     1      -5.688   5.422  -5.604  1.00  0.00    -0.167 F 
ATOM     30  F   UNL     1      -3.696   4.824  -6.259  1.00  0.00    -0.167 F 
ENDBRANCH  16  27
ENDBRANCH   4   6
ENDBRANCH   3   4
ENDBRANCH   2   3
ENDBRANCH   1   2
BRANCH   1  31
ATOM     31  O   UNL     1      -5.447   8.732  -0.773  1.00  0.00    -0.458 OA
BRANCH  31  32
ATOM     32  C   UNL     1      -4.757   7.950   0.089  1.00  0.00     0.338 C 
ATOM     33  O   UNL     1      -5.103   6.875   0.553  1.00  0.00    -0.246 OA
BRANCH  32  34
ATOM     34  C   UNL     1      -3.434   8.542   0.333  1.00  0.00     0.060 A 
ATOM     35  C   UNL     1      -3.151   9.249   1.497  1.00  0.00     0.016 A 
ATOM     36  C   UNL     1      -2.422   8.267  -0.582  1.00  0.00     0.016 A 
ATOM     37  C   UNL     1      -1.842   9.702   1.717  1.00  0.00     0.010 A 
ATOM     38  C   UNL     1      -1.108   8.649  -0.327  1.00  0.00     0.010 A 
ATOM     39  C   UNL     1      -0.799   9.392   0.817  1.00  0.00    -0.014 A 
BRANCH  39  40
ATOM     40  C   UNL     1       0.609   9.805   1.089  1.00  0.00     0.031 A 
ATOM     41  C   UNL     1       1.383  10.658   0.112  1.00  0.00     0.074 A 
ATOM     42  C   UNL     1       1.226   9.359   2.203  1.00  0.00     0.049 A 
ATOM     43  N   UNL     1       2.601  11.128   0.218  1.00  0.00    -0.248 NA
ATOM     44  C   UNL     1       0.728  11.000  -1.163  1.00  0.00     0.031 C 
ATOM     45  C   UNL     1       0.653   8.413   3.164  1.00  0.00     0.029 A 
ATOM     46  N   UNL     1       2.467   9.641   2.719  1.00  0.00    -0.354 N 
ATOM     47  C   UNL     1       2.868  11.780  -0.981  1.00  0.00     0.074 A 
ATOM     48  C   UNL     1       1.704  11.612  -1.820  1.00  0.00     0.031 C 
ATOM     49  C   UNL     1       1.513   8.242   4.180  1.00  0.00     0.029 A 
ATOM     50  C   UNL     1       2.706   9.048   3.937  1.00  0.00     0.049 A 
ATOM     51  H   UNL     1       3.123  10.214   2.260  1.00  0.00     0.167 HD
ATOM     52  C   UNL     1       3.959  12.501  -1.335  1.00  0.00     0.034 A 
ATOM     53  C   UNL     1       3.751   9.158   4.781  1.00  0.00     0.034 A 
ATOM     54  C   UNL     1       5.076  12.753  -0.468  1.00  0.00     0.049 A 
ATOM     55  C   UNL     1       4.892  10.069   4.428  1.00  0.00     0.074 A 
ATOM     56  C   UNL     1       6.173  13.567  -0.695  1.00  0.00     0.029 A 
ATOM     57  N   UNL     1       5.231  12.214   0.798  1.00  0.00    -0.354 N 
ATOM     58  N   UNL     1       5.053  10.800   3.353  1.00  0.00    -0.248 NA
ATOM     59  C   UNL     1       5.978  10.198   5.411  1.00  0.00     0.031 C 
ATOM     60  C   UNL     1       6.986  13.528   0.441  1.00  0.00     0.029 A 
ATOM     61  C   UNL     1       6.397  12.688   1.372  1.00  0.00     0.049 A 
ATOM     62  H   UNL     1       4.605  11.586   1.226  1.00  0.00     0.167 HD
ATOM     63  C   UNL     1       6.249  11.483   3.532  1.00  0.00     0.074 A 
ATOM     64  C   UNL     1       6.763  11.098   4.830  1.00  0.00     0.031 C 
ATOM     65  C   UNL     1       6.873  12.336   2.684  1.00  0.00     0.034 A 
BRANCH  52  66
ATOM     66  C   UNL     1       3.953  13.174  -2.683  1.00  0.00     0.023 A 
ATOM     67  C   UNL     1       3.164  14.329  -2.859  1.00  0.00     0.012 A 
ATOM     68  C   UNL     1       4.781  12.733  -3.734  1.00  0.00     0.148 A 
ATOM     69  C   UNL     1       3.179  15.023  -4.068  1.00  0.00     0.002 A 
ATOM     70  C   UNL     1       4.815  13.450  -4.926  1.00  0.00     0.091 A 
ATOM     71  F   UNL     1       5.519  11.630  -3.546  1.00  0.00    -0.205 F 
ATOM     72  C   UNL     1       4.009  14.588  -5.096  1.00  0.00     0.022 A 
BRANCH  70  73
ATOM     73  S   UNL     1       5.893  13.018  -6.298  1.00  0.00     0.127 S 
ATOM     74  O   UNL     1       4.923  12.645  -7.327  1.00  0.00    -0.237 OA
ATOM     75  O   UNL     1       6.590  14.280  -6.547  1.00  0.00    -0.237 OA
ATOM     76  O   UNL     1       6.739  11.934  -5.822  1.00  0.00    -0.744 OA
ENDBRANCH  70  73
ENDBRANCH  52  66
BRANCH  53  77
ATOM     77  C   UNL     1       3.689   8.469   6.099  1.00  0.00     0.023 A 
ATOM     78  C   UNL     1       3.366   9.220   7.246  1.00  0.00     0.012 A 
ATOM     79  C   UNL     1       3.843   7.074   6.206  1.00  0.00     0.148 A 
ATOM     80  C   UNL     1       3.201   8.593   8.481  1.00  0.00     0.002 A 
ATOM     81  C   UNL     1       3.637   6.451   7.431  1.00  0.00     0.091 A 
ATOM     82  F   UNL     1       4.149   6.385   5.098  1.00  0.00    -0.205 F 
ATOM     83  C   UNL     1       3.325   7.209   8.571  1.00  0.00     0.022 A 
BRANCH  81  84
ATOM     84  S   UNL     1       3.660   4.666   7.629  1.00  0.00     0.127 S 
ATOM     85  O   UNL     1       4.796   4.479   8.529  1.00  0.00    -0.237 OA
ATOM     86  O   UNL     1       2.350   4.416   8.230  1.00  0.00    -0.237 OA
ATOM     87  O   UNL     1       3.827   4.120   6.289  1.00  0.00    -0.744 OA
ENDBRANCH  81  84
ENDBRANCH  53  77
BRANCH  65  88
ATOM     88  C   UNL     1       8.188  12.926   3.109  1.00  0.00     0.023 A 
ATOM     89  C   UNL     1       9.358  12.156   2.972  1.00  0.00     0.012 A 
ATOM     90  C   UNL     1       8.281  14.275   3.501  1.00  0.00     0.148 A 
ATOM     91  C   UNL     1      10.608  12.721   3.222  1.00  0.00     0.002 A 
ATOM     92  C   UNL     1       9.532  14.841   3.718  1.00  0.00     0.091 A 
ATOM     93  F   UNL     1       7.149  14.982   3.631  1.00  0.00    -0.205 F 
ATOM     94  C   UNL     1      10.695  14.065   3.582  1.00  0.00     0.022 A 
BRANCH  92  95
ATOM     95  S   UNL     1       9.755  16.579   4.111  1.00  0.00     0.127 S 
ATOM     96  O   UNL     1      10.271  16.511   5.478  1.00  0.00    -0.237 OA
ATOM     97  O   UNL     1      10.735  16.999   3.109  1.00  0.00    -0.237 OA
ATOM     98  O   UNL     1       8.443  17.197   3.975  1.00  0.00    -0.744 OA
ENDBRANCH  92  95
ENDBRANCH  65  88
ENDBRANCH  39  40
ENDBRANCH  32  34
ENDBRANCH  31  32
ENDBRANCH   1  31
TORSDOF 17
