REMARK SMILES [NH3+][C@@]1(C(=O)OCCOC(=O)c2ccc(-c3c4nc(c(-c5cccc(S(=O)(=O)[O-])c5F)c5ccc([nH]5)c(-c5cccc(S(=O)(=O)[O-])c5F)c5nc(c(-c6cccc(S(=O)(=O)[O-])c6F)c6ccc3[nH]6)C=C5)C=C4)cc2)CC[N@H+](Cc2ccc(OCC(=O)N3CCCCC3)cc2)C1
REMARK SMILES IDX 6 1 5 2 3 3 4 4 2 5 74 6 94 7 75 8 76 9 1 11 77 15 78 16
REMARK SMILES IDX 79 17 93 18 80 19 92 20 81 21 82 22 83 23 84 24 85 25 86 26
REMARK SMILES IDX 87 27 91 28 88 29 90 30 89 31 7 32 8 33 9 34 10 35 11 36
REMARK SMILES IDX 12 37 73 38 13 39 72 40 14 41 15 42 16 43 66 44 17 45 71 46
REMARK SMILES IDX 65 47 67 48 18 49 70 50 64 51 63 52 19 54 51 55 31 56 50 57
REMARK SMILES IDX 32 58 35 59 49 60 68 61 33 62 34 63 48 65 69 66 36 67 20 68
REMARK SMILES IDX 21 69 29 70 22 71 24 72 30 73 23 74 25 75 26 76 27 77 28 78
REMARK SMILES IDX 52 79 53 80 61 81 54 82 56 83 62 84 55 85 57 86 58 87 59 88
REMARK SMILES IDX 60 89 37 90 38 91 46 92 39 93 41 94 47 95 40 96 42 97 43 98
REMARK SMILES IDX 44 99 45 100
REMARK H PARENT 76 10 1 12 1 13 1 14 67 53 35 64
REMARK Flexibility Score: inf
ROOT
ATOM      1  C   UNL     1      -2.167   0.530   1.450  1.00  0.00     0.274 C 
ENDROOT
BRANCH   1   2
ATOM      2  O   UNL     1      -1.001   1.257   1.060  1.00  0.00    -0.457 OA
BRANCH   2   3
ATOM      3  C   UNL     1       0.192   0.838   1.543  1.00  0.00     0.374 C 
ATOM      4  O   UNL     1       0.336  -0.119   2.293  1.00  0.00    -0.244 OA
BRANCH   3   5
ATOM      5  C   UNL     1       1.341   1.696   0.947  1.00  0.00     0.246 C 
ATOM      6  C   UNL     1       2.344   2.041   2.045  1.00  0.00     0.148 C 
ATOM      7  C   UNL     1       0.843   3.099   0.520  1.00  0.00     0.344 C 
ATOM      8  C   UNL     1       1.669   3.207   2.754  1.00  0.00     0.270 C 
ATOM      9  N   UNL     1       1.013   3.964   1.694  1.00  0.00    -0.325 N 
ATOM     10  H   UNL     1       1.647   4.720   1.436  1.00  0.00     0.348 HD
BRANCH   5  11
ATOM     11  N   UNL     1       1.993   0.934  -0.143  1.00  0.00    -0.338 N 
ATOM     12  H   UNL     1       2.293   0.025   0.209  1.00  0.00     0.345 HD
ATOM     13  H   UNL     1       2.804   1.452  -0.482  1.00  0.00     0.345 HD
ATOM     14  H   UNL     1       1.331   0.801  -0.908  1.00  0.00     0.345 HD
ENDBRANCH   5  11
BRANCH   9  15
ATOM     15  C   UNL     1      -0.107   4.838   2.056  1.00  0.00     0.299 C 
BRANCH  15  16
ATOM     16  C   UNL     1      -1.391   4.212   2.583  1.00  0.00     0.006 A 
ATOM     17  C   UNL     1      -2.568   4.254   1.825  1.00  0.00     0.013 A 
ATOM     18  C   UNL     1      -1.468   3.608   3.848  1.00  0.00     0.013 A 
ATOM     19  C   UNL     1      -3.726   3.592   2.260  1.00  0.00     0.047 A 
ATOM     20  C   UNL     1      -2.610   2.897   4.259  1.00  0.00     0.047 A 
ATOM     21  C   UNL     1      -3.718   2.819   3.424  1.00  0.00     0.120 A 
BRANCH  21  22
ATOM     22  O   UNL     1      -4.785   1.971   3.549  1.00  0.00    -0.484 OA
BRANCH  22  23
ATOM     23  C   UNL     1      -4.806   1.006   4.586  1.00  0.00     0.329 C 
BRANCH  23  24
ATOM     24  C   UNL     1      -3.826  -0.197   4.658  1.00  0.00     0.260 C 
ATOM     25  O   UNL     1      -2.901  -0.147   5.476  1.00  0.00    -0.271 OA
ATOM     26  N   UNL     1      -4.061  -1.337   3.890  1.00  0.00    -0.340 N 
ATOM     27  C   UNL     1      -3.383  -2.583   4.265  1.00  0.00     0.119 C 
ATOM     28  C   UNL     1      -5.039  -1.476   2.812  1.00  0.00     0.119 C 
ATOM     29  C   UNL     1      -2.688  -3.227   3.075  1.00  0.00     0.022 C 
ATOM     30  C   UNL     1      -4.478  -2.237   1.600  1.00  0.00     0.022 C 
ATOM     31  C   UNL     1      -3.683  -3.491   1.950  1.00  0.00     0.004 C 
ENDBRANCH  23  24
ENDBRANCH  22  23
ENDBRANCH  21  22
ENDBRANCH  15  16
ENDBRANCH   9  15
ENDBRANCH   3   5
ENDBRANCH   2   3
ENDBRANCH   1   2
BRANCH   1  32
ATOM     32  C   UNL     1      -3.301   0.953   0.503  1.00  0.00     0.275 C 
BRANCH  32  33
ATOM     33  O   UNL     1      -3.307   0.095  -0.646  1.00  0.00    -0.458 OA
BRANCH  33  34
ATOM     34  C   UNL     1      -2.264   0.320  -1.476  1.00  0.00     0.338 C 
ATOM     35  O   UNL     1      -1.668   1.365  -1.668  1.00  0.00    -0.246 OA
BRANCH  34  36
ATOM     36  C   UNL     1      -1.747  -0.999  -1.847  1.00  0.00     0.060 A 
ATOM     37  C   UNL     1      -0.452  -1.304  -1.428  1.00  0.00     0.016 A 
ATOM     38  C   UNL     1      -2.507  -1.915  -2.568  1.00  0.00     0.016 A 
ATOM     39  C   UNL     1       0.148  -2.483  -1.828  1.00  0.00     0.010 A 
ATOM     40  C   UNL     1      -1.919  -3.121  -2.938  1.00  0.00     0.010 A 
ATOM     41  C   UNL     1      -0.574  -3.384  -2.612  1.00  0.00    -0.014 A 
BRANCH  41  42
ATOM     42  C   UNL     1       0.123  -4.545  -3.199  1.00  0.00     0.031 A 
ATOM     43  C   UNL     1       0.343  -4.573  -4.683  1.00  0.00     0.074 A 
ATOM     44  C   UNL     1       0.574  -5.533  -2.407  1.00  0.00     0.049 A 
ATOM     45  N   UNL     1       0.785  -5.545  -5.433  1.00  0.00    -0.248 NA
ATOM     46  C   UNL     1       0.010  -3.343  -5.425  1.00  0.00     0.031 C 
ATOM     47  C   UNL     1       0.459  -5.567  -0.948  1.00  0.00     0.029 A 
ATOM     48  N   UNL     1       1.200  -6.709  -2.723  1.00  0.00    -0.354 N 
ATOM     49  C   UNL     1       0.731  -5.067  -6.736  1.00  0.00     0.074 A 
ATOM     50  C   UNL     1       0.215  -3.718  -6.679  1.00  0.00     0.031 C 
ATOM     51  C   UNL     1       0.977  -6.720  -0.496  1.00  0.00     0.029 A 
ATOM     52  C   UNL     1       1.399  -7.526  -1.636  1.00  0.00     0.049 A 
ATOM     53  H   UNL     1       1.481  -6.945  -3.637  1.00  0.00     0.167 HD
ATOM     54  C   UNL     1       1.093  -5.700  -7.875  1.00  0.00     0.034 A 
ATOM     55  C   UNL     1       1.823  -8.803  -1.579  1.00  0.00     0.034 A 
ATOM     56  C   UNL     1       1.653  -7.022  -7.903  1.00  0.00     0.049 A 
ATOM     57  C   UNL     1       2.184  -9.496  -2.864  1.00  0.00     0.074 A 
ATOM     58  C   UNL     1       2.080  -7.753  -8.995  1.00  0.00     0.029 A 
ATOM     59  N   UNL     1       1.866  -7.810  -6.781  1.00  0.00    -0.354 N 
ATOM     60  N   UNL     1       2.176  -9.022  -4.087  1.00  0.00    -0.248 NA
ATOM     61  C   UNL     1       2.623 -10.894  -2.763  1.00  0.00     0.031 C 
ATOM     62  C   UNL     1       2.537  -8.993  -8.534  1.00  0.00     0.029 A 
ATOM     63  C   UNL     1       2.408  -9.026  -7.154  1.00  0.00     0.049 A 
ATOM     64  H   UNL     1       1.661  -7.543  -5.856  1.00  0.00     0.167 HD
ATOM     65  C   UNL     1       2.616 -10.058  -4.901  1.00  0.00     0.074 A 
ATOM     66  C   UNL     1       2.918 -11.173  -4.025  1.00  0.00     0.031 C 
ATOM     67  C   UNL     1       2.734 -10.100  -6.251  1.00  0.00     0.034 A 
BRANCH  54  68
ATOM     68  C   UNL     1       0.913  -4.964  -9.174  1.00  0.00     0.023 A 
ATOM     69  C   UNL     1       1.795  -3.920  -9.516  1.00  0.00     0.012 A 
ATOM     70  C   UNL     1      -0.101  -5.338 -10.078  1.00  0.00     0.148 A 
ATOM     71  C   UNL     1       1.659  -3.245 -10.729  1.00  0.00     0.002 A 
ATOM     72  C   UNL     1      -0.206  -4.688 -11.302  1.00  0.00     0.091 A 
ATOM     73  F   UNL     1      -0.946  -6.315  -9.721  1.00  0.00    -0.205 F 
ATOM     74  C   UNL     1       0.667  -3.636 -11.625  1.00  0.00     0.022 A 
BRANCH  72  75
ATOM     75  S   UNL     1      -1.408  -5.156 -12.552  1.00  0.00     0.127 S 
ATOM     76  O   UNL     1      -2.296  -3.995 -12.557  1.00  0.00    -0.237 OA
ATOM     77  O   UNL     1      -0.572  -5.290 -13.745  1.00  0.00    -0.237 OA
ATOM     78  O   UNL     1      -2.010  -6.397 -12.086  1.00  0.00    -0.744 OA
ENDBRANCH  72  75
ENDBRANCH  54  68
BRANCH  55  79
ATOM     79  C   UNL     1       1.901  -9.502  -0.266  1.00  0.00     0.023 A 
ATOM     80  C   UNL     1       3.154  -9.864   0.262  1.00  0.00     0.012 A 
ATOM     81  C   UNL     1       0.737  -9.779   0.481  1.00  0.00     0.148 A 
ATOM     82  C   UNL     1       3.245 -10.510   1.496  1.00  0.00     0.002 A 
ATOM     83  C   UNL     1       0.839 -10.366   1.736  1.00  0.00     0.091 A 
ATOM     84  F   UNL     1      -0.452  -9.454  -0.047  1.00  0.00    -0.205 F 
ATOM     85  C   UNL     1       2.091 -10.748   2.239  1.00  0.00     0.022 A 
BRANCH  83  86
ATOM     86  S   UNL     1      -0.589 -10.569   2.807  1.00  0.00     0.127 S 
ATOM     87  O   UNL     1      -0.889 -11.989   2.643  1.00  0.00    -0.237 OA
ATOM     88  O   UNL     1      -0.049 -10.202   4.117  1.00  0.00    -0.237 OA
ATOM     89  O   UNL     1      -1.589  -9.641   2.297  1.00  0.00    -0.744 OA
ENDBRANCH  83  86
ENDBRANCH  55  79
BRANCH  67  90
ATOM     90  C   UNL     1       3.209 -11.390  -6.860  1.00  0.00     0.023 A 
ATOM     91  C   UNL     1       2.327 -12.486  -6.928  1.00  0.00     0.012 A 
ATOM     92  C   UNL     1       4.492 -11.491  -7.431  1.00  0.00     0.148 A 
ATOM     93  C   UNL     1       2.725 -13.677  -7.533  1.00  0.00     0.002 A 
ATOM     94  C   UNL     1       4.865 -12.665  -8.073  1.00  0.00     0.091 A 
ATOM     95  F   UNL     1       5.317 -10.439  -7.341  1.00  0.00    -0.205 F 
ATOM     96  C   UNL     1       3.988 -13.762  -8.115  1.00  0.00     0.022 A 
BRANCH  94  97
ATOM     97  S   UNL     1       6.433 -12.838  -8.931  1.00  0.00     0.127 S 
ATOM     98  O   UNL     1       7.150 -13.765  -8.056  1.00  0.00    -0.237 OA
ATOM     99  O   UNL     1       6.022 -13.405 -10.216  1.00  0.00    -0.237 OA
ATOM    100  O   UNL     1       6.996 -11.497  -9.014  1.00  0.00    -0.744 OA
ENDBRANCH  94  97
ENDBRANCH  67  90
ENDBRANCH  41  42
ENDBRANCH  34  36
ENDBRANCH  33  34
ENDBRANCH  32  33
ENDBRANCH   1  32
TORSDOF 20
