REMARK SMILES Cc1[nH]c2ccc(Br)cc2c(=O)c1CCC(=O)OCCOC(=O)c1ccc(-c2c3nc(c(-c4cccc(S(=O)(=O)[O-])c4F)c4ccc([nH]4)c(-c4cccc(S(=O)(=O)[O-])c4F)c4nc(c(-c5cccc(S(=O)(=O)[O-])c5F)c5ccc2[nH]5)C=C4)C=C3)cc1
REMARK SMILES IDX 20 1 19 2 18 3 16 4 17 5 15 6 14 7 13 8 1 9 2 10 3 11 4 12
REMARK SMILES IDX 11 14 5 15 10 16 12 17 6 18 9 19 7 20 8 21 21 22 22 23 23 24
REMARK SMILES IDX 24 25 25 26 86 27 26 28 85 29 27 30 28 31 29 32 79 33 30 34
REMARK SMILES IDX 84 35 78 36 80 37 31 38 83 39 77 40 76 41 32 43 64 44 44 45
REMARK SMILES IDX 63 46 45 47 48 48 62 49 81 50 46 51 47 52 61 54 82 55 49 56
REMARK SMILES IDX 33 57 34 58 42 59 35 60 37 61 43 62 36 63 38 64 39 65 40 66
REMARK SMILES IDX 41 67 65 68 66 69 74 70 67 71 69 72 75 73 68 74 70 75 71 76
REMARK SMILES IDX 72 77 73 78 50 79 51 80 59 81 52 82 54 83 60 84 53 85 55 86
REMARK SMILES IDX 56 87 57 88 58 89
REMARK H PARENT 3 13 80 42 48 53
REMARK Flexibility Score: inf
ROOT
ATOM      1  C   UNL     1       0.784  -6.863  -0.989  1.00  0.00     0.275 C 
ENDROOT
BRANCH   1   2
ATOM      2  C   UNL     1      -0.582  -6.215  -0.753  1.00  0.00     0.274 C 
BRANCH   2   3
ATOM      3  O   UNL     1      -0.464  -4.841  -0.337  1.00  0.00    -0.462 OA
BRANCH   3   4
ATOM      4  C   UNL     1      -0.358  -4.603   0.992  1.00  0.00     0.306 C 
ATOM      5  O   UNL     1      -0.535  -5.439   1.869  1.00  0.00    -0.252 OA
BRANCH   4   6
ATOM      6  C   UNL     1      -0.076  -3.145   1.290  1.00  0.00     0.127 C 
BRANCH   6   7
ATOM      7  C   UNL     1       1.128  -2.536   0.555  1.00  0.00     0.053 C 
BRANCH   7   8
ATOM      8  C   UNL     1       0.757  -1.988  -0.802  1.00  0.00     0.020 A 
ATOM      9  C   UNL     1       0.440   0.372  -0.064  1.00  0.00     0.064 C 
ATOM     10  C   UNL     1       0.382  -0.723  -1.099  1.00  0.00     0.019 A 
ATOM     11  N   UNL     1      -0.093  -0.367  -2.353  1.00  0.00    -0.358 N 
ATOM     12  C   UNL     1      -0.348  -1.321  -3.345  1.00  0.00     0.050 A 
ATOM     13  H   UNL     1      -0.256   0.584  -2.550  1.00  0.00     0.166 HD
ATOM     14  C   UNL     1       0.870  -2.925  -1.958  1.00  0.00     0.192 A 
ATOM     15  C   UNL     1      -1.064  -1.023  -4.503  1.00  0.00     0.028 A 
ATOM     16  C   UNL     1       0.086  -2.635  -3.161  1.00  0.00     0.047 A 
ATOM     17  O   UNL     1       1.594  -3.910  -1.947  1.00  0.00    -0.289 OA
ATOM     18  C   UNL     1      -1.344  -2.029  -5.440  1.00  0.00     0.018 A 
ATOM     19  C   UNL     1      -0.180  -3.650  -4.084  1.00  0.00     0.030 A 
ATOM     20  C   UNL     1      -0.907  -3.338  -5.222  1.00  0.00     0.018 A 
ATOM     21  Br  UNL     1      -1.309  -4.694  -6.475  1.00  0.00    -0.051 Br
ENDBRANCH   7   8
ENDBRANCH   6   7
ENDBRANCH   4   6
ENDBRANCH   3   4
ENDBRANCH   2   3
ENDBRANCH   1   2
BRANCH   1  22
ATOM     22  O   UNL     1       1.442  -7.092   0.265  1.00  0.00    -0.458 OA
BRANCH  22  23
ATOM     23  C   UNL     1       2.518  -6.322   0.538  1.00  0.00     0.338 C 
ATOM     24  O   UNL     1       3.086  -5.510  -0.163  1.00  0.00    -0.246 OA
BRANCH  23  25
ATOM     25  C   UNL     1       2.917  -6.607   1.913  1.00  0.00     0.060 A 
ATOM     26  C   UNL     1       3.628  -7.777   2.169  1.00  0.00     0.016 A 
ATOM     27  C   UNL     1       2.605  -5.699   2.928  1.00  0.00     0.016 A 
ATOM     28  C   UNL     1       3.996  -8.060   3.476  1.00  0.00     0.010 A 
ATOM     29  C   UNL     1       2.993  -5.976   4.234  1.00  0.00     0.010 A 
ATOM     30  C   UNL     1       3.678  -7.165   4.514  1.00  0.00    -0.014 A 
BRANCH  30  31
ATOM     31  C   UNL     1       4.127  -7.482   5.883  1.00  0.00     0.031 A 
ATOM     32  C   UNL     1       3.150  -7.943   6.920  1.00  0.00     0.074 A 
ATOM     33  C   UNL     1       5.442  -7.397   6.154  1.00  0.00     0.049 A 
ATOM     34  N   UNL     1       3.397  -8.451   8.097  1.00  0.00    -0.248 NA
ATOM     35  C   UNL     1       1.717  -7.817   6.606  1.00  0.00     0.031 C 
ATOM     36  C   UNL     1       6.457  -6.888   5.227  1.00  0.00     0.029 A 
ATOM     37  N   UNL     1       6.154  -7.755   7.267  1.00  0.00    -0.354 N 
ATOM     38  C   UNL     1       2.157  -8.704   8.666  1.00  0.00     0.074 A 
ATOM     39  C   UNL     1       1.155  -8.267   7.721  1.00  0.00     0.031 C 
ATOM     40  C   UNL     1       7.666  -7.010   5.794  1.00  0.00     0.029 A 
ATOM     41  C   UNL     1       7.511  -7.596   7.122  1.00  0.00     0.049 A 
ATOM     42  H   UNL     1       5.734  -8.094   8.091  1.00  0.00     0.167 HD
ATOM     43  C   UNL     1       1.890  -9.283   9.859  1.00  0.00     0.034 A 
ATOM     44  C   UNL     1       8.519  -7.915   7.954  1.00  0.00     0.034 A 
ATOM     45  C   UNL     1       2.903  -9.743  10.767  1.00  0.00     0.049 A 
ATOM     46  C   UNL     1       8.196  -8.594   9.254  1.00  0.00     0.074 A 
ATOM     47  C   UNL     1       2.737 -10.412  11.966  1.00  0.00     0.029 A 
ATOM     48  N   UNL     1       4.266  -9.578  10.580  1.00  0.00    -0.354 N 
ATOM     49  N   UNL     1       7.025  -8.963   9.714  1.00  0.00    -0.248 NA
ATOM     50  C   UNL     1       9.323  -8.927  10.135  1.00  0.00     0.031 C 
ATOM     51  C   UNL     1       4.002 -10.637  12.513  1.00  0.00     0.029 A 
ATOM     52  C   UNL     1       4.955 -10.121  11.648  1.00  0.00     0.049 A 
ATOM     53  H   UNL     1       4.681  -9.139   9.803  1.00  0.00     0.167 HD
ATOM     54  C   UNL     1       7.272  -9.585  10.930  1.00  0.00     0.074 A 
ATOM     55  C   UNL     1       8.707  -9.556  11.130  1.00  0.00     0.031 C 
ATOM     56  C   UNL     1       6.386 -10.118  11.805  1.00  0.00     0.034 A 
BRANCH  43  57
ATOM     57  C   UNL     1       0.454  -9.524  10.229  1.00  0.00     0.023 A 
ATOM     58  C   UNL     1      -0.228 -10.611   9.648  1.00  0.00     0.012 A 
ATOM     59  C   UNL     1      -0.177  -8.762  11.231  1.00  0.00     0.148 A 
ATOM     60  C   UNL     1      -1.521 -10.935  10.054  1.00  0.00     0.002 A 
ATOM     61  C   UNL     1      -1.456  -9.108  11.652  1.00  0.00     0.091 A 
ATOM     62  F   UNL     1       0.491  -7.728  11.762  1.00  0.00    -0.205 F 
ATOM     63  C   UNL     1      -2.129 -10.191  11.062  1.00  0.00     0.022 A 
BRANCH  61  64
ATOM     64  S   UNL     1      -2.312  -8.251  12.978  1.00  0.00     0.127 S 
ATOM     65  O   UNL     1      -3.462  -7.688  12.272  1.00  0.00    -0.237 OA
ATOM     66  O   UNL     1      -2.634  -9.347  13.892  1.00  0.00    -0.237 OA
ATOM     67  O   UNL     1      -1.371  -7.271  13.502  1.00  0.00    -0.744 OA
ENDBRANCH  61  64
ENDBRANCH  43  57
BRANCH  44  68
ATOM     68  C   UNL     1       9.919  -7.671   7.519  1.00  0.00     0.023 A 
ATOM     69  C   UNL     1      10.705  -8.753   7.080  1.00  0.00     0.012 A 
ATOM     70  C   UNL     1      10.436  -6.364   7.441  1.00  0.00     0.148 A 
ATOM     71  C   UNL     1      11.986  -8.536   6.571  1.00  0.00     0.002 A 
ATOM     72  C   UNL     1      11.697  -6.151   6.900  1.00  0.00     0.091 A 
ATOM     73  F   UNL     1       9.664  -5.353   7.864  1.00  0.00    -0.205 F 
ATOM     74  C   UNL     1      12.478  -7.237   6.471  1.00  0.00     0.022 A 
BRANCH  72  75
ATOM     75  S   UNL     1      12.374  -4.508   6.636  1.00  0.00     0.127 S 
ATOM     76  O   UNL     1      13.520  -4.510   7.543  1.00  0.00    -0.237 OA
ATOM     77  O   UNL     1      12.714  -4.549   5.214  1.00  0.00    -0.237 OA
ATOM     78  O   UNL     1      11.307  -3.578   6.978  1.00  0.00    -0.744 OA
ENDBRANCH  72  75
ENDBRANCH  44  68
BRANCH  56  79
ATOM     79  C   UNL     1       6.916 -10.722  13.074  1.00  0.00     0.023 A 
ATOM     80  C   UNL     1       7.224  -9.876  14.155  1.00  0.00     0.012 A 
ATOM     81  C   UNL     1       6.924 -12.119  13.250  1.00  0.00     0.148 A 
ATOM     82  C   UNL     1       7.528 -10.415  15.404  1.00  0.00     0.002 A 
ATOM     83  C   UNL     1       7.194 -12.647  14.506  1.00  0.00     0.091 A 
ATOM     84  F   UNL     1       6.624 -12.896  12.200  1.00  0.00    -0.205 F 
ATOM     85  C   UNL     1       7.498 -11.797  15.582  1.00  0.00     0.022 A 
BRANCH  83  86
ATOM     86  S   UNL     1       7.101 -14.405  14.859  1.00  0.00     0.127 S 
ATOM     87  O   UNL     1       8.474 -14.700  15.268  1.00  0.00    -0.237 OA
ATOM     88  O   UNL     1       6.119 -14.448  15.942  1.00  0.00    -0.237 OA
ATOM     89  O   UNL     1       6.679 -15.047  13.621  1.00  0.00    -0.744 OA
ENDBRANCH  83  86
ENDBRANCH  56  79
ENDBRANCH  30  31
ENDBRANCH  23  25
ENDBRANCH  22  23
ENDBRANCH   1  22
TORSDOF 16
