REMARK SMILES CC1=C(C)C(=O)N(C[C@H](CC(C)C)C(=O)OCCOC(=O)c2ccc(-c3c4nc(c(-c5cccc(S(=O)(=O)[O-])c5F)c5ccc([nH]5)c(-c5cccc(S(=O)(=O)[O-])c5F)c5nc(c(-c6cccc(S(=O)(=O)[O-])c6F)c6ccc3[nH]6)C=C5)C=C4)cc2)C1=O
REMARK SMILES IDX 18 1 17 2 16 3 14 4 15 5 9 6 8 7 7 8 1 9 2 10 3 11 85 12
REMARK SMILES IDX 4 13 5 14 86 15 6 16 10 17 11 18 12 19 13 20 19 21 20 22
REMARK SMILES IDX 21 23 22 24 23 25 84 26 24 27 83 28 25 29 26 30 27 31 77 32
REMARK SMILES IDX 28 33 82 34 76 35 78 36 29 37 81 38 75 39 74 40 30 42 62 43
REMARK SMILES IDX 42 44 61 45 43 46 46 47 60 48 79 49 44 50 45 51 59 53 80 54
REMARK SMILES IDX 47 55 31 56 32 57 40 58 33 59 35 60 41 61 34 62 36 63 37 64
REMARK SMILES IDX 38 65 39 66 63 67 64 68 72 69 65 70 67 71 73 72 66 73 68 74
REMARK SMILES IDX 69 75 70 76 71 77 48 78 49 79 57 80 50 81 52 82 58 83 51 84
REMARK SMILES IDX 53 85 54 86 55 87 56 88
REMARK H PARENT 78 41 46 52
REMARK Flexibility Score: inf
ROOT
ATOM      1  C   UNL     1       2.716  -8.005  -4.894  1.00  0.00     0.275 C 
ENDROOT
BRANCH   1   2
ATOM      2  C   UNL     1       2.905  -7.943  -3.377  1.00  0.00     0.274 C 
BRANCH   2   3
ATOM      3  O   UNL     1       2.288  -6.772  -2.804  1.00  0.00    -0.462 OA
BRANCH   3   4
ATOM      4  C   UNL     1       3.105  -5.729  -2.487  1.00  0.00     0.310 C 
ATOM      5  O   UNL     1       4.316  -5.715  -2.666  1.00  0.00    -0.252 OA
BRANCH   4   6
ATOM      6  C   UNL     1       2.362  -4.600  -1.778  1.00  0.00     0.119 C 
BRANCH   6   7
ATOM      7  C   UNL     1       2.294  -4.930  -0.273  1.00  0.00     0.144 C 
BRANCH   7   8
ATOM      8  N   UNL     1       1.765  -6.253   0.009  1.00  0.00    -0.274 N 
ATOM      9  C   UNL     1      -0.647  -8.934  -0.605  1.00  0.00     0.051 C 
ATOM     10  C   UNL     1       0.503  -8.133  -0.132  1.00  0.00     0.023 C 
ATOM     11  C   UNL     1       1.696  -8.504   0.344  1.00  0.00     0.023 C 
ATOM     12  C   UNL     1       0.491  -6.664  -0.219  1.00  0.00     0.256 C 
ATOM     13  C   UNL     1       2.245  -9.858   0.572  1.00  0.00     0.051 C 
ATOM     14  C   UNL     1       2.514  -7.287   0.469  1.00  0.00     0.256 C 
ATOM     15  O   UNL     1      -0.498  -6.011  -0.459  1.00  0.00    -0.269 OA
ATOM     16  O   UNL     1       3.661  -7.269   0.878  1.00  0.00    -0.269 OA
ENDBRANCH   7   8
ENDBRANCH   6   7
BRANCH   6  17
ATOM     17  C   UNL     1       1.030  -4.237  -2.472  1.00  0.00     0.020 C 
BRANCH  17  18
ATOM     18  C   UNL     1       0.143  -3.207  -1.740  1.00  0.00    -0.017 C 
ATOM     19  C   UNL     1       0.782  -1.820  -1.683  1.00  0.00     0.007 C 
ATOM     20  C   UNL     1      -1.233  -3.122  -2.406  1.00  0.00     0.007 C 
ENDBRANCH  17  18
ENDBRANCH   6  17
ENDBRANCH   4   6
ENDBRANCH   3   4
ENDBRANCH   2   3
ENDBRANCH   1   2
BRANCH   1  21
ATOM     21  O   UNL     1       3.505  -7.007  -5.556  1.00  0.00    -0.458 OA
BRANCH  21  22
ATOM     22  C   UNL     1       2.895  -5.808  -5.702  1.00  0.00     0.338 C 
ATOM     23  O   UNL     1       1.745  -5.524  -5.414  1.00  0.00    -0.246 OA
BRANCH  22  24
ATOM     24  C   UNL     1       3.884  -4.817  -6.142  1.00  0.00     0.060 A 
ATOM     25  C   UNL     1       4.110  -3.698  -5.333  1.00  0.00     0.016 A 
ATOM     26  C   UNL     1       4.534  -4.960  -7.368  1.00  0.00     0.016 A 
ATOM     27  C   UNL     1       4.979  -2.699  -5.757  1.00  0.00     0.010 A 
ATOM     28  C   UNL     1       5.402  -3.957  -7.793  1.00  0.00     0.010 A 
ATOM     29  C   UNL     1       5.611  -2.814  -7.000  1.00  0.00    -0.014 A 
BRANCH  29  30
ATOM     30  C   UNL     1       6.423  -1.698  -7.531  1.00  0.00     0.031 A 
ATOM     31  C   UNL     1       5.855  -0.849  -8.630  1.00  0.00     0.074 A 
ATOM     32  C   UNL     1       7.666  -1.487  -7.064  1.00  0.00     0.049 A 
ATOM     33  N   UNL     1       6.437   0.078  -9.342  1.00  0.00    -0.248 NA
ATOM     34  C   UNL     1       4.444  -1.083  -8.981  1.00  0.00     0.031 C 
ATOM     35  C   UNL     1       8.304  -2.244  -5.987  1.00  0.00     0.029 A 
ATOM     36  N   UNL     1       8.627  -0.595  -7.465  1.00  0.00    -0.354 N 
ATOM     37  C   UNL     1       5.483   0.505 -10.256  1.00  0.00     0.074 A 
ATOM     38  C   UNL     1       4.281  -0.261 -10.008  1.00  0.00     0.031 C 
ATOM     39  C   UNL     1       9.566  -1.809  -5.837  1.00  0.00     0.029 A 
ATOM     40  C   UNL     1       9.834  -0.772  -6.830  1.00  0.00     0.049 A 
ATOM     41  H   UNL     1       8.468   0.104  -8.140  1.00  0.00     0.167 HD
ATOM     42  C   UNL     1       5.599   1.458 -11.210  1.00  0.00     0.034 A 
ATOM     43  C   UNL     1      11.027  -0.189  -7.055  1.00  0.00     0.034 A 
ATOM     44  C   UNL     1       6.790   2.232 -11.424  1.00  0.00     0.049 A 
ATOM     45  C   UNL     1      11.132   0.859  -8.132  1.00  0.00     0.074 A 
ATOM     46  C   UNL     1       7.004   3.248 -12.338  1.00  0.00     0.029 A 
ATOM     47  N   UNL     1       7.971   2.075 -10.714  1.00  0.00    -0.354 N 
ATOM     48  N   UNL     1      10.198   1.317  -8.932  1.00  0.00    -0.248 NA
ATOM     49  C   UNL     1      12.445   1.492  -8.321  1.00  0.00     0.031 C 
ATOM     50  C   UNL     1       8.322   3.692 -12.194  1.00  0.00     0.029 A 
ATOM     51  C   UNL     1       8.919   2.973 -11.170  1.00  0.00     0.049 A 
ATOM     52  H   UNL     1       8.114   1.421  -9.993  1.00  0.00     0.167 HD
ATOM     53  C   UNL     1      10.797   2.321  -9.684  1.00  0.00     0.074 A 
ATOM     54  C   UNL     1      12.173   2.409  -9.240  1.00  0.00     0.031 C 
ATOM     55  C   UNL     1      10.261   3.092 -10.662  1.00  0.00     0.034 A 
BRANCH  42  56
ATOM     56  C   UNL     1       4.401   1.732 -12.079  1.00  0.00     0.023 A 
ATOM     57  C   UNL     1       3.292   2.417 -11.543  1.00  0.00     0.012 A 
ATOM     58  C   UNL     1       4.395   1.361 -13.438  1.00  0.00     0.148 A 
ATOM     59  C   UNL     1       2.184   2.705 -12.339  1.00  0.00     0.002 A 
ATOM     60  C   UNL     1       3.305   1.689 -14.235  1.00  0.00     0.091 A 
ATOM     61  F   UNL     1       5.449   0.688 -13.922  1.00  0.00    -0.205 F 
ATOM     62  C   UNL     1       2.195   2.351 -13.686  1.00  0.00     0.022 A 
BRANCH  60  63
ATOM     63  S   UNL     1       3.256   1.343 -15.998  1.00  0.00     0.127 S 
ATOM     64  O   UNL     1       2.265   0.270 -16.060  1.00  0.00    -0.237 OA
ATOM     65  O   UNL     1       2.807   2.621 -16.550  1.00  0.00    -0.237 OA
ATOM     66  O   UNL     1       4.612   0.965 -16.370  1.00  0.00    -0.744 OA
ENDBRANCH  60  63
ENDBRANCH  42  56
BRANCH  43  67
ATOM     67  C   UNL     1      12.207  -0.558  -6.224  1.00  0.00     0.023 A 
ATOM     68  C   UNL     1      12.727   0.377  -5.310  1.00  0.00     0.012 A 
ATOM     69  C   UNL     1      12.799  -1.833  -6.315  1.00  0.00     0.148 A 
ATOM     70  C   UNL     1      13.836   0.061  -4.523  1.00  0.00     0.002 A 
ATOM     71  C   UNL     1      13.870  -2.160  -5.490  1.00  0.00     0.091 A 
ATOM     72  F   UNL     1      12.300  -2.705  -7.203  1.00  0.00    -0.205 F 
ATOM     73  C   UNL     1      14.400  -1.209  -4.605  1.00  0.00     0.022 A 
BRANCH  71  74
ATOM     74  S   UNL     1      14.579  -3.810  -5.443  1.00  0.00     0.127 S 
ATOM     75  O   UNL     1      15.860  -3.604  -6.114  1.00  0.00    -0.237 OA
ATOM     76  O   UNL     1      14.672  -4.059  -4.003  1.00  0.00    -0.237 OA
ATOM     77  O   UNL     1      13.629  -4.665  -6.139  1.00  0.00    -0.744 OA
ENDBRANCH  71  74
ENDBRANCH  43  67
BRANCH  55  78
ATOM     78  C   UNL     1      11.135   4.150 -11.282  1.00  0.00     0.023 A 
ATOM     79  C   UNL     1      12.137   3.784 -12.200  1.00  0.00     0.012 A 
ATOM     80  C   UNL     1      10.882   5.514 -11.034  1.00  0.00     0.148 A 
ATOM     81  C   UNL     1      12.891   4.762 -12.848  1.00  0.00     0.002 A 
ATOM     82  C   UNL     1      11.604   6.483 -11.719  1.00  0.00     0.091 A 
ATOM     83  F   UNL     1       9.933   5.837 -10.143  1.00  0.00    -0.205 F 
ATOM     84  C   UNL     1      12.615   6.109 -12.619  1.00  0.00     0.022 A 
BRANCH  82  85
ATOM     85  S   UNL     1      11.250   8.237 -11.564  1.00  0.00     0.127 S 
ATOM     86  O   UNL     1      12.416   8.712 -10.822  1.00  0.00    -0.237 OA
ATOM     87  O   UNL     1      11.199   8.668 -12.962  1.00  0.00    -0.237 OA
ATOM     88  O   UNL     1       9.980   8.331 -10.856  1.00  0.00    -0.744 OA
ENDBRANCH  82  85
ENDBRANCH  55  78
ENDBRANCH  29  30
ENDBRANCH  22  24
ENDBRANCH  21  22
ENDBRANCH   1  21
TORSDOF 18
