REMARK SMILES CC(=O)NS(=O)(=O)c1cc(-c2ccn(C(F)F)c(=O)c2)ccc1C(=O)OCCOC(=O)c1ccc(-c2c3nc(c(-c4cccc(S(=O)(=O)[O-])c4F)c4ccc([nH]4)c(-c4cccc(S(=O)(=O)[O-])c4F)c4nc(c(-c5cccc(S(=O)(=O)[O-])c5F)c5ccc2[nH]5)C=C4)C=C3)cc1
REMARK SMILES IDX 28 1 27 2 26 3 24 4 25 5 23 6 8 7 9 8 10 9 22 10 21 11 5 12
REMARK SMILES IDX 6 13 7 14 4 15 1 16 2 17 3 18 11 20 12 21 20 22 13 23 18 24
REMARK SMILES IDX 14 25 19 26 15 27 16 28 17 29 29 30 30 31 31 32 32 33 33 34
REMARK SMILES IDX 94 35 34 36 93 37 35 38 36 39 37 40 87 41 38 42 92 43 86 44
REMARK SMILES IDX 88 45 39 46 91 47 85 48 84 49 40 51 72 52 52 53 71 54 53 55
REMARK SMILES IDX 56 56 70 57 89 58 54 59 55 60 69 62 90 63 57 64 41 65 42 66
REMARK SMILES IDX 50 67 43 68 45 69 51 70 44 71 46 72 47 73 48 74 49 75 73 76
REMARK SMILES IDX 74 77 82 78 75 79 77 80 83 81 76 82 78 83 79 84 80 85 81 86
REMARK SMILES IDX 58 87 59 88 67 89 60 90 62 91 68 92 61 93 63 94 64 95 65 96
REMARK SMILES IDX 66 97
REMARK H PARENT 4 19 88 50 56 61
REMARK Flexibility Score: inf
ROOT
ATOM      1  C   UNL     1       1.135   4.360  -5.266  1.00  0.00     0.275 C 
ENDROOT
BRANCH   1   2
ATOM      2  C   UNL     1       2.328   3.429  -5.075  1.00  0.00     0.275 C 
BRANCH   2   3
ATOM      3  O   UNL     1       2.231   2.768  -3.796  1.00  0.00    -0.458 OA
BRANCH   3   4
ATOM      4  C   UNL     1       3.174   3.067  -2.885  1.00  0.00     0.339 C 
ATOM      5  O   UNL     1       4.093   3.857  -3.035  1.00  0.00    -0.246 OA
BRANCH   4   6
ATOM      6  C   UNL     1       2.924   2.412  -1.573  1.00  0.00     0.080 A 
ATOM      7  C   UNL     1       2.402   1.130  -1.363  1.00  0.00     0.103 A 
ATOM      8  C   UNL     1       2.346   0.609  -0.059  1.00  0.00     0.032 A 
ATOM      9  C   UNL     1       2.650   1.401   1.052  1.00  0.00    -0.017 A 
ATOM     10  C   UNL     1       3.307   3.170  -0.445  1.00  0.00     0.018 A 
ATOM     11  C   UNL     1       3.127   2.692   0.855  1.00  0.00     0.010 A 
BRANCH   7  12
ATOM     12  S   UNL     1       1.733   0.166  -2.689  1.00  0.00     0.264 S 
ATOM     13  O   UNL     1       2.828  -0.169  -3.574  1.00  0.00    -0.201 OA
ATOM     14  O   UNL     1       0.514   0.786  -3.148  1.00  0.00    -0.201 OA
BRANCH  12  15
ATOM     15  N   UNL     1       1.283  -1.289  -1.990  1.00  0.00    -0.249 N 
ATOM     16  C   UNL     1      -0.675  -0.605  -0.577  1.00  0.00     0.115 C 
ATOM     17  C   UNL     1      -0.015  -1.579  -1.520  1.00  0.00     0.230 C 
ATOM     18  O   UNL     1      -0.477  -2.695  -1.721  1.00  0.00    -0.274 OA
ATOM     19  H   UNL     1       1.971  -1.988  -1.901  1.00  0.00     0.183 HD
ENDBRANCH  12  15
ENDBRANCH   7  12
BRANCH   9  20
ATOM     20  C   UNL     1       2.341   0.898   2.399  1.00  0.00    -0.011 A 
ATOM     21  C   UNL     1       1.134   1.297   3.097  1.00  0.00     0.027 A 
ATOM     22  C   UNL     1       3.165   0.003   2.968  1.00  0.00     0.080 A 
ATOM     23  C   UNL     1       0.842   0.784   4.297  1.00  0.00     0.095 A 
ATOM     24  C   UNL     1       2.847  -0.585   4.301  1.00  0.00     0.255 A 
ATOM     25  N   UNL     1       1.679  -0.137   4.898  1.00  0.00    -0.258 N 
ATOM     26  O   UNL     1       3.613  -1.423   4.765  1.00  0.00    -0.269 OA
BRANCH  25  27
ATOM     27  C   UNL     1       1.351  -0.682   6.191  1.00  0.00     0.451 C 
ATOM     28  F   UNL     1       1.161  -2.023   6.114  1.00  0.00    -0.185 F 
ATOM     29  F   UNL     1       2.341  -0.451   7.086  1.00  0.00    -0.185 F 
ENDBRANCH  25  27
ENDBRANCH   9  20
ENDBRANCH   4   6
ENDBRANCH   3   4
ENDBRANCH   2   3
ENDBRANCH   1   2
BRANCH   1  30
ATOM     30  O   UNL     1       1.196   5.405  -4.279  1.00  0.00    -0.458 OA
BRANCH  30  31
ATOM     31  C   UNL     1       0.127   5.504  -3.458  1.00  0.00     0.338 C 
ATOM     32  O   UNL     1      -0.911   4.867  -3.498  1.00  0.00    -0.246 OA
BRANCH  31  33
ATOM     33  C   UNL     1       0.407   6.512  -2.425  1.00  0.00     0.060 A 
ATOM     34  C   UNL     1       1.389   6.251  -1.471  1.00  0.00     0.016 A 
ATOM     35  C   UNL     1      -0.386   7.653  -2.329  1.00  0.00     0.016 A 
ATOM     36  C   UNL     1       1.532   7.096  -0.371  1.00  0.00     0.010 A 
ATOM     37  C   UNL     1      -0.184   8.542  -1.267  1.00  0.00     0.010 A 
ATOM     38  C   UNL     1       0.748   8.255  -0.252  1.00  0.00    -0.014 A 
BRANCH  38  39
ATOM     39  C   UNL     1       0.865   9.135   0.948  1.00  0.00     0.031 A 
ATOM     40  C   UNL     1      -0.340   9.402   1.818  1.00  0.00     0.074 A 
ATOM     41  C   UNL     1       2.044   9.705   1.269  1.00  0.00     0.049 A 
ATOM     42  N   UNL     1      -0.475  10.247   2.808  1.00  0.00    -0.248 NA
ATOM     43  C   UNL     1      -1.558   8.627   1.528  1.00  0.00     0.031 C 
ATOM     44  C   UNL     1       3.294   9.540   0.526  1.00  0.00     0.029 A 
ATOM     45  N   UNL     1       2.384  10.545   2.303  1.00  0.00    -0.354 N 
ATOM     46  C   UNL     1      -1.807  10.170   3.199  1.00  0.00     0.074 A 
ATOM     47  C   UNL     1      -2.437   9.179   2.353  1.00  0.00     0.031 C 
ATOM     48  C   UNL     1       4.268  10.225   1.143  1.00  0.00     0.029 A 
ATOM     49  C   UNL     1       3.702  10.941   2.283  1.00  0.00     0.049 A 
ATOM     50  H   UNL     1       1.745  10.836   2.994  1.00  0.00     0.167 HD
ATOM     51  C   UNL     1      -2.447  10.852   4.178  1.00  0.00     0.034 A 
ATOM     52  C   UNL     1       4.378  11.805   3.067  1.00  0.00     0.034 A 
ATOM     53  C   UNL     1      -1.807  11.768   5.084  1.00  0.00     0.049 A 
ATOM     54  C   UNL     1       3.654  12.513   4.178  1.00  0.00     0.074 A 
ATOM     55  C   UNL     1      -2.369  12.469   6.138  1.00  0.00     0.029 A 
ATOM     56  N   UNL     1      -0.461  12.097   5.059  1.00  0.00    -0.354 N 
ATOM     57  N   UNL     1       2.405  12.391   4.558  1.00  0.00    -0.248 NA
ATOM     58  C   UNL     1       4.433  13.474   4.974  1.00  0.00     0.031 C 
ATOM     59  C   UNL     1      -1.360  13.218   6.753  1.00  0.00     0.029 A 
ATOM     60  C   UNL     1      -0.171  12.983   6.083  1.00  0.00     0.049 A 
ATOM     61  H   UNL     1       0.192  11.752   4.408  1.00  0.00     0.167 HD
ATOM     62  C   UNL     1       2.250  13.254   5.636  1.00  0.00     0.074 A 
ATOM     63  C   UNL     1       3.542  13.863   5.876  1.00  0.00     0.031 C 
ATOM     64  C   UNL     1       1.130  13.541   6.343  1.00  0.00     0.034 A 
BRANCH  51  65
ATOM     65  C   UNL     1      -3.923  10.608   4.353  1.00  0.00     0.023 A 
ATOM     66  C   UNL     1      -4.365   9.433   4.991  1.00  0.00     0.012 A 
ATOM     67  C   UNL     1      -4.867  11.570   3.943  1.00  0.00     0.148 A 
ATOM     68  C   UNL     1      -5.726   9.207   5.197  1.00  0.00     0.002 A 
ATOM     69  C   UNL     1      -6.219  11.355   4.184  1.00  0.00     0.091 A 
ATOM     70  F   UNL     1      -4.429  12.671   3.314  1.00  0.00    -0.205 F 
ATOM     71  C   UNL     1      -6.651  10.171   4.804  1.00  0.00     0.022 A 
BRANCH  69  72
ATOM     72  S   UNL     1      -7.473  12.576   3.776  1.00  0.00     0.127 S 
ATOM     73  O   UNL     1      -8.035  12.022   2.546  1.00  0.00    -0.237 OA
ATOM     74  O   UNL     1      -8.363  12.511   4.936  1.00  0.00    -0.237 OA
ATOM     75  O   UNL     1      -6.761  13.839   3.634  1.00  0.00    -0.744 OA
ENDBRANCH  69  72
ENDBRANCH  51  65
BRANCH  52  76
ATOM     76  C   UNL     1       5.834  12.026   2.838  1.00  0.00     0.023 A 
ATOM     77  C   UNL     1       6.762  11.549   3.783  1.00  0.00     0.012 A 
ATOM     78  C   UNL     1       6.307  12.652   1.669  1.00  0.00     0.148 A 
ATOM     79  C   UNL     1       8.134  11.699   3.571  1.00  0.00     0.002 A 
ATOM     80  C   UNL     1       7.674  12.740   1.433  1.00  0.00     0.091 A 
ATOM     81  F   UNL     1       5.411  13.133   0.795  1.00  0.00    -0.205 F 
ATOM     82  C   UNL     1       8.590  12.278   2.390  1.00  0.00     0.022 A 
BRANCH  80  83
ATOM     83  S   UNL     1       8.321  13.321  -0.139  1.00  0.00     0.127 S 
ATOM     84  O   UNL     1       8.657  14.708   0.168  1.00  0.00    -0.237 OA
ATOM     85  O   UNL     1       9.471  12.439  -0.347  1.00  0.00    -0.237 OA
ATOM     86  O   UNL     1       7.238  13.115  -1.092  1.00  0.00    -0.744 OA
ENDBRANCH  80  83
ENDBRANCH  52  76
BRANCH  64  87
ATOM     87  C   UNL     1       1.247  14.555   7.449  1.00  0.00     0.023 A 
ATOM     88  C   UNL     1       1.321  15.923   7.124  1.00  0.00     0.012 A 
ATOM     89  C   UNL     1       1.217  14.164   8.801  1.00  0.00     0.148 A 
ATOM     90  C   UNL     1       1.387  16.888   8.128  1.00  0.00     0.002 A 
ATOM     91  C   UNL     1       1.246  15.134   9.798  1.00  0.00     0.091 A 
ATOM     92  F   UNL     1       1.171  12.856   9.091  1.00  0.00    -0.205 F 
ATOM     93  C   UNL     1       1.339  16.495   9.464  1.00  0.00     0.022 A 
BRANCH  91  94
ATOM     94  S   UNL     1       1.107  14.712  11.539  1.00  0.00     0.127 S 
ATOM     95  O   UNL     1       2.502  14.767  11.972  1.00  0.00    -0.237 OA
ATOM     96  O   UNL     1       0.263  15.789  12.060  1.00  0.00    -0.237 OA
ATOM     97  O   UNL     1       0.485  13.395  11.574  1.00  0.00    -0.744 OA
ENDBRANCH  91  94
ENDBRANCH  64  87
ENDBRANCH  38  39
ENDBRANCH  31  33
ENDBRANCH  30  31
ENDBRANCH   1  30
TORSDOF 18
