REMARK SMILES CCOc1cc(OCC)cc(-c2ccc([C@@H](C)C(=O)OCCOC(=O)c3ccc(-c4c5nc(c(-c6cccc(S(=O)(=O)[O-])c6F)c6ccc([nH]6)c(-c6cccc(S(=O)(=O)[O-])c6F)c6nc(c(-c7cccc(S(=O)(=O)[O-])c7F)c7ccc4[nH]7)C=C6)C=C5)cc3)cc2)c1
REMARK SMILES IDX 21 1 20 2 18 3 19 4 16 5 17 6 15 7 12 8 13 9 90 10 14 11
REMARK SMILES IDX 89 12 11 13 4 14 5 15 91 16 6 17 10 18 3 19 2 20 1 21 7 22
REMARK SMILES IDX 8 23 9 24 22 25 23 26 24 27 25 28 26 29 27 30 88 31 28 32
REMARK SMILES IDX 87 33 29 34 30 35 31 36 81 37 32 38 86 39 80 40 82 41 33 42
REMARK SMILES IDX 85 43 79 44 78 45 34 47 66 48 46 49 65 50 47 51 50 52 64 53
REMARK SMILES IDX 83 54 48 55 49 56 63 58 84 59 51 60 35 61 36 62 44 63 37 64
REMARK SMILES IDX 39 65 45 66 38 67 40 68 41 69 42 70 43 71 67 72 68 73 76 74
REMARK SMILES IDX 69 75 71 76 77 77 70 78 72 79 73 80 74 81 75 82 52 83 53 84
REMARK SMILES IDX 61 85 54 86 56 87 62 88 55 89 57 90 58 91 59 92 60 93
REMARK H PARENT 82 46 50 57
REMARK Flexibility Score: inf
ROOT
ATOM      1  C   UNL     1       8.793   4.353   0.640  1.00  0.00     0.274 C 
ENDROOT
BRANCH   1   2
ATOM      2  O   UNL     1       8.619   3.082   1.294  1.00  0.00    -0.462 OA
BRANCH   2   3
ATOM      3  C   UNL     1       8.832   3.048   2.636  1.00  0.00     0.313 C 
ATOM      4  O   UNL     1       9.252   3.996   3.291  1.00  0.00    -0.252 OA
BRANCH   3   5
ATOM      5  C   UNL     1       8.567   1.684   3.265  1.00  0.00     0.126 C 
ATOM      6  C   UNL     1       9.887   0.939   3.458  1.00  0.00     0.025 C 
BRANCH   5   7
ATOM      7  C   UNL     1       7.523   0.821   2.574  1.00  0.00    -0.034 A 
ATOM      8  C   UNL     1       5.581  -0.852   1.357  1.00  0.00    -0.018 A 
ATOM      9  C   UNL     1       6.787  -0.546   0.707  1.00  0.00     0.009 A 
ATOM     10  C   UNL     1       5.346  -0.281   2.612  1.00  0.00     0.009 A 
ATOM     11  C   UNL     1       7.746   0.270   1.307  1.00  0.00     0.005 A 
ATOM     12  C   UNL     1       6.307   0.536   3.216  1.00  0.00     0.005 A 
BRANCH   8  13
ATOM     13  C   UNL     1       4.635  -1.805   0.759  1.00  0.00    -0.011 A 
ATOM     14  C   UNL     1       2.418  -2.446   0.020  1.00  0.00     0.123 A 
ATOM     15  C   UNL     1       2.898  -3.695  -0.379  1.00  0.00     0.092 A 
ATOM     16  C   UNL     1       3.275  -1.514   0.605  1.00  0.00     0.055 A 
ATOM     17  C   UNL     1       4.244  -4.016  -0.210  1.00  0.00     0.123 A 
ATOM     18  C   UNL     1       5.098  -3.068   0.350  1.00  0.00     0.055 A 
BRANCH  14  19
ATOM     19  O   UNL     1       1.070  -2.225  -0.063  1.00  0.00    -0.494 OA
BRANCH  19  20
ATOM     20  C   UNL     1       0.712  -1.183  -0.978  1.00  0.00     0.226 C 
ATOM     21  C   UNL     1       0.494   0.142  -0.267  1.00  0.00     0.049 C 
ENDBRANCH  19  20
ENDBRANCH  14  19
BRANCH  17  22
ATOM     22  O   UNL     1       4.625  -5.259  -0.638  1.00  0.00    -0.494 OA
BRANCH  22  23
ATOM     23  C   UNL     1       5.859  -5.779  -0.134  1.00  0.00     0.226 C 
ATOM     24  C   UNL     1       7.020  -5.447  -1.059  1.00  0.00     0.049 C 
ENDBRANCH  22  23
ENDBRANCH  17  22
ENDBRANCH   8  13
ENDBRANCH   5   7
ENDBRANCH   3   5
ENDBRANCH   2   3
ENDBRANCH   1   2
BRANCH   1  25
ATOM     25  C   UNL     1       7.440   4.987   0.315  1.00  0.00     0.275 C 
BRANCH  25  26
ATOM     26  O   UNL     1       6.747   5.351   1.520  1.00  0.00    -0.458 OA
BRANCH  26  27
ATOM     27  C   UNL     1       5.761   4.502   1.897  1.00  0.00     0.338 C 
ATOM     28  O   UNL     1       5.364   3.516   1.304  1.00  0.00    -0.246 OA
BRANCH  27  29
ATOM     29  C   UNL     1       5.276   4.886   3.230  1.00  0.00     0.060 A 
ATOM     30  C   UNL     1       5.632   4.086   4.315  1.00  0.00     0.016 A 
ATOM     31  C   UNL     1       4.406   5.962   3.396  1.00  0.00     0.016 A 
ATOM     32  C   UNL     1       5.093   4.333   5.574  1.00  0.00     0.010 A 
ATOM     33  C   UNL     1       3.881   6.225   4.666  1.00  0.00     0.010 A 
ATOM     34  C   UNL     1       4.202   5.398   5.757  1.00  0.00    -0.014 A 
BRANCH  34  35
ATOM     35  C   UNL     1       3.580   5.615   7.085  1.00  0.00     0.031 A 
ATOM     36  C   UNL     1       2.125   5.301   7.293  1.00  0.00     0.074 A 
ATOM     37  C   UNL     1       4.323   6.091   8.102  1.00  0.00     0.049 A 
ATOM     38  N   UNL     1       1.393   5.460   8.365  1.00  0.00    -0.248 NA
ATOM     39  C   UNL     1       1.397   4.737   6.145  1.00  0.00     0.031 C 
ATOM     40  C   UNL     1       5.743   6.434   8.020  1.00  0.00     0.029 A 
ATOM     41  N   UNL     1       3.981   6.386   9.398  1.00  0.00    -0.354 N 
ATOM     42  C   UNL     1       0.111   5.057   8.012  1.00  0.00     0.074 A 
ATOM     43  C   UNL     1       0.164   4.646   6.625  1.00  0.00     0.031 C 
ATOM     44  C   UNL     1       6.148   6.906   9.210  1.00  0.00     0.029 A 
ATOM     45  C   UNL     1       5.013   6.927  10.128  1.00  0.00     0.049 A 
ATOM     46  H   UNL     1       3.083   6.226   9.769  1.00  0.00     0.167 HD
ATOM     47  C   UNL     1      -1.005   5.017   8.778  1.00  0.00     0.034 A 
ATOM     48  C   UNL     1       5.036   7.402  11.389  1.00  0.00     0.034 A 
ATOM     49  C   UNL     1      -1.046   5.384  10.168  1.00  0.00     0.049 A 
ATOM     50  C   UNL     1       3.784   7.335  12.220  1.00  0.00     0.074 A 
ATOM     51  C   UNL     1      -2.118   5.329  11.041  1.00  0.00     0.029 A 
ATOM     52  N   UNL     1       0.033   5.872  10.890  1.00  0.00    -0.354 N 
ATOM     53  N   UNL     1       2.609   6.847  11.903  1.00  0.00    -0.248 NA
ATOM     54  C   UNL     1       3.867   7.857  13.592  1.00  0.00     0.031 C 
ATOM     55  C   UNL     1      -1.690   5.795  12.290  1.00  0.00     0.029 A 
ATOM     56  C   UNL     1      -0.348   6.129  12.196  1.00  0.00     0.049 A 
ATOM     57  H   UNL     1       0.936   6.016  10.527  1.00  0.00     0.167 HD
ATOM     58  C   UNL     1       1.821   6.980  13.041  1.00  0.00     0.074 A 
ATOM     59  C   UNL     1       2.661   7.570  14.064  1.00  0.00     0.031 C 
ATOM     60  C   UNL     1       0.515   6.664  13.218  1.00  0.00     0.034 A 
BRANCH  47  61
ATOM     61  C   UNL     1      -2.274   4.523   8.138  1.00  0.00     0.023 A 
ATOM     62  C   UNL     1      -2.445   3.142   7.915  1.00  0.00     0.012 A 
ATOM     63  C   UNL     1      -3.317   5.411   7.812  1.00  0.00     0.148 A 
ATOM     64  C   UNL     1      -3.625   2.655   7.355  1.00  0.00     0.002 A 
ATOM     65  C   UNL     1      -4.505   4.915   7.287  1.00  0.00     0.091 A 
ATOM     66  F   UNL     1      -3.124   6.724   8.008  1.00  0.00    -0.205 F 
ATOM     67  C   UNL     1      -4.658   3.539   7.052  1.00  0.00     0.022 A 
BRANCH  65  68
ATOM     68  S   UNL     1      -5.914   5.969   6.927  1.00  0.00     0.127 S 
ATOM     69  O   UNL     1      -5.860   6.045   5.468  1.00  0.00    -0.237 OA
ATOM     70  O   UNL     1      -7.032   5.187   7.456  1.00  0.00    -0.237 OA
ATOM     71  O   UNL     1      -5.666   7.220   7.631  1.00  0.00    -0.744 OA
ENDBRANCH  65  68
ENDBRANCH  47  61
BRANCH  48  72
ATOM     72  C   UNL     1       6.305   7.942  11.953  1.00  0.00     0.023 A 
ATOM     73  C   UNL     1       6.977   7.220  12.958  1.00  0.00     0.012 A 
ATOM     74  C   UNL     1       6.868   9.141  11.475  1.00  0.00     0.148 A 
ATOM     75  C   UNL     1       8.176   7.695  13.492  1.00  0.00     0.002 A 
ATOM     76  C   UNL     1       8.090   9.579  11.973  1.00  0.00     0.091 A 
ATOM     77  F   UNL     1       6.202   9.828  10.535  1.00  0.00    -0.205 F 
ATOM     78  C   UNL     1       8.739   8.866  12.992  1.00  0.00     0.022 A 
BRANCH  76  79
ATOM     79  S   UNL     1       8.942  11.003  11.284  1.00  0.00     0.127 S 
ATOM     80  O   UNL     1       8.662  12.032  12.280  1.00  0.00    -0.237 OA
ATOM     81  O   UNL     1      10.332  10.543  11.248  1.00  0.00    -0.237 OA
ATOM     82  O   UNL     1       8.350  11.207   9.968  1.00  0.00    -0.744 OA
ENDBRANCH  76  79
ENDBRANCH  48  72
BRANCH  60  83
ATOM     83  C   UNL     1      -0.089   6.931  14.571  1.00  0.00     0.023 A 
ATOM     84  C   UNL     1      -0.397   8.254  14.943  1.00  0.00     0.012 A 
ATOM     85  C   UNL     1      -0.418   5.873  15.440  1.00  0.00     0.148 A 
ATOM     86  C   UNL     1      -0.998   8.524  16.171  1.00  0.00     0.002 A 
ATOM     87  C   UNL     1      -1.056   6.146  16.646  1.00  0.00     0.091 A 
ATOM     88  F   UNL     1      -0.097   4.622  15.080  1.00  0.00    -0.205 F 
ATOM     89  C   UNL     1      -1.338   7.470  17.017  1.00  0.00     0.022 A 
BRANCH  87  90
ATOM     90  S   UNL     1      -1.604   4.839  17.750  1.00  0.00     0.127 S 
ATOM     91  O   UNL     1      -0.549   4.837  18.760  1.00  0.00    -0.237 OA
ATOM     92  O   UNL     1      -2.896   5.342  18.219  1.00  0.00    -0.237 OA
ATOM     93  O   UNL     1      -1.693   3.640  16.926  1.00  0.00    -0.744 OA
ENDBRANCH  87  90
ENDBRANCH  60  83
ENDBRANCH  34  35
ENDBRANCH  27  29
ENDBRANCH  26  27
ENDBRANCH  25  26
ENDBRANCH   1  25
TORSDOF 20
