REMARK SMILES CN(CC(=O)OCCOC(=O)c1ccc(-c2c3nc(c(-c4cccc(S(=O)(=O)[O-])c4F)c4ccc([nH]4)c(-c4cccc(S(=O)(=O)[O-])c4F)c4nc(c(-c5cccc(S(=O)(=O)[O-])c5F)c5ccc2[nH]5)C=C4)C=C3)cc1)c1nc2cc(N)ccc2[nH]1
REMARK SMILES IDX 7 1 6 2 4 3 5 4 3 5 2 6 1 7 75 8 76 9 84 10 77 11 83 12
REMARK SMILES IDX 78 14 82 15 79 16 81 17 80 18 8 21 9 22 10 23 11 24 12 25
REMARK SMILES IDX 13 26 74 27 14 28 73 29 15 30 16 31 17 32 67 33 18 34 72 35
REMARK SMILES IDX 66 36 68 37 19 38 71 39 65 40 64 41 20 43 52 44 32 45 51 46
REMARK SMILES IDX 33 47 36 48 50 49 69 50 34 51 35 52 49 54 70 55 37 56 21 57
REMARK SMILES IDX 22 58 30 59 23 60 25 61 31 62 24 63 26 64 27 65 28 66 29 67
REMARK SMILES IDX 53 68 54 69 62 70 55 71 57 72 63 73 56 74 58 75 59 76 60 77
REMARK SMILES IDX 61 78 38 79 39 80 47 81 40 82 42 83 48 84 41 85 43 86 44 87
REMARK SMILES IDX 45 88 46 89
REMARK H PARENT 84 13 80 19 80 20 68 42 36 53
REMARK Flexibility Score: inf
ROOT
ATOM      1  C   UNL     1      -3.482   1.224  -0.722  1.00  0.00     0.274 C 
ENDROOT
BRANCH   1   2
ATOM      2  O   UNL     1      -2.053   1.091  -0.596  1.00  0.00    -0.461 OA
BRANCH   2   3
ATOM      3  C   UNL     1      -1.462   0.368  -1.587  1.00  0.00     0.325 C 
ATOM      4  O   UNL     1      -2.083  -0.283  -2.427  1.00  0.00    -0.250 OA
BRANCH   3   5
ATOM      5  C   UNL     1       0.060   0.350  -1.557  1.00  0.00     0.241 C 
BRANCH   5   6
ATOM      6  N   UNL     1       0.729   1.205  -0.566  1.00  0.00    -0.334 N 
ATOM      7  C   UNL     1       1.311   0.578   0.600  1.00  0.00     0.147 C 
BRANCH   6   8
ATOM      8  C   UNL     1       0.886   2.523  -0.844  1.00  0.00     0.204 A 
ATOM      9  N   UNL     1       0.161   3.274  -1.640  1.00  0.00    -0.213 NA
ATOM     10  N   UNL     1       1.914   3.257  -0.303  1.00  0.00    -0.324 N 
ATOM     11  C   UNL     1       0.688   4.545  -1.546  1.00  0.00     0.093 A 
ATOM     12  C   UNL     1       1.811   4.553  -0.731  1.00  0.00     0.067 A 
ATOM     13  H   UNL     1       2.613   2.907   0.296  1.00  0.00     0.170 HD
ATOM     14  C   UNL     1       0.257   5.756  -2.110  1.00  0.00     0.056 A 
ATOM     15  C   UNL     1       2.559   5.701  -0.469  1.00  0.00     0.030 A 
ATOM     16  C   UNL     1       0.981   6.933  -1.882  1.00  0.00     0.034 A 
ATOM     17  C   UNL     1       2.107   6.893  -1.053  1.00  0.00     0.028 A 
BRANCH  16  18
ATOM     18  N   UNL     1       0.495   8.147  -2.350  1.00  0.00    -0.399 N 
ATOM     19  H   UNL     1      -0.298   8.168  -2.933  1.00  0.00     0.156 HD
ATOM     20  H   UNL     1       0.943   8.987  -2.098  1.00  0.00     0.156 HD
ENDBRANCH  16  18
ENDBRANCH   6   8
ENDBRANCH   5   6
ENDBRANCH   3   5
ENDBRANCH   2   3
ENDBRANCH   1   2
BRANCH   1  21
ATOM     21  C   UNL     1      -3.853   2.499  -1.478  1.00  0.00     0.275 C 
BRANCH  21  22
ATOM     22  O   UNL     1      -3.126   2.569  -2.713  1.00  0.00    -0.458 OA
BRANCH  22  23
ATOM     23  C   UNL     1      -2.852   3.829  -3.131  1.00  0.00     0.338 C 
ATOM     24  O   UNL     1      -3.302   4.856  -2.645  1.00  0.00    -0.246 OA
BRANCH  23  25
ATOM     25  C   UNL     1      -1.922   3.822  -4.289  1.00  0.00     0.060 A 
ATOM     26  C   UNL     1      -1.060   2.753  -4.559  1.00  0.00     0.016 A 
ATOM     27  C   UNL     1      -1.856   4.976  -5.078  1.00  0.00     0.016 A 
ATOM     28  C   UNL     1      -0.119   2.846  -5.590  1.00  0.00     0.010 A 
ATOM     29  C   UNL     1      -0.946   5.054  -6.131  1.00  0.00     0.010 A 
ATOM     30  C   UNL     1      -0.070   3.991  -6.396  1.00  0.00    -0.014 A 
BRANCH  30  31
ATOM     31  C   UNL     1       0.787   4.063  -7.606  1.00  0.00     0.031 A 
ATOM     32  C   UNL     1       1.910   5.054  -7.705  1.00  0.00     0.074 A 
ATOM     33  C   UNL     1       0.422   3.339  -8.681  1.00  0.00     0.049 A 
ATOM     34  N   UNL     1       2.603   5.406  -8.757  1.00  0.00    -0.248 NA
ATOM     35  C   UNL     1       2.298   5.748  -6.467  1.00  0.00     0.031 C 
ATOM     36  C   UNL     1      -0.682   2.379  -8.711  1.00  0.00     0.029 A 
ATOM     37  N   UNL     1       0.893   3.350  -9.971  1.00  0.00    -0.354 N 
ATOM     38  C   UNL     1       3.480   6.392  -8.325  1.00  0.00     0.074 A 
ATOM     39  C   UNL     1       3.238   6.576  -6.908  1.00  0.00     0.031 C 
ATOM     40  C   UNL     1      -0.842   1.934  -9.965  1.00  0.00     0.029 A 
ATOM     41  C   UNL     1       0.117   2.609 -10.832  1.00  0.00     0.049 A 
ATOM     42  H   UNL     1       1.701   3.838 -10.250  1.00  0.00     0.167 HD
ATOM     43  C   UNL     1       4.406   7.071  -9.045  1.00  0.00     0.034 A 
ATOM     44  C   UNL     1       0.136   2.518 -12.175  1.00  0.00     0.034 A 
ATOM     45  C   UNL     1       4.661   6.856 -10.447  1.00  0.00     0.049 A 
ATOM     46  C   UNL     1       1.170   3.281 -12.948  1.00  0.00     0.074 A 
ATOM     47  C   UNL     1       5.645   7.424 -11.239  1.00  0.00     0.029 A 
ATOM     48  N   UNL     1       3.921   6.023 -11.272  1.00  0.00    -0.354 N 
ATOM     49  N   UNL     1       2.093   4.097 -12.502  1.00  0.00    -0.248 NA
ATOM     50  C   UNL     1       1.187   3.088 -14.405  1.00  0.00     0.031 C 
ATOM     51  C   UNL     1       5.487   6.949 -12.546  1.00  0.00     0.029 A 
ATOM     52  C   UNL     1       4.413   6.074 -12.566  1.00  0.00     0.049 A 
ATOM     53  H   UNL     1       3.157   5.474 -10.980  1.00  0.00     0.167 HD
ATOM     54  C   UNL     1       2.818   4.496 -13.618  1.00  0.00     0.074 A 
ATOM     55  C   UNL     1       2.239   3.816 -14.758  1.00  0.00     0.031 C 
ATOM     56  C   UNL     1       3.860   5.361 -13.689  1.00  0.00     0.034 A 
BRANCH  43  57
ATOM     57  C   UNL     1       5.257   8.087  -8.329  1.00  0.00     0.023 A 
ATOM     58  C   UNL     1       6.308   7.647  -7.500  1.00  0.00     0.012 A 
ATOM     59  C   UNL     1       5.084   9.468  -8.551  1.00  0.00     0.148 A 
ATOM     60  C   UNL     1       7.163   8.565  -6.890  1.00  0.00     0.002 A 
ATOM     61  C   UNL     1       5.962  10.375  -7.966  1.00  0.00     0.091 A 
ATOM     62  F   UNL     1       4.066   9.871  -9.324  1.00  0.00    -0.205 F 
ATOM     63  C   UNL     1       6.998   9.926  -7.131  1.00  0.00     0.022 A 
BRANCH  61  64
ATOM     64  S   UNL     1       5.866  12.143  -8.280  1.00  0.00     0.127 S 
ATOM     65  O   UNL     1       5.216  12.624  -7.062  1.00  0.00    -0.237 OA
ATOM     66  O   UNL     1       7.276  12.517  -8.405  1.00  0.00    -0.237 OA
ATOM     67  O   UNL     1       5.095  12.285  -9.507  1.00  0.00    -0.744 OA
ENDBRANCH  61  64
ENDBRANCH  43  57
BRANCH  44  68
ATOM     68  C   UNL     1      -0.852   1.634 -12.851  1.00  0.00     0.023 A 
ATOM     69  C   UNL     1      -0.421   0.407 -13.386  1.00  0.00     0.012 A 
ATOM     70  C   UNL     1      -2.223   1.959 -12.881  1.00  0.00     0.148 A 
ATOM     71  C   UNL     1      -1.338  -0.481 -13.948  1.00  0.00     0.002 A 
ATOM     72  C   UNL     1      -3.137   1.047 -13.393  1.00  0.00     0.091 A 
ATOM     73  F   UNL     1      -2.608   3.141 -12.380  1.00  0.00    -0.205 F 
ATOM     74  C   UNL     1      -2.695  -0.169 -13.938  1.00  0.00     0.022 A 
BRANCH  72  75
ATOM     75  S   UNL     1      -4.912   1.304 -13.286  1.00  0.00     0.127 S 
ATOM     76  O   UNL     1      -5.251   1.631 -14.668  1.00  0.00    -0.237 OA
ATOM     77  O   UNL     1      -5.383  -0.004 -12.829  1.00  0.00    -0.237 OA
ATOM     78  O   UNL     1      -5.094   2.376 -12.316  1.00  0.00    -0.744 OA
ENDBRANCH  72  75
ENDBRANCH  44  68
BRANCH  56  79
ATOM     79  C   UNL     1       4.459   5.614 -15.047  1.00  0.00     0.023 A 
ATOM     80  C   UNL     1       3.770   6.426 -15.968  1.00  0.00     0.012 A 
ATOM     81  C   UNL     1       5.726   5.102 -15.388  1.00  0.00     0.148 A 
ATOM     82  C   UNL     1       4.320   6.705 -17.219  1.00  0.00     0.002 A 
ATOM     83  C   UNL     1       6.287   5.417 -16.621  1.00  0.00     0.091 A 
ATOM     84  F   UNL     1       6.357   4.312 -14.507  1.00  0.00    -0.205 F 
ATOM     85  C   UNL     1       5.582   6.210 -17.541  1.00  0.00     0.022 A 
BRANCH  83  86
ATOM     86  S   UNL     1       7.941   4.891 -17.086  1.00  0.00     0.127 S 
ATOM     87  O   UNL     1       7.658   3.814 -18.033  1.00  0.00    -0.237 OA
ATOM     88  O   UNL     1       8.498   6.103 -17.690  1.00  0.00    -0.237 OA
ATOM     89  O   UNL     1       8.593   4.484 -15.848  1.00  0.00    -0.744 OA
ENDBRANCH  83  86
ENDBRANCH  56  79
ENDBRANCH  30  31
ENDBRANCH  23  25
ENDBRANCH  22  23
ENDBRANCH  21  22
ENDBRANCH   1  21
TORSDOF 17
