REMARK SMILES N#CCCn1cc(C(=O)OCCOC(=O)c2ccc(-c3c4nc(c(-c5cccc(S(=O)(=O)[O-])c5F)c5ccc([nH]5)c(-c5cccc(S(=O)(=O)[O-])c5F)c5nc(c(-c6cccc(S(=O)(=O)[O-])c6F)c6ccc3[nH]6)C=C5)C=C4)cc2)c(-c2cccc([N+](=O)[O-])c2)n1
REMARK SMILES IDX 11 1 10 2 8 3 9 4 7 5 5 6 6 7 89 8 79 9 4 10 3 11 2 12 1 13
REMARK SMILES IDX 80 14 81 15 88 16 82 17 84 18 83 19 85 20 86 21 87 22 12 23
REMARK SMILES IDX 13 24 14 25 15 26 16 27 17 28 78 29 18 30 77 31 19 32 20 33
REMARK SMILES IDX 21 34 71 35 22 36 76 37 70 38 72 39 23 40 75 41 69 42 68 43
REMARK SMILES IDX 24 45 56 46 36 47 55 48 37 49 40 50 54 51 73 52 38 53 39 54
REMARK SMILES IDX 53 56 74 57 41 58 25 59 26 60 34 61 27 62 29 63 35 64 28 65
REMARK SMILES IDX 30 66 31 67 32 68 33 69 57 70 58 71 66 72 59 73 61 74 67 75
REMARK SMILES IDX 60 76 62 77 63 78 64 79 65 80 42 81 43 82 51 83 44 84 46 85
REMARK SMILES IDX 52 86 45 87 47 88 48 89 49 90 50 91
REMARK H PARENT 72 44 40 55
REMARK Flexibility Score: inf
ROOT
ATOM      1  C   UNL     1       3.638  -5.688   3.894  1.00  0.00     0.275 C 
ENDROOT
BRANCH   1   2
ATOM      2  O   UNL     1       3.686  -4.324   3.439  1.00  0.00    -0.458 OA
BRANCH   2   3
ATOM      3  C   UNL     1       3.048  -3.385   4.204  1.00  0.00     0.342 C 
ATOM      4  O   UNL     1       2.339  -3.649   5.175  1.00  0.00    -0.246 OA
BRANCH   3   5
ATOM      5  C   UNL     1       3.297  -2.036   3.736  1.00  0.00     0.106 A 
ATOM      6  N   UNL     1       3.928  -0.344   2.493  1.00  0.00    -0.270 N 
ATOM      7  C   UNL     1       4.009  -1.695   2.602  1.00  0.00     0.125 A 
ATOM      8  N   UNL     1       3.301   0.242   3.521  1.00  0.00    -0.172 NA
ATOM      9  C   UNL     1       2.937  -0.781   4.313  1.00  0.00     0.107 A 
BRANCH   6  10
ATOM     10  C   UNL     1       4.362   0.451   1.361  1.00  0.00     0.159 C 
BRANCH  10  11
ATOM     11  C   UNL     1       3.822  -0.082   0.040  1.00  0.00     0.144 C 
BRANCH  11  12
ATOM     12  C   UNL     1       2.303  -0.082   0.040  1.00  0.00     0.064 C 
ATOM     13  N   UNL     1       1.042  -0.082   0.040  1.00  0.00    -0.198 NA
ENDBRANCH  11  12
ENDBRANCH  10  11
ENDBRANCH   6  10
BRANCH   9  14
ATOM     14  C   UNL     1       2.310  -0.532   5.603  1.00  0.00     0.010 A 
ATOM     15  C   UNL     1       3.118  -0.412   6.742  1.00  0.00     0.011 A 
ATOM     16  C   UNL     1       0.923  -0.430   5.723  1.00  0.00     0.096 A 
ATOM     17  C   UNL     1       2.551  -0.265   8.009  1.00  0.00     0.008 A 
ATOM     18  C   UNL     1       0.360  -0.259   6.996  1.00  0.00     0.270 A 
ATOM     19  C   UNL     1       1.166  -0.200   8.143  1.00  0.00     0.085 A 
BRANCH  18  20
ATOM     20  N   UNL     1      -1.093  -0.127   7.131  1.00  0.00     0.062 N 
ATOM     21  O   UNL     1      -1.584  -0.237   8.264  1.00  0.00    -0.258 OA
ATOM     22  O   UNL     1      -1.750   0.101   6.104  1.00  0.00    -0.258 OA
ENDBRANCH  18  20
ENDBRANCH   9  14
ENDBRANCH   3   5
ENDBRANCH   2   3
ENDBRANCH   1   2
BRANCH   1  23
ATOM     23  C   UNL     1       4.831  -6.045   4.774  1.00  0.00     0.275 C 
BRANCH  23  24
ATOM     24  O   UNL     1       4.749  -5.400   6.042  1.00  0.00    -0.458 OA
BRANCH  24  25
ATOM     25  C   UNL     1       5.330  -4.182   6.085  1.00  0.00     0.338 C 
ATOM     26  O   UNL     1       5.763  -3.544   5.138  1.00  0.00    -0.246 OA
BRANCH  25  27
ATOM     27  C   UNL     1       5.496  -3.756   7.474  1.00  0.00     0.060 A 
ATOM     28  C   UNL     1       6.033  -2.479   7.668  1.00  0.00     0.016 A 
ATOM     29  C   UNL     1       5.332  -4.663   8.531  1.00  0.00     0.016 A 
ATOM     30  C   UNL     1       6.537  -2.154   8.902  1.00  0.00     0.010 A 
ATOM     31  C   UNL     1       5.853  -4.344   9.764  1.00  0.00     0.010 A 
ATOM     32  C   UNL     1       6.506  -3.121   9.907  1.00  0.00    -0.014 A 
BRANCH  32  33
ATOM     33  C   UNL     1       7.168  -2.790  11.148  1.00  0.00     0.031 A 
ATOM     34  C   UNL     1       6.406  -1.815  11.965  1.00  0.00     0.074 A 
ATOM     35  C   UNL     1       8.333  -3.387  11.467  1.00  0.00     0.049 A 
ATOM     36  N   UNL     1       6.758  -0.619  12.306  1.00  0.00    -0.248 NA
ATOM     37  C   UNL     1       5.002  -2.135  12.275  1.00  0.00     0.031 C 
ATOM     38  C   UNL     1       8.958  -4.532  10.790  1.00  0.00     0.029 A 
ATOM     39  N   UNL     1       9.132  -3.204  12.551  1.00  0.00    -0.354 N 
ATOM     40  C   UNL     1       5.715  -0.146  13.102  1.00  0.00     0.074 A 
ATOM     41  C   UNL     1       4.594  -1.009  12.859  1.00  0.00     0.031 C 
ATOM     42  C   UNL     1       9.852  -5.104  11.626  1.00  0.00     0.029 A 
ATOM     43  C   UNL     1       9.944  -4.298  12.830  1.00  0.00     0.049 A 
ATOM     44  H   UNL     1       9.134  -2.378  13.086  1.00  0.00     0.167 HD
ATOM     45  C   UNL     1       5.958   0.722  14.121  1.00  0.00     0.034 A 
ATOM     46  C   UNL     1      10.542  -4.580  14.015  1.00  0.00     0.034 A 
ATOM     47  C   UNL     1       7.216   1.399  13.932  1.00  0.00     0.049 A 
ATOM     48  C   UNL     1      10.560  -3.331  14.811  1.00  0.00     0.074 A 
ATOM     49  C   UNL     1       7.743   2.235  12.970  1.00  0.00     0.029 A 
ATOM     50  N   UNL     1       8.281   0.926  14.658  1.00  0.00    -0.354 N 
ATOM     51  N   UNL     1      11.248  -2.276  14.473  1.00  0.00    -0.248 NA
ATOM     52  C   UNL     1       9.449  -3.091  15.717  1.00  0.00     0.031 C 
ATOM     53  C   UNL     1       9.118   1.872  12.881  1.00  0.00     0.029 A 
ATOM     54  C   UNL     1       9.372   0.885  13.837  1.00  0.00     0.049 A 
ATOM     55  H   UNL     1       8.261   0.661  15.607  1.00  0.00     0.167 HD
ATOM     56  C   UNL     1      10.393  -1.212  14.733  1.00  0.00     0.074 A 
ATOM     57  C   UNL     1       9.349  -1.764  15.595  1.00  0.00     0.031 C 
ATOM     58  C   UNL     1      10.447  -0.072  13.982  1.00  0.00     0.034 A 
BRANCH  45  59
ATOM     59  C   UNL     1       5.311   0.629  15.490  1.00  0.00     0.023 A 
ATOM     60  C   UNL     1       5.672   1.622  16.431  1.00  0.00     0.012 A 
ATOM     61  C   UNL     1       4.641  -0.511  15.996  1.00  0.00     0.148 A 
ATOM     62  C   UNL     1       5.464   1.446  17.803  1.00  0.00     0.002 A 
ATOM     63  C   UNL     1       4.377  -0.651  17.353  1.00  0.00     0.091 A 
ATOM     64  F   UNL     1       4.354  -1.538  15.197  1.00  0.00    -0.205 F 
ATOM     65  C   UNL     1       4.819   0.307  18.265  1.00  0.00     0.022 A 
BRANCH  63  66
ATOM     66  S   UNL     1       3.519  -2.092  18.004  1.00  0.00     0.127 S 
ATOM     67  O   UNL     1       4.599  -2.781  18.704  1.00  0.00    -0.237 OA
ATOM     68  O   UNL     1       2.514  -1.472  18.867  1.00  0.00    -0.237 OA
ATOM     69  O   UNL     1       2.967  -2.783  16.845  1.00  0.00    -0.744 OA
ENDBRANCH  63  66
ENDBRANCH  45  59
BRANCH  46  70
ATOM     70  C   UNL     1      10.763  -5.912  14.626  1.00  0.00     0.023 A 
ATOM     71  C   UNL     1      11.755  -6.090  15.609  1.00  0.00     0.012 A 
ATOM     72  C   UNL     1       9.834  -6.959  14.422  1.00  0.00     0.148 A 
ATOM     73  C   UNL     1      11.816  -7.270  16.365  1.00  0.00     0.002 A 
ATOM     74  C   UNL     1       9.910  -8.136  15.159  1.00  0.00     0.091 A 
ATOM     75  F   UNL     1       8.822  -6.764  13.566  1.00  0.00    -0.205 F 
ATOM     76  C   UNL     1      10.895  -8.291  16.141  1.00  0.00     0.022 A 
BRANCH  74  77
ATOM     77  S   UNL     1       8.754  -9.493  14.920  1.00  0.00     0.127 S 
ATOM     78  O   UNL     1       9.660 -10.622  14.705  1.00  0.00    -0.237 OA
ATOM     79  O   UNL     1       8.042  -9.513  16.195  1.00  0.00    -0.237 OA
ATOM     80  O   UNL     1       7.953  -9.138  13.756  1.00  0.00    -0.744 OA
ENDBRANCH  74  77
ENDBRANCH  46  70
BRANCH  58  81
ATOM     81  C   UNL     1      11.617   0.106  13.051  1.00  0.00     0.023 A 
ATOM     82  C   UNL     1      11.824  -0.711  11.919  1.00  0.00     0.012 A 
ATOM     83  C   UNL     1      12.417   1.246  13.224  1.00  0.00     0.148 A 
ATOM     84  C   UNL     1      12.823  -0.403  10.990  1.00  0.00     0.002 A 
ATOM     85  C   UNL     1      13.374   1.576  12.274  1.00  0.00     0.091 A 
ATOM     86  F   UNL     1      12.199   2.013  14.303  1.00  0.00    -0.205 F 
ATOM     87  C   UNL     1      13.588   0.749  11.160  1.00  0.00     0.022 A 
BRANCH  85  88
ATOM     88  S   UNL     1      14.291   3.113  12.372  1.00  0.00     0.127 S 
ATOM     89  O   UNL     1      15.613   2.653  12.790  1.00  0.00    -0.237 OA
ATOM     90  O   UNL     1      14.221   3.608  10.996  1.00  0.00    -0.237 OA
ATOM     91  O   UNL     1      13.581   3.944  13.337  1.00  0.00    -0.744 OA
ENDBRANCH  85  88
ENDBRANCH  58  81
ENDBRANCH  32  33
ENDBRANCH  25  27
ENDBRANCH  24  25
ENDBRANCH  23  24
ENDBRANCH   1  23
TORSDOF 19
