REMARK SMILES CN(C)c1oc(/C=N/c2ccc(O)c(C(=O)OCCOC(=O)c3ccc(-c4c5nc(c(-c6cccc(S(=O)(=O)[O-])c6F)c6ccc([nH]6)c(-c6cccc(S(=O)(=O)[O-])c6F)c6nc(c(-c7cccc(S(=O)(=O)[O-])c7F)c7ccc4[nH]7)C=C6)C=C5)cc3)c2)cc1Br
REMARK SMILES IDX 18 1 17 2 15 3 16 4 14 5 9 6 10 7 86 8 11 9 12 10 8 11 7 12
REMARK SMILES IDX 6 13 4 14 5 15 88 16 87 17 89 18 2 19 1 20 3 21 13 22 19 24
REMARK SMILES IDX 20 25 21 26 22 27 23 28 24 29 85 30 25 31 84 32 26 33 27 34
REMARK SMILES IDX 28 35 78 36 29 37 83 38 77 39 79 40 30 41 82 42 76 43 75 44
REMARK SMILES IDX 31 46 63 47 43 48 62 49 44 50 47 51 61 52 80 53 45 54 46 55
REMARK SMILES IDX 60 57 81 58 48 59 32 60 33 61 41 62 34 63 36 64 42 65 35 66
REMARK SMILES IDX 37 67 38 68 39 69 40 70 64 71 65 72 73 73 66 74 68 75 74 76
REMARK SMILES IDX 67 77 69 78 70 79 71 80 72 81 49 82 50 83 58 84 51 85 53 86
REMARK SMILES IDX 59 87 52 88 54 89 55 90 56 91 57 92
REMARK H PARENT 13 23 79 45 47 56
REMARK Flexibility Score: inf
ROOT
ATOM      1  C   UNL     1       1.125  13.262  -4.237  1.00  0.00     0.275 C 
ENDROOT
BRANCH   1   2
ATOM      2  O   UNL     1       0.490  12.361  -3.308  1.00  0.00    -0.458 OA
BRANCH   2   3
ATOM      3  C   UNL     1       0.187  11.124  -3.783  1.00  0.00     0.342 C 
ATOM      4  O   UNL     1       0.452  10.685  -4.886  1.00  0.00    -0.246 OA
BRANCH   3   5
ATOM      5  C   UNL     1      -0.403  10.282  -2.717  1.00  0.00     0.103 A 
ATOM      6  C   UNL     1      -0.315   8.158  -1.530  1.00  0.00     0.064 A 
ATOM      7  C   UNL     1      -1.321   8.608  -0.675  1.00  0.00     0.032 A 
ATOM      8  C   UNL     1       0.105   8.983  -2.571  1.00  0.00     0.048 A 
ATOM      9  C   UNL     1      -1.889   9.876  -0.853  1.00  0.00     0.049 A 
ATOM     10  C   UNL     1      -1.417  10.718  -1.864  1.00  0.00     0.130 A 
BRANCH   6  11
ATOM     11  N   UNL     1       0.401   6.986  -1.276  1.00  0.00    -0.253 NA
ATOM     12  C   UNL     1      -0.147   5.842  -1.528  1.00  0.00     0.158 C 
BRANCH  12  13
ATOM     13  C   UNL     1       0.589   4.637  -1.265  1.00  0.00     0.149 A 
ATOM     14  C   UNL     1       0.829   2.452  -1.008  1.00  0.00     0.210 A 
ATOM     15  O   UNL     1      -0.050   3.436  -1.389  1.00  0.00    -0.438 OA
ATOM     16  C   UNL     1       2.039   3.044  -0.700  1.00  0.00     0.082 A 
ATOM     17  C   UNL     1       1.894   4.434  -0.869  1.00  0.00     0.070 A 
ATOM     18  Br  UNL     1       3.673   2.272  -0.195  1.00  0.00    -0.045 Br
BRANCH  14  19
ATOM     19  N   UNL     1       0.338   1.185  -0.991  1.00  0.00    -0.348 N 
ATOM     20  C   UNL     1       0.968   0.156  -0.181  1.00  0.00     0.146 C 
ATOM     21  C   UNL     1      -0.518   0.756  -2.084  1.00  0.00     0.146 C 
ENDBRANCH  14  19
ENDBRANCH  12  13
ENDBRANCH   6  11
BRANCH  10  22
ATOM     22  O   UNL     1      -1.976  11.955  -2.023  1.00  0.00    -0.507 OA
ATOM     23  H   UNL     1      -2.656  12.239  -1.445  1.00  0.00     0.293 HD
ENDBRANCH  10  22
ENDBRANCH   3   5
ENDBRANCH   2   3
ENDBRANCH   1   2
BRANCH   1  24
ATOM     24  C   UNL     1       2.544  13.594  -3.782  1.00  0.00     0.275 C 
BRANCH  24  25
ATOM     25  O   UNL     1       3.345  12.402  -3.829  1.00  0.00    -0.458 OA
BRANCH  25  26
ATOM     26  C   UNL     1       3.885  12.006  -2.654  1.00  0.00     0.338 C 
ATOM     27  O   UNL     1       3.858  12.593  -1.585  1.00  0.00    -0.246 OA
BRANCH  26  28
ATOM     28  C   UNL     1       4.499  10.682  -2.833  1.00  0.00     0.060 A 
ATOM     29  C   UNL     1       3.675   9.597  -3.119  1.00  0.00     0.016 A 
ATOM     30  C   UNL     1       5.858  10.490  -2.601  1.00  0.00     0.016 A 
ATOM     31  C   UNL     1       4.182   8.299  -3.079  1.00  0.00     0.010 A 
ATOM     32  C   UNL     1       6.385   9.195  -2.660  1.00  0.00     0.010 A 
ATOM     33  C   UNL     1       5.548   8.078  -2.855  1.00  0.00    -0.014 A 
BRANCH  33  34
ATOM     34  C   UNL     1       6.099   6.693  -2.785  1.00  0.00     0.031 A 
ATOM     35  C   UNL     1       6.838   6.234  -1.550  1.00  0.00     0.074 A 
ATOM     36  C   UNL     1       5.972   5.849  -3.830  1.00  0.00     0.049 A 
ATOM     37  N   UNL     1       7.545   5.149  -1.364  1.00  0.00    -0.248 NA
ATOM     38  C   UNL     1       6.793   7.122  -0.376  1.00  0.00     0.031 C 
ATOM     39  C   UNL     1       5.282   6.151  -5.086  1.00  0.00     0.029 A 
ATOM     40  N   UNL     1       6.438   4.568  -4.012  1.00  0.00    -0.354 N 
ATOM     41  C   UNL     1       8.100   5.266  -0.094  1.00  0.00     0.074 A 
ATOM     42  C   UNL     1       7.631   6.519   0.457  1.00  0.00     0.031 C 
ATOM     43  C   UNL     1       5.361   5.088  -5.901  1.00  0.00     0.029 A 
ATOM     44  C   UNL     1       6.168   4.056  -5.261  1.00  0.00     0.049 A 
ATOM     45  H   UNL     1       6.919   4.065  -3.315  1.00  0.00     0.167 HD
ATOM     46  C   UNL     1       8.919   4.406   0.557  1.00  0.00     0.034 A 
ATOM     47  C   UNL     1       6.560   2.907  -5.848  1.00  0.00     0.034 A 
ATOM     48  C   UNL     1       9.303   3.115   0.052  1.00  0.00     0.049 A 
ATOM     49  C   UNL     1       7.436   1.954  -5.082  1.00  0.00     0.074 A 
ATOM     50  C   UNL     1      10.069   2.143   0.674  1.00  0.00     0.029 A 
ATOM     51  N   UNL     1       8.943   2.608  -1.185  1.00  0.00    -0.354 N 
ATOM     52  N   UNL     1       7.886   2.050  -3.855  1.00  0.00    -0.248 NA
ATOM     53  C   UNL     1       7.849   0.725  -5.777  1.00  0.00     0.031 C 
ATOM     54  C   UNL     1      10.182   1.053  -0.193  1.00  0.00     0.029 A 
ATOM     55  C   UNL     1       9.473   1.340  -1.348  1.00  0.00     0.049 A 
ATOM     56  H   UNL     1       8.390   3.079  -1.850  1.00  0.00     0.167 HD
ATOM     57  C   UNL     1       8.610   0.886  -3.623  1.00  0.00     0.074 A 
ATOM     58  C   UNL     1       8.515   0.086  -4.825  1.00  0.00     0.031 C 
ATOM     59  C   UNL     1       9.313   0.524  -2.522  1.00  0.00     0.034 A 
BRANCH  46  60
ATOM     60  C   UNL     1       9.445   4.806   1.911  1.00  0.00     0.023 A 
ATOM     61  C   UNL     1       8.603   4.744   3.038  1.00  0.00     0.012 A 
ATOM     62  C   UNL     1      10.804   5.143   2.079  1.00  0.00     0.148 A 
ATOM     63  C   UNL     1       9.100   5.028   4.310  1.00  0.00     0.002 A 
ATOM     64  C   UNL     1      11.302   5.384   3.354  1.00  0.00     0.091 A 
ATOM     65  F   UNL     1      11.584   5.212   0.991  1.00  0.00    -0.205 F 
ATOM     66  C   UNL     1      10.449   5.335   4.469  1.00  0.00     0.022 A 
BRANCH  64  67
ATOM     67  S   UNL     1      13.040   5.707   3.675  1.00  0.00     0.127 S 
ATOM     68  O   UNL     1      13.010   7.109   4.088  1.00  0.00    -0.237 OA
ATOM     69  O   UNL     1      13.335   4.761   4.752  1.00  0.00    -0.237 OA
ATOM     70  O   UNL     1      13.738   5.441   2.425  1.00  0.00    -0.744 OA
ENDBRANCH  64  67
ENDBRANCH  46  60
BRANCH  47  71
ATOM     71  C   UNL     1       6.117   2.584  -7.235  1.00  0.00     0.023 A 
ATOM     72  C   UNL     1       5.233   1.508  -7.447  1.00  0.00     0.012 A 
ATOM     73  C   UNL     1       6.554   3.337  -8.342  1.00  0.00     0.148 A 
ATOM     74  C   UNL     1       4.816   1.171  -8.735  1.00  0.00     0.002 A 
ATOM     75  C   UNL     1       6.085   3.036  -9.616  1.00  0.00     0.091 A 
ATOM     76  F   UNL     1       7.420   4.339  -8.132  1.00  0.00    -0.205 F 
ATOM     77  C   UNL     1       5.230   1.943  -9.818  1.00  0.00     0.022 A 
BRANCH  75  78
ATOM     78  S   UNL     1       6.461   4.077 -11.031  1.00  0.00     0.127 S 
ATOM     79  O   UNL     1       7.555   3.344 -11.662  1.00  0.00    -0.237 OA
ATOM     80  O   UNL     1       5.200   4.061 -11.774  1.00  0.00    -0.237 OA
ATOM     81  O   UNL     1       6.800   5.377 -10.467  1.00  0.00    -0.744 OA
ENDBRANCH  75  78
ENDBRANCH  47  71
BRANCH  59  82
ATOM     82  C   UNL     1      10.004  -0.812  -2.544  1.00  0.00     0.023 A 
ATOM     83  C   UNL     1      11.176  -0.978  -3.308  1.00  0.00     0.012 A 
ATOM     84  C   UNL     1       9.534  -1.879  -1.754  1.00  0.00     0.148 A 
ATOM     85  C   UNL     1      11.854  -2.197  -3.308  1.00  0.00     0.002 A 
ATOM     86  C   UNL     1      10.239  -3.076  -1.724  1.00  0.00     0.091 A 
ATOM     87  F   UNL     1       8.405  -1.707  -1.050  1.00  0.00    -0.205 F 
ATOM     88  C   UNL     1      11.393  -3.240  -2.508  1.00  0.00     0.022 A 
BRANCH  86  89
ATOM     89  S   UNL     1       9.767  -4.440  -0.655  1.00  0.00     0.127 S 
ATOM     90  O   UNL     1       9.161  -5.370  -1.606  1.00  0.00    -0.237 OA
ATOM     91  O   UNL     1      11.055  -4.875  -0.113  1.00  0.00    -0.237 OA
ATOM     92  O   UNL     1       8.859  -3.875   0.335  1.00  0.00    -0.744 OA
ENDBRANCH  86  89
ENDBRANCH  59  82
ENDBRANCH  33  34
ENDBRANCH  26  28
ENDBRANCH  25  26
ENDBRANCH  24  25
ENDBRANCH   1  24
TORSDOF 18
