REMARK SMILES CC(C)=CC(=O)N1[C@H](C(=O)OCCOC(=O)c2ccc(-c3c4nc(c(-c5cccc(S(=O)(=O)[O-])c5F)c5ccc([nH]5)c(-c5cccc(S(=O)(=O)[O-])c5F)c5nc(c(-c6cccc(S(=O)(=O)[O-])c6F)c6ccc3[nH]6)C=C5)C=C4)cc2)COC12CCCCC2
REMARK SMILES IDX 13 1 12 2 11 3 9 4 10 5 8 6 7 7 82 8 80 9 81 10 83 11 87 12
REMARK SMILES IDX 84 13 86 14 85 15 5 16 6 17 4 18 1 19 2 20 3 21 14 22 15 23
REMARK SMILES IDX 16 24 17 25 18 26 79 27 19 28 78 29 20 30 21 31 22 32 72 33
REMARK SMILES IDX 23 34 77 35 71 36 73 37 24 38 76 39 70 40 69 41 25 43 57 44
REMARK SMILES IDX 37 45 56 46 38 47 41 48 55 49 74 50 39 51 40 52 54 54 75 55
REMARK SMILES IDX 42 56 26 57 27 58 35 59 28 60 30 61 36 62 29 63 31 64 32 65
REMARK SMILES IDX 33 66 34 67 58 68 59 69 67 70 60 71 62 72 68 73 61 74 63 75
REMARK SMILES IDX 64 76 65 77 66 78 43 79 44 80 52 81 45 82 47 83 53 84 46 85
REMARK SMILES IDX 48 86 49 87 50 88 51 89
REMARK H PARENT 73 42 41 53
REMARK Flexibility Score: inf
ROOT
ATOM      1  C   UNL     1       3.403   2.312  -6.316  1.00  0.00     0.275 C 
ENDROOT
BRANCH   1   2
ATOM      2  C   UNL     1       3.968   3.029  -5.095  1.00  0.00     0.274 C 
BRANCH   2   3
ATOM      3  O   UNL     1       3.655   2.316  -3.877  1.00  0.00    -0.460 OA
BRANCH   3   4
ATOM      4  C   UNL     1       2.670   2.881  -3.131  1.00  0.00     0.331 C 
ATOM      5  O   UNL     1       2.149   3.966  -3.389  1.00  0.00    -0.250 OA
BRANCH   4   6
ATOM      6  C   UNL     1       2.394   2.200  -1.793  1.00  0.00     0.224 C 
ATOM      7  N   UNL     1       2.467   0.782  -1.493  1.00  0.00    -0.294 N 
ATOM      8  C   UNL     1       3.197   0.530  -0.263  1.00  0.00     0.144 C 
ATOM      9  C   UNL     1       3.429   2.773  -0.845  1.00  0.00     0.200 C 
ATOM     10  O   UNL     1       3.543   1.844   0.237  1.00  0.00    -0.353 OA
ATOM     11  C   UNL     1       2.414  -0.152   0.870  1.00  0.00     0.059 C 
ATOM     12  C   UNL     1       4.497  -0.239  -0.569  1.00  0.00     0.059 C 
ATOM     13  C   UNL     1       3.268  -0.384   2.115  1.00  0.00     0.005 C 
ATOM     14  C   UNL     1       5.333  -0.507   0.682  1.00  0.00     0.005 C 
ATOM     15  C   UNL     1       4.514  -1.191   1.772  1.00  0.00     0.000 C 
BRANCH   7  16
ATOM     16  C   UNL     1       1.838  -0.127  -2.293  1.00  0.00     0.249 C 
ATOM     17  O   UNL     1       2.009  -0.124  -3.507  1.00  0.00    -0.270 OA
BRANCH  16  18
ATOM     18  C   UNL     1       0.955  -1.163  -1.702  1.00  0.00     0.070 C 
ATOM     19  C   UNL     1      -0.763   0.392  -0.639  1.00  0.00     0.039 C 
ATOM     20  C   UNL     1      -0.180  -0.946  -1.002  1.00  0.00    -0.071 C 
ATOM     21  C   UNL     1      -1.021  -2.103  -0.520  1.00  0.00     0.039 C 
ENDBRANCH  16  18
ENDBRANCH   7  16
ENDBRANCH   4   6
ENDBRANCH   3   4
ENDBRANCH   2   3
ENDBRANCH   1   2
BRANCH   1  22
ATOM     22  O   UNL     1       2.028   1.989  -6.078  1.00  0.00    -0.458 OA
BRANCH  22  23
ATOM     23  C   UNL     1       1.687   0.708  -6.363  1.00  0.00     0.338 C 
ATOM     24  O   UNL     1       2.379  -0.116  -6.938  1.00  0.00    -0.246 OA
BRANCH  23  25
ATOM     25  C   UNL     1       0.297   0.448  -5.924  1.00  0.00     0.060 A 
ATOM     26  C   UNL     1      -0.254   1.070  -4.796  1.00  0.00     0.016 A 
ATOM     27  C   UNL     1      -0.443  -0.503  -6.625  1.00  0.00     0.016 A 
ATOM     28  C   UNL     1      -1.512   0.691  -4.331  1.00  0.00     0.010 A 
ATOM     29  C   UNL     1      -1.738  -0.809  -6.214  1.00  0.00     0.010 A 
ATOM     30  C   UNL     1      -2.278  -0.233  -5.052  1.00  0.00    -0.014 A 
BRANCH  30  31
ATOM     31  C   UNL     1      -3.660  -0.592  -4.644  1.00  0.00     0.031 A 
ATOM     32  C   UNL     1      -4.019  -2.030  -4.391  1.00  0.00     0.074 A 
ATOM     33  C   UNL     1      -4.615   0.358  -4.629  1.00  0.00     0.049 A 
ATOM     34  N   UNL     1      -5.200  -2.582  -4.300  1.00  0.00    -0.248 NA
ATOM     35  C   UNL     1      -2.900  -2.977  -4.244  1.00  0.00     0.031 C 
ATOM     36  C   UNL     1      -4.395   1.786  -4.867  1.00  0.00     0.029 A 
ATOM     37  N   UNL     1      -5.974   0.255  -4.459  1.00  0.00    -0.354 N 
ATOM     38  C   UNL     1      -4.973  -3.946  -4.169  1.00  0.00     0.074 A 
ATOM     39  C   UNL     1      -3.538  -4.138  -4.170  1.00  0.00     0.031 C 
ATOM     40  C   UNL     1      -5.574   2.422  -4.852  1.00  0.00     0.029 A 
ATOM     41  C   UNL     1      -6.638   1.441  -4.679  1.00  0.00     0.049 A 
ATOM     42  H   UNL     1      -6.428  -0.581  -4.206  1.00  0.00     0.167 HD
ATOM     43  C   UNL     1      -5.880  -4.945  -4.056  1.00  0.00     0.034 A 
ATOM     44  C   UNL     1      -7.954   1.705  -4.789  1.00  0.00     0.034 A 
ATOM     45  C   UNL     1      -7.302  -4.737  -3.993  1.00  0.00     0.049 A 
ATOM     46  C   UNL     1      -8.939   0.581  -4.642  1.00  0.00     0.074 A 
ATOM     47  C   UNL     1      -8.300  -5.675  -3.794  1.00  0.00     0.029 A 
ATOM     48  N   UNL     1      -7.930  -3.508  -4.129  1.00  0.00    -0.354 N 
ATOM     49  N   UNL     1      -8.711  -0.691  -4.419  1.00  0.00    -0.248 NA
ATOM     50  C   UNL     1     -10.364   0.928  -4.745  1.00  0.00     0.031 C 
ATOM     51  C   UNL     1      -9.533  -5.014  -3.823  1.00  0.00     0.029 A 
ATOM     52  C   UNL     1      -9.302  -3.663  -4.025  1.00  0.00     0.049 A 
ATOM     53  H   UNL     1      -7.468  -2.651  -4.277  1.00  0.00     0.167 HD
ATOM     54  C   UNL     1      -9.960  -1.292  -4.329  1.00  0.00     0.074 A 
ATOM     55  C   UNL     1     -10.943  -0.241  -4.500  1.00  0.00     0.031 C 
ATOM     56  C   UNL     1     -10.265  -2.598  -4.139  1.00  0.00     0.034 A 
BRANCH  43  57
ATOM     57  C   UNL     1      -5.368  -6.357  -3.958  1.00  0.00     0.023 A 
ATOM     58  C   UNL     1      -4.781  -6.805  -2.758  1.00  0.00     0.012 A 
ATOM     59  C   UNL     1      -5.535  -7.261  -5.026  1.00  0.00     0.148 A 
ATOM     60  C   UNL     1      -4.344  -8.123  -2.631  1.00  0.00     0.002 A 
ATOM     61  C   UNL     1      -5.133  -8.584  -4.878  1.00  0.00     0.091 A 
ATOM     62  F   UNL     1      -6.073  -6.811  -6.168  1.00  0.00    -0.205 F 
ATOM     63  C   UNL     1      -4.530  -9.014  -3.685  1.00  0.00     0.022 A 
BRANCH  61  64
ATOM     64  S   UNL     1      -5.403  -9.822  -6.152  1.00  0.00     0.127 S 
ATOM     65  O   UNL     1      -4.059  -9.975  -6.706  1.00  0.00    -0.237 OA
ATOM     66  O   UNL     1      -5.875 -10.970  -5.375  1.00  0.00    -0.237 OA
ATOM     67  O   UNL     1      -6.396  -9.255  -7.053  1.00  0.00    -0.744 OA
ENDBRANCH  61  64
ENDBRANCH  43  57
BRANCH  44  68
ATOM     68  C   UNL     1      -8.404   3.103  -5.033  1.00  0.00     0.023 A 
ATOM     69  C   UNL     1      -9.038   3.812  -3.996  1.00  0.00     0.012 A 
ATOM     70  C   UNL     1      -8.147   3.756  -6.256  1.00  0.00     0.148 A 
ATOM     71  C   UNL     1      -9.425   5.140  -4.176  1.00  0.00     0.002 A 
ATOM     72  C   UNL     1      -8.482   5.096  -6.409  1.00  0.00     0.091 A 
ATOM     73  F   UNL     1      -7.558   3.059  -7.238  1.00  0.00    -0.205 F 
ATOM     74  C   UNL     1      -9.135   5.785  -5.375  1.00  0.00     0.022 A 
BRANCH  72  75
ATOM     75  S   UNL     1      -8.012   6.042  -7.862  1.00  0.00     0.127 S 
ATOM     76  O   UNL     1      -9.289   6.173  -8.559  1.00  0.00    -0.237 OA
ATOM     77  O   UNL     1      -7.504   7.280  -7.269  1.00  0.00    -0.237 OA
ATOM     78  O   UNL     1      -6.997   5.243  -8.535  1.00  0.00    -0.744 OA
ENDBRANCH  72  75
ENDBRANCH  44  68
BRANCH  56  79
ATOM     79  C   UNL     1     -11.721  -2.972  -4.072  1.00  0.00     0.023 A 
ATOM     80  C   UNL     1     -12.482  -3.024  -5.256  1.00  0.00     0.012 A 
ATOM     81  C   UNL     1     -12.310  -3.355  -2.851  1.00  0.00     0.148 A 
ATOM     82  C   UNL     1     -13.815  -3.432  -5.223  1.00  0.00     0.002 A 
ATOM     83  C   UNL     1     -13.625  -3.801  -2.832  1.00  0.00     0.091 A 
ATOM     84  F   UNL     1     -11.572  -3.278  -1.734  1.00  0.00    -0.205 F 
ATOM     85  C   UNL     1     -14.382  -3.832  -4.015  1.00  0.00     0.022 A 
BRANCH  83  86
ATOM     86  S   UNL     1     -14.409  -4.421  -1.339  1.00  0.00     0.127 S 
ATOM     87  O   UNL     1     -15.332  -3.335  -1.014  1.00  0.00    -0.237 OA
ATOM     88  O   UNL     1     -15.052  -5.648  -1.810  1.00  0.00    -0.237 OA
ATOM     89  O   UNL     1     -13.333  -4.634  -0.380  1.00  0.00    -0.744 OA
ENDBRANCH  83  86
ENDBRANCH  56  79
ENDBRANCH  30  31
ENDBRANCH  23  25
ENDBRANCH  22  23
ENDBRANCH   1  22
TORSDOF 16
