REMARK SMILES O=C(N[C@@H](CS)C(=O)N[C@@H](CO)C(=O)OCCOC(=O)c1ccc(-c2c3nc(c(-c4cccc(S(=O)(=O)[O-])c4F)c4ccc([nH]4)c(-c4cccc(S(=O)(=O)[O-])c4F)c4nc(c(-c5cccc(S(=O)(=O)[O-])c5F)c5ccc2[nH]5)C=C4)C=C3)cc1)c1ccc(F)cc1
REMARK SMILES IDX 16 1 15 2 13 3 14 4 10 5 9 6 7 7 8 8 4 10 3 11 1 12 2 13
REMARK SMILES IDX 84 15 85 16 90 17 86 18 89 19 87 20 88 21 5 22 6 23 11 25
REMARK SMILES IDX 12 26 17 28 18 29 19 30 20 31 21 32 22 33 83 34 23 35 82 36
REMARK SMILES IDX 24 37 25 38 26 39 76 40 27 41 81 42 75 43 77 44 28 45 80 46
REMARK SMILES IDX 74 47 73 48 29 50 61 51 41 52 60 53 42 54 45 55 59 56 78 57
REMARK SMILES IDX 43 58 44 59 58 61 79 62 46 63 30 64 31 65 39 66 32 67 34 68
REMARK SMILES IDX 40 69 33 70 35 71 36 72 37 73 38 74 62 75 63 76 71 77 64 78
REMARK SMILES IDX 66 79 72 80 65 81 67 82 68 83 69 84 70 85 47 86 48 87 56 88
REMARK SMILES IDX 49 89 51 90 57 91 50 92 52 93 53 94 54 95 55 96
REMARK H PARENT 9 9 3 14 6 24 12 27 77 49 45 60
REMARK Flexibility Score: inf
ROOT
ATOM      1  C   UNL     1       5.617   5.591   4.468  1.00  0.00     0.274 C 
ENDROOT
BRANCH   1   2
ATOM      2  O   UNL     1       5.152   4.279   4.089  1.00  0.00    -0.460 OA
BRANCH   2   3
ATOM      3  C   UNL     1       3.946   4.224   3.448  1.00  0.00     0.331 C 
ATOM      4  O   UNL     1       3.279   5.199   3.125  1.00  0.00    -0.250 OA
BRANCH   3   5
ATOM      5  C   UNL     1       3.445   2.777   3.296  1.00  0.00     0.218 C 
BRANCH   5   6
ATOM      6  N   UNL     1       4.503   1.784   3.530  1.00  0.00    -0.339 N 
ATOM      7  C   UNL     1       4.999   0.749   2.814  1.00  0.00     0.244 C 
ATOM      8  O   UNL     1       6.007   0.208   3.289  1.00  0.00    -0.273 OA
ATOM      9  H   UNL     1       4.950   1.897   4.400  1.00  0.00     0.164 HD
BRANCH   7  10
ATOM     10  C   UNL     1       4.469   0.274   1.442  1.00  0.00     0.181 C 
BRANCH  10  11
ATOM     11  N   UNL     1       3.028   0.005   1.367  1.00  0.00    -0.339 N 
ATOM     12  O   UNL     1       1.129  -0.625   0.334  1.00  0.00    -0.269 OA
ATOM     13  C   UNL     1       2.349  -0.723   0.414  1.00  0.00     0.251 C 
ATOM     14  H   UNL     1       2.478   0.392   2.087  1.00  0.00     0.164 HD
BRANCH  13  15
ATOM     15  C   UNL     1       3.085  -1.583  -0.543  1.00  0.00     0.040 A 
ATOM     16  C   UNL     1       3.965  -2.569  -0.080  1.00  0.00     0.017 A 
ATOM     17  C   UNL     1       2.854  -1.438  -1.918  1.00  0.00     0.017 A 
ATOM     18  C   UNL     1       4.662  -3.363  -0.991  1.00  0.00     0.040 A 
ATOM     19  C   UNL     1       3.545  -2.246  -2.827  1.00  0.00     0.040 A 
ATOM     20  C   UNL     1       4.448  -3.194  -2.355  1.00  0.00     0.123 A 
ATOM     21  F   UNL     1       5.114  -3.967  -3.222  1.00  0.00    -0.207 F 
ENDBRANCH  13  15
ENDBRANCH  10  11
BRANCH  10  22
ATOM     22  C   UNL     1       5.014   1.141   0.294  1.00  0.00     0.101 C 
BRANCH  22  23
ATOM     23  S   UNL     1       3.848   2.390  -0.319  1.00  0.00    -0.177 SA
ATOM     24  H   UNL     1       2.751   1.772  -0.833  1.00  0.00     0.102 HD
ENDBRANCH  22  23
ENDBRANCH  10  22
ENDBRANCH   7  10
ENDBRANCH   5   6
BRANCH   5  25
ATOM     25  C   UNL     1       2.306   2.588   4.310  1.00  0.00     0.193 C 
BRANCH  25  26
ATOM     26  O   UNL     1       2.810   2.474   5.645  1.00  0.00    -0.394 OA
ATOM     27  H   UNL     1       3.393   1.700   5.705  1.00  0.00     0.210 HD
ENDBRANCH  25  26
ENDBRANCH   5  25
ENDBRANCH   3   5
ENDBRANCH   2   3
ENDBRANCH   1   2
BRANCH   1  28
ATOM     28  C   UNL     1       6.848   5.979   3.657  1.00  0.00     0.275 C 
BRANCH  28  29
ATOM     29  O   UNL     1       6.474   6.111   2.276  1.00  0.00    -0.458 OA
BRANCH  29  30
ATOM     30  C   UNL     1       7.180   5.375   1.392  1.00  0.00     0.338 C 
ATOM     31  O   UNL     1       8.155   4.669   1.639  1.00  0.00    -0.246 OA
BRANCH  30  32
ATOM     32  C   UNL     1       6.589   5.481   0.044  1.00  0.00     0.060 A 
ATOM     33  C   UNL     1       5.208   5.538  -0.117  1.00  0.00     0.016 A 
ATOM     34  C   UNL     1       7.408   5.370  -1.082  1.00  0.00     0.016 A 
ATOM     35  C   UNL     1       4.657   5.340  -1.386  1.00  0.00     0.010 A 
ATOM     36  C   UNL     1       6.841   5.274  -2.362  1.00  0.00     0.010 A 
ATOM     37  C   UNL     1       5.450   5.179  -2.536  1.00  0.00    -0.014 A 
BRANCH  37  38
ATOM     38  C   UNL     1       4.850   4.833  -3.875  1.00  0.00     0.031 A 
ATOM     39  C   UNL     1       5.462   3.751  -4.749  1.00  0.00     0.074 A 
ATOM     40  C   UNL     1       3.738   5.446  -4.339  1.00  0.00     0.049 A 
ATOM     41  N   UNL     1       5.288   3.519  -6.028  1.00  0.00    -0.248 NA
ATOM     42  C   UNL     1       6.409   2.820  -4.111  1.00  0.00     0.031 C 
ATOM     43  C   UNL     1       2.973   6.473  -3.635  1.00  0.00     0.029 A 
ATOM     44  N   UNL     1       3.053   5.291  -5.526  1.00  0.00    -0.354 N 
ATOM     45  C   UNL     1       6.188   2.513  -6.370  1.00  0.00     0.074 A 
ATOM     46  C   UNL     1       6.880   2.145  -5.153  1.00  0.00     0.031 C 
ATOM     47  C   UNL     1       1.895   6.802  -4.357  1.00  0.00     0.029 A 
ATOM     48  C   UNL     1       1.975   6.138  -5.651  1.00  0.00     0.049 A 
ATOM     49  H   UNL     1       3.310   4.638  -6.217  1.00  0.00     0.167 HD
ATOM     50  C   UNL     1       6.418   1.947  -7.581  1.00  0.00     0.034 A 
ATOM     51  C   UNL     1       1.180   6.432  -6.700  1.00  0.00     0.034 A 
ATOM     52  C   UNL     1       5.634   2.205  -8.763  1.00  0.00     0.049 A 
ATOM     53  C   UNL     1       1.437   5.786  -8.028  1.00  0.00     0.074 A 
ATOM     54  C   UNL     1       5.767   1.643 -10.023  1.00  0.00     0.029 A 
ATOM     55  N   UNL     1       4.550   3.065  -8.827  1.00  0.00    -0.354 N 
ATOM     56  N   UNL     1       2.332   4.884  -8.346  1.00  0.00    -0.248 NA
ATOM     57  C   UNL     1       0.583   6.209  -9.147  1.00  0.00     0.031 C 
ATOM     58  C   UNL     1       4.765   2.164 -10.848  1.00  0.00     0.029 A 
ATOM     59  C   UNL     1       4.000   3.041 -10.099  1.00  0.00     0.049 A 
ATOM     60  H   UNL     1       4.219   3.612  -8.079  1.00  0.00     0.167 HD
ATOM     61  C   UNL     1       2.148   4.630  -9.699  1.00  0.00     0.074 A 
ATOM     62  C   UNL     1       1.032   5.444 -10.133  1.00  0.00     0.031 C 
ATOM     63  C   UNL     1       2.861   3.816 -10.515  1.00  0.00     0.034 A 
BRANCH  50  64
ATOM     64  C   UNL     1       7.556   0.964  -7.713  1.00  0.00     0.023 A 
ATOM     65  C   UNL     1       7.423  -0.349  -7.221  1.00  0.00     0.012 A 
ATOM     66  C   UNL     1       8.719   1.314  -8.433  1.00  0.00     0.148 A 
ATOM     67  C   UNL     1       8.435  -1.289  -7.423  1.00  0.00     0.002 A 
ATOM     68  C   UNL     1       9.704   0.360  -8.668  1.00  0.00     0.091 A 
ATOM     69  F   UNL     1       8.839   2.573  -8.880  1.00  0.00    -0.205 F 
ATOM     70  C   UNL     1       9.567  -0.939  -8.156  1.00  0.00     0.022 A 
BRANCH  68  71
ATOM     71  S   UNL     1      11.151   0.696  -9.682  1.00  0.00     0.127 S 
ATOM     72  O   UNL     1      12.197   0.824  -8.669  1.00  0.00    -0.237 OA
ATOM     73  O   UNL     1      11.243  -0.512 -10.503  1.00  0.00    -0.237 OA
ATOM     74  O   UNL     1      10.842   1.909 -10.426  1.00  0.00    -0.744 OA
ENDBRANCH  68  71
ENDBRANCH  50  64
BRANCH  51  75
ATOM     75  C   UNL     1       0.091   7.437  -6.530  1.00  0.00     0.023 A 
ATOM     76  C   UNL     1      -1.253   7.025  -6.576  1.00  0.00     0.012 A 
ATOM     77  C   UNL     1       0.387   8.783  -6.236  1.00  0.00     0.148 A 
ATOM     78  C   UNL     1      -2.282   7.936  -6.327  1.00  0.00     0.002 A 
ATOM     79  C   UNL     1      -0.636   9.662  -5.904  1.00  0.00     0.091 A 
ATOM     80  F   UNL     1       1.671   9.170  -6.240  1.00  0.00    -0.205 F 
ATOM     81  C   UNL     1      -1.973   9.246  -5.966  1.00  0.00     0.022 A 
BRANCH  79  82
ATOM     82  S   UNL     1      -0.291  11.292  -5.231  1.00  0.00     0.127 S 
ATOM     83  O   UNL     1      -0.501  12.149  -6.394  1.00  0.00    -0.237 OA
ATOM     84  O   UNL     1      -1.304  11.414  -4.182  1.00  0.00    -0.237 OA
ATOM     85  O   UNL     1       1.075  11.215  -4.727  1.00  0.00    -0.744 OA
ENDBRANCH  79  82
ENDBRANCH  51  75
BRANCH  63  86
ATOM     86  C   UNL     1       2.441   3.744 -11.958  1.00  0.00     0.023 A 
ATOM     87  C   UNL     1       2.745   4.813 -12.824  1.00  0.00     0.012 A 
ATOM     88  C   UNL     1       1.781   2.608 -12.464  1.00  0.00     0.148 A 
ATOM     89  C   UNL     1       2.368   4.767 -14.166  1.00  0.00     0.002 A 
ATOM     90  C   UNL     1       1.443   2.552 -13.811  1.00  0.00     0.091 A 
ATOM     91  F   UNL     1       1.482   1.611 -11.618  1.00  0.00    -0.205 F 
ATOM     92  C   UNL     1       1.726   3.634 -14.661  1.00  0.00     0.022 A 
BRANCH  90  93
ATOM     93  S   UNL     1       0.680   1.103 -14.549  1.00  0.00     0.127 S 
ATOM     94  O   UNL     1      -0.704   1.544 -14.711  1.00  0.00    -0.237 OA
ATOM     95  O   UNL     1       1.425   0.960 -15.801  1.00  0.00    -0.237 OA
ATOM     96  O   UNL     1       0.887   0.017 -13.600  1.00  0.00    -0.744 OA
ENDBRANCH  90  93
ENDBRANCH  63  86
ENDBRANCH  37  38
ENDBRANCH  30  32
ENDBRANCH  29  30
ENDBRANCH  28  29
ENDBRANCH   1  28
TORSDOF 22
