REMARK SMILES CC(C)n1cc(C(=O)OCCOC(=O)c2ccc(-c3c4nc(c(-c5cccc(S(=O)(=O)[O-])c5F)c5ccc([nH]5)c(-c5cccc(S(=O)(=O)[O-])c5F)c5nc(c(-c6cccc(S(=O)(=O)[O-])c6F)c6ccc3[nH]6)C=C5)C=C4)cc2)c2ccccc2c1=O
REMARK SMILES IDX 11 1 10 2 9 3 7 4 8 5 6 6 4 7 5 8 84 9 83 10 85 11 78 12
REMARK SMILES IDX 82 13 79 14 81 15 80 16 2 17 1 18 3 19 12 20 13 21 14 22
REMARK SMILES IDX 15 23 16 24 77 25 17 26 76 27 18 28 19 29 20 30 70 31 21 32
REMARK SMILES IDX 75 33 69 34 71 35 22 36 74 37 68 38 67 39 23 41 55 42 35 43
REMARK SMILES IDX 54 44 36 45 39 46 53 47 72 48 37 49 38 50 52 52 73 53 40 54
REMARK SMILES IDX 24 55 25 56 33 57 26 58 28 59 34 60 27 61 29 62 30 63 31 64
REMARK SMILES IDX 32 65 56 66 57 67 65 68 58 69 60 70 66 71 59 72 61 73 62 74
REMARK SMILES IDX 63 75 64 76 41 77 42 78 50 79 43 80 45 81 51 82 44 83 46 84
REMARK SMILES IDX 47 85 48 86 49 87
REMARK H PARENT 71 40 39 51
REMARK Flexibility Score: inf
ROOT
ATOM      1  C   UNL     1      -4.128   3.774  -0.181  1.00  0.00     0.275 C 
ENDROOT
BRANCH   1   2
ATOM      2  C   UNL     1      -3.345   3.462   1.093  1.00  0.00     0.275 C 
BRANCH   2   3
ATOM      3  O   UNL     1      -2.741   2.153   0.990  1.00  0.00    -0.458 OA
BRANCH   3   4
ATOM      4  C   UNL     1      -3.193   1.176   1.827  1.00  0.00     0.340 C 
ATOM      5  O   UNL     1      -4.080   1.302   2.655  1.00  0.00    -0.246 OA
BRANCH   4   6
ATOM      6  C   UNL     1      -2.461  -0.096   1.559  1.00  0.00     0.084 A 
ATOM      7  N   UNL     1      -0.317  -1.068   1.073  1.00  0.00    -0.312 N 
ATOM      8  C   UNL     1      -1.135   0.008   1.379  1.00  0.00     0.105 A 
ATOM      9  C   UNL     1      -0.837  -2.349   0.843  1.00  0.00     0.258 A 
ATOM     10  C   UNL     1      -2.301  -2.519   1.045  1.00  0.00     0.048 A 
ATOM     11  O   UNL     1      -0.150  -3.315   0.523  1.00  0.00    -0.269 OA
ATOM     12  C   UNL     1      -3.074  -1.436   1.496  1.00  0.00     0.003 A 
ATOM     13  C   UNL     1      -2.873  -3.784   0.837  1.00  0.00     0.014 A 
ATOM     14  C   UNL     1      -4.407  -1.692   1.838  1.00  0.00     0.010 A 
ATOM     15  C   UNL     1      -4.220  -3.993   1.111  1.00  0.00     0.001 A 
ATOM     16  C   UNL     1      -4.979  -2.955   1.636  1.00  0.00     0.001 A 
BRANCH   7  17
ATOM     17  C   UNL     1       1.145  -0.881   1.011  1.00  0.00     0.084 C 
ATOM     18  C   UNL     1       1.561   0.126  -0.063  1.00  0.00     0.031 C 
ATOM     19  C   UNL     1       1.710  -0.508   2.385  1.00  0.00     0.031 C 
ENDBRANCH   7  17
ENDBRANCH   4   6
ENDBRANCH   3   4
ENDBRANCH   2   3
ENDBRANCH   1   2
BRANCH   1  20
ATOM     20  O   UNL     1      -5.316   2.973  -0.152  1.00  0.00    -0.458 OA
BRANCH  20  21
ATOM     21  C   UNL     1      -5.695   2.379  -1.308  1.00  0.00     0.338 C 
ATOM     22  O   UNL     1      -5.256   2.580  -2.423  1.00  0.00    -0.246 OA
BRANCH  21  23
ATOM     23  C   UNL     1      -6.748   1.402  -0.962  1.00  0.00     0.060 A 
ATOM     24  C   UNL     1      -7.916   1.298  -1.710  1.00  0.00     0.016 A 
ATOM     25  C   UNL     1      -6.539   0.544   0.117  1.00  0.00     0.016 A 
ATOM     26  C   UNL     1      -8.887   0.356  -1.337  1.00  0.00     0.010 A 
ATOM     27  C   UNL     1      -7.468  -0.444   0.429  1.00  0.00     0.010 A 
ATOM     28  C   UNL     1      -8.666  -0.549  -0.277  1.00  0.00    -0.014 A 
BRANCH  28  29
ATOM     29  C   UNL     1      -9.632  -1.643   0.048  1.00  0.00     0.031 A 
ATOM     30  C   UNL     1     -10.164  -1.868   1.448  1.00  0.00     0.074 A 
ATOM     31  C   UNL     1      -9.962  -2.528  -0.916  1.00  0.00     0.049 A 
ATOM     32  N   UNL     1     -11.011  -2.777   1.865  1.00  0.00    -0.248 NA
ATOM     33  C   UNL     1      -9.646  -1.014   2.530  1.00  0.00     0.031 C 
ATOM     34  C   UNL     1      -9.390  -2.566  -2.264  1.00  0.00     0.029 A 
ATOM     35  N   UNL     1     -10.863  -3.565  -0.914  1.00  0.00    -0.354 N 
ATOM     36  C   UNL     1     -11.072  -2.649   3.249  1.00  0.00     0.074 A 
ATOM     37  C   UNL     1     -10.151  -1.595   3.611  1.00  0.00     0.031 C 
ATOM     38  C   UNL     1     -10.012  -3.513  -2.982  1.00  0.00     0.029 A 
ATOM     39  C   UNL     1     -11.010  -4.166  -2.143  1.00  0.00     0.049 A 
ATOM     40  H   UNL     1     -11.356  -3.850  -0.111  1.00  0.00     0.167 HD
ATOM     41  C   UNL     1     -11.858  -3.307   4.137  1.00  0.00     0.034 A 
ATOM     42  C   UNL     1     -11.878  -5.105  -2.566  1.00  0.00     0.034 A 
ATOM     43  C   UNL     1     -12.881  -4.247   3.767  1.00  0.00     0.049 A 
ATOM     44  C   UNL     1     -12.893  -5.663  -1.611  1.00  0.00     0.074 A 
ATOM     45  C   UNL     1     -13.842  -4.831   4.575  1.00  0.00     0.029 A 
ATOM     46  N   UNL     1     -13.098  -4.717   2.484  1.00  0.00    -0.354 N 
ATOM     47  N   UNL     1     -13.058  -5.390  -0.341  1.00  0.00    -0.248 NA
ATOM     48  C   UNL     1     -13.861  -6.629  -2.151  1.00  0.00     0.031 C 
ATOM     49  C   UNL     1     -14.655  -5.638   3.774  1.00  0.00     0.029 A 
ATOM     50  C   UNL     1     -14.192  -5.564   2.471  1.00  0.00     0.049 A 
ATOM     51  H   UNL     1     -12.555  -4.483   1.696  1.00  0.00     0.167 HD
ATOM     52  C   UNL     1     -14.158  -6.136   0.067  1.00  0.00     0.074 A 
ATOM     53  C   UNL     1     -14.634  -6.856  -1.095  1.00  0.00     0.031 C 
ATOM     54  C   UNL     1     -14.703  -6.228   1.302  1.00  0.00     0.034 A 
BRANCH  41  55
ATOM     55  C   UNL     1     -11.751  -2.944   5.596  1.00  0.00     0.023 A 
ATOM     56  C   UNL     1     -12.310  -1.726   6.036  1.00  0.00     0.012 A 
ATOM     57  C   UNL     1     -11.219  -3.843   6.543  1.00  0.00     0.148 A 
ATOM     58  C   UNL     1     -12.319  -1.395   7.389  1.00  0.00     0.002 A 
ATOM     59  C   UNL     1     -11.264  -3.521   7.896  1.00  0.00     0.091 A 
ATOM     60  F   UNL     1     -10.693  -4.995   6.105  1.00  0.00    -0.205 F 
ATOM     61  C   UNL     1     -11.805  -2.295   8.319  1.00  0.00     0.022 A 
BRANCH  59  62
ATOM     62  S   UNL     1     -10.699  -4.635   9.189  1.00  0.00     0.127 S 
ATOM     63  O   UNL     1      -9.558  -3.900   9.734  1.00  0.00    -0.237 OA
ATOM     64  O   UNL     1     -11.863  -4.693  10.073  1.00  0.00    -0.237 OA
ATOM     65  O   UNL     1     -10.370  -5.889   8.527  1.00  0.00    -0.744 OA
ENDBRANCH  59  62
ENDBRANCH  41  55
BRANCH  42  66
ATOM     66  C   UNL     1     -11.921  -5.447  -4.013  1.00  0.00     0.023 A 
ATOM     67  C   UNL     1     -12.931  -4.869  -4.808  1.00  0.00     0.012 A 
ATOM     68  C   UNL     1     -10.941  -6.255  -4.616  1.00  0.00     0.148 A 
ATOM     69  C   UNL     1     -12.973  -5.102  -6.181  1.00  0.00     0.002 A 
ATOM     70  C   UNL     1     -10.969  -6.455  -5.991  1.00  0.00     0.091 A 
ATOM     71  F   UNL     1      -9.990  -6.786  -3.835  1.00  0.00    -0.205 F 
ATOM     72  C   UNL     1     -11.988  -5.887  -6.774  1.00  0.00     0.022 A 
BRANCH  70  73
ATOM     73  S   UNL     1      -9.692  -7.365  -6.867  1.00  0.00     0.127 S 
ATOM     74  O   UNL     1     -10.438  -8.516  -7.369  1.00  0.00    -0.237 OA
ATOM     75  O   UNL     1      -9.286  -6.401  -7.889  1.00  0.00    -0.237 OA
ATOM     76  O   UNL     1      -8.669  -7.665  -5.875  1.00  0.00    -0.744 OA
ENDBRANCH  70  73
ENDBRANCH  42  66
BRANCH  54  77
ATOM     77  C   UNL     1     -15.891  -7.128   1.491  1.00  0.00     0.023 A 
ATOM     78  C   UNL     1     -15.684  -8.513   1.634  1.00  0.00     0.012 A 
ATOM     79  C   UNL     1     -17.183  -6.593   1.662  1.00  0.00     0.148 A 
ATOM     80  C   UNL     1     -16.749  -9.357   1.942  1.00  0.00     0.002 A 
ATOM     81  C   UNL     1     -18.234  -7.437   2.000  1.00  0.00     0.091 A 
ATOM     82  F   UNL     1     -17.352  -5.272   1.511  1.00  0.00    -0.205 F 
ATOM     83  C   UNL     1     -18.020  -8.819   2.137  1.00  0.00     0.022 A 
BRANCH  81  84
ATOM     84  S   UNL     1     -19.891  -6.833   2.343  1.00  0.00     0.127 S 
ATOM     85  O   UNL     1     -20.648  -7.383   1.220  1.00  0.00    -0.237 OA
ATOM     86  O   UNL     1     -20.183  -7.450   3.637  1.00  0.00    -0.237 OA
ATOM     87  O   UNL     1     -19.794  -5.380   2.372  1.00  0.00    -0.744 OA
ENDBRANCH  81  84
ENDBRANCH  54  77
ENDBRANCH  28  29
ENDBRANCH  21  23
ENDBRANCH  20  21
ENDBRANCH   1  20
TORSDOF 15
