REMARK SMILES O=C(OCCOC(=O)[C@@H]1[C@H](C(=O)NCc2ccncc2)[C@H]2C=C[C@@H]1O2)c1ccc(-c2c3nc(c(-c4cccc(S(=O)(=O)[O-])c4F)c4ccc([nH]4)c(-c4cccc(S(=O)(=O)[O-])c4F)c4nc(c(-c5cccc(S(=O)(=O)[O-])c5F)c5ccc2[nH]5)C=C4)C=C3)cc1
REMARK SMILES IDX 4 1 3 2 2 3 1 4 26 5 27 6 88 7 28 8 87 9 29 10 30 11 31 12
REMARK SMILES IDX 81 13 32 14 86 15 80 16 82 17 33 18 85 19 79 20 78 21 34 23
REMARK SMILES IDX 66 24 46 25 65 26 47 27 50 28 64 29 83 30 48 31 49 32 63 34
REMARK SMILES IDX 84 35 51 36 35 37 36 38 44 39 37 40 39 41 45 42 38 43 40 44
REMARK SMILES IDX 41 45 42 46 43 47 67 48 68 49 76 50 69 51 71 52 77 53 70 54
REMARK SMILES IDX 72 55 73 56 74 57 75 58 52 59 53 60 61 61 54 62 56 63 62 64
REMARK SMILES IDX 55 65 57 66 58 67 59 68 60 69 5 70 6 71 7 72 8 73 9 74 10 75
REMARK SMILES IDX 24 76 21 77 23 78 25 79 22 80 11 81 12 82 13 83 14 85 15 86
REMARK SMILES IDX 16 87 20 88 17 89 19 90 18 91
REMARK H PARENT 82 22 50 33 13 84
REMARK Flexibility Score: inf
ROOT
ATOM      1  C   UNL     1       3.073   0.783  -1.228  1.00  0.00     0.275 C 
ENDROOT
BRANCH   1   2
ATOM      2  O   UNL     1       2.123  -0.279  -1.456  1.00  0.00    -0.458 OA
BRANCH   2   3
ATOM      3  C   UNL     1       2.016  -1.539  -0.972  1.00  0.00     0.338 C 
ATOM      4  O   UNL     1       0.953  -2.128  -1.175  1.00  0.00    -0.246 OA
BRANCH   3   5
ATOM      5  C   UNL     1       3.062  -2.271  -0.174  1.00  0.00     0.060 A 
ATOM      6  C   UNL     1       4.374  -1.863   0.039  1.00  0.00     0.016 A 
ATOM      7  C   UNL     1       2.669  -3.470   0.456  1.00  0.00     0.016 A 
ATOM      8  C   UNL     1       5.217  -2.543   0.937  1.00  0.00     0.010 A 
ATOM      9  C   UNL     1       3.496  -4.123   1.391  1.00  0.00     0.010 A 
ATOM     10  C   UNL     1       4.776  -3.633   1.678  1.00  0.00    -0.014 A 
BRANCH  10  11
ATOM     11  C   UNL     1       5.712  -4.329   2.609  1.00  0.00     0.031 A 
ATOM     12  C   UNL     1       6.282  -5.628   2.162  1.00  0.00     0.074 A 
ATOM     13  C   UNL     1       6.166  -3.814   3.774  1.00  0.00     0.049 A 
ATOM     14  N   UNL     1       7.118  -6.401   2.792  1.00  0.00    -0.248 NA
ATOM     15  C   UNL     1       5.931  -6.068   0.803  1.00  0.00     0.031 C 
ATOM     16  C   UNL     1       5.929  -2.463   4.227  1.00  0.00     0.029 A 
ATOM     17  N   UNL     1       6.900  -4.347   4.811  1.00  0.00    -0.354 N 
ATOM     18  C   UNL     1       7.434  -7.397   1.892  1.00  0.00     0.074 A 
ATOM     19  C   UNL     1       6.640  -7.179   0.703  1.00  0.00     0.031 C 
ATOM     20  C   UNL     1       6.336  -2.300   5.495  1.00  0.00     0.029 A 
ATOM     21  C   UNL     1       6.918  -3.547   5.941  1.00  0.00     0.049 A 
ATOM     22  H   UNL     1       7.366  -5.213   4.754  1.00  0.00     0.167 HD
ATOM     23  C   UNL     1       8.359  -8.370   2.023  1.00  0.00     0.034 A 
ATOM     24  C   UNL     1       7.343  -3.781   7.198  1.00  0.00     0.034 A 
ATOM     25  C   UNL     1       9.122  -8.603   3.213  1.00  0.00     0.049 A 
ATOM     26  C   UNL     1       8.154  -5.021   7.414  1.00  0.00     0.074 A 
ATOM     27  C   UNL     1      10.029  -9.614   3.461  1.00  0.00     0.029 A 
ATOM     28  N   UNL     1       9.046  -7.836   4.367  1.00  0.00    -0.354 N 
ATOM     29  N   UNL     1       8.485  -5.931   6.532  1.00  0.00    -0.248 NA
ATOM     30  C   UNL     1       8.744  -5.219   8.743  1.00  0.00     0.031 C 
ATOM     31  C   UNL     1      10.472  -9.484   4.781  1.00  0.00     0.029 A 
ATOM     32  C   UNL     1       9.874  -8.366   5.341  1.00  0.00     0.049 A 
ATOM     33  H   UNL     1       8.486  -7.033   4.476  1.00  0.00     0.167 HD
ATOM     34  C   UNL     1       9.393  -6.758   7.169  1.00  0.00     0.074 A 
ATOM     35  C   UNL     1       9.550  -6.248   8.517  1.00  0.00     0.031 C 
ATOM     36  C   UNL     1      10.048  -7.832   6.668  1.00  0.00     0.034 A 
BRANCH  23  37
ATOM     37  C   UNL     1       8.549  -9.241   0.824  1.00  0.00     0.023 A 
ATOM     38  C   UNL     1       9.209  -8.731  -0.313  1.00  0.00     0.012 A 
ATOM     39  C   UNL     1       8.000 -10.532   0.799  1.00  0.00     0.148 A 
ATOM     40  C   UNL     1       9.281  -9.487  -1.480  1.00  0.00     0.002 A 
ATOM     41  C   UNL     1       8.115 -11.295  -0.351  1.00  0.00     0.091 A 
ATOM     42  F   UNL     1       7.345 -10.967   1.885  1.00  0.00    -0.205 F 
ATOM     43  C   UNL     1       8.740 -10.770  -1.496  1.00  0.00     0.022 A 
BRANCH  41  44
ATOM     44  S   UNL     1       7.489 -12.971  -0.458  1.00  0.00     0.127 S 
ATOM     45  O   UNL     1       6.489 -12.845  -1.518  1.00  0.00    -0.237 OA
ATOM     46  O   UNL     1       8.691 -13.714  -0.835  1.00  0.00    -0.237 OA
ATOM     47  O   UNL     1       6.955 -13.289   0.859  1.00  0.00    -0.744 OA
ENDBRANCH  41  44
ENDBRANCH  23  37
BRANCH  24  48
ATOM     48  C   UNL     1       7.086  -2.827   8.322  1.00  0.00     0.023 A 
ATOM     49  C   UNL     1       8.148  -2.107   8.904  1.00  0.00     0.012 A 
ATOM     50  C   UNL     1       5.793  -2.696   8.875  1.00  0.00     0.148 A 
ATOM     51  C   UNL     1       7.944  -1.331  10.049  1.00  0.00     0.002 A 
ATOM     52  C   UNL     1       5.591  -1.897   9.998  1.00  0.00     0.091 A 
ATOM     53  F   UNL     1       4.789  -3.381   8.310  1.00  0.00    -0.205 F 
ATOM     54  C   UNL     1       6.669  -1.228  10.598  1.00  0.00     0.022 A 
BRANCH  52  55
ATOM     55  S   UNL     1       3.971  -1.657  10.742  1.00  0.00     0.127 S 
ATOM     56  O   UNL     1       4.101  -2.406  11.989  1.00  0.00    -0.237 OA
ATOM     57  O   UNL     1       3.924  -0.203  10.899  1.00  0.00    -0.237 OA
ATOM     58  O   UNL     1       3.018  -2.189   9.778  1.00  0.00    -0.744 OA
ENDBRANCH  52  55
ENDBRANCH  24  48
BRANCH  36  59
ATOM     59  C   UNL     1      11.040  -8.507   7.570  1.00  0.00     0.023 A 
ATOM     60  C   UNL     1      10.595  -9.238   8.688  1.00  0.00     0.012 A 
ATOM     61  C   UNL     1      12.414  -8.460   7.269  1.00  0.00     0.148 A 
ATOM     62  C   UNL     1      11.510  -9.883   9.516  1.00  0.00     0.002 A 
ATOM     63  C   UNL     1      13.313  -9.158   8.061  1.00  0.00     0.091 A 
ATOM     64  F   UNL     1      12.815  -7.732   6.216  1.00  0.00    -0.205 F 
ATOM     65  C   UNL     1      12.865  -9.856   9.194  1.00  0.00     0.022 A 
BRANCH  63  66
ATOM     66  S   UNL     1      15.056  -9.275   7.653  1.00  0.00     0.127 S 
ATOM     67  O   UNL     1      15.660  -8.433   8.684  1.00  0.00    -0.237 OA
ATOM     68  O   UNL     1      15.312 -10.708   7.806  1.00  0.00    -0.237 OA
ATOM     69  O   UNL     1      15.184  -8.781   6.289  1.00  0.00    -0.744 OA
ENDBRANCH  63  66
ENDBRANCH  36  59
ENDBRANCH  10  11
ENDBRANCH   3   5
ENDBRANCH   2   3
ENDBRANCH   1   2
BRANCH   1  70
ATOM     70  C   UNL     1       2.816   1.551   0.062  1.00  0.00     0.274 C 
BRANCH  70  71
ATOM     71  O   UNL     1       2.688   0.682   1.194  1.00  0.00    -0.462 OA
BRANCH  71  72
ATOM     72  C   UNL     1       1.717   1.042   2.077  1.00  0.00     0.312 C 
ATOM     73  O   UNL     1       0.989   2.013   1.947  1.00  0.00    -0.252 OA
BRANCH  72  74
ATOM     74  C   UNL     1       1.612   0.136   3.268  1.00  0.00     0.147 C 
ATOM     75  C   UNL     1       2.638   0.372   4.393  1.00  0.00     0.128 C 
ATOM     76  C   UNL     1       1.825  -1.338   2.935  1.00  0.00     0.157 C 
ATOM     77  C   UNL     1       3.154  -1.037   4.620  1.00  0.00     0.155 C 
ATOM     78  C   UNL     1       1.302  -2.226   4.019  1.00  0.00     0.004 C 
ATOM     79  O   UNL     1       3.234  -1.454   3.233  1.00  0.00    -0.365 OA
ATOM     80  C   UNL     1       2.106  -2.020   5.070  1.00  0.00     0.004 C 
BRANCH  75  81
ATOM     81  C   UNL     1       3.689   1.484   4.221  1.00  0.00     0.227 C 
ATOM     82  O   UNL     1       3.467   2.552   4.818  1.00  0.00    -0.275 OA
ATOM     83  N   UNL     1       4.822   1.540   3.482  1.00  0.00    -0.352 N 
ATOM     84  H   UNL     1       5.240   2.428   3.549  1.00  0.00     0.163 HD
BRANCH  83  85
ATOM     85  C   UNL     1       5.602   0.664   2.613  1.00  0.00     0.151 C 
BRANCH  85  86
ATOM     86  C   UNL     1       6.207   1.327   1.376  1.00  0.00    -0.026 A 
ATOM     87  C   UNL     1       6.123   2.692   1.103  1.00  0.00     0.025 A 
ATOM     88  C   UNL     1       6.856   0.542   0.408  1.00  0.00     0.025 A 
ATOM     89  C   UNL     1       6.533   3.161  -0.143  1.00  0.00     0.111 A 
ATOM     90  C   UNL     1       7.196   1.085  -0.824  1.00  0.00     0.111 A 
ATOM     91  N   UNL     1       7.019   2.380  -1.131  1.00  0.00    -0.265 NA
ENDBRANCH  85  86
ENDBRANCH  83  85
ENDBRANCH  75  81
ENDBRANCH  72  74
ENDBRANCH  71  72
ENDBRANCH  70  71
ENDBRANCH   1  70
TORSDOF 17
