REMARK SMILES COc1ncnc(N2CCSC[C@@H]2CC(=O)OCCOC(=O)c2ccc(-c3c4nc(c(-c5cccc(S(=O)(=O)[O-])c5F)c5ccc([nH]5)c(-c5cccc(S(=O)(=O)[O-])c5F)c5nc(c(-c6cccc(S(=O)(=O)[O-])c6F)c6ccc3[nH]6)C=C5)C=C4)cc2)c1[N+](=O)[O-]
REMARK SMILES IDX 18 1 17 2 15 3 16 4 14 5 13 6 8 7 9 8 10 9 12 10 11 11 7 12
REMARK SMILES IDX 3 13 4 14 86 15 5 16 6 17 2 18 1 19 87 20 88 21 89 22 19 23
REMARK SMILES IDX 20 24 21 25 22 26 23 27 24 28 85 29 25 30 84 31 26 32 27 33
REMARK SMILES IDX 28 34 78 35 29 36 83 37 77 38 79 39 30 40 82 41 76 42 75 43
REMARK SMILES IDX 31 45 63 46 43 47 62 48 44 49 47 50 61 51 80 52 45 53 46 54
REMARK SMILES IDX 60 56 81 57 48 58 32 59 33 60 41 61 34 62 36 63 42 64 35 65
REMARK SMILES IDX 37 66 38 67 39 68 40 69 64 70 65 71 73 72 66 73 68 74 74 75
REMARK SMILES IDX 67 76 69 77 70 78 71 79 72 80 49 81 50 82 58 83 51 84 53 85
REMARK SMILES IDX 59 86 52 87 54 88 55 89 56 90 57 91
REMARK H PARENT 79 44 47 55
REMARK Flexibility Score: inf
ROOT
ATOM      1  C   UNL     1       6.282   0.306   1.202  1.00  0.00     0.274 C 
ENDROOT
BRANCH   1   2
ATOM      2  O   UNL     1       5.379   1.004   2.089  1.00  0.00    -0.462 OA
BRANCH   2   3
ATOM      3  C   UNL     1       5.604   0.852   3.417  1.00  0.00     0.308 C 
ATOM      4  O   UNL     1       6.569   0.264   3.893  1.00  0.00    -0.252 OA
BRANCH   3   5
ATOM      5  C   UNL     1       4.425   1.246   4.267  1.00  0.00     0.148 C 
BRANCH   5   6
ATOM      6  C   UNL     1       3.783   2.638   4.235  1.00  0.00     0.105 C 
ATOM      7  N   UNL     1       3.402   3.101   2.891  1.00  0.00    -0.345 N 
ATOM      8  C   UNL     1       4.242   4.019   2.104  1.00  0.00     0.129 C 
ATOM      9  C   UNL     1       4.748   5.226   2.890  1.00  0.00     0.091 C 
ATOM     10  C   UNL     1       4.440   3.708   5.125  1.00  0.00     0.095 C 
ATOM     11  S   UNL     1       5.698   4.742   4.351  1.00  0.00    -0.158 SA
BRANCH   7  12
ATOM     12  C   UNL     1       2.101   2.895   2.476  1.00  0.00     0.215 A 
ATOM     13  C   UNL     1       0.419   2.053   1.046  1.00  0.00     0.299 A 
ATOM     14  N   UNL     1      -0.563   2.536   1.830  1.00  0.00    -0.196 NA
ATOM     15  C   UNL     1       1.753   2.241   1.313  1.00  0.00     0.372 A 
ATOM     16  C   UNL     1      -0.146   3.183   2.925  1.00  0.00     0.228 A 
ATOM     17  N   UNL     1       1.132   3.362   3.295  1.00  0.00    -0.212 NA
BRANCH  13  18
ATOM     18  O   UNL     1      -0.001   1.414  -0.093  1.00  0.00    -0.476 OA
ATOM     19  C   UNL     1      -0.321   0.054   0.200  1.00  0.00     0.280 C 
ENDBRANCH  13  18
BRANCH  15  20
ATOM     20  N   UNL     1       2.722   1.631   0.467  1.00  0.00     0.072 N 
ATOM     21  O   UNL     1       2.914   0.415   0.623  1.00  0.00    -0.258 OA
ATOM     22  O   UNL     1       3.253   2.338  -0.399  1.00  0.00    -0.258 OA
ENDBRANCH  15  20
ENDBRANCH   7  12
ENDBRANCH   5   6
ENDBRANCH   3   5
ENDBRANCH   2   3
ENDBRANCH   1   2
BRANCH   1  23
ATOM     23  C   UNL     1       7.345   1.236   0.634  1.00  0.00     0.275 C 
BRANCH  23  24
ATOM     24  O   UNL     1       8.166   1.722   1.706  1.00  0.00    -0.458 OA
BRANCH  24  25
ATOM     25  C   UNL     1       8.088   3.050   1.936  1.00  0.00     0.338 C 
ATOM     26  O   UNL     1       7.484   3.882   1.282  1.00  0.00    -0.246 OA
BRANCH  25  27
ATOM     27  C   UNL     1       8.881   3.389   3.124  1.00  0.00     0.060 A 
ATOM     28  C   UNL     1       8.510   2.920   4.386  1.00  0.00     0.016 A 
ATOM     29  C   UNL     1       9.931   4.292   2.978  1.00  0.00     0.016 A 
ATOM     30  C   UNL     1       9.148   3.408   5.521  1.00  0.00     0.010 A 
ATOM     31  C   UNL     1      10.619   4.723   4.108  1.00  0.00     0.010 A 
ATOM     32  C   UNL     1      10.220   4.298   5.385  1.00  0.00    -0.014 A 
BRANCH  32  33
ATOM     33  C   UNL     1      10.992   4.723   6.569  1.00  0.00     0.031 A 
ATOM     34  C   UNL     1      10.981   6.153   7.016  1.00  0.00     0.074 A 
ATOM     35  C   UNL     1      11.768   3.804   7.173  1.00  0.00     0.049 A 
ATOM     36  N   UNL     1      11.714   6.730   7.931  1.00  0.00    -0.248 NA
ATOM     37  C   UNL     1      10.036   7.057   6.341  1.00  0.00     0.031 C 
ATOM     38  C   UNL     1      11.853   2.393   6.784  1.00  0.00     0.029 A 
ATOM     39  N   UNL     1      12.654   3.919   8.209  1.00  0.00    -0.354 N 
ATOM     40  C   UNL     1      11.358   8.073   7.910  1.00  0.00     0.074 A 
ATOM     41  C   UNL     1      10.335   8.224   6.897  1.00  0.00     0.031 C 
ATOM     42  C   UNL     1      12.752   1.776   7.563  1.00  0.00     0.029 A 
ATOM     43  C   UNL     1      13.341   2.756   8.466  1.00  0.00     0.049 A 
ATOM     44  H   UNL     1      12.786   4.751   8.719  1.00  0.00     0.167 HD
ATOM     45  C   UNL     1      11.844   9.079   8.676  1.00  0.00     0.034 A 
ATOM     46  C   UNL     1      14.357   2.515   9.314  1.00  0.00     0.034 A 
ATOM     47  C   UNL     1      12.838   8.893   9.701  1.00  0.00     0.049 A 
ATOM     48  C   UNL     1      14.850   3.643  10.171  1.00  0.00     0.074 A 
ATOM     49  C   UNL     1      13.371   9.830  10.567  1.00  0.00     0.029 A 
ATOM     50  N   UNL     1      13.451   7.682   9.996  1.00  0.00    -0.354 N 
ATOM     51  N   UNL     1      14.438   4.888  10.207  1.00  0.00    -0.248 NA
ATOM     52  C   UNL     1      15.924   3.332  11.121  1.00  0.00     0.031 C 
ATOM     53  C   UNL     1      14.311   9.187  11.381  1.00  0.00     0.029 A 
ATOM     54  C   UNL     1      14.357   7.847  11.030  1.00  0.00     0.049 A 
ATOM     55  H   UNL     1      13.268   6.831   9.537  1.00  0.00     0.167 HD
ATOM     56  C   UNL     1      15.189   5.508  11.195  1.00  0.00     0.074 A 
ATOM     57  C   UNL     1      16.060   4.491  11.753  1.00  0.00     0.031 C 
ATOM     58  C   UNL     1      15.178   6.804  11.592  1.00  0.00     0.034 A 
BRANCH  45  59
ATOM     59  C   UNL     1      11.284  10.462   8.464  1.00  0.00     0.023 A 
ATOM     60  C   UNL     1       9.995  10.770   8.945  1.00  0.00     0.012 A 
ATOM     61  C   UNL     1      12.049  11.473   7.849  1.00  0.00     0.148 A 
ATOM     62  C   UNL     1       9.469  12.053   8.800  1.00  0.00     0.002 A 
ATOM     63  C   UNL     1      11.531  12.759   7.738  1.00  0.00     0.091 A 
ATOM     64  F   UNL     1      13.263  11.157   7.375  1.00  0.00    -0.205 F 
ATOM     65  C   UNL     1      10.240  13.049   8.206  1.00  0.00     0.022 A 
BRANCH  63  66
ATOM     66  S   UNL     1      12.474  14.125   7.048  1.00  0.00     0.127 S 
ATOM     67  O   UNL     1      11.841  14.292   5.741  1.00  0.00    -0.237 OA
ATOM     68  O   UNL     1      12.200  15.204   7.998  1.00  0.00    -0.237 OA
ATOM     69  O   UNL     1      13.861  13.681   7.023  1.00  0.00    -0.744 OA
ENDBRANCH  63  66
ENDBRANCH  45  59
BRANCH  46  70
ATOM     70  C   UNL     1      14.912   1.138   9.415  1.00  0.00     0.023 A 
ATOM     71  C   UNL     1      14.638   0.371  10.562  1.00  0.00     0.012 A 
ATOM     72  C   UNL     1      15.623   0.552   8.349  1.00  0.00     0.148 A 
ATOM     73  C   UNL     1      15.072  -0.952  10.652  1.00  0.00     0.002 A 
ATOM     74  C   UNL     1      16.003  -0.784   8.421  1.00  0.00     0.091 A 
ATOM     75  F   UNL     1      15.891   1.302   7.271  1.00  0.00    -0.205 F 
ATOM     76  C   UNL     1      15.740  -1.534   9.577  1.00  0.00     0.022 A 
BRANCH  74  77
ATOM     77  S   UNL     1      16.725  -1.642   7.017  1.00  0.00     0.127 S 
ATOM     78  O   UNL     1      18.144  -1.638   7.360  1.00  0.00    -0.237 OA
ATOM     79  O   UNL     1      16.079  -2.954   7.087  1.00  0.00    -0.237 OA
ATOM     80  O   UNL     1      16.345  -0.856   5.850  1.00  0.00    -0.744 OA
ENDBRANCH  74  77
ENDBRANCH  46  70
BRANCH  58  81
ATOM     81  C   UNL     1      16.133   7.186  12.688  1.00  0.00     0.023 A 
ATOM     82  C   UNL     1      17.504   7.323  12.395  1.00  0.00     0.012 A 
ATOM     83  C   UNL     1      15.669   7.457  13.989  1.00  0.00     0.148 A 
ATOM     84  C   UNL     1      18.405   7.696  13.389  1.00  0.00     0.002 A 
ATOM     85  C   UNL     1      16.569   7.868  14.966  1.00  0.00     0.091 A 
ATOM     86  F   UNL     1      14.365   7.295  14.253  1.00  0.00    -0.205 F 
ATOM     87  C   UNL     1      17.937   7.979  14.671  1.00  0.00     0.022 A 
BRANCH  85  88
ATOM     88  S   UNL     1      16.033   8.330  16.616  1.00  0.00     0.127 S 
ATOM     89  O   UNL     1      16.358   7.130  17.384  1.00  0.00    -0.237 OA
ATOM     90  O   UNL     1      16.878   9.489  16.910  1.00  0.00    -0.237 OA
ATOM     91  O   UNL     1      14.614   8.639  16.498  1.00  0.00    -0.744 OA
ENDBRANCH  85  88
ENDBRANCH  58  81
ENDBRANCH  32  33
ENDBRANCH  25  27
ENDBRANCH  24  25
ENDBRANCH  23  24
ENDBRANCH   1  23
TORSDOF 18
