REMARK SMILES O=C(OCCOC(=O)c1ccccc1Nc1nc(Cl)nc(Nc2ccc(N3CCOCC3=O)cc2)n1)c1ccc(-c2c3nc(c(-c4cccc(S(=O)(=O)[O-])c4F)c4ccc([nH]4)c(-c4cccc(S(=O)(=O)[O-])c4F)c4nc(c(-c5cccc(S(=O)(=O)[O-])c5F)c5ccc2[nH]5)C=C4)C=C3)cc1
REMARK SMILES IDX 5 1 4 2 3 3 2 4 1 5 37 6 38 7 99 8 39 9 98 10 40 11 41 12
REMARK SMILES IDX 42 13 92 14 43 15 97 16 91 17 93 18 44 19 96 20 90 21 89 22
REMARK SMILES IDX 45 24 77 25 57 26 76 27 58 28 61 29 75 30 94 31 59 32 60 33
REMARK SMILES IDX 74 35 95 36 62 37 46 38 47 39 55 40 48 41 50 42 56 43 49 44
REMARK SMILES IDX 51 45 52 46 53 47 54 48 78 49 79 50 87 51 80 52 82 53 88 54
REMARK SMILES IDX 81 55 83 56 84 57 85 58 86 59 63 60 64 61 72 62 65 63 67 64
REMARK SMILES IDX 73 65 66 66 68 67 69 68 70 69 71 70 6 71 7 72 8 73 9 74
REMARK SMILES IDX 10 75 14 76 11 77 13 78 12 79 15 80 16 82 17 83 36 84 18 85
REMARK SMILES IDX 21 86 19 87 20 88 22 89 23 91 24 92 35 93 25 94 34 95 26 96
REMARK SMILES IDX 27 97 28 98 32 99 29 100 31 101 33 102 30 103
REMARK H PARENT 93 23 61 34 15 81 22 90
REMARK Flexibility Score: inf
ROOT
ATOM      1  C   UNL     1       4.136   0.216   1.994  1.00  0.00     0.275 C 
ENDROOT
BRANCH   1   2
ATOM      2  C   UNL     1       4.374   1.179   0.829  1.00  0.00     0.275 C 
BRANCH   2   3
ATOM      3  O   UNL     1       3.278   1.252  -0.099  1.00  0.00    -0.458 OA
BRANCH   3   4
ATOM      4  C   UNL     1       2.990   0.530  -1.206  1.00  0.00     0.338 C 
ATOM      5  O   UNL     1       2.046   0.909  -1.901  1.00  0.00    -0.246 OA
BRANCH   4   6
ATOM      6  C   UNL     1       3.682  -0.741  -1.623  1.00  0.00     0.060 A 
ATOM      7  C   UNL     1       4.888  -1.240  -1.124  1.00  0.00     0.016 A 
ATOM      8  C   UNL     1       3.025  -1.512  -2.607  1.00  0.00     0.016 A 
ATOM      9  C   UNL     1       5.405  -2.466  -1.558  1.00  0.00     0.010 A 
ATOM     10  C   UNL     1       3.536  -2.740  -3.046  1.00  0.00     0.010 A 
ATOM     11  C   UNL     1       4.736  -3.222  -2.522  1.00  0.00    -0.014 A 
BRANCH  11  12
ATOM     12  C   UNL     1       5.345  -4.485  -2.998  1.00  0.00     0.031 A 
ATOM     13  C   UNL     1       6.177  -4.469  -4.230  1.00  0.00     0.074 A 
ATOM     14  C   UNL     1       5.191  -5.622  -2.296  1.00  0.00     0.049 A 
ATOM     15  N   UNL     1       6.897  -5.431  -4.732  1.00  0.00    -0.248 NA
ATOM     16  C   UNL     1       6.207  -3.213  -4.995  1.00  0.00     0.031 C 
ATOM     17  C   UNL     1       4.391  -5.705  -1.090  1.00  0.00     0.029 A 
ATOM     18  N   UNL     1       5.676  -6.894  -2.449  1.00  0.00    -0.354 N 
ATOM     19  C   UNL     1       7.431  -4.918  -5.901  1.00  0.00     0.074 A 
ATOM     20  C   UNL     1       6.979  -3.549  -6.019  1.00  0.00     0.031 C 
ATOM     21  C   UNL     1       4.453  -6.942  -0.580  1.00  0.00     0.029 A 
ATOM     22  C   UNL     1       5.292  -7.756  -1.441  1.00  0.00     0.049 A 
ATOM     23  H   UNL     1       6.243  -7.168  -3.205  1.00  0.00     0.167 HD
ATOM     24  C   UNL     1       8.209  -5.556  -6.802  1.00  0.00     0.034 A 
ATOM     25  C   UNL     1       5.600  -9.050  -1.223  1.00  0.00     0.034 A 
ATOM     26  C   UNL     1       8.618  -6.926  -6.673  1.00  0.00     0.049 A 
ATOM     27  C   UNL     1       6.517  -9.706  -2.215  1.00  0.00     0.074 A 
ATOM     28  C   UNL     1       9.398  -7.673  -7.536  1.00  0.00     0.029 A 
ATOM     29  N   UNL     1       8.255  -7.767  -5.630  1.00  0.00    -0.354 N 
ATOM     30  N   UNL     1       7.112  -9.170  -3.254  1.00  0.00    -0.248 NA
ATOM     31  C   UNL     1       6.823 -11.127  -2.008  1.00  0.00     0.031 C 
ATOM     32  C   UNL     1       9.468  -8.977  -7.037  1.00  0.00     0.029 A 
ATOM     33  C   UNL     1       8.769  -9.034  -5.841  1.00  0.00     0.049 A 
ATOM     34  H   UNL     1       7.711  -7.501  -4.853  1.00  0.00     0.167 HD
ATOM     35  C   UNL     1       7.862 -10.184  -3.827  1.00  0.00     0.074 A 
ATOM     36  C   UNL     1       7.694 -11.352  -2.983  1.00  0.00     0.031 C 
ATOM     37  C   UNL     1       8.594 -10.166  -4.967  1.00  0.00     0.034 A 
BRANCH  24  38
ATOM     38  C   UNL     1       8.597  -4.786  -8.028  1.00  0.00     0.023 A 
ATOM     39  C   UNL     1       9.576  -3.777  -7.957  1.00  0.00     0.012 A 
ATOM     40  C   UNL     1       7.980  -5.075  -9.260  1.00  0.00     0.148 A 
ATOM     41  C   UNL     1       9.919  -3.047  -9.094  1.00  0.00     0.002 A 
ATOM     42  C   UNL     1       8.357  -4.374 -10.396  1.00  0.00     0.091 A 
ATOM     43  F   UNL     1       7.029  -6.019  -9.290  1.00  0.00    -0.205 F 
ATOM     44  C   UNL     1       9.317  -3.352 -10.313  1.00  0.00     0.022 A 
BRANCH  42  45
ATOM     45  S   UNL     1       7.683  -4.731 -12.020  1.00  0.00     0.127 S 
ATOM     46  O   UNL     1       7.041  -3.461 -12.359  1.00  0.00    -0.237 OA
ATOM     47  O   UNL     1       8.891  -5.029 -12.787  1.00  0.00    -0.237 OA
ATOM     48  O   UNL     1       6.772  -5.853 -11.844  1.00  0.00    -0.744 OA
ENDBRANCH  42  45
ENDBRANCH  24  38
BRANCH  25  49
ATOM     49  C   UNL     1       5.110  -9.775  -0.009  1.00  0.00     0.023 A 
ATOM     50  C   UNL     1       6.043 -10.246   0.938  1.00  0.00     0.012 A 
ATOM     51  C   UNL     1       3.739  -9.994   0.233  1.00  0.00     0.148 A 
ATOM     52  C   UNL     1       5.628 -10.959   2.064  1.00  0.00     0.002 A 
ATOM     53  C   UNL     1       3.328 -10.643   1.395  1.00  0.00     0.091 A 
ATOM     54  F   UNL     1       2.851  -9.561  -0.674  1.00  0.00    -0.205 F 
ATOM     55  C   UNL     1       4.271 -11.150   2.299  1.00  0.00     0.022 A 
BRANCH  53  56
ATOM     56  S   UNL     1       1.595 -10.753   1.855  1.00  0.00     0.127 S 
ATOM     57  O   UNL     1       1.250 -12.103   1.420  1.00  0.00    -0.237 OA
ATOM     58  O   UNL     1       1.648 -10.569   3.308  1.00  0.00    -0.237 OA
ATOM     59  O   UNL     1       0.946  -9.658   1.145  1.00  0.00    -0.744 OA
ENDBRANCH  53  56
ENDBRANCH  25  49
BRANCH  37  60
ATOM     60  C   UNL     1       9.240 -11.459  -5.375  1.00  0.00     0.023 A 
ATOM     61  C   UNL     1       8.439 -12.511  -5.864  1.00  0.00     0.012 A 
ATOM     62  C   UNL     1      10.639 -11.603  -5.345  1.00  0.00     0.148 A 
ATOM     63  C   UNL     1       9.021 -13.704  -6.286  1.00  0.00     0.002 A 
ATOM     64  C   UNL     1      11.215 -12.774  -5.818  1.00  0.00     0.091 A 
ATOM     65  F   UNL     1      11.375 -10.594  -4.859  1.00  0.00    -0.205 F 
ATOM     66  C   UNL     1      10.408 -13.830  -6.275  1.00  0.00     0.022 A 
BRANCH  64  67
ATOM     67  S   UNL     1      12.992 -12.989  -5.939  1.00  0.00     0.127 S 
ATOM     68  O   UNL     1      13.240 -13.996  -4.909  1.00  0.00    -0.237 OA
ATOM     69  O   UNL     1      13.150 -13.467  -7.312  1.00  0.00    -0.237 OA
ATOM     70  O   UNL     1      13.575 -11.679  -5.683  1.00  0.00    -0.744 OA
ENDBRANCH  64  67
ENDBRANCH  37  60
ENDBRANCH  11  12
ENDBRANCH   4   6
ENDBRANCH   3   4
ENDBRANCH   2   3
ENDBRANCH   1   2
BRANCH   1  71
ATOM     71  O   UNL     1       3.645  -1.060   1.566  1.00  0.00    -0.458 OA
BRANCH  71  72
ATOM     72  C   UNL     1       2.285  -1.181   1.558  1.00  0.00     0.340 C 
ATOM     73  O   UNL     1       1.487  -0.330   1.886  1.00  0.00    -0.246 OA
BRANCH  72  74
ATOM     74  C   UNL     1       1.901  -2.494   0.989  1.00  0.00     0.083 A 
ATOM     75  C   UNL     1       0.867  -2.487   0.039  1.00  0.00     0.018 A 
ATOM     76  C   UNL     1       2.536  -3.695   1.365  1.00  0.00     0.055 A 
ATOM     77  C   UNL     1       0.434  -3.683  -0.525  1.00  0.00     0.001 A 
ATOM     78  C   UNL     1       1.949  -4.891   0.930  1.00  0.00     0.027 A 
ATOM     79  C   UNL     1       0.947  -4.886  -0.049  1.00  0.00     0.002 A 
BRANCH  76  80
ATOM     80  N   UNL     1       3.733  -3.668   2.123  1.00  0.00    -0.323 N 
ATOM     81  H   UNL     1       3.912  -2.833   2.613  1.00  0.00     0.170 HD
BRANCH  80  82
ATOM     82  C   UNL     1       4.690  -4.675   2.265  1.00  0.00     0.233 A 
ATOM     83  N   UNL     1       5.819  -4.508   1.595  1.00  0.00    -0.182 NA
ATOM     84  N   UNL     1       4.474  -5.662   3.123  1.00  0.00    -0.176 NA
ATOM     85  C   UNL     1       6.679  -5.502   1.762  1.00  0.00     0.228 A 
ATOM     86  C   UNL     1       5.472  -6.522   3.310  1.00  0.00     0.233 A 
ATOM     87  Cl  UNL     1       8.090  -5.443   0.801  1.00  0.00    -0.041 Cl
ATOM     88  N   UNL     1       6.603  -6.498   2.626  1.00  0.00    -0.182 NA
BRANCH  86  89
ATOM     89  N   UNL     1       5.242  -7.466   4.303  1.00  0.00    -0.324 N 
ATOM     90  H   UNL     1       4.327  -7.437   4.663  1.00  0.00     0.170 HD
BRANCH  89  91
ATOM     91  C   UNL     1       6.038  -8.446   4.897  1.00  0.00     0.041 A 
ATOM     92  C   UNL     1       5.395  -9.504   5.552  1.00  0.00     0.028 A 
ATOM     93  C   UNL     1       7.433  -8.477   4.820  1.00  0.00     0.028 A 
ATOM     94  C   UNL     1       6.117 -10.581   6.071  1.00  0.00     0.028 A 
ATOM     95  C   UNL     1       8.165  -9.536   5.375  1.00  0.00     0.028 A 
ATOM     96  C   UNL     1       7.509 -10.612   5.977  1.00  0.00     0.044 A 
BRANCH  96  97
ATOM     97  N   UNL     1       8.229 -11.762   6.409  1.00  0.00    -0.308 N 
ATOM     98  C   UNL     1       7.802 -13.046   5.836  1.00  0.00     0.154 C 
ATOM     99  C   UNL     1       9.465 -11.649   7.051  1.00  0.00     0.253 C 
ATOM    100  C   UNL     1       8.388 -14.250   6.559  1.00  0.00     0.183 C 
ATOM    101  C   UNL     1      10.172 -12.982   7.356  1.00  0.00     0.260 C 
ATOM    102  O   UNL     1       9.947 -10.596   7.474  1.00  0.00    -0.272 OA
ATOM    103  O   UNL     1       9.807 -14.132   6.611  1.00  0.00    -0.370 OA
ENDBRANCH  96  97
ENDBRANCH  89  91
ENDBRANCH  86  89
ENDBRANCH  80  82
ENDBRANCH  76  80
ENDBRANCH  72  74
ENDBRANCH  71  72
ENDBRANCH   1  71
TORSDOF 19
