REMARK SMILES O=C(OCCOC(=O)c1ccc(-c2c3nc(c(-c4cccc(S(=O)(=O)[O-])c4F)c4ccc([nH]4)c(-c4cccc(S(=O)(=O)[O-])c4F)c4nc(c(-c5cccc(S(=O)(=O)[O-])c5F)c5ccc2[nH]5)C=C4)C=C3)cc1)C1=Cc2cc(S(F)(F)(F)(F)F)ccc2O[C@H]1C(F)(F)F
REMARK SMILES IDX 5 1 4 2 3 3 2 4 1 5 72 6 73 7 87 8 74 9 86 10 75 11 85 12
REMARK SMILES IDX 76 13 84 14 83 15 88 16 89 17 90 18 91 19 77 20 78 21 79 22
REMARK SMILES IDX 80 23 81 24 82 25 6 26 7 27 8 28 9 29 10 30 71 31 11 32
REMARK SMILES IDX 70 33 12 34 13 35 14 36 64 37 15 38 69 39 63 40 65 41 16 42
REMARK SMILES IDX 68 43 62 44 61 45 17 47 49 48 29 49 48 50 30 51 33 52 47 53
REMARK SMILES IDX 66 54 31 55 32 56 46 58 67 59 34 60 18 61 19 62 27 63 20 64
REMARK SMILES IDX 22 65 28 66 21 67 23 68 24 69 25 70 26 71 50 72 51 73 59 74
REMARK SMILES IDX 52 75 54 76 60 77 53 78 55 79 56 80 57 81 58 82 35 83 36 84
REMARK SMILES IDX 44 85 37 86 39 87 45 88 38 89 40 90 41 91 42 92 43 93
REMARK H PARENT 65 46 33 57
REMARK Flexibility Score: inf
ROOT
ATOM      1  C   UNL     1       4.833  -1.407   0.069  1.00  0.00     0.275 C 
ENDROOT
BRANCH   1   2
ATOM      2  C   UNL     1       4.326  -0.479   1.161  1.00  0.00     0.275 C 
BRANCH   2   3
ATOM      3  O   UNL     1       2.906  -0.479   1.161  1.00  0.00    -0.459 OA
BRANCH   3   4
ATOM      4  C   UNL     1       2.196  -0.066   0.003  1.00  0.00     0.338 C 
ATOM      5  O   UNL     1       0.925  -0.066   0.003  1.00  0.00    -0.246 OA
BRANCH   4   6
ATOM      6  C   UNL     1       2.956   0.376  -1.237  1.00  0.00     0.087 C 
ATOM      7  C   UNL     1       4.316   0.376  -1.237  1.00  0.00     0.027 C 
ATOM      8  C   UNL     1       2.196   0.819  -2.477  1.00  0.00     0.316 C 
ATOM      9  C   UNL     1       5.076  -0.066   0.003  1.00  0.00     0.019 A 
ATOM     10  O   UNL     1       3.467  -1.783   0.335  1.00  0.00    -0.475 OA
ATOM     11  C   UNL     1       6.196   0.653   0.388  1.00  0.00     0.036 A 
ATOM     12  C   UNL     1       4.704  -1.162   0.653  1.00  0.00     0.128 A 
ATOM     13  C   UNL     1       7.029  -0.032   1.304  1.00  0.00     0.107 A 
ATOM     14  C   UNL     1       5.504  -1.701   1.632  1.00  0.00     0.048 A 
ATOM     15  C   UNL     1       6.655  -1.075   2.022  1.00  0.00     0.028 A 
BRANCH   8  16
ATOM     16  C   UNL     1       0.702   0.725  -2.215  1.00  0.00     0.430 C 
ATOM     17  F   UNL     1       0.413   1.301  -1.051  1.00  0.00    -0.167 F 
ATOM     18  F   UNL     1       0.048   1.348  -3.192  1.00  0.00    -0.167 F 
ATOM     19  F   UNL     1       0.334  -0.552  -2.181  1.00  0.00    -0.167 F 
ENDBRANCH   8  16
BRANCH  13  20
ATOM     20  S   UNL     1       8.727   0.563   1.504  1.00  0.00     0.310 S 
ATOM     21  F   UNL     1       8.605   0.564   3.086  1.00  0.00    -0.094 F 
ATOM     22  F   UNL     1       8.174   2.038   1.529  1.00  0.00    -0.094 F 
ATOM     23  F   UNL     1      10.184   1.076   1.677  1.00  0.00    -0.094 F 
ATOM     24  F   UNL     1       9.246  -0.924   1.618  1.00  0.00    -0.094 F 
ATOM     25  F   UNL     1       7.242   0.024   1.442  1.00  0.00    -0.094 F 
ENDBRANCH  13  20
ENDBRANCH   4   6
ENDBRANCH   3   4
ENDBRANCH   2   3
ENDBRANCH   1   2
BRANCH   1  26
ATOM     26  O   UNL     1       4.359  -0.958  -1.192  1.00  0.00    -0.458 OA
BRANCH  26  27
ATOM     27  C   UNL     1       2.963  -0.870  -1.436  1.00  0.00     0.338 C 
ATOM     28  O   UNL     1       2.137  -1.195  -0.526  1.00  0.00    -0.246 OA
BRANCH  27  29
ATOM     29  C   UNL     1       2.457  -0.389  -2.786  1.00  0.00     0.060 A 
ATOM     30  C   UNL     1       1.496   0.609  -2.791  1.00  0.00     0.016 A 
ATOM     31  C   UNL     1       2.987  -0.840  -3.917  1.00  0.00     0.016 A 
ATOM     32  C   UNL     1       0.947   0.870  -4.069  1.00  0.00     0.010 A 
ATOM     33  C   UNL     1       2.489  -0.439  -5.132  1.00  0.00     0.010 A 
ATOM     34  C   UNL     1       1.498   0.501  -5.211  1.00  0.00    -0.014 A 
BRANCH  34  35
ATOM     35  C   UNL     1       1.057   1.090  -6.540  1.00  0.00     0.031 A 
ATOM     36  C   UNL     1       0.549   0.244  -7.527  1.00  0.00     0.074 A 
ATOM     37  C   UNL     1       1.314   2.437  -6.733  1.00  0.00     0.049 A 
ATOM     38  N   UNL     1       0.199   0.565  -8.774  1.00  0.00    -0.248 NA
ATOM     39  C   UNL     1       0.307  -1.194  -7.336  1.00  0.00     0.031 C 
ATOM     40  C   UNL     1       1.818   3.299  -5.740  1.00  0.00     0.029 A 
ATOM     41  N   UNL     1       1.139   3.175  -7.882  1.00  0.00    -0.354 N 
ATOM     42  C   UNL     1      -0.263  -0.510  -9.415  1.00  0.00     0.074 A 
ATOM     43  C   UNL     1      -0.194  -1.659  -8.501  1.00  0.00     0.031 C 
ATOM     44  C   UNL     1       1.956   4.536  -6.286  1.00  0.00     0.029 A 
ATOM     45  C   UNL     1       1.539   4.468  -7.629  1.00  0.00     0.049 A 
ATOM     46  H   UNL     1       0.787   2.837  -8.738  1.00  0.00     0.167 HD
ATOM     47  C   UNL     1      -0.740  -0.578 -10.725  1.00  0.00     0.034 A 
ATOM     48  C   UNL     1       1.550   5.541  -8.506  1.00  0.00     0.034 A 
ATOM     49  C   UNL     1      -0.770   0.505 -11.589  1.00  0.00     0.049 A 
ATOM     50  C   UNL     1       1.127   5.460  -9.835  1.00  0.00     0.074 A 
ATOM     51  C   UNL     1      -1.255   0.456 -12.910  1.00  0.00     0.029 A 
ATOM     52  N   UNL     1      -0.346   1.792 -11.343  1.00  0.00    -0.354 N 
ATOM     53  N   UNL     1       0.628   4.394 -10.463  1.00  0.00    -0.248 NA
ATOM     54  C   UNL     1       1.164   6.581 -10.783  1.00  0.00     0.031 C 
ATOM     55  C   UNL     1      -1.117   1.693 -13.456  1.00  0.00     0.029 A 
ATOM     56  C   UNL     1      -0.543   2.536 -12.486  1.00  0.00     0.049 A 
ATOM     57  H   UNL     1       0.032   2.123 -10.497  1.00  0.00     0.167 HD
ATOM     58  C   UNL     1       0.318   4.706 -11.723  1.00  0.00     0.074 A 
ATOM     59  C   UNL     1       0.665   6.116 -11.949  1.00  0.00     0.031 C 
ATOM     60  C   UNL     1      -0.245   3.874 -12.692  1.00  0.00     0.034 A 
BRANCH  47  61
ATOM     61  C   UNL     1      -1.256  -1.915 -11.232  1.00  0.00     0.023 A 
ATOM     62  C   UNL     1      -2.349  -2.561 -10.679  1.00  0.00     0.012 A 
ATOM     63  C   UNL     1      -0.623  -2.412 -12.288  1.00  0.00     0.148 A 
ATOM     64  C   UNL     1      -2.524  -3.888 -11.139  1.00  0.00     0.002 A 
ATOM     65  C   UNL     1      -0.939  -3.660 -12.769  1.00  0.00     0.091 A 
ATOM     66  F   UNL     1       0.324  -1.696 -12.887  1.00  0.00    -0.205 F 
ATOM     67  C   UNL     1      -1.969  -4.381 -12.232  1.00  0.00     0.022 A 
BRANCH  65  68
ATOM     68  S   UNL     1       0.024  -4.361 -14.132  1.00  0.00     0.127 S 
ATOM     69  O   UNL     1       0.676  -5.668 -13.678  1.00  0.00    -0.237 OA
ATOM     70  O   UNL     1      -0.901  -4.638 -15.320  1.00  0.00    -0.237 OA
ATOM     71  O   UNL     1       1.238  -3.252 -14.602  1.00  0.00    -0.744 OA
ENDBRANCH  65  68
ENDBRANCH  47  61
BRANCH  48  72
ATOM     72  C   UNL     1       2.051   6.881  -7.993  1.00  0.00     0.023 A 
ATOM     73  C   UNL     1       1.270   8.022  -8.078  1.00  0.00     0.012 A 
ATOM     74  C   UNL     1       3.300   6.932  -7.546  1.00  0.00     0.148 A 
ATOM     75  C   UNL     1       1.999   9.227  -7.935  1.00  0.00     0.002 A 
ATOM     76  C   UNL     1       3.905   8.141  -7.298  1.00  0.00     0.091 A 
ATOM     77  F   UNL     1       3.971   5.804  -7.335  1.00  0.00    -0.205 F 
ATOM     78  C   UNL     1       3.211   9.313  -7.418  1.00  0.00     0.022 A 
BRANCH  76  79
ATOM     79  S   UNL     1       5.646   8.182  -6.806  1.00  0.00     0.127 S 
ATOM     80  O   UNL     1       6.447   8.991  -7.830  1.00  0.00    -0.237 OA
ATOM     81  O   UNL     1       5.772   8.836  -5.428  1.00  0.00    -0.237 OA
ATOM     82  O   UNL     1       6.257   6.586  -6.737  1.00  0.00    -0.744 OA
ENDBRANCH  76  79
ENDBRANCH  48  72
BRANCH  60  83
ATOM     83  C   UNL     1      -0.548   4.471 -14.057  1.00  0.00     0.023 A 
ATOM     84  C   UNL     1       0.536   4.878 -14.816  1.00  0.00     0.012 A 
ATOM     85  C   UNL     1      -1.781   4.491 -14.549  1.00  0.00     0.148 A 
ATOM     86  C   UNL     1       0.180   5.569 -15.998  1.00  0.00     0.002 A 
ATOM     87  C   UNL     1      -2.037   5.062 -15.772  1.00  0.00     0.091 A 
ATOM     88  F   UNL     1      -2.779   3.954 -13.851  1.00  0.00    -0.205 F 
ATOM     89  C   UNL     1      -1.019   5.539 -16.552  1.00  0.00     0.022 A 
BRANCH  87  90
ATOM     90  S   UNL     1      -3.744   5.184 -16.361  1.00  0.00     0.127 S 
ATOM     91  O   UNL     1      -4.101   6.655 -16.587  1.00  0.00    -0.237 OA
ATOM     92  O   UNL     1      -3.886   4.416 -17.677  1.00  0.00    -0.237 OA
ATOM     93  O   UNL     1      -4.799   4.515 -15.194  1.00  0.00    -0.744 OA
ENDBRANCH  87  90
ENDBRANCH  60  83
ENDBRANCH  34  35
ENDBRANCH  27  29
ENDBRANCH  26  27
ENDBRANCH   1  26
TORSDOF 16
