REMARK SMILES C[C@H]1[C@H](C(=O)OCCOC(=O)c2ccc(-c3c4nc(c(-c5cccc(S(=O)(=O)[O-])c5F)c5ccc([nH]5)c(-c5cccc(S(=O)(=O)[O-])c5F)c5nc(c(-c6cccc(S(=O)(=O)[O-])c6F)c6ccc3[nH]6)C=C5)C=C4)cc2)CCN1S(=O)(=O)C(F)(F)F
REMARK SMILES IDX 8 1 7 2 6 3 4 4 5 5 3 6 1 7 2 8 77 9 75 10 76 11 78 12 79 13
REMARK SMILES IDX 80 14 81 15 82 16 83 17 84 18 9 19 10 20 11 21 12 22 13 23
REMARK SMILES IDX 74 24 14 25 73 26 15 27 16 28 17 29 67 30 18 31 72 32 66 33
REMARK SMILES IDX 68 34 19 35 71 36 65 37 64 38 20 40 52 41 32 42 51 43 33 44
REMARK SMILES IDX 36 45 50 46 69 47 34 48 35 49 49 51 70 52 37 53 21 54 22 55
REMARK SMILES IDX 30 56 23 57 25 58 31 59 24 60 26 61 27 62 28 63 29 64 53 65
REMARK SMILES IDX 54 66 62 67 55 68 57 69 63 70 56 71 58 72 59 73 60 74 61 75
REMARK SMILES IDX 38 76 39 77 47 78 40 79 42 80 48 81 41 82 43 83 44 84 45 85
REMARK SMILES IDX 46 86
REMARK H PARENT 68 39 36 50
REMARK Flexibility Score: inf
ROOT
ATOM      1  C   UNL     1       0.955   3.533   3.599  1.00  0.00     0.275 C 
ENDROOT
BRANCH   1   2
ATOM      2  C   UNL     1      -0.440   2.949   3.353  1.00  0.00     0.274 C 
BRANCH   2   3
ATOM      3  O   UNL     1      -0.388   1.861   2.410  1.00  0.00    -0.462 OA
BRANCH   3   4
ATOM      4  C   UNL     1      -0.793   2.125   1.145  1.00  0.00     0.310 C 
ATOM      5  O   UNL     1      -1.287   3.184   0.777  1.00  0.00    -0.252 OA
BRANCH   4   6
ATOM      6  C   UNL     1      -0.613   0.959   0.194  1.00  0.00     0.118 C 
ATOM      7  C   UNL     1       1.607  -0.151  -0.362  1.00  0.00     0.027 C 
ATOM      8  C   UNL     1       0.425  -0.097   0.612  1.00  0.00     0.084 C 
ATOM      9  N   UNL     1      -0.281  -1.425   0.523  1.00  0.00    -0.190 NA
ATOM     10  C   UNL     1      -1.928   0.211   0.028  1.00  0.00     0.034 C 
ATOM     11  C   UNL     1      -1.496  -1.200  -0.303  1.00  0.00     0.104 C 
BRANCH   9  12
ATOM     12  S   UNL     1      -0.576  -2.217   2.024  1.00  0.00     0.314 S 
ATOM     13  O   UNL     1      -1.267  -1.249   2.861  1.00  0.00    -0.203 OA
ATOM     14  O   UNL     1      -1.257  -3.458   1.687  1.00  0.00    -0.203 OA
BRANCH  12  15
ATOM     15  C   UNL     1       1.119  -2.599   2.717  1.00  0.00     0.511 C 
ATOM     16  F   UNL     1       1.876  -3.329   1.849  1.00  0.00    -0.155 F 
ATOM     17  F   UNL     1       1.830  -1.474   3.010  1.00  0.00    -0.155 F 
ATOM     18  F   UNL     1       1.040  -3.320   3.873  1.00  0.00    -0.155 F 
ENDBRANCH  12  15
ENDBRANCH   9  12
ENDBRANCH   4   6
ENDBRANCH   3   4
ENDBRANCH   2   3
ENDBRANCH   1   2
BRANCH   1  19
ATOM     19  O   UNL     1       1.454   4.224   2.440  1.00  0.00    -0.458 OA
BRANCH  19  20
ATOM     20  C   UNL     1       2.146   3.454   1.569  1.00  0.00     0.338 C 
ATOM     21  O   UNL     1       2.404   2.267   1.676  1.00  0.00    -0.246 OA
BRANCH  20  22
ATOM     22  C   UNL     1       2.439   4.226   0.355  1.00  0.00     0.060 A 
ATOM     23  C   UNL     1       1.795   3.867  -0.832  1.00  0.00     0.016 A 
ATOM     24  C   UNL     1       3.400   5.235   0.368  1.00  0.00     0.016 A 
ATOM     25  C   UNL     1       2.121   4.500  -2.026  1.00  0.00     0.010 A 
ATOM     26  C   UNL     1       3.715   5.883  -0.828  1.00  0.00     0.010 A 
ATOM     27  C   UNL     1       3.088   5.510  -2.031  1.00  0.00    -0.014 A 
BRANCH  27  28
ATOM     28  C   UNL     1       3.477   6.171  -3.297  1.00  0.00     0.031 A 
ATOM     29  C   UNL     1       4.838   5.914  -3.873  1.00  0.00     0.074 A 
ATOM     30  C   UNL     1       2.633   7.039  -3.883  1.00  0.00     0.049 A 
ATOM     31  N   UNL     1       5.452   6.534  -4.843  1.00  0.00    -0.248 NA
ATOM     32  C   UNL     1       5.614   4.818  -3.268  1.00  0.00     0.031 C 
ATOM     33  C   UNL     1       1.276   7.339  -3.422  1.00  0.00     0.029 A 
ATOM     34  N   UNL     1       2.808   7.859  -4.968  1.00  0.00    -0.354 N 
ATOM     35  C   UNL     1       6.708   5.947  -4.930  1.00  0.00     0.074 A 
ATOM     36  C   UNL     1       6.763   4.908  -3.924  1.00  0.00     0.031 C 
ATOM     37  C   UNL     1       0.755   8.304  -4.197  1.00  0.00     0.029 A 
ATOM     38  C   UNL     1       1.759   8.725  -5.170  1.00  0.00     0.049 A 
ATOM     39  H   UNL     1       3.606   7.831  -5.545  1.00  0.00     0.167 HD
ATOM     40  C   UNL     1       7.720   6.249  -5.776  1.00  0.00     0.034 A 
ATOM     41  C   UNL     1       1.641   9.771  -6.010  1.00  0.00     0.034 A 
ATOM     42  C   UNL     1       7.635   7.258  -6.796  1.00  0.00     0.049 A 
ATOM     43  C   UNL     1       2.787  10.097  -6.929  1.00  0.00     0.074 A 
ATOM     44  C   UNL     1       8.589   7.620  -7.730  1.00  0.00     0.029 A 
ATOM     45  N   UNL     1       6.529   8.066  -7.017  1.00  0.00    -0.354 N 
ATOM     46  N   UNL     1       3.942   9.489  -7.051  1.00  0.00    -0.248 NA
ATOM     47  C   UNL     1       2.609  11.237  -7.840  1.00  0.00     0.031 C 
ATOM     48  C   UNL     1       8.064   8.656  -8.508  1.00  0.00     0.029 A 
ATOM     49  C   UNL     1       6.777   8.927  -8.070  1.00  0.00     0.049 A 
ATOM     50  H   UNL     1       5.692   8.031  -6.500  1.00  0.00     0.167 HD
ATOM     51  C   UNL     1       4.614  10.147  -8.074  1.00  0.00     0.074 A 
ATOM     52  C   UNL     1       3.732  11.195  -8.546  1.00  0.00     0.031 C 
ATOM     53  C   UNL     1       5.854   9.914  -8.570  1.00  0.00     0.034 A 
BRANCH  40  54
ATOM     54  C   UNL     1       8.999   5.469  -5.648  1.00  0.00     0.023 A 
ATOM     55  C   UNL     1       9.060   4.145  -6.125  1.00  0.00     0.012 A 
ATOM     56  C   UNL     1      10.156   6.066  -5.109  1.00  0.00     0.148 A 
ATOM     57  C   UNL     1      10.247   3.417  -6.045  1.00  0.00     0.002 A 
ATOM     58  C   UNL     1      11.345   5.347  -5.068  1.00  0.00     0.091 A 
ATOM     59  F   UNL     1      10.070   7.317  -4.636  1.00  0.00    -0.205 F 
ATOM     60  C   UNL     1      11.391   4.021  -5.527  1.00  0.00     0.022 A 
BRANCH  58  61
ATOM     61  S   UNL     1      12.885   6.064  -4.482  1.00  0.00     0.127 S 
ATOM     62  O   UNL     1      13.028   5.427  -3.174  1.00  0.00    -0.237 OA
ATOM     63  O   UNL     1      13.843   5.609  -5.490  1.00  0.00    -0.237 OA
ATOM     64  O   UNL     1      12.671   7.505  -4.460  1.00  0.00    -0.744 OA
ENDBRANCH  58  61
ENDBRANCH  40  54
BRANCH  41  65
ATOM     65  C   UNL     1       0.382  10.568  -6.029  1.00  0.00     0.023 A 
ATOM     66  C   UNL     1      -0.475  10.477  -7.142  1.00  0.00     0.012 A 
ATOM     67  C   UNL     1       0.006  11.374  -4.936  1.00  0.00     0.148 A 
ATOM     68  C   UNL     1      -1.674  11.191  -7.175  1.00  0.00     0.002 A 
ATOM     69  C   UNL     1      -1.215  12.039  -4.952  1.00  0.00     0.091 A 
ATOM     70  F   UNL     1       0.844  11.464  -3.893  1.00  0.00    -0.205 F 
ATOM     71  C   UNL     1      -2.050  11.960  -6.077  1.00  0.00     0.022 A 
BRANCH  69  72
ATOM     72  S   UNL     1      -1.835  12.941  -3.527  1.00  0.00     0.127 S 
ATOM     73  O   UNL     1      -1.645  14.327  -3.945  1.00  0.00    -0.237 OA
ATOM     74  O   UNL     1      -3.229  12.501  -3.469  1.00  0.00    -0.237 OA
ATOM     75  O   UNL     1      -1.022  12.498  -2.403  1.00  0.00    -0.744 OA
ENDBRANCH  69  72
ENDBRANCH  41  65
BRANCH  53  76
ATOM     76  C   UNL     1       6.324  10.765  -9.717  1.00  0.00     0.023 A 
ATOM     77  C   UNL     1       6.766  12.080  -9.476  1.00  0.00     0.012 A 
ATOM     78  C   UNL     1       6.438  10.217 -11.010  1.00  0.00     0.148 A 
ATOM     79  C   UNL     1       7.304  12.843 -10.511  1.00  0.00     0.002 A 
ATOM     80  C   UNL     1       7.015  10.968 -12.026  1.00  0.00     0.091 A 
ATOM     81  F   UNL     1       5.993   8.969 -11.216  1.00  0.00    -0.205 F 
ATOM     82  C   UNL     1       7.442  12.284 -11.780  1.00  0.00     0.022 A 
BRANCH  80  83
ATOM     83  S   UNL     1       7.320  10.299 -13.665  1.00  0.00     0.127 S 
ATOM     84  O   UNL     1       6.344  11.031 -14.471  1.00  0.00    -0.237 OA
ATOM     85  O   UNL     1       8.713  10.678 -13.899  1.00  0.00    -0.237 OA
ATOM     86  O   UNL     1       7.092   8.864 -13.563  1.00  0.00    -0.744 OA
ENDBRANCH  80  83
ENDBRANCH  53  76
ENDBRANCH  27  28
ENDBRANCH  20  22
ENDBRANCH  19  20
ENDBRANCH   1  19
TORSDOF 16
