REMARK SMILES C/C(=N\Nc1nc(-c2ccc(Cl)cc2)cs1)c1nnn(-c2ccc(C(=O)OCCOC(=O)c3ccc(-c4c5nc(c(-c6cccc(S(=O)(=O)[O-])c6F)c6ccc([nH]6)c(-c6cccc(S(=O)(=O)[O-])c6F)c6nc(c(-c7cccc(S(=O)(=O)[O-])c7F)c7ccc4[nH]7)C=C6)C=C5)cc3)cc2)c1C
REMARK SMILES IDX 28 1 27 2 25 3 26 4 24 5 21 6 22 7 97 8 23 9 96 10 20 11
REMARK SMILES IDX 17 12 18 13 98 14 19 15 99 16 2 17 1 18 3 19 4 20 5 22 6 23
REMARK SMILES IDX 16 24 7 25 15 26 8 27 9 28 14 29 10 30 13 31 11 32 12 33
REMARK SMILES IDX 29 34 30 35 31 36 32 37 33 38 34 39 95 40 35 41 94 42 36 43
REMARK SMILES IDX 37 44 38 45 88 46 39 47 93 48 87 49 89 50 40 51 92 52 86 53
REMARK SMILES IDX 85 54 41 56 73 57 53 58 72 59 54 60 57 61 71 62 90 63 55 64
REMARK SMILES IDX 56 65 70 67 91 68 58 69 42 70 43 71 51 72 44 73 46 74 52 75
REMARK SMILES IDX 45 76 47 77 48 78 49 79 50 80 74 81 75 82 83 83 76 84 78 85
REMARK SMILES IDX 84 86 77 87 79 88 80 89 81 90 82 91 59 92 60 93 68 94 61 95
REMARK SMILES IDX 63 96 69 97 62 98 64 99 65 100 66 101 67 102
REMARK H PARENT 4 21 89 55 57 66
REMARK Flexibility Score: inf
ROOT
ATOM      1  C   UNL     1       9.323   2.824   6.727  1.00  0.00     0.275 C 
ENDROOT
BRANCH   1   2
ATOM      2  O   UNL     1       8.075   2.811   6.013  1.00  0.00    -0.458 OA
BRANCH   2   3
ATOM      3  C   UNL     1       7.210   1.810   6.321  1.00  0.00     0.338 C 
ATOM      4  O   UNL     1       7.463   0.804   6.970  1.00  0.00    -0.246 OA
BRANCH   3   5
ATOM      5  C   UNL     1       5.856   2.127   5.799  1.00  0.00     0.060 A 
ATOM      6  C   UNL     1       3.369   2.451   4.611  1.00  0.00     0.067 A 
ATOM      7  C   UNL     1       3.481   1.601   5.715  1.00  0.00     0.029 A 
ATOM      8  C   UNL     1       4.442   3.255   4.211  1.00  0.00     0.029 A 
ATOM      9  C   UNL     1       4.741   1.428   6.297  1.00  0.00     0.018 A 
ATOM     10  C   UNL     1       5.685   3.092   4.804  1.00  0.00     0.018 A 
BRANCH   6  11
ATOM     11  N   UNL     1       2.272   2.315   3.736  1.00  0.00    -0.217 N 
ATOM     12  C   UNL     1       1.057   1.747   2.017  1.00  0.00     0.132 A 
ATOM     13  N   UNL     1       0.232   1.942   3.089  1.00  0.00    -0.128 NA
ATOM     14  C   UNL     1       2.369   1.981   2.393  1.00  0.00     0.071 A 
ATOM     15  N   UNL     1       0.993   2.196   4.150  1.00  0.00    -0.061 NA
ATOM     16  C   UNL     1       3.643   1.716   1.670  1.00  0.00     0.069 C 
BRANCH  12  17
ATOM     17  C   UNL     1       0.649   1.160   0.750  1.00  0.00     0.087 C 
ATOM     18  C   UNL     1       1.296  -0.172   0.442  1.00  0.00     0.071 C 
ATOM     19  N   UNL     1      -0.138   1.881  -0.000  1.00  0.00    -0.176 NA
BRANCH  19  20
ATOM     20  N   UNL     1      -0.471   1.542  -1.292  1.00  0.00    -0.252 N 
ATOM     21  H   UNL     1      -0.768   2.295  -1.853  1.00  0.00     0.193 HD
BRANCH  20  22
ATOM     22  C   UNL     1      -0.456   0.338  -1.918  1.00  0.00     0.203 A 
ATOM     23  N   UNL     1      -0.708  -0.822  -1.361  1.00  0.00    -0.219 NA
ATOM     24  S   UNL     1       0.045   0.218  -3.570  1.00  0.00    -0.103 S 
ATOM     25  C   UNL     1      -0.182  -1.847  -2.119  1.00  0.00     0.084 A 
ATOM     26  C   UNL     1       0.282  -1.474  -3.362  1.00  0.00     0.097 A 
BRANCH  25  27
ATOM     27  C   UNL     1      -0.065  -3.171  -1.536  1.00  0.00     0.001 A 
ATOM     28  C   UNL     1      -1.174  -3.733  -0.892  1.00  0.00     0.012 A 
ATOM     29  C   UNL     1       1.171  -3.831  -1.483  1.00  0.00     0.012 A 
ATOM     30  C   UNL     1      -1.061  -4.955  -0.225  1.00  0.00     0.021 A 
ATOM     31  C   UNL     1       1.286  -5.049  -0.805  1.00  0.00     0.021 A 
ATOM     32  C   UNL     1       0.169  -5.608  -0.185  1.00  0.00     0.041 A 
ATOM     33  Cl  UNL     1       0.315  -7.104   0.650  1.00  0.00    -0.084 Cl
ENDBRANCH  25  27
ENDBRANCH  20  22
ENDBRANCH  19  20
ENDBRANCH  12  17
ENDBRANCH   6  11
ENDBRANCH   3   5
ENDBRANCH   2   3
ENDBRANCH   1   2
BRANCH   1  34
ATOM     34  C   UNL     1       9.192   3.596   8.030  1.00  0.00     0.275 C 
BRANCH  34  35
ATOM     35  O   UNL     1       8.387   2.871   8.951  1.00  0.00    -0.458 OA
BRANCH  35  36
ATOM     36  C   UNL     1       7.079   3.210   8.958  1.00  0.00     0.338 C 
ATOM     37  O   UNL     1       6.483   3.877   8.127  1.00  0.00    -0.246 OA
BRANCH  36  38
ATOM     38  C   UNL     1       6.509   2.856  10.255  1.00  0.00     0.060 A 
ATOM     39  C   UNL     1       5.146   3.115  10.431  1.00  0.00     0.016 A 
ATOM     40  C   UNL     1       7.386   2.658  11.330  1.00  0.00     0.016 A 
ATOM     41  C   UNL     1       4.707   3.407  11.700  1.00  0.00     0.010 A 
ATOM     42  C   UNL     1       6.952   2.974  12.588  1.00  0.00     0.010 A 
ATOM     43  C   UNL     1       5.645   3.428  12.736  1.00  0.00    -0.014 A 
BRANCH  43  44
ATOM     44  C   UNL     1       5.206   3.843  14.045  1.00  0.00     0.031 A 
ATOM     45  C   UNL     1       4.380   2.811  14.704  1.00  0.00     0.074 A 
ATOM     46  C   UNL     1       5.661   4.977  14.610  1.00  0.00     0.049 A 
ATOM     47  N   UNL     1       3.129   2.877  15.015  1.00  0.00    -0.248 NA
ATOM     48  C   UNL     1       4.966   1.466  14.839  1.00  0.00     0.031 C 
ATOM     49  C   UNL     1       6.712   5.871  14.110  1.00  0.00     0.029 A 
ATOM     50  N   UNL     1       5.392   5.478  15.842  1.00  0.00    -0.354 N 
ATOM     51  C   UNL     1       2.855   1.661  15.631  1.00  0.00     0.074 A 
ATOM     52  C   UNL     1       3.916   0.765  15.262  1.00  0.00     0.031 C 
ATOM     53  C   UNL     1       7.169   6.627  15.133  1.00  0.00     0.029 A 
ATOM     54  C   UNL     1       6.364   6.355  16.311  1.00  0.00     0.049 A 
ATOM     55  H   UNL     1       4.585   5.242  16.355  1.00  0.00     0.167 HD
ATOM     56  C   UNL     1       1.975   1.589  16.664  1.00  0.00     0.034 A 
ATOM     57  C   UNL     1       6.547   6.727  17.603  1.00  0.00     0.034 A 
ATOM     58  C   UNL     1       1.099   2.734  16.688  1.00  0.00     0.049 A 
ATOM     59  C   UNL     1       5.291   6.420  18.330  1.00  0.00     0.074 A 
ATOM     60  C   UNL     1       0.219   3.308  15.791  1.00  0.00     0.029 A 
ATOM     61  N   UNL     1       1.362   3.698  17.631  1.00  0.00    -0.354 N 
ATOM     62  N   UNL     1       4.159   7.024  18.099  1.00  0.00    -0.248 NA
ATOM     63  C   UNL     1       5.186   5.131  18.995  1.00  0.00     0.031 C 
ATOM     64  C   UNL     1       0.364   4.713  15.981  1.00  0.00     0.029 A 
ATOM     65  C   UNL     1       1.276   4.919  17.019  1.00  0.00     0.049 A 
ATOM     66  H   UNL     1       1.574   3.538  18.579  1.00  0.00     0.167 HD
ATOM     67  C   UNL     1       3.208   6.013  18.157  1.00  0.00     0.074 A 
ATOM     68  C   UNL     1       3.881   4.899  18.825  1.00  0.00     0.031 C 
ATOM     69  C   UNL     1       2.076   6.065  17.394  1.00  0.00     0.034 A 
BRANCH  56  70
ATOM     70  C   UNL     1       2.188   0.720  17.884  1.00  0.00     0.023 A 
ATOM     71  C   UNL     1       1.129   0.657  18.814  1.00  0.00     0.012 A 
ATOM     72  C   UNL     1       3.440   0.208  18.307  1.00  0.00     0.148 A 
ATOM     73  C   UNL     1       1.322   0.174  20.112  1.00  0.00     0.002 A 
ATOM     74  C   UNL     1       3.605  -0.348  19.568  1.00  0.00     0.091 A 
ATOM     75  F   UNL     1       4.531   0.375  17.557  1.00  0.00    -0.205 F 
ATOM     76  C   UNL     1       2.559  -0.335  20.489  1.00  0.00     0.022 A 
BRANCH  74  77
ATOM     77  S   UNL     1       5.177  -1.055  20.079  1.00  0.00     0.127 S 
ATOM     78  O   UNL     1       5.682  -0.022  20.978  1.00  0.00    -0.237 OA
ATOM     79  O   UNL     1       4.749  -2.293  20.732  1.00  0.00    -0.237 OA
ATOM     80  O   UNL     1       5.931  -1.263  18.849  1.00  0.00    -0.744 OA
ENDBRANCH  74  77
ENDBRANCH  56  70
BRANCH  57  81
ATOM     81  C   UNL     1       7.810   7.036  18.313  1.00  0.00     0.023 A 
ATOM     82  C   UNL     1       7.774   7.766  19.517  1.00  0.00     0.012 A 
ATOM     83  C   UNL     1       9.020   6.395  17.960  1.00  0.00     0.148 A 
ATOM     84  C   UNL     1       8.896   7.834  20.354  1.00  0.00     0.002 A 
ATOM     85  C   UNL     1      10.136   6.477  18.787  1.00  0.00     0.091 A 
ATOM     86  F   UNL     1       9.050   5.630  16.862  1.00  0.00    -0.205 F 
ATOM     87  C   UNL     1      10.074   7.186  19.992  1.00  0.00     0.022 A 
BRANCH  85  88
ATOM     88  S   UNL     1      11.687   5.655  18.391  1.00  0.00     0.127 S 
ATOM     89  O   UNL     1      12.656   6.737  18.569  1.00  0.00    -0.237 OA
ATOM     90  O   UNL     1      11.744   4.609  19.408  1.00  0.00    -0.237 OA
ATOM     91  O   UNL     1      11.554   5.193  17.015  1.00  0.00    -0.744 OA
ENDBRANCH  85  88
ENDBRANCH  57  81
BRANCH  69  92
ATOM     92  C   UNL     1       1.772   7.356  16.670  1.00  0.00     0.023 A 
ATOM     93  C   UNL     1       2.608   7.864  15.652  1.00  0.00     0.012 A 
ATOM     94  C   UNL     1       0.533   7.976  16.899  1.00  0.00     0.148 A 
ATOM     95  C   UNL     1       2.229   8.978  14.899  1.00  0.00     0.002 A 
ATOM     96  C   UNL     1       0.139   9.056  16.119  1.00  0.00     0.091 A 
ATOM     97  F   UNL     1      -0.256   7.475  17.861  1.00  0.00    -0.205 F 
ATOM     98  C   UNL     1       0.988   9.567  15.124  1.00  0.00     0.022 A 
BRANCH  96  99
ATOM     99  S   UNL     1      -1.493   9.783  16.276  1.00  0.00     0.127 S 
ATOM    100  O   UNL     1      -1.200  11.050  16.942  1.00  0.00    -0.237 OA
ATOM    101  O   UNL     1      -1.916   9.909  14.880  1.00  0.00    -0.237 OA
ATOM    102  O   UNL     1      -2.283   8.835  17.053  1.00  0.00    -0.744 OA
ENDBRANCH  96  99
ENDBRANCH  69  92
ENDBRANCH  43  44
ENDBRANCH  36  38
ENDBRANCH  35  36
ENDBRANCH  34  35
ENDBRANCH   1  34
TORSDOF 19
