REMARK SMILES C[C@H]1N=N[C@H](S/C(=C/c2ccc(-c3cccc(Cl)c3)o2)C(=O)OCCOC(=O)c2ccc(-c3c4nc(c(-c5cccc(S(=O)(=O)[O-])c5F)c5ccc([nH]5)c(-c5cccc(S(=O)(=O)[O-])c5F)c5nc(c(-c6cccc(S(=O)(=O)[O-])c6F)c6ccc3[nH]6)C=C5)C=C4)cc2)[NH2+]1
REMARK SMILES IDX 25 1 24 2 23 3 21 4 22 5 7 6 8 7 6 8 5 9 1 10 2 11 3 12
REMARK SMILES IDX 92 13 4 14 9 17 10 18 20 19 11 20 12 21 13 22 14 23 19 24
REMARK SMILES IDX 15 25 17 26 16 27 18 28 26 29 27 30 28 31 29 32 30 33 91 34
REMARK SMILES IDX 31 35 90 36 32 37 33 38 34 39 84 40 35 41 89 42 83 43 85 44
REMARK SMILES IDX 36 45 88 46 82 47 81 48 37 50 69 51 49 52 68 53 50 54 53 55
REMARK SMILES IDX 67 56 86 57 51 58 52 59 66 61 87 62 54 63 38 64 39 65 47 66
REMARK SMILES IDX 40 67 42 68 48 69 41 70 43 71 44 72 45 73 46 74 70 75 71 76
REMARK SMILES IDX 79 77 72 78 74 79 80 80 73 81 75 82 76 83 77 84 78 85 55 86
REMARK SMILES IDX 56 87 64 88 57 89 59 90 65 91 58 92 60 93 61 94 62 95 63 96
REMARK H PARENT 92 15 92 16 85 49 53 60
REMARK Flexibility Score: inf
ROOT
ATOM      1  C   UNL     1      -5.426   2.987   5.694  1.00  0.00     0.275 C 
ENDROOT
BRANCH   1   2
ATOM      2  C   UNL     1      -5.690   3.760   4.402  1.00  0.00     0.275 C 
BRANCH   2   3
ATOM      3  O   UNL     1      -4.849   3.259   3.345  1.00  0.00    -0.458 OA
BRANCH   3   4
ATOM      4  C   UNL     1      -4.393   4.181   2.454  1.00  0.00     0.345 C 
ATOM      5  O   UNL     1      -4.582   5.387   2.508  1.00  0.00    -0.246 OA
BRANCH   4   6
ATOM      6  C   UNL     1      -3.670   3.498   1.333  1.00  0.00     0.104 C 
ATOM      7  C   UNL     1      -4.315   2.618   0.545  1.00  0.00     0.070 C 
BRANCH   6   8
ATOM      8  S   UNL     1      -2.035   4.056   1.125  1.00  0.00    -0.028 SA
BRANCH   8   9
ATOM      9  C   UNL     1      -1.224   2.961  -0.072  1.00  0.00     0.393 C 
ATOM     10  C   UNL     1       0.852   0.144   0.293  1.00  0.00     0.106 C 
ATOM     11  C   UNL     1       0.268   1.481   0.737  1.00  0.00     0.324 C 
ATOM     12  N   UNL     1       0.979   2.553   0.027  1.00  0.00    -0.126 NA
ATOM     13  N   UNL     1      -1.158   1.579   0.405  1.00  0.00    -0.293 N 
ATOM     14  N   UNL     1       0.149   3.370  -0.437  1.00  0.00    -0.115 NA
ATOM     15  H   UNL     1      -1.747   1.435   1.226  1.00  0.00     0.350 HD
ATOM     16  H   UNL     1      -1.490   0.881  -0.261  1.00  0.00     0.350 HD
ENDBRANCH   8   9
ENDBRANCH   6   8
BRANCH   7  17
ATOM     17  C   UNL     1      -5.718   2.373   0.616  1.00  0.00     0.128 A 
ATOM     18  C   UNL     1      -6.772   3.270   0.771  1.00  0.00     0.051 A 
ATOM     19  O   UNL     1      -6.269   1.119   0.456  1.00  0.00    -0.457 OA
ATOM     20  C   UNL     1      -7.978   2.541   0.740  1.00  0.00     0.051 A 
ATOM     21  C   UNL     1      -7.624   1.228   0.537  1.00  0.00     0.134 A 
BRANCH  21  22
ATOM     22  C   UNL     1      -8.392   0.010   0.352  1.00  0.00     0.019 A 
ATOM     23  C   UNL     1      -9.565   0.043  -0.419  1.00  0.00     0.012 A 
ATOM     24  C   UNL     1      -8.002  -1.196   0.946  1.00  0.00     0.032 A 
ATOM     25  C   UNL     1     -10.335  -1.107  -0.599  1.00  0.00     0.002 A 
ATOM     26  C   UNL     1      -8.783  -2.340   0.774  1.00  0.00     0.041 A 
ATOM     27  C   UNL     1      -9.945  -2.300   0.003  1.00  0.00     0.020 A 
ATOM     28  Cl  UNL     1      -8.320  -3.816   1.528  1.00  0.00    -0.084 Cl
ENDBRANCH  21  22
ENDBRANCH   7  17
ENDBRANCH   4   6
ENDBRANCH   3   4
ENDBRANCH   2   3
ENDBRANCH   1   2
BRANCH   1  29
ATOM     29  O   UNL     1      -4.086   3.260   6.136  1.00  0.00    -0.458 OA
BRANCH  29  30
ATOM     30  C   UNL     1      -3.177   2.314   5.814  1.00  0.00     0.338 C 
ATOM     31  O   UNL     1      -3.386   1.192   5.374  1.00  0.00    -0.246 OA
BRANCH  30  32
ATOM     32  C   UNL     1      -1.842   2.913   5.891  1.00  0.00     0.060 A 
ATOM     33  C   UNL     1      -1.261   3.328   4.693  1.00  0.00     0.016 A 
ATOM     34  C   UNL     1      -1.144   3.008   7.092  1.00  0.00     0.016 A 
ATOM     35  C   UNL     1       0.040   3.818   4.676  1.00  0.00     0.010 A 
ATOM     36  C   UNL     1       0.161   3.511   7.078  1.00  0.00     0.010 A 
ATOM     37  C   UNL     1       0.771   3.895   5.868  1.00  0.00    -0.014 A 
BRANCH  37  38
ATOM     38  C   UNL     1       2.203   4.286   5.829  1.00  0.00     0.031 A 
ATOM     39  C   UNL     1       3.261   3.253   6.104  1.00  0.00     0.074 A 
ATOM     40  C   UNL     1       2.556   5.551   5.535  1.00  0.00     0.049 A 
ATOM     41  N   UNL     1       4.557   3.400   6.197  1.00  0.00    -0.248 NA
ATOM     42  C   UNL     1       2.798   1.870   6.311  1.00  0.00     0.031 C 
ATOM     43  C   UNL     1       1.626   6.639   5.231  1.00  0.00     0.029 A 
ATOM     44  N   UNL     1       3.795   6.137   5.452  1.00  0.00    -0.354 N 
ATOM     45  C   UNL     1       5.059   2.147   6.525  1.00  0.00     0.074 A 
ATOM     46  C   UNL     1       3.928   1.248   6.613  1.00  0.00     0.031 C 
ATOM     47  C   UNL     1       2.327   7.761   4.996  1.00  0.00     0.029 A 
ATOM     48  C   UNL     1       3.750   7.482   5.170  1.00  0.00     0.049 A 
ATOM     49  H   UNL     1       4.636   5.642   5.583  1.00  0.00     0.167 HD
ATOM     50  C   UNL     1       6.346   1.773   6.720  1.00  0.00     0.034 A 
ATOM     51  C   UNL     1       4.742   8.390   5.078  1.00  0.00     0.034 A 
ATOM     52  C   UNL     1       7.473   2.653   6.571  1.00  0.00     0.049 A 
ATOM     53  C   UNL     1       6.165   7.942   5.277  1.00  0.00     0.074 A 
ATOM     54  C   UNL     1       8.818   2.360   6.716  1.00  0.00     0.029 A 
ATOM     55  N   UNL     1       7.391   3.994   6.232  1.00  0.00    -0.354 N 
ATOM     56  N   UNL     1       6.627   6.739   5.519  1.00  0.00    -0.248 NA
ATOM     57  C   UNL     1       7.208   8.974   5.170  1.00  0.00     0.031 C 
ATOM     58  C   UNL     1       9.549   3.527   6.467  1.00  0.00     0.029 A 
ATOM     59  C   UNL     1       8.659   4.544   6.159  1.00  0.00     0.049 A 
ATOM     60  H   UNL     1       6.553   4.484   6.067  1.00  0.00     0.167 HD
ATOM     61  C   UNL     1       8.011   6.864   5.571  1.00  0.00     0.074 A 
ATOM     62  C   UNL     1       8.314   8.255   5.305  1.00  0.00     0.031 C 
ATOM     63  C   UNL     1       8.945   5.919   5.839  1.00  0.00     0.034 A 
BRANCH  50  64
ATOM     64  C   UNL     1       6.605   0.336   7.082  1.00  0.00     0.023 A 
ATOM     65  C   UNL     1       6.515  -0.659   6.088  1.00  0.00     0.012 A 
ATOM     66  C   UNL     1       6.981  -0.025   8.391  1.00  0.00     0.148 A 
ATOM     67  C   UNL     1       6.768  -1.995   6.397  1.00  0.00     0.002 A 
ATOM     68  C   UNL     1       7.268  -1.354   8.682  1.00  0.00     0.091 A 
ATOM     69  F   UNL     1       7.034   0.931   9.329  1.00  0.00    -0.205 F 
ATOM     70  C   UNL     1       7.153  -2.341   7.690  1.00  0.00     0.022 A 
BRANCH  68  71
ATOM     71  S   UNL     1       7.838  -1.883  10.302  1.00  0.00     0.127 S 
ATOM     72  O   UNL     1       6.636  -2.510  10.849  1.00  0.00    -0.237 OA
ATOM     73  O   UNL     1       8.913  -2.817   9.964  1.00  0.00    -0.237 OA
ATOM     74  O   UNL     1       8.282  -0.673  10.981  1.00  0.00    -0.744 OA
ENDBRANCH  68  71
ENDBRANCH  50  64
BRANCH  51  75
ATOM     75  C   UNL     1       4.423   9.806   4.737  1.00  0.00     0.023 A 
ATOM     76  C   UNL     1       4.800  10.314   3.479  1.00  0.00     0.012 A 
ATOM     77  C   UNL     1       3.722  10.638   5.630  1.00  0.00     0.148 A 
ATOM     78  C   UNL     1       4.502  11.631   3.125  1.00  0.00     0.002 A 
ATOM     79  C   UNL     1       3.379  11.931   5.250  1.00  0.00     0.091 A 
ATOM     80  F   UNL     1       3.395  10.148   6.835  1.00  0.00    -0.205 F 
ATOM     81  C   UNL     1       3.780  12.434   4.004  1.00  0.00     0.022 A 
BRANCH  79  82
ATOM     82  S   UNL     1       2.335  12.978   6.271  1.00  0.00     0.127 S 
ATOM     83  O   UNL     1       3.311  13.884   6.869  1.00  0.00    -0.237 OA
ATOM     84  O   UNL     1       1.450  13.593   5.280  1.00  0.00    -0.237 OA
ATOM     85  O   UNL     1       1.659  12.070   7.188  1.00  0.00    -0.744 OA
ENDBRANCH  79  82
ENDBRANCH  51  75
BRANCH  63  86
ATOM     86  C   UNL     1      10.388   6.351   5.847  1.00  0.00     0.023 A 
ATOM     87  C   UNL     1      10.879   7.101   6.934  1.00  0.00     0.012 A 
ATOM     88  C   UNL     1      11.269   5.963   4.820  1.00  0.00     0.148 A 
ATOM     89  C   UNL     1      12.219   7.483   6.984  1.00  0.00     0.002 A 
ATOM     90  C   UNL     1      12.613   6.312   4.896  1.00  0.00     0.091 A 
ATOM     91  F   UNL     1      10.779   5.269   3.781  1.00  0.00    -0.205 F 
ATOM     92  C   UNL     1      13.087   7.080   5.972  1.00  0.00     0.022 A 
BRANCH  90  93
ATOM     93  S   UNL     1      13.809   5.757   3.676  1.00  0.00     0.127 S 
ATOM     94  O   UNL     1      13.926   6.931   2.814  1.00  0.00    -0.237 OA
ATOM     95  O   UNL     1      14.992   5.481   4.494  1.00  0.00    -0.237 OA
ATOM     96  O   UNL     1      13.220   4.575   3.060  1.00  0.00    -0.744 OA
ENDBRANCH  90  93
ENDBRANCH  63  86
ENDBRANCH  37  38
ENDBRANCH  30  32
ENDBRANCH  29  30
ENDBRANCH   1  29
TORSDOF 18
