REMARK SMILES O=C(OCCOC(=O)[C@@H]1C=C[C@H](NS(=O)(=O)c2ccc(Cl)cc2)C1)c1ccc(-c2c3nc(c(-c4cccc(S(=O)(=O)[O-])c4F)c4ccc([nH]4)c(-c4cccc(S(=O)(=O)[O-])c4F)c4nc(c(-c5cccc(S(=O)(=O)[O-])c5F)c5ccc2[nH]5)C=C4)C=C3)cc1
REMARK SMILES IDX 4 1 3 2 2 3 1 4 25 5 26 6 87 7 27 8 86 9 28 10 29 11 30 12
REMARK SMILES IDX 80 13 31 14 85 15 79 16 81 17 32 18 84 19 78 20 77 21 33 23
REMARK SMILES IDX 65 24 45 25 64 26 46 27 49 28 63 29 82 30 47 31 48 32 62 34
REMARK SMILES IDX 83 35 50 36 34 37 35 38 43 39 36 40 38 41 44 42 37 43 39 44
REMARK SMILES IDX 40 45 41 46 42 47 66 48 67 49 75 50 68 51 70 52 76 53 69 54
REMARK SMILES IDX 71 55 72 56 73 57 74 58 51 59 52 60 60 61 53 62 55 63 61 64
REMARK SMILES IDX 54 65 56 66 57 67 58 68 59 69 5 70 6 71 7 72 8 73 9 74 10 75
REMARK SMILES IDX 24 76 11 77 12 78 13 79 14 81 15 82 16 83 17 84 18 85 23 86
REMARK SMILES IDX 19 87 22 88 20 89 21 90
REMARK H PARENT 81 22 49 33 13 80
REMARK Flexibility Score: inf
ROOT
ATOM      1  C   UNL     1       2.046  -1.873  -5.583  1.00  0.00     0.275 C 
ENDROOT
BRANCH   1   2
ATOM      2  O   UNL     1       2.575  -1.202  -6.734  1.00  0.00    -0.458 OA
BRANCH   2   3
ATOM      3  C   UNL     1       2.344   0.091  -7.046  1.00  0.00     0.338 C 
ATOM      4  O   UNL     1       2.790   0.567  -8.086  1.00  0.00    -0.246 OA
BRANCH   3   5
ATOM      5  C   UNL     1       1.756   0.981  -6.016  1.00  0.00     0.060 A 
ATOM      6  C   UNL     1       0.520   0.943  -5.373  1.00  0.00     0.016 A 
ATOM      7  C   UNL     1       2.530   2.049  -5.717  1.00  0.00     0.016 A 
ATOM      8  C   UNL     1       0.144   1.912  -4.345  1.00  0.00     0.010 A 
ATOM      9  C   UNL     1       2.085   2.978  -4.755  1.00  0.00     0.010 A 
ATOM     10  C   UNL     1       0.952   2.992  -3.885  1.00  0.00    -0.014 A 
BRANCH  10  11
ATOM     11  C   UNL     1       0.406   4.067  -2.586  1.00  0.00     0.031 A 
ATOM     12  C   UNL     1       0.991   5.779  -1.894  1.00  0.00     0.074 A 
ATOM     13  C   UNL     1      -0.616   3.381  -1.937  1.00  0.00     0.049 A 
ATOM     14  N   UNL     1      -0.075   7.225  -1.608  1.00  0.00    -0.248 NA
ATOM     15  C   UNL     1       2.727   6.797  -2.447  1.00  0.00     0.031 C 
ATOM     16  C   UNL     1      -0.637   1.998  -1.432  1.00  0.00     0.029 A 
ATOM     17  N   UNL     1      -1.933   3.713  -1.665  1.00  0.00    -0.354 N 
ATOM     18  C   UNL     1       0.612   8.810  -2.091  1.00  0.00     0.074 A 
ATOM     19  C   UNL     1       2.373   8.414  -2.657  1.00  0.00     0.031 C 
ATOM     20  C   UNL     1      -1.758   1.798  -0.693  1.00  0.00     0.029 A 
ATOM     21  C   UNL     1      -2.558   3.028  -0.668  1.00  0.00     0.049 A 
ATOM     22  H   UNL     1      -2.398   4.418  -2.172  1.00  0.00     0.167 HD
ATOM     23  C   UNL     1      -0.213   9.879  -2.282  1.00  0.00     0.034 A 
ATOM     24  C   UNL     1      -3.538   3.417   0.206  1.00  0.00     0.034 A 
ATOM     25  C   UNL     1      -1.575   9.952  -1.733  1.00  0.00     0.049 A 
ATOM     26  C   UNL     1      -4.141   4.884   0.391  1.00  0.00     0.074 A 
ATOM     27  C   UNL     1      -2.415  11.041  -1.574  1.00  0.00     0.029 A 
ATOM     28  N   UNL     1      -2.283   8.879  -1.164  1.00  0.00    -0.354 N 
ATOM     29  N   UNL     1      -3.977   5.995  -0.299  1.00  0.00    -0.248 NA
ATOM     30  C   UNL     1      -4.960   5.137   1.597  1.00  0.00     0.031 C 
ATOM     31  C   UNL     1      -3.582  10.614  -0.894  1.00  0.00     0.029 A 
ATOM     32  C   UNL     1      -3.510   9.245  -0.622  1.00  0.00     0.049 A 
ATOM     33  H   UNL     1      -1.942   7.955  -1.151  1.00  0.00     0.167 HD
ATOM     34  C   UNL     1      -4.525   7.073   0.402  1.00  0.00     0.074 A 
ATOM     35  C   UNL     1      -5.220   6.444   1.521  1.00  0.00     0.031 C 
ATOM     36  C   UNL     1      -4.401   8.435   0.247  1.00  0.00     0.034 A 
BRANCH  23  37
ATOM     37  C   UNL     1       0.342  10.926  -3.179  1.00  0.00     0.023 A 
ATOM     38  C   UNL     1       0.095  10.858  -4.568  1.00  0.00     0.012 A 
ATOM     39  C   UNL     1       1.200  11.911  -2.679  1.00  0.00     0.148 A 
ATOM     40  C   UNL     1       0.745  11.726  -5.449  1.00  0.00     0.002 A 
ATOM     41  C   UNL     1       1.869  12.749  -3.561  1.00  0.00     0.091 A 
ATOM     42  F   UNL     1       1.381  11.972  -1.353  1.00  0.00    -0.205 F 
ATOM     43  C   UNL     1       1.647  12.659  -4.947  1.00  0.00     0.022 A 
BRANCH  41  44
ATOM     44  S   UNL     1       3.143  13.884  -3.009  1.00  0.00     0.127 S 
ATOM     45  O   UNL     1       4.327  13.335  -3.670  1.00  0.00    -0.237 OA
ATOM     46  O   UNL     1       2.676  15.161  -3.544  1.00  0.00    -0.237 OA
ATOM     47  O   UNL     1       3.160  13.791  -1.555  1.00  0.00    -0.744 OA
ENDBRANCH  41  44
ENDBRANCH  23  37
BRANCH  24  48
ATOM     48  C   UNL     1      -3.925   2.398   1.234  1.00  0.00     0.023 A 
ATOM     49  C   UNL     1      -5.246   1.921   1.239  1.00  0.00     0.012 A 
ATOM     50  C   UNL     1      -3.002   1.886   2.174  1.00  0.00     0.148 A 
ATOM     51  C   UNL     1      -5.645   0.952   2.159  1.00  0.00     0.002 A 
ATOM     52  C   UNL     1      -3.388   0.871   3.040  1.00  0.00     0.091 A 
ATOM     53  F   UNL     1      -1.752   2.370   2.176  1.00  0.00    -0.205 F 
ATOM     54  C   UNL     1      -4.714   0.415   3.045  1.00  0.00     0.022 A 
BRANCH  52  55
ATOM     55  S   UNL     1      -2.230   0.015   4.115  1.00  0.00     0.127 S 
ATOM     56  O   UNL     1      -2.795   0.277   5.436  1.00  0.00    -0.237 OA
ATOM     57  O   UNL     1      -2.364  -1.365   3.649  1.00  0.00    -0.237 OA
ATOM     58  O   UNL     1      -0.927   0.615   3.862  1.00  0.00    -0.744 OA
ENDBRANCH  52  55
ENDBRANCH  24  48
BRANCH  36  59
ATOM     59  C   UNL     1      -5.325   9.286   1.106  1.00  0.00     0.023 A 
ATOM     60  C   UNL     1      -4.919   9.706   2.387  1.00  0.00     0.012 A 
ATOM     61  C   UNL     1      -6.495   9.837   0.539  1.00  0.00     0.148 A 
ATOM     62  C   UNL     1      -5.652  10.674   3.080  1.00  0.00     0.002 A 
ATOM     63  C   UNL     1      -7.187  10.841   1.210  1.00  0.00     0.091 A 
ATOM     64  F   UNL     1      -6.883   9.406  -0.670  1.00  0.00    -0.205 F 
ATOM     65  C   UNL     1      -6.769  11.258   2.483  1.00  0.00     0.022 A 
BRANCH  63  66
ATOM     66  S   UNL     1      -8.530  11.745   0.423  1.00  0.00     0.127 S 
ATOM     67  O   UNL     1      -9.708  11.074   0.967  1.00  0.00    -0.237 OA
ATOM     68  O   UNL     1      -8.327  13.110   0.912  1.00  0.00    -0.237 OA
ATOM     69  O   UNL     1      -8.315  11.589  -1.010  1.00  0.00    -0.744 OA
ENDBRANCH  63  66
ENDBRANCH  36  59
ENDBRANCH  10  11
ENDBRANCH   3   5
ENDBRANCH   2   3
ENDBRANCH   1   2
BRANCH   1  70
ATOM     70  C   UNL     1       2.915  -1.755  -4.321  1.00  0.00     0.274 C 
BRANCH  70  71
ATOM     71  O   UNL     1       2.843  -0.496  -3.587  1.00  0.00    -0.462 OA
BRANCH  71  72
ATOM     72  C   UNL     1       3.989   0.251  -3.522  1.00  0.00     0.312 C 
ATOM     73  O   UNL     1       4.978   0.018  -4.214  1.00  0.00    -0.252 OA
BRANCH  72  74
ATOM     74  C   UNL     1       4.039   1.331  -2.403  1.00  0.00     0.123 C 
ATOM     75  C   UNL     1       2.847   1.721  -1.615  1.00  0.00    -0.015 C 
ATOM     76  C   UNL     1       4.593   2.724  -2.842  1.00  0.00     0.043 C 
ATOM     77  C   UNL     1       2.670   3.055  -1.569  1.00  0.00    -0.011 C 
ATOM     78  C   UNL     1       3.617   3.879  -2.389  1.00  0.00     0.093 C 
BRANCH  78  79
ATOM     79  N   UNL     1       3.366   4.882  -3.607  1.00  0.00    -0.204 NA
ATOM     80  H   UNL     1       3.687   4.307  -4.386  1.00  0.00     0.142 HD
BRANCH  79  81
ATOM     81  S   UNL     1       1.970   6.006  -4.543  1.00  0.00     0.241 S 
ATOM     82  O   UNL     1       2.765   6.976  -5.273  1.00  0.00    -0.207 OA
ATOM     83  O   UNL     1       0.963   5.254  -5.254  1.00  0.00    -0.207 OA
BRANCH  81  84
ATOM     84  C   UNL     1       0.872   7.080  -3.050  1.00  0.00     0.082 A 
ATOM     85  C   UNL     1      -0.774   6.395  -3.222  1.00  0.00     0.023 A 
ATOM     86  C   UNL     1       1.550   7.301  -1.102  1.00  0.00     0.023 A 
ATOM     87  C   UNL     1      -1.535   5.983  -1.682  1.00  0.00     0.022 A 
ATOM     88  C   UNL     1       0.720   6.711   0.238  1.00  0.00     0.022 A 
ATOM     89  C   UNL     1      -0.762   6.058  -0.070  1.00  0.00     0.041 A 
ATOM     90  Cl  UNL     1      -1.487   5.643   1.444  1.00  0.00    -0.084 Cl
ENDBRANCH  81  84
ENDBRANCH  79  81
ENDBRANCH  78  79
ENDBRANCH  72  74
ENDBRANCH  71  72
ENDBRANCH  70  71
ENDBRANCH   1  70
TORSDOF 17
