REMARK SMILES C/C=C/C[C@H](Cc1cccc(F)c1)C(=O)OCCOC(=O)c1ccc(-c2c3nc(c(-c4cccc(S(=O)(=O)[O-])c4F)c4ccc([nH]4)c(-c4cccc(S(=O)(=O)[O-])c4F)c4nc(c(-c5cccc(S(=O)(=O)[O-])c5F)c5ccc2[nH]5)C=C4)C=C3)cc1
REMARK SMILES IDX 18 1 17 2 16 3 14 4 15 5 5 6 4 7 3 8 1 9 2 10 6 11 7 12 8 13
REMARK SMILES IDX 13 14 9 15 11 16 10 17 12 18 19 19 20 20 21 21 22 22 23 23
REMARK SMILES IDX 84 24 24 25 83 26 25 27 26 28 27 29 77 30 28 31 82 32 76 33
REMARK SMILES IDX 78 34 29 35 81 36 75 37 74 38 30 40 62 41 42 42 61 43 43 44
REMARK SMILES IDX 46 45 60 46 79 47 44 48 45 49 59 51 80 52 47 53 31 54 32 55
REMARK SMILES IDX 40 56 33 57 35 58 41 59 34 60 36 61 37 62 38 63 39 64 63 65
REMARK SMILES IDX 64 66 72 67 65 68 67 69 73 70 66 71 68 72 69 73 70 74 71 75
REMARK SMILES IDX 48 76 49 77 57 78 50 79 52 80 58 81 51 82 53 83 54 84 55 85
REMARK SMILES IDX 56 86
REMARK H PARENT 78 39 46 50
REMARK Flexibility Score: inf
ROOT
ATOM      1  C   UNL     1      -1.985  -1.321  -7.799  1.00  0.00     0.275 C 
ENDROOT
BRANCH   1   2
ATOM      2  C   UNL     1      -2.554  -2.388  -6.866  1.00  0.00     0.274 C 
BRANCH   2   3
ATOM      3  O   UNL     1      -2.170  -2.145  -5.497  1.00  0.00    -0.462 OA
BRANCH   3   4
ATOM      4  C   UNL     1      -1.085  -2.834  -5.053  1.00  0.00     0.309 C 
ATOM      5  O   UNL     1      -0.471  -3.662  -5.716  1.00  0.00    -0.252 OA
BRANCH   4   6
ATOM      6  C   UNL     1      -0.769  -2.583  -3.586  1.00  0.00     0.107 C 
BRANCH   6   7
ATOM      7  C   UNL     1      -1.483  -3.716  -2.820  1.00  0.00     0.042 C 
BRANCH   7   8
ATOM      8  C   UNL     1      -1.599  -3.503  -1.339  1.00  0.00    -0.031 C 
ATOM      9  C   UNL     1      -2.952  -3.134   0.737  1.00  0.00     0.035 C 
ATOM     10  C   UNL     1      -2.784  -3.439  -0.713  1.00  0.00    -0.035 C 
ENDBRANCH   7   8
ENDBRANCH   6   7
BRANCH   6  11
ATOM     11  C   UNL     1      -1.089  -1.145  -3.103  1.00  0.00     0.051 C 
BRANCH  11  12
ATOM     12  C   UNL     1       0.046  -0.134  -3.149  1.00  0.00    -0.044 A 
ATOM     13  C   UNL     1      -0.247   1.209  -3.445  1.00  0.00     0.004 A 
ATOM     14  C   UNL     1       1.365  -0.451  -2.794  1.00  0.00     0.043 A 
ATOM     15  C   UNL     1       0.750   2.191  -3.434  1.00  0.00     0.003 A 
ATOM     16  C   UNL     1       2.356   0.530  -2.807  1.00  0.00     0.123 A 
ATOM     17  C   UNL     1       2.062   1.848  -3.124  1.00  0.00     0.039 A 
ATOM     18  F   UNL     1       3.616   0.193  -2.501  1.00  0.00    -0.207 F 
ENDBRANCH  11  12
ENDBRANCH   6  11
ENDBRANCH   4   6
ENDBRANCH   3   4
ENDBRANCH   2   3
ENDBRANCH   1   2
BRANCH   1  19
ATOM     19  O   UNL     1      -0.549  -1.350  -7.773  1.00  0.00    -0.458 OA
BRANCH  19  20
ATOM     20  C   UNL     1       0.043  -0.304  -7.152  1.00  0.00     0.338 C 
ATOM     21  O   UNL     1      -0.500   0.679  -6.681  1.00  0.00    -0.246 OA
BRANCH  20  22
ATOM     22  C   UNL     1       1.494  -0.535  -7.100  1.00  0.00     0.060 A 
ATOM     23  C   UNL     1       2.024  -1.332  -6.085  1.00  0.00     0.016 A 
ATOM     24  C   UNL     1       2.334   0.116  -8.000  1.00  0.00     0.016 A 
ATOM     25  C   UNL     1       3.403  -1.442  -5.929  1.00  0.00     0.010 A 
ATOM     26  C   UNL     1       3.718  -0.039  -7.877  1.00  0.00     0.010 A 
ATOM     27  C   UNL     1       4.264  -0.798  -6.825  1.00  0.00    -0.014 A 
BRANCH  27  28
ATOM     28  C   UNL     1       5.735  -0.892  -6.649  1.00  0.00     0.031 A 
ATOM     29  C   UNL     1       6.529   0.337  -6.305  1.00  0.00     0.074 A 
ATOM     30  C   UNL     1       6.358  -2.074  -6.816  1.00  0.00     0.049 A 
ATOM     31  N   UNL     1       7.826   0.492  -6.255  1.00  0.00    -0.248 NA
ATOM     32  C   UNL     1       5.765   1.555  -5.986  1.00  0.00     0.031 C 
ATOM     33  C   UNL     1       5.695  -3.341  -7.128  1.00  0.00     0.029 A 
ATOM     34  N   UNL     1       7.691  -2.400  -6.762  1.00  0.00    -0.354 N 
ATOM     35  C   UNL     1       8.036   1.832  -5.956  1.00  0.00     0.074 A 
ATOM     36  C   UNL     1       6.733   2.449  -5.830  1.00  0.00     0.031 C 
ATOM     37  C   UNL     1       6.621  -4.306  -7.236  1.00  0.00     0.029 A 
ATOM     38  C   UNL     1       7.946  -3.719  -7.058  1.00  0.00     0.049 A 
ATOM     39  H   UNL     1       8.396  -1.752  -6.535  1.00  0.00     0.167 HD
ATOM     40  C   UNL     1       9.211   2.484  -5.788  1.00  0.00     0.034 A 
ATOM     41  C   UNL     1       9.114  -4.377  -7.198  1.00  0.00     0.034 A 
ATOM     42  C   UNL     1      10.501   1.851  -5.844  1.00  0.00     0.049 A 
ATOM     43  C   UNL     1      10.404  -3.628  -7.001  1.00  0.00     0.074 A 
ATOM     44  C   UNL     1      11.745   2.423  -5.646  1.00  0.00     0.029 A 
ATOM     45  N   UNL     1      10.714   0.506  -6.101  1.00  0.00    -0.354 N 
ATOM     46  N   UNL     1      10.584  -2.374  -6.666  1.00  0.00    -0.248 NA
ATOM     47  C   UNL     1      11.651  -4.385  -7.188  1.00  0.00     0.031 C 
ATOM     48  C   UNL     1      12.713   1.424  -5.790  1.00  0.00     0.029 A 
ATOM     49  C   UNL     1      12.070   0.229  -6.068  1.00  0.00     0.049 A 
ATOM     50  H   UNL     1      10.006  -0.154  -6.281  1.00  0.00     0.167 HD
ATOM     51  C   UNL     1      11.960  -2.195  -6.582  1.00  0.00     0.074 A 
ATOM     52  C   UNL     1      12.567  -3.476  -6.878  1.00  0.00     0.031 C 
ATOM     53  C   UNL     1      12.657  -1.065  -6.308  1.00  0.00     0.034 A 
BRANCH  40  54
ATOM     54  C   UNL     1       9.166   3.956  -5.481  1.00  0.00     0.023 A 
ATOM     55  C   UNL     1       8.833   4.384  -4.181  1.00  0.00     0.012 A 
ATOM     56  C   UNL     1       9.545   4.907  -6.449  1.00  0.00     0.148 A 
ATOM     57  C   UNL     1       8.865   5.738  -3.851  1.00  0.00     0.002 A 
ATOM     58  C   UNL     1       9.609   6.252  -6.103  1.00  0.00     0.091 A 
ATOM     59  F   UNL     1       9.836   4.480  -7.686  1.00  0.00    -0.205 F 
ATOM     60  C   UNL     1       9.264   6.669  -4.807  1.00  0.00     0.022 A 
BRANCH  58  61
ATOM     61  S   UNL     1      10.182   7.519  -7.240  1.00  0.00     0.127 S 
ATOM     62  O   UNL     1       8.940   8.230  -7.540  1.00  0.00    -0.237 OA
ATOM     63  O   UNL     1      11.130   8.270  -6.416  1.00  0.00    -0.237 OA
ATOM     64  O   UNL     1      10.783   6.811  -8.362  1.00  0.00    -0.744 OA
ENDBRANCH  58  61
ENDBRANCH  40  54
BRANCH  41  65
ATOM     65  C   UNL     1       9.104  -5.836  -7.500  1.00  0.00     0.023 A 
ATOM     66  C   UNL     1       9.501  -6.747  -6.503  1.00  0.00     0.012 A 
ATOM     67  C   UNL     1       8.640  -6.330  -8.736  1.00  0.00     0.148 A 
ATOM     68  C   UNL     1       9.446  -8.122  -6.733  1.00  0.00     0.002 A 
ATOM     69  C   UNL     1       8.532  -7.701  -8.937  1.00  0.00     0.091 A 
ATOM     70  F   UNL     1       8.290  -5.448  -9.683  1.00  0.00    -0.205 F 
ATOM     71  C   UNL     1       8.947  -8.599  -7.942  1.00  0.00     0.022 A 
BRANCH  69  72
ATOM     72  S   UNL     1       7.765  -8.396 -10.406  1.00  0.00     0.127 S 
ATOM     73  O   UNL     1       8.924  -8.888 -11.146  1.00  0.00    -0.237 OA
ATOM     74  O   UNL     1       6.907  -9.438  -9.841  1.00  0.00    -0.237 OA
ATOM     75  O   UNL     1       7.037  -7.295 -11.022  1.00  0.00    -0.744 OA
ENDBRANCH  69  72
ENDBRANCH  41  65
BRANCH  53  76
ATOM     76  C   UNL     1      14.159  -1.147  -6.300  1.00  0.00     0.023 A 
ATOM     77  C   UNL     1      14.853  -1.191  -7.524  1.00  0.00     0.012 A 
ATOM     78  C   UNL     1      14.883  -1.060  -5.094  1.00  0.00     0.148 A 
ATOM     79  C   UNL     1      16.247  -1.161  -7.550  1.00  0.00     0.002 A 
ATOM     80  C   UNL     1      16.271  -0.990  -5.129  1.00  0.00     0.091 A 
ATOM     81  F   UNL     1      14.202  -1.039  -3.939  1.00  0.00    -0.205 F 
ATOM     82  C   UNL     1      16.954  -1.046  -6.355  1.00  0.00     0.022 A 
BRANCH  80  83
ATOM     83  S   UNL     1      17.259  -0.748  -3.647  1.00  0.00     0.127 S 
ATOM     84  O   UNL     1      17.829  -2.079  -3.448  1.00  0.00    -0.237 OA
ATOM     85  O   UNL     1      18.220   0.269  -4.074  1.00  0.00    -0.237 OA
ATOM     86  O   UNL     1      16.330  -0.303  -2.617  1.00  0.00    -0.744 OA
ENDBRANCH  80  83
ENDBRANCH  53  76
ENDBRANCH  27  28
ENDBRANCH  20  22
ENDBRANCH  19  20
ENDBRANCH   1  19
TORSDOF 18
