REMARK SMILES O=C(Cn1cc(/C=C(/Cl)c2nnc(C(=O)Nc3ccc(Cl)cc3)s2)nn1)OCCOC(=O)c1ccc(-c2c3nc(c(-c4cccc(S(=O)(=O)[O-])c4F)c4ccc([nH]4)c(-c4cccc(S(=O)(=O)[O-])c4F)c4nc(c(-c5cccc(S(=O)(=O)[O-])c5F)c5ccc2[nH]5)C=C4)C=C3)cc1
REMARK SMILES IDX 28 1 27 2 2 3 1 4 3 5 4 6 5 7 26 8 6 9 25 10 7 11 8 12 9 13
REMARK SMILES IDX 10 14 11 15 24 16 12 17 13 18 14 19 15 20 16 21 17 23 18 24
REMARK SMILES IDX 23 25 19 26 22 27 20 28 21 29 29 30 30 31 31 32 32 33 33 34
REMARK SMILES IDX 34 35 95 36 35 37 94 38 36 39 37 40 38 41 88 42 39 43 93 44
REMARK SMILES IDX 87 45 89 46 40 47 92 48 86 49 85 50 41 52 73 53 53 54 72 55
REMARK SMILES IDX 54 56 57 57 71 58 90 59 55 60 56 61 70 63 91 64 58 65 42 66
REMARK SMILES IDX 43 67 51 68 44 69 46 70 52 71 45 72 47 73 48 74 49 75 50 76
REMARK SMILES IDX 74 77 75 78 83 79 76 80 78 81 84 82 77 83 79 84 80 85 81 86
REMARK SMILES IDX 82 87 59 88 60 89 68 90 61 91 63 92 69 93 62 94 64 95 65 96
REMARK SMILES IDX 66 97 67 98
REMARK H PARENT 16 22 89 51 57 62
REMARK Flexibility Score: inf
ROOT
ATOM      1  C   UNL     1       3.491  -1.173  -0.898  1.00  0.00     0.274 C 
ENDROOT
BRANCH   1   2
ATOM      2  O   UNL     1       2.135  -1.031  -0.435  1.00  0.00    -0.461 OA
BRANCH   2   3
ATOM      3  C   UNL     1       1.744  -0.330   0.662  1.00  0.00     0.327 C 
ATOM      4  O   UNL     1       0.595  -0.459   1.084  1.00  0.00    -0.250 OA
BRANCH   3   5
ATOM      5  C   UNL     1       2.704   0.637   1.313  1.00  0.00     0.268 C 
BRANCH   5   6
ATOM      6  N   UNL     1       3.337   0.141   2.514  1.00  0.00    -0.241 N 
ATOM      7  C   UNL     1       4.221   0.811   3.320  1.00  0.00     0.139 A 
ATOM      8  N   UNL     1       3.182  -1.129   2.912  1.00  0.00    -0.066 NA
ATOM      9  C   UNL     1       4.496  -0.098   4.312  1.00  0.00     0.107 A 
ATOM     10  N   UNL     1       3.844  -1.268   4.047  1.00  0.00    -0.131 NA
BRANCH   9  11
ATOM     11  C   UNL     1       5.308   0.070   5.473  1.00  0.00     0.055 C 
ATOM     12  C   UNL     1       5.849  -0.912   6.223  1.00  0.00     0.081 C 
ATOM     13  Cl  UNL     1       6.832  -0.531   7.595  1.00  0.00    -0.081 Cl
BRANCH  12  14
ATOM     14  C   UNL     1       5.780  -2.276   5.831  1.00  0.00     0.159 A 
ATOM     15  N   UNL     1       4.908  -3.214   6.153  1.00  0.00    -0.137 NA
ATOM     16  S   UNL     1       6.913  -2.847   4.676  1.00  0.00    -0.086 S 
ATOM     17  N   UNL     1       4.934  -4.276   5.249  1.00  0.00    -0.133 NA
ATOM     18  C   UNL     1       5.818  -4.090   4.280  1.00  0.00     0.206 A 
BRANCH  18  19
ATOM     19  C   UNL     1       5.818  -4.909   3.061  1.00  0.00     0.286 C 
ATOM     20  O   UNL     1       5.272  -6.021   3.023  1.00  0.00    -0.266 OA
ATOM     21  N   UNL     1       6.261  -4.463   1.808  1.00  0.00    -0.320 N 
ATOM     22  H   UNL     1       6.043  -5.068   1.062  1.00  0.00     0.170 HD
BRANCH  21  23
ATOM     23  C   UNL     1       6.958  -3.309   1.433  1.00  0.00     0.041 A 
ATOM     24  C   UNL     1       8.186  -2.962   1.989  1.00  0.00     0.027 A 
ATOM     25  C   UNL     1       6.401  -2.482   0.463  1.00  0.00     0.027 A 
ATOM     26  C   UNL     1       8.699  -1.675   1.805  1.00  0.00     0.022 A 
ATOM     27  C   UNL     1       6.920  -1.199   0.257  1.00  0.00     0.022 A 
ATOM     28  C   UNL     1       8.027  -0.778   0.984  1.00  0.00     0.041 A 
ATOM     29  Cl  UNL     1       8.533   0.860   0.898  1.00  0.00    -0.084 Cl
ENDBRANCH  21  23
ENDBRANCH  18  19
ENDBRANCH  12  14
ENDBRANCH   9  11
ENDBRANCH   5   6
ENDBRANCH   3   5
ENDBRANCH   2   3
ENDBRANCH   1   2
BRANCH   1  30
ATOM     30  C   UNL     1       3.801  -0.342  -2.137  1.00  0.00     0.275 C 
BRANCH  30  31
ATOM     31  O   UNL     1       3.873   1.026  -1.766  1.00  0.00    -0.458 OA
BRANCH  31  32
ATOM     32  C   UNL     1       2.680   1.672  -1.724  1.00  0.00     0.338 C 
ATOM     33  O   UNL     1       1.595   1.231  -1.980  1.00  0.00    -0.246 OA
BRANCH  32  34
ATOM     34  C   UNL     1       2.967   3.053  -1.320  1.00  0.00     0.060 A 
ATOM     35  C   UNL     1       1.981   3.984  -1.631  1.00  0.00     0.016 A 
ATOM     36  C   UNL     1       4.250   3.418  -0.875  1.00  0.00     0.016 A 
ATOM     37  C   UNL     1       2.374   5.288  -1.771  1.00  0.00     0.010 A 
ATOM     38  C   UNL     1       4.640   4.722  -1.012  1.00  0.00     0.010 A 
ATOM     39  C   UNL     1       3.723   5.603  -1.567  1.00  0.00    -0.014 A 
BRANCH  39  40
ATOM     40  C   UNL     1       4.146   6.918  -1.966  1.00  0.00     0.031 A 
ATOM     41  C   UNL     1       3.669   7.964  -1.049  1.00  0.00     0.074 A 
ATOM     42  C   UNL     1       4.897   7.107  -3.064  1.00  0.00     0.049 A 
ATOM     43  N   UNL     1       2.731   8.823  -1.263  1.00  0.00    -0.248 NA
ATOM     44  C   UNL     1       4.132   7.896   0.343  1.00  0.00     0.031 C 
ATOM     45  C   UNL     1       5.628   6.106  -3.849  1.00  0.00     0.029 A 
ATOM     46  N   UNL     1       5.274   8.280  -3.628  1.00  0.00    -0.354 N 
ATOM     47  C   UNL     1       2.673   9.578  -0.098  1.00  0.00     0.074 A 
ATOM     48  C   UNL     1       3.359   8.819   0.913  1.00  0.00     0.031 C 
ATOM     49  C   UNL     1       6.554   6.738  -4.606  1.00  0.00     0.029 A 
ATOM     50  C   UNL     1       6.383   8.172  -4.454  1.00  0.00     0.049 A 
ATOM     51  H   UNL     1       4.804   9.130  -3.466  1.00  0.00     0.167 HD
ATOM     52  C   UNL     1       2.345  10.895  -0.143  1.00  0.00     0.034 A 
ATOM     53  C   UNL     1       7.156   9.203  -4.872  1.00  0.00     0.034 A 
ATOM     54  C   UNL     1       1.661  11.226  -1.369  1.00  0.00     0.049 A 
ATOM     55  C   UNL     1       6.360  10.446  -4.711  1.00  0.00     0.074 A 
ATOM     56  C   UNL     1       0.507  10.787  -1.988  1.00  0.00     0.029 A 
ATOM     57  N   UNL     1       2.392  11.868  -2.340  1.00  0.00    -0.354 N 
ATOM     58  N   UNL     1       5.289  10.709  -5.407  1.00  0.00    -0.248 NA
ATOM     59  C   UNL     1       6.494  11.190  -3.468  1.00  0.00     0.031 C 
ATOM     60  C   UNL     1       0.810  10.787  -3.380  1.00  0.00     0.029 A 
ATOM     61  C   UNL     1       2.110  11.274  -3.541  1.00  0.00     0.049 A 
ATOM     62  H   UNL     1       3.009  12.621  -2.197  1.00  0.00     0.167 HD
ATOM     63  C   UNL     1       4.415  11.293  -4.497  1.00  0.00     0.074 A 
ATOM     64  C   UNL     1       5.250  11.666  -3.357  1.00  0.00     0.031 C 
ATOM     65  C   UNL     1       3.062  11.149  -4.624  1.00  0.00     0.034 A 
BRANCH  52  66
ATOM     66  C   UNL     1       3.004  11.950   0.716  1.00  0.00     0.023 A 
ATOM     67  C   UNL     1       2.490  13.261   0.626  1.00  0.00     0.012 A 
ATOM     68  C   UNL     1       4.248  11.796   1.373  1.00  0.00     0.148 A 
ATOM     69  C   UNL     1       3.208  14.362   1.103  1.00  0.00     0.002 A 
ATOM     70  C   UNL     1       4.918  12.882   1.918  1.00  0.00     0.091 A 
ATOM     71  F   UNL     1       4.882  10.621   1.363  1.00  0.00    -0.205 F 
ATOM     72  C   UNL     1       4.420  14.174   1.755  1.00  0.00     0.022 A 
BRANCH  70  73
ATOM     73  S   UNL     1       6.466  12.669   2.806  1.00  0.00     0.127 S 
ATOM     74  O   UNL     1       7.435  13.128   1.816  1.00  0.00    -0.237 OA
ATOM     75  O   UNL     1       6.278  13.557   3.954  1.00  0.00    -0.237 OA
ATOM     76  O   UNL     1       6.524  11.254   3.155  1.00  0.00    -0.744 OA
ENDBRANCH  70  73
ENDBRANCH  52  66
BRANCH  53  77
ATOM     77  C   UNL     1       8.621   9.223  -5.086  1.00  0.00     0.023 A 
ATOM     78  C   UNL     1       9.196  10.242  -5.869  1.00  0.00     0.012 A 
ATOM     79  C   UNL     1       9.480   8.409  -4.314  1.00  0.00     0.148 A 
ATOM     80  C   UNL     1      10.579  10.461  -5.862  1.00  0.00     0.002 A 
ATOM     81  C   UNL     1      10.855   8.620  -4.320  1.00  0.00     0.091 A 
ATOM     82  F   UNL     1       8.944   7.489  -3.501  1.00  0.00    -0.205 F 
ATOM     83  C   UNL     1      11.407   9.655  -5.084  1.00  0.00     0.022 A 
BRANCH  81  84
ATOM     84  S   UNL     1      11.979   7.627  -3.329  1.00  0.00     0.127 S 
ATOM     85  O   UNL     1      13.012   7.276  -4.303  1.00  0.00    -0.237 OA
ATOM     86  O   UNL     1      12.400   8.578  -2.304  1.00  0.00    -0.237 OA
ATOM     87  O   UNL     1      11.195   6.492  -2.855  1.00  0.00    -0.744 OA
ENDBRANCH  81  84
ENDBRANCH  53  77
BRANCH  65  88
ATOM     88  C   UNL     1       2.530  10.559  -5.908  1.00  0.00     0.023 A 
ATOM     89  C   UNL     1       2.814   9.234  -6.301  1.00  0.00     0.012 A 
ATOM     90  C   UNL     1       1.578  11.292  -6.635  1.00  0.00     0.148 A 
ATOM     91  C   UNL     1       2.177   8.661  -7.406  1.00  0.00     0.002 A 
ATOM     92  C   UNL     1       0.912  10.704  -7.703  1.00  0.00     0.091 A 
ATOM     93  F   UNL     1       1.314  12.549  -6.245  1.00  0.00    -0.205 F 
ATOM     94  C   UNL     1       1.215   9.392  -8.098  1.00  0.00     0.022 A 
BRANCH  92  95
ATOM     95  S   UNL     1      -0.430  11.544  -8.549  1.00  0.00     0.127 S 
ATOM     96  O   UNL     1       0.203  11.942  -9.804  1.00  0.00    -0.237 OA
ATOM     97  O   UNL     1      -1.433  10.485  -8.677  1.00  0.00    -0.237 OA
ATOM     98  O   UNL     1      -0.831  12.638  -7.672  1.00  0.00    -0.744 OA
ENDBRANCH  92  95
ENDBRANCH  65  88
ENDBRANCH  39  40
ENDBRANCH  32  34
ENDBRANCH  31  32
ENDBRANCH  30  31
ENDBRANCH   1  30
TORSDOF 19
