REMARK SMILES O=C(OCCOC(=O)[C@H]1CC[C@H](CN2C(=O)c3cccnc3C2=O)O1)c1ccc(-c2c3nc(c(-c4cccc(S(=O)(=O)[O-])c4F)c4ccc([nH]4)c(-c4cccc(S(=O)(=O)[O-])c4F)c4nc(c(-c5cccc(S(=O)(=O)[O-])c5F)c5ccc2[nH]5)C=C4)C=C3)cc1
REMARK SMILES IDX 4 1 3 2 2 3 1 4 26 5 27 6 88 7 28 8 87 9 29 10 30 11 31 12
REMARK SMILES IDX 81 13 32 14 86 15 80 16 82 17 33 18 85 19 79 20 78 21 34 23
REMARK SMILES IDX 66 24 46 25 65 26 47 27 50 28 64 29 83 30 48 31 49 32 63 34
REMARK SMILES IDX 84 35 51 36 35 37 36 38 44 39 37 40 39 41 45 42 38 43 40 44
REMARK SMILES IDX 41 45 42 46 43 47 67 48 68 49 76 50 69 51 71 52 77 53 70 54
REMARK SMILES IDX 72 55 73 56 74 57 75 58 52 59 53 60 61 61 54 62 56 63 62 64
REMARK SMILES IDX 55 65 57 66 58 67 59 68 60 69 5 70 6 71 7 72 8 73 9 74 10 75
REMARK SMILES IDX 25 76 11 77 12 78 13 79 14 80 15 81 23 82 16 83 17 84 22 85
REMARK SMILES IDX 24 86 18 87 21 88 19 89 20 90
REMARK H PARENT 82 22 50 33
REMARK Flexibility Score: inf
ROOT
ATOM      1  C   UNL     1      -0.452  -1.608   4.381  1.00  0.00     0.275 C 
ENDROOT
BRANCH   1   2
ATOM      2  O   UNL     1      -0.880  -2.618   3.454  1.00  0.00    -0.458 OA
BRANCH   2   3
ATOM      3  C   UNL     1      -0.883  -2.613   2.099  1.00  0.00     0.338 C 
ATOM      4  O   UNL     1      -1.499  -3.511   1.526  1.00  0.00    -0.246 OA
BRANCH   3   5
ATOM      5  C   UNL     1      -0.097  -1.651   1.254  1.00  0.00     0.060 A 
ATOM      6  C   UNL     1       0.470  -0.447   1.679  1.00  0.00     0.016 A 
ATOM      7  C   UNL     1       0.136  -2.041  -0.080  1.00  0.00     0.016 A 
ATOM      8  C   UNL     1       1.330   0.281   0.861  1.00  0.00     0.010 A 
ATOM      9  C   UNL     1       1.005  -1.320  -0.907  1.00  0.00     0.010 A 
ATOM     10  C   UNL     1       1.617  -0.160  -0.428  1.00  0.00    -0.014 A 
BRANCH  10  11
ATOM     11  C   UNL     1       2.410   0.724  -1.302  1.00  0.00     0.031 A 
ATOM     12  C   UNL     1       1.663   1.572  -2.283  1.00  0.00     0.074 A 
ATOM     13  C   UNL     1       3.742   0.839  -1.142  1.00  0.00     0.049 A 
ATOM     14  N   UNL     1       2.113   2.490  -3.091  1.00  0.00    -0.248 NA
ATOM     15  C   UNL     1       0.204   1.366  -2.351  1.00  0.00     0.031 C 
ATOM     16  C   UNL     1       4.549   0.082  -0.183  1.00  0.00     0.029 A 
ATOM     17  N   UNL     1       4.651   1.644  -1.778  1.00  0.00    -0.354 N 
ATOM     18  C   UNL     1       1.000   2.951  -3.781  1.00  0.00     0.074 A 
ATOM     19  C   UNL     1      -0.143   2.203  -3.312  1.00  0.00     0.031 C 
ATOM     20  C   UNL     1       5.835   0.460  -0.296  1.00  0.00     0.029 A 
ATOM     21  C   UNL     1       5.947   1.464  -1.351  1.00  0.00     0.049 A 
ATOM     22  H   UNL     1       4.400   2.292  -2.476  1.00  0.00     0.167 HD
ATOM     23  C   UNL     1       0.936   3.924  -4.716  1.00  0.00     0.034 A 
ATOM     24  C   UNL     1       7.086   2.043  -1.780  1.00  0.00     0.034 A 
ATOM     25  C   UNL     1       2.080   4.653  -5.176  1.00  0.00     0.049 A 
ATOM     26  C   UNL     1       6.990   3.091  -2.862  1.00  0.00     0.074 A 
ATOM     27  C   UNL     1       2.139   5.652  -6.127  1.00  0.00     0.029 A 
ATOM     28  N   UNL     1       3.376   4.442  -4.725  1.00  0.00    -0.354 N 
ATOM     29  N   UNL     1       5.921   3.579  -3.447  1.00  0.00    -0.248 NA
ATOM     30  C   UNL     1       8.250   3.690  -3.325  1.00  0.00     0.031 C 
ATOM     31  C   UNL     1       3.479   6.022  -6.278  1.00  0.00     0.029 A 
ATOM     32  C   UNL     1       4.247   5.285  -5.387  1.00  0.00     0.049 A 
ATOM     33  H   UNL     1       3.635   3.789  -4.036  1.00  0.00     0.167 HD
ATOM     34  C   UNL     1       6.374   4.565  -4.316  1.00  0.00     0.074 A 
ATOM     35  C   UNL     1       7.814   4.619  -4.166  1.00  0.00     0.031 C 
ATOM     36  C   UNL     1       5.670   5.349  -5.169  1.00  0.00     0.034 A 
BRANCH  23  37
ATOM     37  C   UNL     1      -0.416   4.217  -5.301  1.00  0.00     0.023 A 
ATOM     38  C   UNL     1      -1.399   4.860  -4.519  1.00  0.00     0.012 A 
ATOM     39  C   UNL     1      -0.722   3.829  -6.618  1.00  0.00     0.148 A 
ATOM     40  C   UNL     1      -2.680   5.072  -5.027  1.00  0.00     0.002 A 
ATOM     41  C   UNL     1      -1.985   4.087  -7.133  1.00  0.00     0.091 A 
ATOM     42  F   UNL     1       0.219   3.192  -7.330  1.00  0.00    -0.205 F 
ATOM     43  C   UNL     1      -2.970   4.693  -6.335  1.00  0.00     0.022 A 
BRANCH  41  44
ATOM     44  S   UNL     1      -2.436   3.700  -8.826  1.00  0.00     0.127 S 
ATOM     45  O   UNL     1      -3.446   2.659  -8.633  1.00  0.00    -0.237 OA
ATOM     46  O   UNL     1      -2.962   4.980  -9.300  1.00  0.00    -0.237 OA
ATOM     47  O   UNL     1      -1.211   3.262  -9.482  1.00  0.00    -0.744 OA
ENDBRANCH  41  44
ENDBRANCH  23  37
BRANCH  24  48
ATOM     48  C   UNL     1       8.406   1.673  -1.188  1.00  0.00     0.023 A 
ATOM     49  C   UNL     1       9.143   2.629  -0.460  1.00  0.00     0.012 A 
ATOM     50  C   UNL     1       8.950   0.384  -1.363  1.00  0.00     0.148 A 
ATOM     51  C   UNL     1      10.410   2.323   0.044  1.00  0.00     0.002 A 
ATOM     52  C   UNL     1      10.188   0.070  -0.814  1.00  0.00     0.091 A 
ATOM     53  F   UNL     1       8.245  -0.510  -2.071  1.00  0.00    -0.205 F 
ATOM     54  C   UNL     1      10.929   1.043  -0.127  1.00  0.00     0.022 A 
BRANCH  52  55
ATOM     55  S   UNL     1      10.889  -1.583  -0.890  1.00  0.00     0.127 S 
ATOM     56  O   UNL     1      12.031  -1.383  -1.778  1.00  0.00    -0.237 OA
ATOM     57  O   UNL     1      11.232  -1.827   0.511  1.00  0.00    -0.237 OA
ATOM     58  O   UNL     1       9.828  -2.436  -1.407  1.00  0.00    -0.744 OA
ENDBRANCH  52  55
ENDBRANCH  24  48
BRANCH  36  59
ATOM     59  C   UNL     1       6.431   6.370  -5.971  1.00  0.00     0.023 A 
ATOM     60  C   UNL     1       7.244   5.961  -7.046  1.00  0.00     0.012 A 
ATOM     61  C   UNL     1       6.247   7.745  -5.722  1.00  0.00     0.148 A 
ATOM     62  C   UNL     1       7.884   6.907  -7.846  1.00  0.00     0.002 A 
ATOM     63  C   UNL     1       6.841   8.680  -6.558  1.00  0.00     0.091 A 
ATOM     64  F   UNL     1       5.482   8.109  -4.683  1.00  0.00    -0.205 F 
ATOM     65  C   UNL     1       7.670   8.264  -7.612  1.00  0.00     0.022 A 
BRANCH  63  66
ATOM     66  S   UNL     1       6.529  10.442  -6.401  1.00  0.00     0.127 S 
ATOM     67  O   UNL     1       7.810  10.926  -5.891  1.00  0.00    -0.237 OA
ATOM     68  O   UNL     1       6.235  10.828  -7.781  1.00  0.00    -0.237 OA
ATOM     69  O   UNL     1       5.404  10.572  -5.485  1.00  0.00    -0.744 OA
ENDBRANCH  63  66
ENDBRANCH  36  59
ENDBRANCH  10  11
ENDBRANCH   3   5
ENDBRANCH   2   3
ENDBRANCH   1   2
BRANCH   1  70
ATOM     70  C   UNL     1       1.026  -1.706   4.773  1.00  0.00     0.274 C 
BRANCH  70  71
ATOM     71  O   UNL     1       1.911  -1.935   3.663  1.00  0.00    -0.460 OA
BRANCH  71  72
ATOM     72  C   UNL     1       2.273  -3.237   3.454  1.00  0.00     0.335 C 
ATOM     73  O   UNL     1       1.887  -4.170   4.149  1.00  0.00    -0.249 OA
BRANCH  72  74
ATOM     74  C   UNL     1       3.253  -3.371   2.265  1.00  0.00     0.228 C 
ATOM     75  C   UNL     1       3.886  -4.750   2.242  1.00  0.00     0.047 C 
ATOM     76  O   UNL     1       2.643  -3.229   0.978  1.00  0.00    -0.361 OA
ATOM     77  C   UNL     1       2.872  -5.532   1.444  1.00  0.00     0.037 C 
ATOM     78  C   UNL     1       2.454  -4.532   0.376  1.00  0.00     0.139 C 
BRANCH  78  79
ATOM     79  C   UNL     1       3.242  -4.624  -0.951  1.00  0.00     0.161 C 
BRANCH  79  80
ATOM     80  N   UNL     1       3.274  -5.979  -1.482  1.00  0.00    -0.270 N 
ATOM     81  C   UNL     1       4.320  -6.837  -1.298  1.00  0.00     0.263 C 
ATOM     82  C   UNL     1       2.191  -6.614  -2.046  1.00  0.00     0.280 C 
ATOM     83  O   UNL     1       5.385  -6.656  -0.733  1.00  0.00    -0.269 OA
ATOM     84  C   UNL     1       3.896  -8.137  -1.784  1.00  0.00     0.071 A 
ATOM     85  C   UNL     1       2.607  -8.015  -2.241  1.00  0.00     0.141 A 
ATOM     86  O   UNL     1       1.092  -6.157  -2.271  1.00  0.00    -0.267 OA
ATOM     87  C   UNL     1       4.502  -9.374  -1.729  1.00  0.00     0.018 A 
ATOM     88  N   UNL     1       1.827  -9.032  -2.656  1.00  0.00    -0.250 NA
ATOM     89  C   UNL     1       3.741 -10.462  -2.157  1.00  0.00     0.021 A 
ATOM     90  C   UNL     1       2.430 -10.246  -2.605  1.00  0.00     0.112 A 
ENDBRANCH  79  80
ENDBRANCH  78  79
ENDBRANCH  72  74
ENDBRANCH  71  72
ENDBRANCH  70  71
ENDBRANCH   1  70
TORSDOF 16
