REMARK SMILES C[N@@H+]1CC[N@@H+](Cc2ncc[nH]2)C[C@@]12CCC(=O)N(CC(=O)OCCOC(=O)c1ccc(-c3c4nc(c(-c5cccc(S(=O)(=O)[O-])c5F)c5ccc([nH]5)c(-c5cccc(S(=O)(=O)[O-])c5F)c5nc(c(-c6cccc(S(=O)(=O)[O-])c6F)c6ccc3[nH]6)C=C5)C=C4)cc1)CC2
REMARK SMILES IDX 22 1 20 2 21 3 19 4 18 5 91 6 92 7 13 8 1 9 2 10 3 11 4 13
REMARK SMILES IDX 12 14 5 15 14 17 6 19 7 20 8 21 11 22 9 23 10 24 16 26 17 27
REMARK SMILES IDX 15 28 23 30 24 31 25 32 26 33 27 34 28 35 29 36 90 37 30 38
REMARK SMILES IDX 89 39 31 40 32 41 33 42 83 43 34 44 88 45 82 46 84 47 35 48
REMARK SMILES IDX 87 49 81 50 80 51 36 53 68 54 48 55 67 56 49 57 52 58 66 59
REMARK SMILES IDX 85 60 50 61 51 62 65 64 86 65 53 66 37 67 38 68 46 69 39 70
REMARK SMILES IDX 41 71 47 72 40 73 42 74 43 75 44 76 45 77 69 78 70 79 78 80
REMARK SMILES IDX 71 81 73 82 79 83 72 84 74 85 75 86 76 87 77 88 54 89 55 90
REMARK SMILES IDX 63 91 56 92 58 93 64 94 57 95 59 96 60 97 61 98 62 99
REMARK H PARENT 2 12 5 16 11 25 84 52 52 63
REMARK Flexibility Score: 90.00
ROOT
ATOM      1  O   UNL     1      -6.018  -0.165  -1.140  1.00  0.00    -0.461 OA
ENDROOT
BRANCH   1   2
ATOM      2  C   UNL     1      -5.942  -1.217  -2.006  1.00  0.00     0.325 C 
ATOM      3  O   UNL     1      -6.899  -1.896  -2.362  1.00  0.00    -0.250 OA
BRANCH   2   4
ATOM      4  C   UNL     1      -4.509  -1.511  -2.471  1.00  0.00     0.242 C 
BRANCH   4   5
ATOM      5  N   UNL     1      -3.497  -0.559  -2.001  1.00  0.00    -0.331 N 
BRANCH   5   6
ATOM      6  C   UNL     1      -2.596  -0.935  -0.926  1.00  0.00     0.127 C 
BRANCH   6   7
ATOM      7  C   UNL     1      -1.115  -0.803  -1.327  1.00  0.00     0.096 C 
BRANCH   7   8
ATOM      8  C   UNL     1      -0.470   0.613  -1.149  1.00  0.00     0.149 C 
ATOM      9  C   UNL     1       1.818  -0.385  -0.996  1.00  0.00     0.333 C 
ATOM     10  N   UNL     1       0.960   0.631  -1.612  1.00  0.00    -0.323 N 
ATOM     11  C   UNL     1       1.562   1.977  -1.394  1.00  0.00     0.324 C 
ATOM     12  H   UNL     1       0.917   0.406  -2.605  1.00  0.00     0.348 HD
ATOM     13  C   UNL     1       1.074   2.778  -0.149  1.00  0.00     0.324 C 
ATOM     14  C   UNL     1      -0.541   1.005   0.375  1.00  0.00     0.332 C 
ATOM     15  N   UNL     1       0.469   1.944   0.888  1.00  0.00    -0.319 N 
ATOM     16  H   UNL     1       1.213   1.327   1.215  1.00  0.00     0.348 HD
BRANCH   8  17
ATOM     17  C   UNL     1      -1.229   1.637  -2.068  1.00  0.00     0.084 CG0
ATOM     18  G   UNL     1      -2.730   1.769  -1.885  1.00  0.00     0.000 G0
ENDBRANCH   8  17
BRANCH  15  19
ATOM     19  C   UNL     1       0.097   2.684   2.103  1.00  0.00     0.339 C 
BRANCH  19  20
ATOM     20  C   UNL     1      -1.323   3.162   2.173  1.00  0.00     0.161 A 
ATOM     21  N   UNL     1      -1.845   4.247   1.637  1.00  0.00    -0.236 NA
ATOM     22  N   UNL     1      -2.298   2.426   2.809  1.00  0.00    -0.344 N 
ATOM     23  C   UNL     1      -3.193   4.175   1.884  1.00  0.00     0.131 A 
ATOM     24  C   UNL     1      -3.499   3.040   2.595  1.00  0.00     0.104 A 
ATOM     25  H   UNL     1      -2.155   1.601   3.328  1.00  0.00     0.167 HD
ENDBRANCH  19  20
ENDBRANCH  15  19
ENDBRANCH   7   8
ENDBRANCH   6   7
ENDBRANCH   5   6
BRANCH   5  26
ATOM     26  C   UNL     1      -3.470   0.680  -2.607  1.00  0.00     0.223 C 
ATOM     27  O   UNL     1      -4.050   0.902  -3.664  1.00  0.00    -0.275 OA
BRANCH  26  28
ATOM     28  C   UNL     1      -2.730   1.769  -1.885  1.00  0.00     0.107 CG0
ATOM     29  G   UNL     1      -1.229   1.637  -2.068  1.00  0.00     0.000 G0
ENDBRANCH  26  28
ENDBRANCH   5  26
ENDBRANCH   4   5
ENDBRANCH   2   4
ENDBRANCH   1   2
BRANCH   1  30
ATOM     30  C   UNL     1      -7.346   0.296  -0.814  1.00  0.00     0.274 C 
BRANCH  30  31
ATOM     31  C   UNL     1      -7.616   1.623  -1.516  1.00  0.00     0.275 C 
BRANCH  31  32
ATOM     32  O   UNL     1      -7.498   1.428  -2.933  1.00  0.00    -0.458 OA
BRANCH  32  33
ATOM     33  C   UNL     1      -6.769   2.363  -3.589  1.00  0.00     0.338 C 
ATOM     34  O   UNL     1      -6.272   3.370  -3.113  1.00  0.00    -0.246 OA
BRANCH  33  35
ATOM     35  C   UNL     1      -6.749   2.031  -5.026  1.00  0.00     0.060 A 
ATOM     36  C   UNL     1      -6.350   0.767  -5.473  1.00  0.00     0.016 A 
ATOM     37  C   UNL     1      -7.083   3.028  -5.941  1.00  0.00     0.016 A 
ATOM     38  C   UNL     1      -6.212   0.521  -6.838  1.00  0.00     0.010 A 
ATOM     39  C   UNL     1      -7.025   2.753  -7.308  1.00  0.00     0.010 A 
ATOM     40  C   UNL     1      -6.559   1.510  -7.769  1.00  0.00    -0.014 A 
BRANCH  40  41
ATOM     41  C   UNL     1      -6.436   1.267  -9.229  1.00  0.00     0.031 A 
ATOM     42  C   UNL     1      -5.491   2.099 -10.053  1.00  0.00     0.074 A 
ATOM     43  C   UNL     1      -7.225   0.351  -9.822  1.00  0.00     0.049 A 
ATOM     44  N   UNL     1      -5.361   2.156 -11.353  1.00  0.00    -0.248 NA
ATOM     45  C   UNL     1      -4.585   2.998  -9.319  1.00  0.00     0.031 C 
ATOM     46  C   UNL     1      -8.189  -0.508  -9.133  1.00  0.00     0.029 A 
ATOM     47  N   UNL     1      -7.366   0.017 -11.146  1.00  0.00    -0.354 N 
ATOM     48  C   UNL     1      -4.403   3.133 -11.597  1.00  0.00     0.074 A 
ATOM     49  C   UNL     1      -3.985   3.645 -10.309  1.00  0.00     0.031 C 
ATOM     50  C   UNL     1      -8.832  -1.260 -10.040  1.00  0.00     0.029 A 
ATOM     51  C   UNL     1      -8.364  -0.901 -11.374  1.00  0.00     0.049 A 
ATOM     52  H   UNL     1      -6.808   0.397 -11.862  1.00  0.00     0.167 HD
ATOM     53  C   UNL     1      -3.906   3.553 -12.785  1.00  0.00     0.034 A 
ATOM     54  C   UNL     1      -8.869  -1.378 -12.528  1.00  0.00     0.034 A 
ATOM     55  C   UNL     1      -4.282   3.000 -14.059  1.00  0.00     0.049 A 
ATOM     56  C   UNL     1      -8.290  -0.902 -13.832  1.00  0.00     0.074 A 
ATOM     57  C   UNL     1      -3.788   3.314 -15.313  1.00  0.00     0.029 A 
ATOM     58  N   UNL     1      -5.242   2.017 -14.243  1.00  0.00    -0.354 N 
ATOM     59  N   UNL     1      -7.313  -0.053 -14.040  1.00  0.00    -0.248 NA
ATOM     60  C   UNL     1      -8.865  -1.469 -15.060  1.00  0.00     0.031 C 
ATOM     61  C   UNL     1      -4.458   2.528 -16.257  1.00  0.00     0.029 A 
ATOM     62  C   UNL     1      -5.360   1.715 -15.589  1.00  0.00     0.049 A 
ATOM     63  H   UNL     1      -5.764   1.596 -13.522  1.00  0.00     0.167 HD
ATOM     64  C   UNL     1      -7.137  -0.005 -15.418  1.00  0.00     0.074 A 
ATOM     65  C   UNL     1      -8.093  -0.929 -15.994  1.00  0.00     0.031 C 
ATOM     66  C   UNL     1      -6.275   0.751 -16.143  1.00  0.00     0.034 A 
BRANCH  53  67
ATOM     67  C   UNL     1      -2.862   4.639 -12.764  1.00  0.00     0.023 A 
ATOM     68  C   UNL     1      -1.550   4.334 -12.348  1.00  0.00     0.012 A 
ATOM     69  C   UNL     1      -3.158   5.940 -13.218  1.00  0.00     0.148 A 
ATOM     70  C   UNL     1      -0.557   5.313 -12.357  1.00  0.00     0.002 A 
ATOM     71  C   UNL     1      -2.153   6.900 -13.261  1.00  0.00     0.091 A 
ATOM     72  F   UNL     1      -4.416   6.218 -13.589  1.00  0.00    -0.205 F 
ATOM     73  C   UNL     1      -0.855   6.591 -12.822  1.00  0.00     0.022 A 
BRANCH  71  74
ATOM     74  S   UNL     1      -2.421   8.552 -13.917  1.00  0.00     0.127 S 
ATOM     75  O   UNL     1      -2.442   9.356 -12.696  1.00  0.00    -0.237 OA
ATOM     76  O   UNL     1      -1.237   8.749 -14.755  1.00  0.00    -0.237 OA
ATOM     77  O   UNL     1      -3.676   8.491 -14.652  1.00  0.00    -0.744 OA
ENDBRANCH  71  74
ENDBRANCH  53  67
BRANCH  54  78
ATOM     78  C   UNL     1      -9.958  -2.394 -12.495  1.00  0.00     0.023 A 
ATOM     79  C   UNL     1      -9.672  -3.719 -12.877  1.00  0.00     0.012 A 
ATOM     80  C   UNL     1     -11.255  -2.071 -12.050  1.00  0.00     0.148 A 
ATOM     81  C   UNL     1     -10.663  -4.699 -12.838  1.00  0.00     0.002 A 
ATOM     82  C   UNL     1     -12.223  -3.065 -11.962  1.00  0.00     0.091 A 
ATOM     83  F   UNL     1     -11.513  -0.801 -11.709  1.00  0.00    -0.205 F 
ATOM     84  C   UNL     1     -11.934  -4.376 -12.370  1.00  0.00     0.022 A 
BRANCH  82  85
ATOM     85  S   UNL     1     -13.843  -2.765 -11.244  1.00  0.00     0.127 S 
ATOM     86  O   UNL     1     -14.696  -2.743 -12.430  1.00  0.00    -0.237 OA
ATOM     87  O   UNL     1     -14.017  -3.935 -10.382  1.00  0.00    -0.237 OA
ATOM     88  O   UNL     1     -13.722  -1.505 -10.523  1.00  0.00    -0.744 OA
ENDBRANCH  82  85
ENDBRANCH  54  78
BRANCH  66  89
ATOM     89  C   UNL     1      -6.302   0.594 -17.640  1.00  0.00     0.023 A 
ATOM     90  C   UNL     1      -7.364   1.152 -18.378  1.00  0.00     0.012 A 
ATOM     91  C   UNL     1      -5.244  -0.040 -18.320  1.00  0.00     0.148 A 
ATOM     92  C   UNL     1      -7.388   1.057 -19.769  1.00  0.00     0.002 A 
ATOM     93  C   UNL     1      -5.252  -0.093 -19.709  1.00  0.00     0.091 A 
ATOM     94  F   UNL     1      -4.253  -0.584 -17.599  1.00  0.00    -0.205 F 
ATOM     95  C   UNL     1      -6.327   0.446 -20.434  1.00  0.00     0.022 A 
BRANCH  93  96
ATOM     96  S   UNL     1      -3.886  -0.782 -20.651  1.00  0.00     0.127 S 
ATOM     97  O   UNL     1      -4.433  -2.072 -21.070  1.00  0.00    -0.237 OA
ATOM     98  O   UNL     1      -3.727   0.191 -21.732  1.00  0.00    -0.237 OA
ATOM     99  O   UNL     1      -2.760  -0.847 -19.730  1.00  0.00    -0.744 OA
ENDBRANCH  93  96
ENDBRANCH  66  89
ENDBRANCH  40  41
ENDBRANCH  33  35
ENDBRANCH  32  33
ENDBRANCH  31  32
ENDBRANCH  30  31
ENDBRANCH   1  30
TORSDOF 17
