REMARK SMILES Cc1ccc(NS(=O)(=O)c2cc(C(=O)OCCOC(=O)c3ccc(-c4c5nc(c(-c6cccc(S(=O)(=O)[O-])c6F)c6ccc([nH]6)c(-c6cccc(S(=O)(=O)[O-])c6F)c6nc(c(-c7cccc(S(=O)(=O)[O-])c7F)c7ccc4[nH]7)C=C6)C=C5)cc3)ccc2Cl)nc1
REMARK SMILES IDX 16 1 15 2 13 3 14 4 12 5 10 6 11 7 86 8 85 9 87 10 84 11
REMARK SMILES IDX 7 12 8 13 9 14 6 15 5 17 1 18 2 19 3 20 89 21 4 22 88 23
REMARK SMILES IDX 17 24 18 25 19 26 20 27 21 28 22 29 83 30 23 31 82 32 24 33
REMARK SMILES IDX 25 34 26 35 76 36 27 37 81 38 75 39 77 40 28 41 80 42 74 43
REMARK SMILES IDX 73 44 29 46 61 47 41 48 60 49 42 50 45 51 59 52 78 53 43 54
REMARK SMILES IDX 44 55 58 57 79 58 46 59 30 60 31 61 39 62 32 63 34 64 40 65
REMARK SMILES IDX 33 66 35 67 36 68 37 69 38 70 62 71 63 72 71 73 64 74 66 75
REMARK SMILES IDX 72 76 65 77 67 78 68 79 69 80 70 81 47 82 48 83 56 84 49 85
REMARK SMILES IDX 51 86 57 87 50 88 52 89 53 90 54 91 55 92
REMARK H PARENT 6 16 77 45 45 56
REMARK Flexibility Score: inf
ROOT
ATOM      1  C   UNL     1      -2.677  -8.785   0.190  1.00  0.00     0.275 C 
ENDROOT
BRANCH   1   2
ATOM      2  O   UNL     1      -2.076  -7.474   0.288  1.00  0.00    -0.458 OA
BRANCH   2   3
ATOM      3  C   UNL     1      -2.701  -6.530  -0.449  1.00  0.00     0.338 C 
ATOM      4  O   UNL     1      -3.672  -6.702  -1.171  1.00  0.00    -0.246 OA
BRANCH   3   5
ATOM      5  C   UNL     1      -2.048  -5.208  -0.389  1.00  0.00     0.061 A 
ATOM      6  C   UNL     1      -2.457  -2.804  -0.544  1.00  0.00     0.107 A 
ATOM      7  C   UNL     1      -2.826  -4.083  -0.099  1.00  0.00     0.039 A 
ATOM      8  C   UNL     1      -1.296  -2.672  -1.296  1.00  0.00     0.061 A 
ATOM      9  C   UNL     1      -0.421  -3.771  -1.409  1.00  0.00     0.023 A 
ATOM     10  Cl  UNL     1      -0.896  -1.293  -2.256  1.00  0.00    -0.083 Cl
ATOM     11  C   UNL     1      -0.793  -5.042  -0.959  1.00  0.00     0.017 A 
BRANCH   6  12
ATOM     12  S   UNL     1      -3.570  -1.502  -0.066  1.00  0.00     0.264 S 
ATOM     13  O   UNL     1      -3.986  -1.774   1.294  1.00  0.00    -0.201 OA
ATOM     14  O   UNL     1      -4.558  -1.436  -1.125  1.00  0.00    -0.201 OA
BRANCH  12  15
ATOM     15  N   UNL     1      -2.820  -0.030  -0.079  1.00  0.00    -0.263 N 
ATOM     16  H   UNL     1      -3.274   0.715  -0.534  1.00  0.00     0.182 HD
BRANCH  15  17
ATOM     17  C   UNL     1      -1.578   0.224   0.520  1.00  0.00     0.139 A 
ATOM     18  C   UNL     1       2.618   0.183   0.412  1.00  0.00     0.046 C 
ATOM     19  C   UNL     1       1.146   0.314   0.635  1.00  0.00    -0.033 A 
ATOM     20  C   UNL     1       0.444   1.446   0.221  1.00  0.00     0.009 A 
ATOM     21  C   UNL     1       0.406  -0.763   1.106  1.00  0.00     0.117 A 
ATOM     22  C   UNL     1      -0.946   1.410   0.178  1.00  0.00     0.048 A 
ATOM     23  N   UNL     1      -0.941  -0.826   1.060  1.00  0.00    -0.238 NA
ENDBRANCH  15  17
ENDBRANCH  12  15
ENDBRANCH   6  12
ENDBRANCH   3   5
ENDBRANCH   2   3
ENDBRANCH   1   2
BRANCH   1  24
ATOM     24  C   UNL     1      -3.635  -9.083   1.346  1.00  0.00     0.275 C 
BRANCH  24  25
ATOM     25  O   UNL     1      -4.832  -8.287   1.272  1.00  0.00    -0.458 OA
BRANCH  25  26
ATOM     26  C   UNL     1      -4.804  -7.165   2.025  1.00  0.00     0.338 C 
ATOM     27  O   UNL     1      -3.893  -6.788   2.744  1.00  0.00    -0.246 OA
BRANCH  26  28
ATOM     28  C   UNL     1      -6.011  -6.354   1.811  1.00  0.00     0.060 A 
ATOM     29  C   UNL     1      -5.997  -5.434   0.770  1.00  0.00     0.016 A 
ATOM     30  C   UNL     1      -7.028  -6.319   2.760  1.00  0.00     0.016 A 
ATOM     31  C   UNL     1      -6.880  -4.364   0.772  1.00  0.00     0.010 A 
ATOM     32  C   UNL     1      -8.021  -5.335   2.659  1.00  0.00     0.010 A 
ATOM     33  C   UNL     1      -7.928  -4.312   1.696  1.00  0.00    -0.014 A 
BRANCH  33  34
ATOM     34  C   UNL     1      -8.913  -3.194   1.639  1.00  0.00     0.031 A 
ATOM     35  C   UNL     1      -9.199  -2.359   2.860  1.00  0.00     0.074 A 
ATOM     36  C   UNL     1      -9.565  -2.933   0.486  1.00  0.00     0.049 A 
ATOM     37  N   UNL     1     -10.146  -1.477   3.055  1.00  0.00    -0.248 NA
ATOM     38  C   UNL     1      -8.325  -2.562   4.027  1.00  0.00     0.031 C 
ATOM     39  C   UNL     1      -9.373  -3.648  -0.778  1.00  0.00     0.029 A 
ATOM     40  N   UNL     1     -10.533  -2.004   0.191  1.00  0.00    -0.354 N 
ATOM     41  C   UNL     1     -10.034  -1.083   4.384  1.00  0.00     0.074 A 
ATOM     42  C   UNL     1      -8.925  -1.821   4.948  1.00  0.00     0.031 C 
ATOM     43  C   UNL     1     -10.170  -3.119  -1.715  1.00  0.00     0.029 A 
ATOM     44  C   UNL     1     -11.008  -2.102  -1.097  1.00  0.00     0.049 A 
ATOM     45  H   UNL     1     -10.855  -1.334   0.837  1.00  0.00     0.167 HD
ATOM     46  C   UNL     1     -10.784  -0.183   5.067  1.00  0.00     0.034 A 
ATOM     47  C   UNL     1     -12.040  -1.492  -1.707  1.00  0.00     0.034 A 
ATOM     48  C   UNL     1     -11.840   0.597   4.474  1.00  0.00     0.049 A 
ATOM     49  C   UNL     1     -12.857  -0.503  -0.930  1.00  0.00     0.074 A 
ATOM     50  C   UNL     1     -12.622   1.576   5.063  1.00  0.00     0.029 A 
ATOM     51  N   UNL     1     -12.262   0.490   3.157  1.00  0.00    -0.354 N 
ATOM     52  N   UNL     1     -12.712  -0.110   0.312  1.00  0.00    -0.248 NA
ATOM     53  C   UNL     1     -13.969   0.140  -1.641  1.00  0.00     0.031 C 
ATOM     54  C   UNL     1     -13.541   2.033   4.113  1.00  0.00     0.029 A 
ATOM     55  C   UNL     1     -13.303   1.373   2.918  1.00  0.00     0.049 A 
ATOM     56  H   UNL     1     -11.879  -0.123   2.489  1.00  0.00     0.167 HD
ATOM     57  C   UNL     1     -13.696   0.846   0.525  1.00  0.00     0.074 A 
ATOM     58  C   UNL     1     -14.416   0.988  -0.725  1.00  0.00     0.031 C 
ATOM     59  C   UNL     1     -13.984   1.533   1.658  1.00  0.00     0.034 A 
BRANCH  46  60
ATOM     60  C   UNL     1     -10.494   0.005   6.536  1.00  0.00     0.023 A 
ATOM     61  C   UNL     1      -9.300   0.629   6.953  1.00  0.00     0.012 A 
ATOM     62  C   UNL     1     -11.429  -0.405   7.509  1.00  0.00     0.148 A 
ATOM     63  C   UNL     1      -9.021   0.797   8.310  1.00  0.00     0.002 A 
ATOM     64  C   UNL     1     -11.167  -0.188   8.857  1.00  0.00     0.091 A 
ATOM     65  F   UNL     1     -12.553  -1.012   7.100  1.00  0.00    -0.205 F 
ATOM     66  C   UNL     1      -9.957   0.398   9.260  1.00  0.00     0.022 A 
BRANCH  64  67
ATOM     67  S   UNL     1     -12.348  -0.589  10.151  1.00  0.00     0.127 S 
ATOM     68  O   UNL     1     -11.710  -1.739  10.790  1.00  0.00    -0.237 OA
ATOM     69  O   UNL     1     -12.348   0.632  10.957  1.00  0.00    -0.237 OA
ATOM     70  O   UNL     1     -13.607  -0.868   9.475  1.00  0.00    -0.744 OA
ENDBRANCH  64  67
ENDBRANCH  46  60
BRANCH  47  71
ATOM     71  C   UNL     1     -12.351  -1.815  -3.128  1.00  0.00     0.023 A 
ATOM     72  C   UNL     1     -12.128  -0.847  -4.125  1.00  0.00     0.012 A 
ATOM     73  C   UNL     1     -12.805  -3.096  -3.502  1.00  0.00     0.148 A 
ATOM     74  C   UNL     1     -12.371  -1.143  -5.467  1.00  0.00     0.002 A 
ATOM     75  C   UNL     1     -12.984  -3.404  -4.845  1.00  0.00     0.091 A 
ATOM     76  F   UNL     1     -13.021  -4.000  -2.536  1.00  0.00    -0.205 F 
ATOM     77  C   UNL     1     -12.785  -2.423  -5.828  1.00  0.00     0.022 A 
BRANCH  75  78
ATOM     78  S   UNL     1     -13.379  -5.062  -5.413  1.00  0.00     0.127 S 
ATOM     79  O   UNL     1     -14.730  -4.884  -5.938  1.00  0.00    -0.237 OA
ATOM     80  O   UNL     1     -12.348  -5.285  -6.428  1.00  0.00    -0.237 OA
ATOM     81  O   UNL     1     -13.266  -5.920  -4.242  1.00  0.00    -0.744 OA
ENDBRANCH  75  78
ENDBRANCH  47  71
BRANCH  59  82
ATOM     82  C   UNL     1     -15.102   2.541   1.588  1.00  0.00     0.023 A 
ATOM     83  C   UNL     1     -16.439   2.108   1.496  1.00  0.00     0.012 A 
ATOM     84  C   UNL     1     -14.824   3.919   1.675  1.00  0.00     0.148 A 
ATOM     85  C   UNL     1     -17.481   3.034   1.454  1.00  0.00     0.002 A 
ATOM     86  C   UNL     1     -15.870   4.833   1.687  1.00  0.00     0.091 A 
ATOM     87  F   UNL     1     -13.543   4.311   1.742  1.00  0.00    -0.205 F 
ATOM     88  C   UNL     1     -17.198   4.393   1.562  1.00  0.00     0.022 A 
BRANCH  86  89
ATOM     89  S   UNL     1     -15.608   6.594   1.921  1.00  0.00     0.127 S 
ATOM     90  O   UNL     1     -15.943   7.123   0.599  1.00  0.00    -0.237 OA
ATOM     91  O   UNL     1     -16.577   6.914   2.969  1.00  0.00    -0.237 OA
ATOM     92  O   UNL     1     -14.215   6.747   2.317  1.00  0.00    -0.744 OA
ENDBRANCH  86  89
ENDBRANCH  59  82
ENDBRANCH  33  34
ENDBRANCH  26  28
ENDBRANCH  25  26
ENDBRANCH  24  25
ENDBRANCH   1  24
TORSDOF 17
