REMARK SMILES CCc1ncc(C[N@H+]2CCC[C@@H](c3cccc(C(=O)OCCOC(=O)c4ccc(-c5c6nc(c(-c7cccc(S(=O)(=O)[O-])c7F)c7ccc([nH]7)c(-c7cccc(S(=O)(=O)[O-])c7F)c7nc(c(-c8cccc(S(=O)(=O)[O-])c8F)c8ccc5[nH]8)C=C7)C=C6)cc4)c3)C2)cn1
REMARK SMILES IDX 21 1 20 2 18 3 19 4 17 5 13 6 14 7 89 8 15 9 16 10 12 11
REMARK SMILES IDX 8 12 9 13 90 14 10 16 11 17 7 18 6 19 3 20 4 21 92 22 5 23
REMARK SMILES IDX 91 24 2 25 1 26 22 27 23 28 24 29 25 30 26 31 27 32 88 33
REMARK SMILES IDX 28 34 87 35 29 36 30 37 31 38 81 39 32 40 86 41 80 42 82 43
REMARK SMILES IDX 33 44 85 45 79 46 78 47 34 49 66 50 46 51 65 52 47 53 50 54
REMARK SMILES IDX 64 55 83 56 48 57 49 58 63 60 84 61 51 62 35 63 36 64 44 65
REMARK SMILES IDX 37 66 39 67 45 68 38 69 40 70 41 71 42 72 43 73 67 74 68 75
REMARK SMILES IDX 76 76 69 77 71 78 77 79 70 80 72 81 73 82 74 83 75 84 52 85
REMARK SMILES IDX 53 86 61 87 54 88 56 89 62 90 55 91 57 92 58 93 59 94 60 95
REMARK H PARENT 8 15 82 48 50 59
REMARK Flexibility Score: inf
ROOT
ATOM      1  C   UNL     1       6.665   4.674  11.592  1.00  0.00     0.275 C 
ENDROOT
BRANCH   1   2
ATOM      2  O   UNL     1       5.686   4.386  10.575  1.00  0.00    -0.458 OA
BRANCH   2   3
ATOM      3  C   UNL     1       5.962   3.332   9.764  1.00  0.00     0.338 C 
ATOM      4  O   UNL     1       6.979   2.666   9.761  1.00  0.00    -0.246 OA
BRANCH   3   5
ATOM      5  C   UNL     1       4.779   3.010   8.927  1.00  0.00     0.060 A 
ATOM      6  C   UNL     1       2.766   3.639   7.728  1.00  0.00    -0.038 A 
ATOM      7  C   UNL     1       2.533   2.280   7.447  1.00  0.00     0.004 A 
ATOM      8  C   UNL     1       3.871   3.991   8.519  1.00  0.00     0.020 A 
ATOM      9  C   UNL     1       3.449   1.307   7.828  1.00  0.00     0.001 A 
ATOM     10  C   UNL     1       4.596   1.681   8.518  1.00  0.00     0.016 A 
BRANCH   6  11
ATOM     11  C   UNL     1       1.965   4.725   7.025  1.00  0.00     0.074 C 
ATOM     12  N   UNL     1       1.539   5.542   4.658  1.00  0.00    -0.331 N 
ATOM     13  C   UNL     1       0.094   5.395   4.877  1.00  0.00     0.262 C 
ATOM     14  C   UNL     1       2.304   4.634   5.520  1.00  0.00     0.270 C 
ATOM     15  H   UNL     1       1.769   6.500   4.921  1.00  0.00     0.348 HD
ATOM     16  C   UNL     1      -0.277   5.617   6.346  1.00  0.00     0.062 C 
ATOM     17  C   UNL     1       0.454   4.632   7.257  1.00  0.00     0.020 C 
BRANCH  12  18
ATOM     18  C   UNL     1       1.933   5.403   3.238  1.00  0.00     0.302 C 
BRANCH  18  19
ATOM     19  C   UNL     1       1.625   4.088   2.579  1.00  0.00     0.043 A 
ATOM     20  C   UNL     1       0.935   1.649   1.589  1.00  0.00     0.127 A 
ATOM     21  N   UNL     1       0.094   2.677   1.364  1.00  0.00    -0.241 NA
ATOM     22  N   UNL     1       2.125   1.760   2.207  1.00  0.00    -0.241 NA
ATOM     23  C   UNL     1       0.463   3.872   1.868  1.00  0.00     0.124 A 
ATOM     24  C   UNL     1       2.442   2.980   2.683  1.00  0.00     0.124 A 
BRANCH  20  25
ATOM     25  C   UNL     1       0.506   0.281   1.141  1.00  0.00     0.074 C 
ATOM     26  C   UNL     1       1.034  -0.044  -0.245  1.00  0.00     0.012 C 
ENDBRANCH  20  25
ENDBRANCH  18  19
ENDBRANCH  12  18
ENDBRANCH   6  11
ENDBRANCH   3   5
ENDBRANCH   2   3
ENDBRANCH   1   2
BRANCH   1  27
ATOM     27  C   UNL     1       6.166   4.221  12.964  1.00  0.00     0.275 C 
BRANCH  27  28
ATOM     28  O   UNL     1       6.120   2.785  13.032  1.00  0.00    -0.458 OA
BRANCH  28  29
ATOM     29  C   UNL     1       4.884   2.238  13.001  1.00  0.00     0.338 C 
ATOM     30  O   UNL     1       3.813   2.821  12.965  1.00  0.00    -0.246 OA
BRANCH  29  31
ATOM     31  C   UNL     1       4.998   0.775  12.937  1.00  0.00     0.060 A 
ATOM     32  C   UNL     1       5.205   0.186  11.694  1.00  0.00     0.016 A 
ATOM     33  C   UNL     1       4.768  -0.018  14.057  1.00  0.00     0.016 A 
ATOM     34  C   UNL     1       5.089  -1.191  11.533  1.00  0.00     0.010 A 
ATOM     35  C   UNL     1       4.743  -1.410  13.912  1.00  0.00     0.010 A 
ATOM     36  C   UNL     1       4.862  -2.012  12.643  1.00  0.00    -0.014 A 
BRANCH  36  37
ATOM     37  C   UNL     1       4.700  -3.486  12.483  1.00  0.00     0.031 A 
ATOM     38  C   UNL     1       3.434  -4.154  12.956  1.00  0.00     0.074 A 
ATOM     39  C   UNL     1       5.684  -4.234  11.943  1.00  0.00     0.049 A 
ATOM     40  N   UNL     1       3.180  -5.426  13.118  1.00  0.00    -0.248 NA
ATOM     41  C   UNL     1       2.312  -3.270  13.314  1.00  0.00     0.031 C 
ATOM     42  C   UNL     1       6.948  -3.720  11.413  1.00  0.00     0.029 A 
ATOM     43  N   UNL     1       5.782  -5.594  11.771  1.00  0.00    -0.354 N 
ATOM     44  C   UNL     1       1.908  -5.492  13.677  1.00  0.00     0.074 A 
ATOM     45  C   UNL     1       1.435  -4.131  13.810  1.00  0.00     0.031 C 
ATOM     46  C   UNL     1       7.693  -4.747  10.975  1.00  0.00     0.029 A 
ATOM     47  C   UNL     1       6.998  -5.996  11.265  1.00  0.00     0.049 A 
ATOM     48  H   UNL     1       5.055  -6.220  11.988  1.00  0.00     0.167 HD
ATOM     49  C   UNL     1       1.197  -6.586  14.040  1.00  0.00     0.034 A 
ATOM     50  C   UNL     1       7.520  -7.227  11.100  1.00  0.00     0.034 A 
ATOM     51  C   UNL     1       1.637  -7.939  13.828  1.00  0.00     0.049 A 
ATOM     52  C   UNL     1       6.705  -8.427  11.497  1.00  0.00     0.074 A 
ATOM     53  C   UNL     1       0.971  -9.117  14.121  1.00  0.00     0.029 A 
ATOM     54  N   UNL     1       2.847  -8.297  13.254  1.00  0.00    -0.354 N 
ATOM     55  N   UNL     1       5.492  -8.473  11.992  1.00  0.00    -0.248 NA
ATOM     56  C   UNL     1       7.324  -9.746  11.300  1.00  0.00     0.031 C 
ATOM     57  C   UNL     1       1.784 -10.187  13.734  1.00  0.00     0.029 A 
ATOM     58  C   UNL     1       2.947  -9.676  13.180  1.00  0.00     0.049 A 
ATOM     59  H   UNL     1       3.535  -7.664  12.945  1.00  0.00     0.167 HD
ATOM     60  C   UNL     1       5.190  -9.822  12.137  1.00  0.00     0.074 A 
ATOM     61  C   UNL     1       6.340 -10.561  11.659  1.00  0.00     0.031 C 
ATOM     62  C   UNL     1       4.070 -10.396  12.639  1.00  0.00     0.034 A 
BRANCH  49  63
ATOM     63  C   UNL     1      -0.145  -6.371  14.690  1.00  0.00     0.023 A 
ATOM     64  C   UNL     1      -1.243  -5.945  13.916  1.00  0.00     0.012 A 
ATOM     65  C   UNL     1      -0.332  -6.648  16.060  1.00  0.00     0.148 A 
ATOM     66  C   UNL     1      -2.497  -5.766  14.501  1.00  0.00     0.002 A 
ATOM     67  C   UNL     1      -1.595  -6.510  16.626  1.00  0.00     0.091 A 
ATOM     68  F   UNL     1       0.728  -7.032  16.786  1.00  0.00    -0.205 F 
ATOM     69  C   UNL     1      -2.675  -6.058  15.851  1.00  0.00     0.022 A 
BRANCH  67  70
ATOM     70  S   UNL     1      -1.940  -6.939  18.337  1.00  0.00     0.127 S 
ATOM     71  O   UNL     1      -2.097  -5.619  18.946  1.00  0.00    -0.237 OA
ATOM     72  O   UNL     1      -3.179  -7.707  18.219  1.00  0.00    -0.237 OA
ATOM     73  O   UNL     1      -0.792  -7.708  18.796  1.00  0.00    -0.744 OA
ENDBRANCH  67  70
ENDBRANCH  49  63
BRANCH  50  74
ATOM     74  C   UNL     1       8.886  -7.384  10.521  1.00  0.00     0.023 A 
ATOM     75  C   UNL     1       9.033  -7.945   9.238  1.00  0.00     0.012 A 
ATOM     76  C   UNL     1      10.033  -6.948  11.214  1.00  0.00     0.148 A 
ATOM     77  C   UNL     1      10.298  -8.088   8.665  1.00  0.00     0.002 A 
ATOM     78  C   UNL     1      11.283  -7.037  10.613  1.00  0.00     0.091 A 
ATOM     79  F   UNL     1       9.877  -6.439  12.444  1.00  0.00    -0.205 F 
ATOM     80  C   UNL     1      11.420  -7.622   9.345  1.00  0.00     0.022 A 
BRANCH  78  81
ATOM     81  S   UNL     1      12.758  -6.332  11.358  1.00  0.00     0.127 S 
ATOM     82  O   UNL     1      13.469  -7.528  11.802  1.00  0.00    -0.237 OA
ATOM     83  O   UNL     1      13.369  -5.636  10.225  1.00  0.00    -0.237 OA
ATOM     84  O   UNL     1      12.278  -5.450  12.413  1.00  0.00    -0.744 OA
ENDBRANCH  78  81
ENDBRANCH  50  74
BRANCH  62  85
ATOM     85  C   UNL     1       4.001 -11.900  12.653  1.00  0.00     0.023 A 
ATOM     86  C   UNL     1       4.744 -12.627  13.603  1.00  0.00     0.012 A 
ATOM     87  C   UNL     1       3.133 -12.584  11.780  1.00  0.00     0.148 A 
ATOM     88  C   UNL     1       4.644 -14.016  13.666  1.00  0.00     0.002 A 
ATOM     89  C   UNL     1       3.003 -13.964  11.879  1.00  0.00     0.091 A 
ATOM     90  F   UNL     1       2.450 -11.873  10.870  1.00  0.00    -0.205 F 
ATOM     91  C   UNL     1       3.765 -14.682  12.814  1.00  0.00     0.022 A 
BRANCH  89  92
ATOM     92  S   UNL     1       1.828 -14.892  10.887  1.00  0.00     0.127 S 
ATOM     93  O   UNL     1       2.709 -15.569   9.937  1.00  0.00    -0.237 OA
ATOM     94  O   UNL     1       1.210 -15.772  11.879  1.00  0.00    -0.237 OA
ATOM     95  O   UNL     1       0.924 -13.906  10.310  1.00  0.00    -0.744 OA
ENDBRANCH  89  92
ENDBRANCH  62  85
ENDBRANCH  36  37
ENDBRANCH  29  31
ENDBRANCH  28  29
ENDBRANCH  27  28
ENDBRANCH   1  27
TORSDOF 18
