REMARK SMILES CC1=C([C@H](NC(=O)[C@@H]2[C@H](C)c3cc(F)ccc3N2C)C(=O)OCCOC(=O)c2ccc(-c3c4nc(c(-c5cccc(S(=O)(=O)[O-])c5F)c5ccc([nH]5)c(-c5cccc(S(=O)(=O)[O-])c5F)c5nc(c(-c6cccc(S(=O)(=O)[O-])c6F)c6ccc3[nH]6)C=C5)C=C4)cc2)[C@@H](C)N=N1
REMARK SMILES IDX 24 1 23 2 22 3 20 4 21 5 4 6 3 7 1 8 2 9 94 10 91 11 93 12
REMARK SMILES IDX 92 13 5 14 6 15 7 17 8 18 9 19 18 20 11 21 10 22 17 23 19 24
REMARK SMILES IDX 12 25 16 26 13 27 15 28 14 29 25 30 26 31 27 32 28 33 29 34
REMARK SMILES IDX 90 35 30 36 89 37 31 38 32 39 33 40 83 41 34 42 88 43 82 44
REMARK SMILES IDX 84 45 35 46 87 47 81 48 80 49 36 51 68 52 48 53 67 54 49 55
REMARK SMILES IDX 52 56 66 57 85 58 50 59 51 60 65 62 86 63 53 64 37 65 38 66
REMARK SMILES IDX 46 67 39 68 41 69 47 70 40 71 42 72 43 73 44 74 45 75 69 76
REMARK SMILES IDX 70 77 78 78 71 79 73 80 79 81 72 82 74 83 75 84 76 85 77 86
REMARK SMILES IDX 54 87 55 88 63 89 56 90 58 91 64 92 57 93 59 94 60 95 61 96
REMARK SMILES IDX 62 97
REMARK H PARENT 5 16 84 50 52 61
REMARK Flexibility Score: inf
ROOT
ATOM      1  C   UNL     1      -3.399   4.273  -0.995  1.00  0.00     0.275 C 
ENDROOT
BRANCH   1   2
ATOM      2  C   UNL     1      -2.498   4.558  -2.215  1.00  0.00     0.274 C 
BRANCH   2   3
ATOM      3  O   UNL     1      -1.428   3.588  -2.399  1.00  0.00    -0.460 OA
BRANCH   3   4
ATOM      4  C   UNL     1      -0.322   3.928  -1.686  1.00  0.00     0.333 C 
ATOM      5  O   UNL     1      -0.348   4.876  -0.908  1.00  0.00    -0.249 OA
BRANCH   4   6
ATOM      6  C   UNL     1       1.005   3.211  -2.035  1.00  0.00     0.223 C 
BRANCH   6   7
ATOM      7  C   UNL     1       1.770   4.181  -2.893  1.00  0.00     0.012 C 
ATOM      8  C   UNL     1       1.529   6.524  -1.771  1.00  0.00     0.069 C 
ATOM      9  C   UNL     1       2.002   5.506  -2.770  1.00  0.00     0.064 C 
ATOM     10  N   UNL     1       2.829   5.981  -3.759  1.00  0.00    -0.160 NA
ATOM     11  C   UNL     1       2.331   3.848  -4.234  1.00  0.00     0.156 C 
ATOM     12  N   UNL     1       3.113   5.064  -4.569  1.00  0.00    -0.181 NA
ATOM     13  C   UNL     1       1.220   3.745  -5.279  1.00  0.00     0.040 C 
ENDBRANCH   6   7
BRANCH   6  14
ATOM     14  N   UNL     1       0.907   1.863  -2.605  1.00  0.00    -0.337 N 
ATOM     15  C   UNL     1       1.700   0.731  -2.535  1.00  0.00     0.244 C 
ATOM     16  H   UNL     1       0.103   1.736  -3.158  1.00  0.00     0.164 HD
ATOM     17  O   UNL     1       1.092  -0.287  -2.899  1.00  0.00    -0.273 OA
BRANCH  15  18
ATOM     18  C   UNL     1       3.240   0.698  -2.154  1.00  0.00     0.178 C 
ATOM     19  C   UNL     1       4.068  -0.581  -2.566  1.00  0.00     0.050 C 
ATOM     20  N   UNL     1       3.512   0.920  -0.684  1.00  0.00    -0.362 N 
ATOM     21  C   UNL     1       5.036  -0.711  -1.423  1.00  0.00    -0.016 A 
ATOM     22  C   UNL     1       3.324  -1.906  -2.686  1.00  0.00     0.015 C 
ATOM     23  C   UNL     1       4.601   0.042  -0.344  1.00  0.00     0.041 A 
ATOM     24  C   UNL     1       4.022   2.241  -0.380  1.00  0.00     0.144 C 
ATOM     25  C   UNL     1       6.236  -1.413  -1.363  1.00  0.00     0.045 A 
ATOM     26  C   UNL     1       5.335   0.051   0.849  1.00  0.00     0.029 A 
ATOM     27  C   UNL     1       6.984  -1.365  -0.186  1.00  0.00     0.123 A 
ATOM     28  C   UNL     1       6.541  -0.649   0.923  1.00  0.00     0.041 A 
ATOM     29  F   UNL     1       8.148  -2.025  -0.113  1.00  0.00    -0.207 F 
ENDBRANCH  15  18
ENDBRANCH   6  14
ENDBRANCH   4   6
ENDBRANCH   3   4
ENDBRANCH   2   3
ENDBRANCH   1   2
BRANCH   1  30
ATOM     30  O   UNL     1      -2.695   4.452   0.251  1.00  0.00    -0.458 OA
BRANCH  30  31
ATOM     31  C   UNL     1      -2.289   3.317   0.878  1.00  0.00     0.338 C 
ATOM     32  O   UNL     1      -2.761   2.201   0.706  1.00  0.00    -0.246 OA
BRANCH  31  33
ATOM     33  C   UNL     1      -0.967   3.564   1.518  1.00  0.00     0.060 A 
ATOM     34  C   UNL     1      -0.568   4.815   2.016  1.00  0.00     0.016 A 
ATOM     35  C   UNL     1      -0.012   2.565   1.337  1.00  0.00     0.016 A 
ATOM     36  C   UNL     1       0.800   5.109   2.181  1.00  0.00     0.010 A 
ATOM     37  C   UNL     1       1.337   2.873   1.495  1.00  0.00     0.010 A 
ATOM     38  C   UNL     1       1.774   4.165   1.839  1.00  0.00    -0.014 A 
BRANCH  38  39
ATOM     39  C   UNL     1       3.218   4.402   2.091  1.00  0.00     0.031 A 
ATOM     40  C   UNL     1       3.631   3.895   3.413  1.00  0.00     0.074 A 
ATOM     41  C   UNL     1       4.214   4.855   1.278  1.00  0.00     0.049 A 
ATOM     42  N   UNL     1       3.887   4.648   4.429  1.00  0.00    -0.248 NA
ATOM     43  C   UNL     1       3.648   2.456   3.698  1.00  0.00     0.031 C 
ATOM     44  C   UNL     1       4.118   5.271  -0.109  1.00  0.00     0.029 A 
ATOM     45  N   UNL     1       5.580   4.873   1.452  1.00  0.00    -0.354 N 
ATOM     46  C   UNL     1       4.367   3.786   5.393  1.00  0.00     0.074 A 
ATOM     47  C   UNL     1       4.000   2.454   4.984  1.00  0.00     0.031 C 
ATOM     48  C   UNL     1       5.310   5.227  -0.739  1.00  0.00     0.029 A 
ATOM     49  C   UNL     1       6.317   4.958   0.256  1.00  0.00     0.049 A 
ATOM     50  H   UNL     1       6.006   4.829   2.338  1.00  0.00     0.167 HD
ATOM     51  C   UNL     1       5.286   4.202   6.300  1.00  0.00     0.034 A 
ATOM     52  C   UNL     1       7.661   4.916   0.061  1.00  0.00     0.034 A 
ATOM     53  C   UNL     1       5.459   5.630   6.307  1.00  0.00     0.049 A 
ATOM     54  C   UNL     1       8.230   5.490   1.297  1.00  0.00     0.074 A 
ATOM     55  C   UNL     1       4.601   6.708   6.412  1.00  0.00     0.029 A 
ATOM     56  N   UNL     1       6.616   6.127   5.757  1.00  0.00    -0.354 N 
ATOM     57  N   UNL     1       8.022   6.724   1.671  1.00  0.00    -0.248 NA
ATOM     58  C   UNL     1       8.658   4.576   2.337  1.00  0.00     0.031 C 
ATOM     59  C   UNL     1       5.100   7.670   5.485  1.00  0.00     0.029 A 
ATOM     60  C   UNL     1       6.269   7.155   4.920  1.00  0.00     0.049 A 
ATOM     61  H   UNL     1       7.529   5.803   5.933  1.00  0.00     0.167 HD
ATOM     62  C   UNL     1       7.805   6.622   3.037  1.00  0.00     0.074 A 
ATOM     63  C   UNL     1       8.327   5.307   3.403  1.00  0.00     0.031 C 
ATOM     64  C   UNL     1       6.963   7.477   3.689  1.00  0.00     0.034 A 
BRANCH  51  65
ATOM     65  C   UNL     1       6.271   3.264   6.916  1.00  0.00     0.023 A 
ATOM     66  C   UNL     1       6.804   3.592   8.172  1.00  0.00     0.012 A 
ATOM     67  C   UNL     1       6.834   2.173   6.216  1.00  0.00     0.148 A 
ATOM     68  C   UNL     1       7.839   2.837   8.729  1.00  0.00     0.002 A 
ATOM     69  C   UNL     1       7.797   1.374   6.810  1.00  0.00     0.091 A 
ATOM     70  F   UNL     1       6.517   1.980   4.928  1.00  0.00    -0.205 F 
ATOM     71  C   UNL     1       8.317   1.712   8.061  1.00  0.00     0.022 A 
BRANCH  69  72
ATOM     72  S   UNL     1       8.393  -0.120   6.014  1.00  0.00     0.127 S 
ATOM     73  O   UNL     1       9.723   0.295   5.577  1.00  0.00    -0.237 OA
ATOM     74  O   UNL     1       8.370  -1.077   7.121  1.00  0.00    -0.237 OA
ATOM     75  O   UNL     1       7.430  -0.402   4.957  1.00  0.00    -0.744 OA
ENDBRANCH  69  72
ENDBRANCH  51  65
BRANCH  52  76
ATOM     76  C   UNL     1       8.495   4.363  -1.049  1.00  0.00     0.023 A 
ATOM     77  C   UNL     1       9.881   4.632  -1.090  1.00  0.00     0.012 A 
ATOM     78  C   UNL     1       8.014   3.353  -1.916  1.00  0.00     0.148 A 
ATOM     79  C   UNL     1      10.752   3.886  -1.901  1.00  0.00     0.002 A 
ATOM     80  C   UNL     1       8.880   2.609  -2.721  1.00  0.00     0.091 A 
ATOM     81  F   UNL     1       6.708   3.076  -1.916  1.00  0.00    -0.205 F 
ATOM     82  C   UNL     1      10.255   2.861  -2.702  1.00  0.00     0.022 A 
BRANCH  80  83
ATOM     83  S   UNL     1       8.295   1.287  -3.800  1.00  0.00     0.127 S 
ATOM     84  O   UNL     1       9.016   1.562  -5.043  1.00  0.00    -0.237 OA
ATOM     85  O   UNL     1       8.738   0.088  -3.096  1.00  0.00    -0.237 OA
ATOM     86  O   UNL     1       6.849   1.463  -3.900  1.00  0.00    -0.744 OA
ENDBRANCH  80  83
ENDBRANCH  52  76
BRANCH  64  87
ATOM     87  C   UNL     1       6.489   8.729   2.985  1.00  0.00     0.023 A 
ATOM     88  C   UNL     1       5.598   8.692   1.893  1.00  0.00     0.012 A 
ATOM     89  C   UNL     1       6.755   9.966   3.601  1.00  0.00     0.148 A 
ATOM     90  C   UNL     1       4.975   9.860   1.435  1.00  0.00     0.002 A 
ATOM     91  C   UNL     1       6.105  11.117   3.170  1.00  0.00     0.091 A 
ATOM     92  F   UNL     1       7.601   9.980   4.642  1.00  0.00    -0.205 F 
ATOM     93  C   UNL     1       5.215  11.069   2.086  1.00  0.00     0.022 A 
BRANCH  91  94
ATOM     94  S   UNL     1       6.273  12.681   4.036  1.00  0.00     0.127 S 
ATOM     95  O   UNL     1       6.968  13.505   3.048  1.00  0.00    -0.237 OA
ATOM     96  O   UNL     1       4.878  13.056   4.271  1.00  0.00    -0.237 OA
ATOM     97  O   UNL     1       7.030  12.396   5.249  1.00  0.00    -0.744 OA
ENDBRANCH  91  94
ENDBRANCH  64  87
ENDBRANCH  38  39
ENDBRANCH  31  33
ENDBRANCH  30  31
ENDBRANCH   1  30
TORSDOF 17
