REMARK SMILES C[C@H](C(=O)OCCOC(=O)c1ccc(-c2c3nc(c(-c4cccc(S(=O)(=O)[O-])c4F)c4ccc([nH]4)c(-c4cccc(S(=O)(=O)[O-])c4F)c4nc(c(-c5cccc(S(=O)(=O)[O-])c5F)c5ccc2[nH]5)C=C4)C=C3)cc1)[N@@H+](C)C[C@@H]1CCC[N@H+]1C
REMARK SMILES IDX 6 1 5 2 3 3 4 4 2 5 1 6 74 7 75 8 76 10 77 11 78 12 81 13
REMARK SMILES IDX 79 14 80 15 82 16 7 18 8 19 9 20 10 21 11 22 12 23 73 24
REMARK SMILES IDX 13 25 72 26 14 27 15 28 16 29 66 30 17 31 71 32 65 33 67 34
REMARK SMILES IDX 18 35 70 36 64 37 63 38 19 40 51 41 31 42 50 43 32 44 35 45
REMARK SMILES IDX 49 46 68 47 33 48 34 49 48 51 69 52 36 53 20 54 21 55 29 56
REMARK SMILES IDX 22 57 24 58 30 59 23 60 25 61 26 62 27 63 28 64 52 65 53 66
REMARK SMILES IDX 61 67 54 68 56 69 62 70 55 71 57 72 58 73 59 74 60 75 37 76
REMARK SMILES IDX 38 77 46 78 39 79 41 80 47 81 40 82 42 83 43 84 44 85 45 86
REMARK H PARENT 74 9 81 17 67 39 35 50
REMARK Flexibility Score: inf
ROOT
ATOM      1  C   UNL     1       0.113  -5.871  -5.776  1.00  0.00     0.274 C 
ENDROOT
BRANCH   1   2
ATOM      2  O   UNL     1      -1.058  -5.209  -5.269  1.00  0.00    -0.458 OA
BRANCH   2   3
ATOM      3  C   UNL     1      -0.894  -4.517  -4.093  1.00  0.00     0.364 C 
ATOM      4  O   UNL     1       0.152  -4.512  -3.460  1.00  0.00    -0.245 OA
BRANCH   3   5
ATOM      5  C   UNL     1      -2.236  -3.858  -3.710  1.00  0.00     0.291 C 
ATOM      6  C   UNL     1      -3.142  -4.933  -3.105  1.00  0.00     0.088 C 
BRANCH   5   7
ATOM      7  N   UNL     1      -2.152  -2.594  -2.961  1.00  0.00    -0.321 N 
ATOM      8  C   UNL     1      -3.204  -1.617  -3.131  1.00  0.00     0.333 C 
ATOM      9  H   UNL     1      -1.327  -2.750  -3.540  1.00  0.00     0.348 HD
BRANCH   7  10
ATOM     10  C   UNL     1      -1.135  -2.303  -1.960  1.00  0.00     0.328 C 
BRANCH  10  11
ATOM     11  C   UNL     1      -1.422  -2.597  -0.458  1.00  0.00     0.239 C 
ATOM     12  C   UNL     1      -0.133  -3.026   0.272  1.00  0.00     0.077 C 
ATOM     13  N   UNL     1      -2.405  -3.663  -0.168  1.00  0.00    -0.330 N 
ATOM     14  C   UNL     1      -0.437  -4.399   0.840  1.00  0.00     0.068 C 
ATOM     15  C   UNL     1      -1.938  -4.383   1.014  1.00  0.00     0.262 C 
ATOM     16  C   UNL     1      -3.756  -3.147   0.029  1.00  0.00     0.333 C 
ATOM     17  H   UNL     1      -2.469  -4.287  -0.972  1.00  0.00     0.348 HD
ENDBRANCH  10  11
ENDBRANCH   7  10
ENDBRANCH   5   7
ENDBRANCH   3   5
ENDBRANCH   2   3
ENDBRANCH   1   2
BRANCH   1  18
ATOM     18  C   UNL     1       0.758  -5.066  -6.907  1.00  0.00     0.275 C 
BRANCH  18  19
ATOM     19  O   UNL     1       1.227  -3.784  -6.446  1.00  0.00    -0.458 OA
BRANCH  19  20
ATOM     20  C   UNL     1       0.363  -2.755  -6.649  1.00  0.00     0.338 C 
ATOM     21  O   UNL     1      -0.691  -2.804  -7.254  1.00  0.00    -0.246 OA
BRANCH  20  22
ATOM     22  C   UNL     1       0.777  -1.575  -5.856  1.00  0.00     0.060 A 
ATOM     23  C   UNL     1      -0.228  -0.942  -5.124  1.00  0.00     0.016 A 
ATOM     24  C   UNL     1       2.079  -1.075  -5.818  1.00  0.00     0.016 A 
ATOM     25  C   UNL     1       0.064   0.144  -4.302  1.00  0.00     0.010 A 
ATOM     26  C   UNL     1       2.366   0.050  -5.024  1.00  0.00     0.010 A 
ATOM     27  C   UNL     1       1.362   0.655  -4.248  1.00  0.00    -0.014 A 
BRANCH  27  28
ATOM     28  C   UNL     1       1.607   1.886  -3.456  1.00  0.00     0.031 A 
ATOM     29  C   UNL     1       1.313   3.222  -4.075  1.00  0.00     0.074 A 
ATOM     30  C   UNL     1       2.011   1.824  -2.173  1.00  0.00     0.049 A 
ATOM     31  N   UNL     1       1.475   4.420  -3.576  1.00  0.00    -0.248 NA
ATOM     32  C   UNL     1       0.733   3.202  -5.427  1.00  0.00     0.031 C 
ATOM     33  C   UNL     1       2.226   0.596  -1.411  1.00  0.00     0.029 A 
ATOM     34  N   UNL     1       2.318   2.829  -1.287  1.00  0.00    -0.354 N 
ATOM     35  C   UNL     1       1.039   5.298  -4.558  1.00  0.00     0.074 A 
ATOM     36  C   UNL     1       0.586   4.495  -5.674  1.00  0.00     0.031 C 
ATOM     37  C   UNL     1       2.670   0.919  -0.183  1.00  0.00     0.029 A 
ATOM     38  C   UNL     1       2.809   2.372  -0.086  1.00  0.00     0.049 A 
ATOM     39  H   UNL     1       2.199   3.784  -1.492  1.00  0.00     0.167 HD
ATOM     40  C   UNL     1       1.025   6.652  -4.542  1.00  0.00     0.034 A 
ATOM     41  C   UNL     1       3.347   3.047   0.952  1.00  0.00     0.034 A 
ATOM     42  C   UNL     1       1.503   7.459  -3.453  1.00  0.00     0.049 A 
ATOM     43  C   UNL     1       3.434   4.554   0.896  1.00  0.00     0.074 A 
ATOM     44  C   UNL     1       1.563   8.839  -3.369  1.00  0.00     0.029 A 
ATOM     45  N   UNL     1       2.025   6.963  -2.269  1.00  0.00    -0.354 N 
ATOM     46  N   UNL     1       2.979   5.377  -0.018  1.00  0.00    -0.248 NA
ATOM     47  C   UNL     1       4.094   5.228   2.026  1.00  0.00     0.031 C 
ATOM     48  C   UNL     1       2.160   9.177  -2.149  1.00  0.00     0.029 A 
ATOM     49  C   UNL     1       2.427   8.008  -1.455  1.00  0.00     0.049 A 
ATOM     50  H   UNL     1       2.100   6.008  -2.041  1.00  0.00     0.167 HD
ATOM     51  C   UNL     1       3.264   6.660   0.443  1.00  0.00     0.074 A 
ATOM     52  C   UNL     1       3.914   6.508   1.727  1.00  0.00     0.031 C 
ATOM     53  C   UNL     1       3.022   7.855  -0.151  1.00  0.00     0.034 A 
BRANCH  40  54
ATOM     54  C   UNL     1       0.511   7.344  -5.774  1.00  0.00     0.023 A 
ATOM     55  C   UNL     1      -0.870   7.356  -6.052  1.00  0.00     0.012 A 
ATOM     56  C   UNL     1       1.402   7.994  -6.649  1.00  0.00     0.148 A 
ATOM     57  C   UNL     1      -1.353   7.974  -7.205  1.00  0.00     0.002 A 
ATOM     58  C   UNL     1       0.910   8.644  -7.772  1.00  0.00     0.091 A 
ATOM     59  F   UNL     1       2.714   7.946  -6.376  1.00  0.00    -0.205 F 
ATOM     60  C   UNL     1      -0.465   8.624  -8.059  1.00  0.00     0.022 A 
BRANCH  58  61
ATOM     61  S   UNL     1       1.966   9.567  -8.893  1.00  0.00     0.127 S 
ATOM     62  O   UNL     1       1.934   8.725 -10.088  1.00  0.00    -0.237 OA
ATOM     63  O   UNL     1       1.245  10.834  -9.019  1.00  0.00    -0.237 OA
ATOM     64  O   UNL     1       3.261   9.667  -8.235  1.00  0.00    -0.744 OA
ENDBRANCH  58  61
ENDBRANCH  40  54
BRANCH  41  65
ATOM     65  C   UNL     1       3.886   2.312   2.135  1.00  0.00     0.023 A 
ATOM     66  C   UNL     1       3.289   2.481   3.399  1.00  0.00     0.012 A 
ATOM     67  C   UNL     1       5.014   1.477   2.017  1.00  0.00     0.148 A 
ATOM     68  C   UNL     1       3.829   1.865   4.530  1.00  0.00     0.002 A 
ATOM     69  C   UNL     1       5.512   0.820   3.136  1.00  0.00     0.091 A 
ATOM     70  F   UNL     1       5.584   1.347   0.811  1.00  0.00    -0.205 F 
ATOM     71  C   UNL     1       4.934   1.028   4.397  1.00  0.00     0.022 A 
BRANCH  69  72
ATOM     72  S   UNL     1       6.863  -0.360   3.042  1.00  0.00     0.127 S 
ATOM     73  O   UNL     1       7.911   0.325   3.796  1.00  0.00    -0.237 OA
ATOM     74  O   UNL     1       6.286  -1.527   3.710  1.00  0.00    -0.237 OA
ATOM     75  O   UNL     1       7.130  -0.546   1.623  1.00  0.00    -0.744 OA
ENDBRANCH  69  72
ENDBRANCH  41  65
BRANCH  53  76
ATOM     76  C   UNL     1       3.406   9.112   0.591  1.00  0.00     0.023 A 
ATOM     77  C   UNL     1       4.763   9.462   0.736  1.00  0.00     0.012 A 
ATOM     78  C   UNL     1       2.414   9.995   1.064  1.00  0.00     0.148 A 
ATOM     79  C   UNL     1       5.127  10.654   1.365  1.00  0.00     0.002 A 
ATOM     80  C   UNL     1       2.781  11.205   1.642  1.00  0.00     0.091 A 
ATOM     81  F   UNL     1       1.127   9.639   0.933  1.00  0.00    -0.205 F 
ATOM     82  C   UNL     1       4.137  11.531   1.805  1.00  0.00     0.022 A 
BRANCH  80  83
ATOM     83  S   UNL     1       1.577  12.441   2.146  1.00  0.00     0.127 S 
ATOM     84  O   UNL     1       1.679  12.379   3.603  1.00  0.00    -0.237 OA
ATOM     85  O   UNL     1       2.118  13.662   1.548  1.00  0.00    -0.237 OA
ATOM     86  O   UNL     1       0.301  12.009   1.591  1.00  0.00    -0.744 OA
ENDBRANCH  80  83
ENDBRANCH  53  76
ENDBRANCH  27  28
ENDBRANCH  20  22
ENDBRANCH  19  20
ENDBRANCH  18  19
ENDBRANCH   1  18
TORSDOF 17
