REMARK SMILES C[C@]([NH3+])(C(=O)OCCOC(=O)c1ccc(-c2c3nc(c(-c4cccc(S(=O)(=O)[O-])c4F)c4ccc([nH]4)c(-c4cccc(S(=O)(=O)[O-])c4F)c4nc(c(-c5cccc(S(=O)(=O)[O-])c5F)c5ccc2[nH]5)C=C4)C=C3)cc1)c1ccc(F)c(Br)c1
REMARK SMILES IDX 8 1 7 2 6 3 4 4 5 5 2 6 1 7 75 8 76 9 82 10 77 11 80 12
REMARK SMILES IDX 78 13 81 14 79 15 3 16 9 20 10 21 11 22 12 23 13 24 74 25
REMARK SMILES IDX 14 26 73 27 15 28 16 29 17 30 67 31 18 32 72 33 66 34 68 35
REMARK SMILES IDX 19 36 71 37 65 38 64 39 20 41 52 42 32 43 51 44 33 45 36 46
REMARK SMILES IDX 50 47 69 48 34 49 35 50 49 52 70 53 37 54 21 55 22 56 30 57
REMARK SMILES IDX 23 58 25 59 31 60 24 61 26 62 27 63 28 64 29 65 53 66 54 67
REMARK SMILES IDX 62 68 55 69 57 70 63 71 56 72 58 73 59 74 60 75 61 76 38 77
REMARK SMILES IDX 39 78 47 79 40 80 42 81 48 82 41 83 43 84 44 85 45 86 46 87
REMARK H PARENT 3 17 3 18 3 19 68 40 36 51
REMARK Flexibility Score: inf
ROOT
ATOM      1  C   UNL     1      -3.679  -0.024  -0.364  1.00  0.00     0.275 C 
ENDROOT
BRANCH   1   2
ATOM      2  C   UNL     1      -2.914  -1.343  -0.273  1.00  0.00     0.274 C 
BRANCH   2   3
ATOM      3  O   UNL     1      -1.499  -1.111  -0.119  1.00  0.00    -0.457 OA
BRANCH   3   4
ATOM      4  C   UNL     1      -0.700  -1.426  -1.185  1.00  0.00     0.372 C 
ATOM      5  O   UNL     1      -1.111  -1.914  -2.232  1.00  0.00    -0.244 OA
BRANCH   4   6
ATOM      6  C   UNL     1       0.811  -1.155  -0.879  1.00  0.00     0.215 C 
ATOM      7  C   UNL     1       1.486  -2.537  -0.749  1.00  0.00     0.098 C 
BRANCH   6   8
ATOM      8  C   UNL     1       1.459  -0.311  -1.995  1.00  0.00     0.025 A 
ATOM      9  C   UNL     1       1.823  -0.888  -3.231  1.00  0.00     0.014 A 
ATOM     10  C   UNL     1       1.677   1.076  -1.842  1.00  0.00     0.029 A 
ATOM     11  C   UNL     1       2.416  -0.128  -4.245  1.00  0.00     0.041 A 
ATOM     12  C   UNL     1       2.264   1.836  -2.861  1.00  0.00     0.054 A 
ATOM     13  C   UNL     1       2.641   1.228  -4.052  1.00  0.00     0.137 A 
ATOM     14  Br  UNL     1       2.513   3.693  -2.611  1.00  0.00    -0.048 Br
ATOM     15  F   UNL     1       3.203   1.935  -5.042  1.00  0.00    -0.206 F 
ENDBRANCH   6   8
BRANCH   6  16
ATOM     16  N   UNL     1       0.975  -0.500   0.454  1.00  0.00    -0.340 N 
ATOM     17  H   UNL     1       0.546   0.425   0.433  1.00  0.00     0.345 HD
ATOM     18  H   UNL     1       1.968  -0.410   0.669  1.00  0.00     0.345 HD
ATOM     19  H   UNL     1       0.522  -1.069   1.169  1.00  0.00     0.345 HD
ENDBRANCH   6  16
ENDBRANCH   4   6
ENDBRANCH   3   4
ENDBRANCH   2   3
ENDBRANCH   1   2
BRANCH   1  20
ATOM     20  O   UNL     1      -3.377   0.647  -1.597  1.00  0.00    -0.458 OA
BRANCH  20  21
ATOM     21  C   UNL     1      -2.445   1.623  -1.511  1.00  0.00     0.338 C 
ATOM     22  O   UNL     1      -1.858   2.003  -0.513  1.00  0.00    -0.246 OA
BRANCH  21  23
ATOM     23  C   UNL     1      -2.152   2.118  -2.861  1.00  0.00     0.060 A 
ATOM     24  C   UNL     1      -1.282   1.379  -3.659  1.00  0.00     0.016 A 
ATOM     25  C   UNL     1      -2.640   3.349  -3.293  1.00  0.00     0.016 A 
ATOM     26  C   UNL     1      -0.817   1.915  -4.855  1.00  0.00     0.010 A 
ATOM     27  C   UNL     1      -2.237   3.842  -4.540  1.00  0.00     0.010 A 
ATOM     28  C   UNL     1      -1.290   3.149  -5.317  1.00  0.00    -0.014 A 
BRANCH  28  29
ATOM     29  C   UNL     1      -0.783   3.724  -6.594  1.00  0.00     0.031 A 
ATOM     30  C   UNL     1      -0.138   5.084  -6.611  1.00  0.00     0.074 A 
ATOM     31  C   UNL     1      -0.922   3.043  -7.749  1.00  0.00     0.049 A 
ATOM     32  N   UNL     1       0.179   5.835  -7.633  1.00  0.00    -0.248 NA
ATOM     33  C   UNL     1       0.177   5.685  -5.305  1.00  0.00     0.031 C 
ATOM     34  C   UNL     1      -1.509   1.709  -7.879  1.00  0.00     0.029 A 
ATOM     35  N   UNL     1      -0.605   3.392  -9.040  1.00  0.00    -0.354 N 
ATOM     36  C   UNL     1       0.661   7.023  -7.096  1.00  0.00     0.074 A 
ATOM     37  C   UNL     1       0.607   6.889  -5.657  1.00  0.00     0.031 C 
ATOM     38  C   UNL     1      -1.514   1.353  -9.170  1.00  0.00     0.029 A 
ATOM     39  C   UNL     1      -1.013   2.466  -9.971  1.00  0.00     0.049 A 
ATOM     40  H   UNL     1      -0.132   4.223  -9.275  1.00  0.00     0.167 HD
ATOM     41  C   UNL     1       1.113   8.124  -7.743  1.00  0.00     0.034 A 
ATOM     42  C   UNL     1      -1.043   2.518 -11.317  1.00  0.00     0.034 A 
ATOM     43  C   UNL     1       1.238   8.229  -9.172  1.00  0.00     0.049 A 
ATOM     44  C   UNL     1      -0.540   3.748 -12.016  1.00  0.00     0.074 A 
ATOM     45  C   UNL     1       1.743   9.280  -9.916  1.00  0.00     0.029 A 
ATOM     46  N   UNL     1       0.860   7.245 -10.073  1.00  0.00    -0.354 N 
ATOM     47  N   UNL     1      -0.034   4.839 -11.496  1.00  0.00    -0.248 NA
ATOM     48  C   UNL     1      -0.603   3.755 -13.484  1.00  0.00     0.031 C 
ATOM     49  C   UNL     1       1.658   8.937 -11.270  1.00  0.00     0.029 A 
ATOM     50  C   UNL     1       1.108   7.669 -11.367  1.00  0.00     0.049 A 
ATOM     51  H   UNL     1       0.473   6.374  -9.828  1.00  0.00     0.167 HD
ATOM     52  C   UNL     1       0.293   5.659 -12.569  1.00  0.00     0.074 A 
ATOM     53  C   UNL     1      -0.050   4.927 -13.772  1.00  0.00     0.031 C 
ATOM     54  C   UNL     1       0.808   6.912 -12.556  1.00  0.00     0.034 A 
BRANCH  41  55
ATOM     55  C   UNL     1       1.526   9.303  -6.905  1.00  0.00     0.023 A 
ATOM     56  C   UNL     1       2.758   9.280  -6.223  1.00  0.00     0.012 A 
ATOM     57  C   UNL     1       0.712  10.449  -6.825  1.00  0.00     0.148 A 
ATOM     58  C   UNL     1       3.161  10.370  -5.451  1.00  0.00     0.002 A 
ATOM     59  C   UNL     1       1.135  11.546  -6.081  1.00  0.00     0.091 A 
ATOM     60  F   UNL     1      -0.472  10.442  -7.455  1.00  0.00    -0.205 F 
ATOM     61  C   UNL     1       2.355  11.505  -5.388  1.00  0.00     0.022 A 
BRANCH  59  62
ATOM     62  S   UNL     1       0.183  13.067  -6.005  1.00  0.00     0.127 S 
ATOM     63  O   UNL     1      -0.530  12.909  -4.739  1.00  0.00    -0.237 OA
ATOM     64  O   UNL     1       1.226  14.094  -5.992  1.00  0.00    -0.237 OA
ATOM     65  O   UNL     1      -0.644  13.070  -7.205  1.00  0.00    -0.744 OA
ENDBRANCH  59  62
ENDBRANCH  41  55
BRANCH  42  66
ATOM     66  C   UNL     1      -1.587   1.353 -12.071  1.00  0.00     0.023 A 
ATOM     67  C   UNL     1      -0.713   0.526 -12.800  1.00  0.00     0.012 A 
ATOM     68  C   UNL     1      -2.949   1.001 -11.976  1.00  0.00     0.148 A 
ATOM     69  C   UNL     1      -1.185  -0.633 -13.418  1.00  0.00     0.002 A 
ATOM     70  C   UNL     1      -3.398  -0.189 -12.535  1.00  0.00     0.091 A 
ATOM     71  F   UNL     1      -3.772   1.817 -11.302  1.00  0.00    -0.205 F 
ATOM     72  C   UNL     1      -2.521  -1.001 -13.268  1.00  0.00     0.022 A 
BRANCH  70  73
ATOM     73  S   UNL     1      -5.055  -0.817 -12.232  1.00  0.00     0.127 S 
ATOM     74  O   UNL     1      -5.716  -0.547 -13.505  1.00  0.00    -0.237 OA
ATOM     75  O   UNL     1      -4.801  -2.232 -11.958  1.00  0.00    -0.237 OA
ATOM     76  O   UNL     1      -5.550  -0.069 -11.084  1.00  0.00    -0.744 OA
ENDBRANCH  70  73
ENDBRANCH  42  66
BRANCH  54  77
ATOM     77  C   UNL     1       1.045   7.584 -13.881  1.00  0.00     0.023 A 
ATOM     78  C   UNL     1      -0.048   8.128 -14.584  1.00  0.00     0.012 A 
ATOM     79  C   UNL     1       2.350   7.764 -14.379  1.00  0.00     0.148 A 
ATOM     80  C   UNL     1       0.154   8.829 -15.772  1.00  0.00     0.002 A 
ATOM     81  C   UNL     1       2.547   8.497 -15.544  1.00  0.00     0.091 A 
ATOM     82  F   UNL     1       3.373   7.221 -13.704  1.00  0.00    -0.205 F 
ATOM     83  C   UNL     1       1.450   9.024 -16.245  1.00  0.00     0.022 A 
BRANCH  81  84
ATOM     84  S   UNL     1       4.185   8.871 -16.179  1.00  0.00     0.127 S 
ATOM     85  O   UNL     1       4.274   7.969 -17.326  1.00  0.00    -0.237 OA
ATOM     86  O   UNL     1       4.072  10.289 -16.525  1.00  0.00    -0.237 OA
ATOM     87  O   UNL     1       5.110   8.591 -15.088  1.00  0.00    -0.744 OA
ENDBRANCH  81  84
ENDBRANCH  54  77
ENDBRANCH  28  29
ENDBRANCH  21  23
ENDBRANCH  20  21
ENDBRANCH   1  20
TORSDOF 16
