REMARK SMILES Cc1cc2cc(-c3ccc([C@@H](C)C(=O)OCCOC(=O)c4ccc(-c5c6nc(c(-c7cccc(S(=O)(=O)[O-])c7F)c7ccc([nH]7)c(-c7cccc(S(=O)(=O)[O-])c7F)c7nc(c(-c8cccc(S(=O)(=O)[O-])c8F)c8ccc5[nH]8)C=C7)C=C6)cc4)cc3)ccc2[nH]1
REMARK SMILES IDX 17 1 16 2 15 3 13 4 14 5 11 6 12 7 10 8 7 9 8 10 85 11 9 12
REMARK SMILES IDX 84 13 6 14 1 15 2 16 3 17 89 18 4 19 88 20 5 22 87 23 86 24
REMARK SMILES IDX 18 25 19 26 20 27 21 28 22 29 83 30 23 31 82 32 24 33 25 34
REMARK SMILES IDX 26 35 76 36 27 37 81 38 75 39 77 40 28 41 80 42 74 43 73 44
REMARK SMILES IDX 29 46 61 47 41 48 60 49 42 50 45 51 59 52 78 53 43 54 44 55
REMARK SMILES IDX 58 57 79 58 46 59 30 60 31 61 39 62 32 63 34 64 40 65 33 66
REMARK SMILES IDX 35 67 36 68 37 69 38 70 62 71 63 72 71 73 64 74 66 75 72 76
REMARK SMILES IDX 65 77 67 78 68 79 69 80 70 81 47 82 48 83 56 84 49 85 51 86
REMARK SMILES IDX 57 87 50 88 52 89 53 90 54 91 55 92
REMARK H PARENT 89 21 77 45 45 56
REMARK Flexibility Score: inf
ROOT
ATOM      1  C   UNL     1       8.778  -1.858  -3.766  1.00  0.00     0.275 C 
ENDROOT
BRANCH   1   2
ATOM      2  C   UNL     1       8.472  -3.351  -3.638  1.00  0.00     0.274 C 
BRANCH   2   3
ATOM      3  O   UNL     1       7.590  -3.605  -2.529  1.00  0.00    -0.462 OA
BRANCH   3   4
ATOM      4  C   UNL     1       8.155  -4.096  -1.395  1.00  0.00     0.313 C 
ATOM      5  O   UNL     1       9.335  -4.416  -1.297  1.00  0.00    -0.252 OA
BRANCH   4   6
ATOM      6  C   UNL     1       7.169  -4.286  -0.247  1.00  0.00     0.126 C 
ATOM      7  C   UNL     1       6.765  -5.757  -0.157  1.00  0.00     0.025 C 
BRANCH   6   8
ATOM      8  C   UNL     1       5.962  -3.360  -0.241  1.00  0.00    -0.034 A 
ATOM      9  C   UNL     1       3.680  -1.672  -0.141  1.00  0.00    -0.018 A 
ATOM     10  C   UNL     1       3.826  -2.640  -1.147  1.00  0.00     0.009 A 
ATOM     11  C   UNL     1       4.710  -1.539   0.796  1.00  0.00     0.009 A 
ATOM     12  C   UNL     1       4.944  -3.475  -1.194  1.00  0.00     0.005 A 
ATOM     13  C   UNL     1       5.833  -2.374   0.751  1.00  0.00     0.005 A 
BRANCH   9  14
ATOM     14  C   UNL     1       2.450  -0.869  -0.061  1.00  0.00    -0.018 A 
ATOM     15  C   UNL     1      -3.569   0.249   0.043  1.00  0.00     0.064 C 
ATOM     16  C   UNL     1      -2.103   0.035   0.040  1.00  0.00     0.013 A 
ATOM     17  C   UNL     1      -1.367  -1.131   0.029  1.00  0.00     0.031 A 
ATOM     18  N   UNL     1      -1.210   1.081   0.049  1.00  0.00    -0.359 N 
ATOM     19  C   UNL     1       0.008  -0.779   0.009  1.00  0.00     0.000 A 
ATOM     20  C   UNL     1       0.084   0.611   0.023  1.00  0.00     0.046 A 
ATOM     21  H   UNL     1      -1.461   2.033   0.071  1.00  0.00     0.166 HD
ATOM     22  C   UNL     1       1.202  -1.520  -0.025  1.00  0.00     0.019 A 
ATOM     23  C   UNL     1       1.303   1.297   0.012  1.00  0.00     0.027 A 
ATOM     24  C   UNL     1       2.479   0.533  -0.033  1.00  0.00     0.011 A 
ENDBRANCH   9  14
ENDBRANCH   6   8
ENDBRANCH   4   6
ENDBRANCH   3   4
ENDBRANCH   2   3
ENDBRANCH   1   2
BRANCH   1  25
ATOM     25  O   UNL     1       9.584  -1.401  -2.667  1.00  0.00    -0.458 OA
BRANCH  25  26
ATOM     26  C   UNL     1       8.901  -0.794  -1.669  1.00  0.00     0.338 C 
ATOM     27  O   UNL     1       7.709  -0.545  -1.631  1.00  0.00    -0.246 OA
BRANCH  26  28
ATOM     28  C   UNL     1       9.802  -0.553  -0.535  1.00  0.00     0.060 A 
ATOM     29  C   UNL     1       9.606  -1.296   0.631  1.00  0.00     0.016 A 
ATOM     30  C   UNL     1      10.761   0.459  -0.581  1.00  0.00     0.016 A 
ATOM     31  C   UNL     1      10.348  -1.012   1.773  1.00  0.00     0.010 A 
ATOM     32  C   UNL     1      11.515   0.735   0.564  1.00  0.00     0.010 A 
ATOM     33  C   UNL     1      11.295   0.018   1.754  1.00  0.00    -0.014 A 
BRANCH  33  34
ATOM     34  C   UNL     1      12.009   0.381   3.001  1.00  0.00     0.031 A 
ATOM     35  C   UNL     1      11.644   1.643   3.730  1.00  0.00     0.074 A 
ATOM     36  C   UNL     1      12.976  -0.424   3.478  1.00  0.00     0.049 A 
ATOM     37  N   UNL     1      12.171   2.152   4.813  1.00  0.00    -0.248 NA
ATOM     38  C   UNL     1      10.543   2.441   3.164  1.00  0.00     0.031 C 
ATOM     39  C   UNL     1      13.416  -1.673   2.856  1.00  0.00     0.029 A 
ATOM     40  N   UNL     1      13.774  -0.301   4.587  1.00  0.00    -0.354 N 
ATOM     41  C   UNL     1      11.496   3.345   5.038  1.00  0.00     0.074 A 
ATOM     42  C   UNL     1      10.522   3.488   3.977  1.00  0.00     0.031 C 
ATOM     43  C   UNL     1      14.415  -2.195   3.586  1.00  0.00     0.029 A 
ATOM     44  C   UNL     1      14.702  -1.307   4.710  1.00  0.00     0.049 A 
ATOM     45  H   UNL     1      13.690   0.437   5.234  1.00  0.00     0.167 HD
ATOM     46  C   UNL     1      11.661   4.233   6.047  1.00  0.00     0.034 A 
ATOM     47  C   UNL     1      15.682  -1.485   5.618  1.00  0.00     0.034 A 
ATOM     48  C   UNL     1      12.600   4.068   7.124  1.00  0.00     0.049 A 
ATOM     49  C   UNL     1      15.830  -0.491   6.739  1.00  0.00     0.074 A 
ATOM     50  C   UNL     1      12.814   4.894   8.214  1.00  0.00     0.029 A 
ATOM     51  N   UNL     1      13.479   3.004   7.250  1.00  0.00    -0.354 N 
ATOM     52  N   UNL     1      15.114   0.577   6.995  1.00  0.00    -0.248 NA
ATOM     53  C   UNL     1      16.901  -0.744   7.714  1.00  0.00     0.031 C 
ATOM     54  C   UNL     1      13.827   4.330   8.997  1.00  0.00     0.029 A 
ATOM     55  C   UNL     1      14.238   3.149   8.399  1.00  0.00     0.049 A 
ATOM     56  H   UNL     1      13.553   2.254   6.616  1.00  0.00     0.167 HD
ATOM     57  C   UNL     1      15.627   1.108   8.172  1.00  0.00     0.074 A 
ATOM     58  C   UNL     1      16.700   0.230   8.593  1.00  0.00     0.031 C 
ATOM     59  C   UNL     1      15.260   2.232   8.835  1.00  0.00     0.034 A 
BRANCH  46  60
ATOM     60  C   UNL     1      10.774   5.449   6.056  1.00  0.00     0.023 A 
ATOM     61  C   UNL     1       9.430   5.322   6.458  1.00  0.00     0.012 A 
ATOM     62  C   UNL     1      11.279   6.720   5.717  1.00  0.00     0.148 A 
ATOM     63  C   UNL     1       8.593   6.436   6.499  1.00  0.00     0.002 A 
ATOM     64  C   UNL     1      10.448   7.832   5.794  1.00  0.00     0.091 A 
ATOM     65  F   UNL     1      12.553   6.816   5.310  1.00  0.00    -0.205 F 
ATOM     66  C   UNL     1       9.104   7.691   6.178  1.00  0.00     0.022 A 
BRANCH  64  67
ATOM     67  S   UNL     1      11.036   9.496   5.462  1.00  0.00     0.127 S 
ATOM     68  O   UNL     1      10.489   9.742   4.128  1.00  0.00    -0.237 OA
ATOM     69  O   UNL     1      10.405  10.271   6.531  1.00  0.00    -0.237 OA
ATOM     70  O   UNL     1      12.489   9.427   5.545  1.00  0.00    -0.744 OA
ENDBRANCH  64  67
ENDBRANCH  46  60
BRANCH  47  71
ATOM     71  C   UNL     1      16.561  -2.684   5.532  1.00  0.00     0.023 A 
ATOM     72  C   UNL     1      16.432  -3.705   6.492  1.00  0.00     0.012 A 
ATOM     73  C   UNL     1      17.494  -2.836   4.488  1.00  0.00     0.148 A 
ATOM     74  C   UNL     1      17.231  -4.848   6.426  1.00  0.00     0.002 A 
ATOM     75  C   UNL     1      18.249  -4.000   4.398  1.00  0.00     0.091 A 
ATOM     76  F   UNL     1      17.621  -1.843   3.596  1.00  0.00    -0.205 F 
ATOM     77  C   UNL     1      18.129  -5.001   5.374  1.00  0.00     0.022 A 
BRANCH  75  78
ATOM     78  S   UNL     1      19.330  -4.329   3.001  1.00  0.00     0.127 S 
ATOM     79  O   UNL     1      20.645  -4.040   3.564  1.00  0.00    -0.237 OA
ATOM     80  O   UNL     1      19.071  -5.745   2.736  1.00  0.00    -0.237 OA
ATOM     81  O   UNL     1      18.876  -3.434   1.944  1.00  0.00    -0.744 OA
ENDBRANCH  75  78
ENDBRANCH  47  71
BRANCH  59  82
ATOM     82  C   UNL     1      16.005   2.571  10.098  1.00  0.00     0.023 A 
ATOM     83  C   UNL     1      17.309   3.097  10.014  1.00  0.00     0.012 A 
ATOM     84  C   UNL     1      15.392   2.438  11.359  1.00  0.00     0.148 A 
ATOM     85  C   UNL     1      18.002   3.461  11.168  1.00  0.00     0.002 A 
ATOM     86  C   UNL     1      16.073   2.840  12.502  1.00  0.00     0.091 A 
ATOM     87  F   UNL     1      14.159   1.913  11.423  1.00  0.00    -0.205 F 
ATOM     88  C   UNL     1      17.381   3.344  12.410  1.00  0.00     0.022 A 
BRANCH  86  89
ATOM     89  S   UNL     1      15.306   2.802  14.127  1.00  0.00     0.127 S 
ATOM     90  O   UNL     1      15.827   1.551  14.675  1.00  0.00    -0.237 OA
ATOM     91  O   UNL     1      15.835   4.011  14.758  1.00  0.00    -0.237 OA
ATOM     92  O   UNL     1      13.870   2.837  13.881  1.00  0.00    -0.744 OA
ENDBRANCH  86  89
ENDBRANCH  59  82
ENDBRANCH  33  34
ENDBRANCH  26  28
ENDBRANCH  25  26
ENDBRANCH   1  25
TORSDOF 16
