REMARK SMILES COc1ccc(N[C@]2(Br)C(=O)NC(=O)N[C@@H]2C(=O)OCCOC(=O)c2ccc(-c3c4nc(c(-c5cccc(S(=O)(=O)[O-])c5F)c5ccc([nH]5)c(-c5cccc(S(=O)(=O)[O-])c5F)c5nc(c(-c6cccc(S(=O)(=O)[O-])c6F)c6ccc3[nH]6)C=C5)C=C4)cc2)cc1
REMARK SMILES IDX 20 1 19 2 17 3 18 4 16 5 8 6 10 7 9 8 11 9 12 10 15 11 13 12
REMARK SMILES IDX 14 15 7 16 6 18 3 19 4 20 89 21 5 22 88 23 2 24 1 25 21 26
REMARK SMILES IDX 22 27 23 28 24 29 25 30 26 31 87 32 27 33 86 34 28 35 29 36
REMARK SMILES IDX 30 37 80 38 31 39 85 40 79 41 81 42 32 43 84 44 78 45 77 46
REMARK SMILES IDX 33 48 65 49 45 50 64 51 46 52 49 53 63 54 82 55 47 56 48 57
REMARK SMILES IDX 62 59 83 60 50 61 34 62 35 63 43 64 36 65 38 66 44 67 37 68
REMARK SMILES IDX 39 69 40 70 41 71 42 72 66 73 67 74 75 75 68 76 70 77 76 78
REMARK SMILES IDX 69 79 71 80 72 81 73 82 74 83 51 84 52 85 60 86 53 87 55 88
REMARK SMILES IDX 61 89 54 90 56 91 57 92 58 93 59 94
REMARK H PARENT 12 13 15 14 7 17 81 47 49 58
REMARK Flexibility Score: inf
ROOT
ATOM      1  C   UNL     1      -3.342  -2.070  -9.084  1.00  0.00     0.274 C 
ENDROOT
BRANCH   1   2
ATOM      2  O   UNL     1      -2.581  -2.036  -7.849  1.00  0.00    -0.460 OA
BRANCH   2   3
ATOM      3  C   UNL     1      -1.360  -2.622  -7.981  1.00  0.00     0.332 C 
ATOM      4  O   UNL     1      -0.953  -2.946  -9.083  1.00  0.00    -0.250 OA
BRANCH   3   5
ATOM      5  C   UNL     1      -0.494  -2.656  -6.727  1.00  0.00     0.240 C 
ATOM      6  C   UNL     1       0.408  -3.916  -6.595  1.00  0.00     0.204 C 
ATOM      7  C   UNL     1      -0.133  -4.943  -5.590  1.00  0.00     0.267 C 
ATOM      8  Br  UNL     1       2.067  -3.255  -5.608  1.00  0.00    -0.048 Br
ATOM      9  O   UNL     1       0.320  -6.081  -5.441  1.00  0.00    -0.271 OA
ATOM     10  N   UNL     1      -1.144  -4.539  -4.755  1.00  0.00    -0.275 N 
ATOM     11  N   UNL     1      -1.278  -2.368  -5.522  1.00  0.00    -0.321 N 
ATOM     12  C   UNL     1      -1.675  -3.297  -4.625  1.00  0.00     0.322 C 
ATOM     13  H   UNL     1      -1.532  -5.236  -4.179  1.00  0.00     0.174 HD
ATOM     14  H   UNL     1      -1.533  -1.432  -5.354  1.00  0.00     0.166 HD
ATOM     15  O   UNL     1      -2.453  -3.020  -3.721  1.00  0.00    -0.248 OA
BRANCH   6  16
ATOM     16  N   UNL     1       0.975  -4.528  -7.795  1.00  0.00    -0.360 N 
ATOM     17  H   UNL     1       1.954  -4.470  -7.885  1.00  0.00     0.162 HD
BRANCH  16  18
ATOM     18  C   UNL     1       0.313  -5.179  -8.820  1.00  0.00     0.036 A 
ATOM     19  C   UNL     1      -1.133  -5.977 -11.140  1.00  0.00     0.119 A 
ATOM     20  C   UNL     1      -1.646  -6.191  -9.859  1.00  0.00     0.048 A 
ATOM     21  C   UNL     1       0.106  -5.379 -11.269  1.00  0.00     0.048 A 
ATOM     22  C   UNL     1      -0.922  -5.815  -8.710  1.00  0.00     0.029 A 
ATOM     23  C   UNL     1       0.795  -4.986 -10.121  1.00  0.00     0.029 A 
BRANCH  19  24
ATOM     24  O   UNL     1      -1.941  -6.316 -12.191  1.00  0.00    -0.497 OA
ATOM     25  C   UNL     1      -1.244  -6.675 -13.384  1.00  0.00     0.278 C 
ENDBRANCH  19  24
ENDBRANCH  16  18
ENDBRANCH   6  16
ENDBRANCH   3   5
ENDBRANCH   2   3
ENDBRANCH   1   2
BRANCH   1  26
ATOM     26  C   UNL     1      -2.965  -1.002 -10.146  1.00  0.00     0.275 C 
BRANCH  26  27
ATOM     27  O   UNL     1      -1.673  -1.185 -10.778  1.00  0.00    -0.458 OA
BRANCH  27  28
ATOM     28  C   UNL     1      -0.626  -0.538 -10.194  1.00  0.00     0.338 C 
ATOM     29  O   UNL     1      -0.729   0.297  -9.305  1.00  0.00    -0.246 OA
BRANCH  28  30
ATOM     30  C   UNL     1       0.698  -1.128 -10.577  1.00  0.00     0.060 A 
ATOM     31  C   UNL     1       1.701  -1.152  -9.590  1.00  0.00     0.016 A 
ATOM     32  C   UNL     1       0.967  -1.698 -11.824  1.00  0.00     0.016 A 
ATOM     33  C   UNL     1       2.947  -1.752  -9.828  1.00  0.00     0.010 A 
ATOM     34  C   UNL     1       2.230  -2.274 -12.074  1.00  0.00     0.010 A 
ATOM     35  C   UNL     1       3.231  -2.312 -11.078  1.00  0.00    -0.014 A 
BRANCH  35  36
ATOM     36  C   UNL     1       4.612  -2.769 -11.414  1.00  0.00     0.031 A 
ATOM     37  C   UNL     1       5.546  -1.763 -12.032  1.00  0.00     0.074 A 
ATOM     38  C   UNL     1       5.055  -4.030 -11.219  1.00  0.00     0.049 A 
ATOM     39  N   UNL     1       6.780  -1.918 -12.432  1.00  0.00    -0.248 NA
ATOM     40  C   UNL     1       5.027  -0.393 -12.184  1.00  0.00     0.031 C 
ATOM     41  C   UNL     1       4.342  -5.100 -10.536  1.00  0.00     0.029 A 
ATOM     42  N   UNL     1       6.224  -4.640 -11.621  1.00  0.00    -0.354 N 
ATOM     43  C   UNL     1       7.194  -0.666 -12.862  1.00  0.00     0.074 A 
ATOM     44  C   UNL     1       6.070   0.231 -12.709  1.00  0.00     0.031 C 
ATOM     45  C   UNL     1       5.009  -6.257 -10.677  1.00  0.00     0.029 A 
ATOM     46  C   UNL     1       6.237  -6.004 -11.414  1.00  0.00     0.049 A 
ATOM     47  H   UNL     1       6.979  -4.148 -12.018  1.00  0.00     0.167 HD
ATOM     48  C   UNL     1       8.410  -0.285 -13.316  1.00  0.00     0.034 A 
ATOM     49  C   UNL     1       7.136  -6.947 -11.762  1.00  0.00     0.034 A 
ATOM     50  C   UNL     1       9.523  -1.171 -13.507  1.00  0.00     0.049 A 
ATOM     51  C   UNL     1       8.432  -6.521 -12.396  1.00  0.00     0.074 A 
ATOM     52  C   UNL     1      10.793  -0.869 -13.965  1.00  0.00     0.029 A 
ATOM     53  N   UNL     1       9.495  -2.538 -13.279  1.00  0.00    -0.354 N 
ATOM     54  N   UNL     1       8.855  -5.311 -12.666  1.00  0.00    -0.248 NA
ATOM     55  C   UNL     1       9.403  -7.580 -12.709  1.00  0.00     0.031 C 
ATOM     56  C   UNL     1      11.523  -2.059 -14.045  1.00  0.00     0.029 A 
ATOM     57  C   UNL     1      10.717  -3.097 -13.608  1.00  0.00     0.049 A 
ATOM     58  H   UNL     1       8.719  -3.037 -12.934  1.00  0.00     0.167 HD
ATOM     59  C   UNL     1      10.162  -5.457 -13.115  1.00  0.00     0.074 A 
ATOM     60  C   UNL     1      10.461  -6.873 -13.084  1.00  0.00     0.031 C 
ATOM     61  C   UNL     1      11.033  -4.499 -13.515  1.00  0.00     0.034 A 
BRANCH  48  62
ATOM     62  C   UNL     1       8.595   1.175 -13.615  1.00  0.00     0.023 A 
ATOM     63  C   UNL     1       8.716   2.087 -12.547  1.00  0.00     0.012 A 
ATOM     64  C   UNL     1       8.665   1.641 -14.940  1.00  0.00     0.148 A 
ATOM     65  C   UNL     1       8.874   3.449 -12.793  1.00  0.00     0.002 A 
ATOM     66  C   UNL     1       8.860   2.996 -15.178  1.00  0.00     0.091 A 
ATOM     67  F   UNL     1       8.519   0.758 -15.937  1.00  0.00    -0.205 F 
ATOM     68  C   UNL     1       8.954   3.902 -14.108  1.00  0.00     0.022 A 
BRANCH  66  69
ATOM     69  S   UNL     1       9.032   3.671 -16.832  1.00  0.00     0.127 S 
ATOM     70  O   UNL     1       7.787   4.423 -16.974  1.00  0.00    -0.237 OA
ATOM     71  O   UNL     1      10.233   4.496 -16.703  1.00  0.00    -0.237 OA
ATOM     72  O   UNL     1       9.173   2.526 -17.721  1.00  0.00    -0.744 OA
ENDBRANCH  66  69
ENDBRANCH  48  62
BRANCH  49  73
ATOM     73  C   UNL     1       6.888  -8.387 -11.454  1.00  0.00     0.023 A 
ATOM     74  C   UNL     1       7.653  -9.024 -10.458  1.00  0.00     0.012 A 
ATOM     75  C   UNL     1       5.925  -9.134 -12.161  1.00  0.00     0.148 A 
ATOM     76  C   UNL     1       7.497 -10.387 -10.201  1.00  0.00     0.002 A 
ATOM     77  C   UNL     1       5.746 -10.484 -11.874  1.00  0.00     0.091 A 
ATOM     78  F   UNL     1       5.215  -8.515 -13.116  1.00  0.00    -0.205 F 
ATOM     79  C   UNL     1       6.542 -11.116 -10.905  1.00  0.00     0.022 A 
BRANCH  77  80
ATOM     80  S   UNL     1       4.488 -11.488 -12.674  1.00  0.00     0.127 S 
ATOM     81  O   UNL     1       5.294 -12.341 -13.543  1.00  0.00    -0.237 OA
ATOM     82  O   UNL     1       3.875 -12.173 -11.536  1.00  0.00    -0.237 OA
ATOM     83  O   UNL     1       3.608 -10.546 -13.354  1.00  0.00    -0.744 OA
ENDBRANCH  77  80
ENDBRANCH  49  73
BRANCH  61  84
ATOM     84  C   UNL     1      12.422  -4.926 -13.909  1.00  0.00     0.023 A 
ATOM     85  C   UNL     1      12.631  -5.604 -15.126  1.00  0.00     0.012 A 
ATOM     86  C   UNL     1      13.531  -4.568 -13.116  1.00  0.00     0.148 A 
ATOM     87  C   UNL     1      13.921  -5.941 -15.536  1.00  0.00     0.002 A 
ATOM     88  C   UNL     1      14.816  -4.861 -13.556  1.00  0.00     0.091 A 
ATOM     89  F   UNL     1      13.309  -3.941 -11.952  1.00  0.00    -0.205 F 
ATOM     90  C   UNL     1      15.012  -5.557 -14.760  1.00  0.00     0.022 A 
BRANCH  88  91
ATOM     91  S   UNL     1      16.284  -4.315 -12.676  1.00  0.00     0.127 S 
ATOM     92  O   UNL     1      16.797  -5.575 -12.141  1.00  0.00    -0.237 OA
ATOM     93  O   UNL     1      17.091  -3.735 -13.750  1.00  0.00    -0.237 OA
ATOM     94  O   UNL     1      15.824  -3.356 -11.681  1.00  0.00    -0.744 OA
ENDBRANCH  88  91
ENDBRANCH  61  84
ENDBRANCH  35  36
ENDBRANCH  28  30
ENDBRANCH  27  28
ENDBRANCH  26  27
ENDBRANCH   1  26
TORSDOF 17
