REMARK SMILES O=C(OCCOC(=O)c1ccc(-c2c3nc(c(-c4cccc(S(=O)(=O)[O-])c4F)c4ccc([nH]4)c(-c4cccc(S(=O)(=O)[O-])c4F)c4nc(c(-c5cccc(S(=O)(=O)[O-])c5F)c5ccc2[nH]5)C=C4)C=C3)cc1)c1ccc(NS(=O)(=O)Cc2c(Cl)cccc2Cl)cc1
REMARK SMILES IDX 4 1 3 2 2 3 1 4 72 5 73 6 90 7 74 8 89 9 75 10 76 11 77 13
REMARK SMILES IDX 78 14 79 15 80 16 81 17 82 18 87 19 83 20 84 21 86 22 88 23
REMARK SMILES IDX 85 24 5 25 6 26 7 27 8 28 9 29 10 30 71 31 11 32 70 33 12 34
REMARK SMILES IDX 13 35 14 36 64 37 15 38 69 39 63 40 65 41 16 42 68 43 62 44
REMARK SMILES IDX 61 45 17 47 49 48 29 49 48 50 30 51 33 52 47 53 66 54 31 55
REMARK SMILES IDX 32 56 46 58 67 59 34 60 18 61 19 62 27 63 20 64 22 65 28 66
REMARK SMILES IDX 21 67 23 68 24 69 25 70 26 71 50 72 51 73 59 74 52 75 54 76
REMARK SMILES IDX 60 77 53 78 55 79 56 80 57 81 58 82 35 83 36 84 44 85 37 86
REMARK SMILES IDX 39 87 45 88 38 89 40 90 41 91 42 92 43 93
REMARK H PARENT 76 12 65 46 33 57
REMARK Flexibility Score: inf
ROOT
ATOM      1  C   UNL     1       3.598  -0.609   1.106  1.00  0.00     0.275 C 
ENDROOT
BRANCH   1   2
ATOM      2  O   UNL     1       2.514   0.200   0.593  1.00  0.00    -0.458 OA
BRANCH   2   3
ATOM      3  C   UNL     1       2.611   1.233  -0.287  1.00  0.00     0.338 C 
ATOM      4  O   UNL     1       1.905   2.226  -0.130  1.00  0.00    -0.246 OA
BRANCH   3   5
ATOM      5  C   UNL     1       3.441   1.131  -1.533  1.00  0.00     0.060 A 
ATOM      6  C   UNL     1       4.262   0.057  -1.817  1.00  0.00     0.018 A 
ATOM      7  C   UNL     1       3.356   2.132  -2.515  1.00  0.00     0.018 A 
ATOM      8  C   UNL     1       4.920  -0.069  -3.030  1.00  0.00     0.027 A 
ATOM      9  C   UNL     1       4.118   2.058  -3.705  1.00  0.00     0.027 A 
ATOM     10  C   UNL     1       4.909   0.940  -3.968  1.00  0.00     0.049 A 
BRANCH  10  11
ATOM     11  N   UNL     1       5.863   0.956  -5.028  1.00  0.00    -0.283 N 
ATOM     12  H   UNL     1       6.047   1.813  -5.476  1.00  0.00     0.180 HD
BRANCH  11  13
ATOM     13  S   UNL     1       6.687  -0.405  -5.551  1.00  0.00     0.237 S 
ATOM     14  O   UNL     1       5.795  -1.547  -5.475  1.00  0.00    -0.206 OA
ATOM     15  O   UNL     1       7.265  -0.034  -6.826  1.00  0.00    -0.206 OA
BRANCH  13  16
ATOM     16  C   UNL     1       8.096  -0.718  -4.436  1.00  0.00     0.198 C 
BRANCH  16  17
ATOM     17  C   UNL     1       8.047  -0.038  -3.084  1.00  0.00     0.006 A 
ATOM     18  C   UNL     1       7.828  -0.755  -1.884  1.00  0.00     0.046 A 
ATOM     19  C   UNL     1       8.257   1.348  -2.962  1.00  0.00     0.046 A 
ATOM     20  Cl  UNL     1       7.627  -2.475  -1.845  1.00  0.00    -0.084 Cl
ATOM     21  C   UNL     1       7.731  -0.102  -0.645  1.00  0.00     0.021 A 
ATOM     22  C   UNL     1       8.138   1.999  -1.726  1.00  0.00     0.021 A 
ATOM     23  Cl  UNL     1       8.724   2.323  -4.310  1.00  0.00    -0.084 Cl
ATOM     24  C   UNL     1       7.861   1.279  -0.569  1.00  0.00     0.003 A 
ENDBRANCH  16  17
ENDBRANCH  13  16
ENDBRANCH  11  13
ENDBRANCH  10  11
ENDBRANCH   3   5
ENDBRANCH   2   3
ENDBRANCH   1   2
BRANCH   1  25
ATOM     25  C   UNL     1       3.381  -2.109   0.808  1.00  0.00     0.275 C 
BRANCH  25  26
ATOM     26  O   UNL     1       3.100  -2.358  -0.586  1.00  0.00    -0.458 OA
BRANCH  26  27
ATOM     27  C   UNL     1       1.791  -2.296  -0.942  1.00  0.00     0.338 C 
ATOM     28  O   UNL     1       0.846  -2.334  -0.169  1.00  0.00    -0.246 OA
BRANCH  27  29
ATOM     29  C   UNL     1       1.652  -1.977  -2.392  1.00  0.00     0.060 A 
ATOM     30  C   UNL     1       0.570  -1.174  -2.775  1.00  0.00     0.016 A 
ATOM     31  C   UNL     1       2.567  -2.395  -3.364  1.00  0.00     0.016 A 
ATOM     32  C   UNL     1       0.378  -0.827  -4.118  1.00  0.00     0.010 A 
ATOM     33  C   UNL     1       2.392  -2.013  -4.706  1.00  0.00     0.010 A 
ATOM     34  C   UNL     1       1.273  -1.261  -5.105  1.00  0.00    -0.014 A 
BRANCH  34  35
ATOM     35  C   UNL     1       0.958  -1.042  -6.548  1.00  0.00     0.031 A 
ATOM     36  C   UNL     1       0.513  -2.211  -7.393  1.00  0.00     0.074 A 
ATOM     37  C   UNL     1       1.025   0.179  -7.119  1.00  0.00     0.049 A 
ATOM     38  N   UNL     1       0.087  -2.223  -8.632  1.00  0.00    -0.248 NA
ATOM     39  C   UNL     1       0.543  -3.539  -6.759  1.00  0.00     0.031 C 
ATOM     40  C   UNL     1       1.450   1.407  -6.452  1.00  0.00     0.029 A 
ATOM     41  N   UNL     1       0.741   0.581  -8.405  1.00  0.00    -0.354 N 
ATOM     42  C   UNL     1      -0.198  -3.551  -8.923  1.00  0.00     0.074 A 
ATOM     43  C   UNL     1       0.147  -4.324  -7.750  1.00  0.00     0.031 C 
ATOM     44  C   UNL     1       1.418   2.421  -7.335  1.00  0.00     0.029 A 
ATOM     45  C   UNL     1       0.965   1.919  -8.633  1.00  0.00     0.049 A 
ATOM     46  H   UNL     1       0.407  -0.033  -9.098  1.00  0.00     0.167 HD
ATOM     47  C   UNL     1      -0.739  -4.088 -10.043  1.00  0.00     0.034 A 
ATOM     48  C   UNL     1       0.815   2.660  -9.752  1.00  0.00     0.034 A 
ATOM     49  C   UNL     1      -1.112  -3.342 -11.213  1.00  0.00     0.049 A 
ATOM     50  C   UNL     1       0.251   2.032 -11.004  1.00  0.00     0.074 A 
ATOM     51  C   UNL     1      -1.728  -3.801 -12.364  1.00  0.00     0.029 A 
ATOM     52  N   UNL     1      -0.892  -1.987 -11.391  1.00  0.00    -0.354 N 
ATOM     53  N   UNL     1      -0.188   0.812 -11.193  1.00  0.00    -0.248 NA
ATOM     54  C   UNL     1       0.115   2.901 -12.186  1.00  0.00     0.031 C 
ATOM     55  C   UNL     1      -1.865  -2.726 -13.248  1.00  0.00     0.029 A 
ATOM     56  C   UNL     1      -1.347  -1.595 -12.639  1.00  0.00     0.049 A 
ATOM     57  H   UNL     1      -0.474  -1.390 -10.729  1.00  0.00     0.167 HD
ATOM     58  C   UNL     1      -0.695   0.782 -12.490  1.00  0.00     0.074 A 
ATOM     59  C   UNL     1      -0.521   2.109 -13.039  1.00  0.00     0.031 C 
ATOM     60  C   UNL     1      -1.245  -0.258 -13.165  1.00  0.00     0.034 A 
BRANCH  47  61
ATOM     61  C   UNL     1      -1.029  -5.564 -10.027  1.00  0.00     0.023 A 
ATOM     62  C   UNL     1      -2.125  -6.037  -9.276  1.00  0.00     0.012 A 
ATOM     63  C   UNL     1      -0.261  -6.470 -10.780  1.00  0.00     0.148 A 
ATOM     64  C   UNL     1      -2.434  -7.395  -9.251  1.00  0.00     0.002 A 
ATOM     65  C   UNL     1      -0.599  -7.819 -10.780  1.00  0.00     0.091 A 
ATOM     66  F   UNL     1       0.791  -6.003 -11.468  1.00  0.00    -0.205 F 
ATOM     67  C   UNL     1      -1.678  -8.283 -10.009  1.00  0.00     0.022 A 
BRANCH  65  68
ATOM     68  S   UNL     1       0.272  -9.031 -11.779  1.00  0.00     0.127 S 
ATOM     69  O   UNL     1       1.052  -9.742 -10.767  1.00  0.00    -0.237 OA
ATOM     70  O   UNL     1      -0.828  -9.807 -12.354  1.00  0.00    -0.237 OA
ATOM     71  O   UNL     1       1.045  -8.269 -12.749  1.00  0.00    -0.744 OA
ENDBRANCH  65  68
ENDBRANCH  47  61
BRANCH  48  72
ATOM     72  C   UNL     1       1.135   4.117  -9.736  1.00  0.00     0.023 A 
ATOM     73  C   UNL     1       0.090   5.056  -9.833  1.00  0.00     0.012 A 
ATOM     74  C   UNL     1       2.463   4.576  -9.645  1.00  0.00     0.148 A 
ATOM     75  C   UNL     1       0.363   6.424  -9.878  1.00  0.00     0.002 A 
ATOM     76  C   UNL     1       2.725   5.941  -9.641  1.00  0.00     0.091 A 
ATOM     77  F   UNL     1       3.446   3.667  -9.572  1.00  0.00    -0.205 F 
ATOM     78  C   UNL     1       1.679   6.867  -9.774  1.00  0.00     0.022 A 
BRANCH  76  79
ATOM     79  S   UNL     1       4.377   6.602  -9.392  1.00  0.00     0.127 S 
ATOM     80  O   UNL     1       4.709   7.092 -10.726  1.00  0.00    -0.237 OA
ATOM     81  O   UNL     1       4.138   7.646  -8.393  1.00  0.00    -0.237 OA
ATOM     82  O   UNL     1       5.174   5.484  -8.905  1.00  0.00    -0.744 OA
ENDBRANCH  76  79
ENDBRANCH  48  72
BRANCH  60  83
ATOM     83  C   UNL     1      -1.748  -0.017 -14.566  1.00  0.00     0.023 A 
ATOM     84  C   UNL     1      -0.828   0.149 -15.620  1.00  0.00     0.012 A 
ATOM     85  C   UNL     1      -3.128  -0.053 -14.856  1.00  0.00     0.148 A 
ATOM     86  C   UNL     1      -1.273   0.300 -16.934  1.00  0.00     0.002 A 
ATOM     87  C   UNL     1      -3.562   0.054 -16.173  1.00  0.00     0.091 A 
ATOM     88  F   UNL     1      -3.992  -0.193 -13.839  1.00  0.00    -0.205 F 
ATOM     89  C   UNL     1      -2.636   0.240 -17.212  1.00  0.00     0.022 A 
BRANCH  87  90
ATOM     90  S   UNL     1      -5.292  -0.107 -16.634  1.00  0.00     0.127 S 
ATOM     91  O   UNL     1      -5.654   1.278 -16.928  1.00  0.00    -0.237 OA
ATOM     92  O   UNL     1      -5.223  -0.981 -17.807  1.00  0.00    -0.237 OA
ATOM     93  O   UNL     1      -5.959  -0.699 -15.482  1.00  0.00    -0.744 OA
ENDBRANCH  87  90
ENDBRANCH  60  83
ENDBRANCH  34  35
ENDBRANCH  27  29
ENDBRANCH  26  27
ENDBRANCH  25  26
ENDBRANCH   1  25
TORSDOF 18
