REMARK SMILES O=C(OCCOC(=O)c1ccc(-c2c3nc(c(-c4cccc(S(=O)(=O)[O-])c4F)c4ccc([nH]4)c(-c4cccc(S(=O)(=O)[O-])c4F)c4nc(c(-c5cccc(S(=O)(=O)[O-])c5F)c5ccc2[nH]5)C=C4)C=C3)cc1)c1ccc(OCc2cc(Cl)ccc2[N+](=O)[O-])cc1
REMARK SMILES IDX 4 1 3 2 2 3 1 4 72 5 73 6 89 7 74 8 88 9 75 10 76 11 77 12
REMARK SMILES IDX 78 13 79 14 84 15 80 16 83 17 81 18 82 19 85 20 86 21 87 22
REMARK SMILES IDX 5 23 6 24 7 25 8 26 9 27 10 28 71 29 11 30 70 31 12 32 13 33
REMARK SMILES IDX 14 34 64 35 15 36 69 37 63 38 65 39 16 40 68 41 62 42 61 43
REMARK SMILES IDX 17 45 49 46 29 47 48 48 30 49 33 50 47 51 66 52 31 53 32 54
REMARK SMILES IDX 46 56 67 57 34 58 18 59 19 60 27 61 20 62 22 63 28 64 21 65
REMARK SMILES IDX 23 66 24 67 25 68 26 69 50 70 51 71 59 72 52 73 54 74 60 75
REMARK SMILES IDX 53 76 55 77 56 78 57 79 58 80 35 81 36 82 44 83 37 84 39 85
REMARK SMILES IDX 45 86 38 87 40 88 41 89 42 90 43 91
REMARK H PARENT 65 44 33 55
REMARK Flexibility Score: inf
ROOT
ATOM      1  C   UNL     1       4.256   0.425   1.619  1.00  0.00     0.275 C 
ENDROOT
BRANCH   1   2
ATOM      2  O   UNL     1       3.103   0.751   0.833  1.00  0.00    -0.458 OA
BRANCH   2   3
ATOM      3  C   UNL     1       2.910   0.565  -0.492  1.00  0.00     0.338 C 
ATOM      4  O   UNL     1       1.852   0.959  -0.982  1.00  0.00    -0.246 OA
BRANCH   3   5
ATOM      5  C   UNL     1       3.881  -0.134  -1.399  1.00  0.00     0.060 A 
ATOM      6  C   UNL     1       4.943  -0.954  -1.009  1.00  0.00     0.019 A 
ATOM      7  C   UNL     1       3.596  -0.061  -2.770  1.00  0.00     0.019 A 
ATOM      8  C   UNL     1       5.554  -1.823  -1.900  1.00  0.00     0.047 A 
ATOM      9  C   UNL     1       4.247  -0.894  -3.678  1.00  0.00     0.047 A 
ATOM     10  C   UNL     1       5.127  -1.861  -3.209  1.00  0.00     0.119 A 
BRANCH  10  11
ATOM     11  O   UNL     1       5.583  -2.942  -3.888  1.00  0.00    -0.489 OA
BRANCH  11  12
ATOM     12  C   UNL     1       4.765  -3.361  -4.960  1.00  0.00     0.272 C 
BRANCH  12  13
ATOM     13  C   UNL     1       3.425  -4.049  -4.587  1.00  0.00     0.068 A 
ATOM     14  C   UNL     1       1.828  -3.069  -4.457  1.00  0.00     0.035 A 
ATOM     15  C   UNL     1       3.375  -5.805  -5.127  1.00  0.00     0.276 A 
ATOM     16  C   UNL     1       0.214  -3.841  -4.971  1.00  0.00     0.041 A 
ATOM     17  C   UNL     1       1.802  -6.589  -5.628  1.00  0.00     0.087 A 
ATOM     18  Cl  UNL     1      -1.210  -2.879  -5.029  1.00  0.00    -0.084 Cl
ATOM     19  C   UNL     1       0.179  -5.593  -5.569  1.00  0.00     0.027 A 
BRANCH  15  20
ATOM     20  N   UNL     1       4.555  -6.643  -5.082  1.00  0.00     0.063 N 
ATOM     21  O   UNL     1       4.482  -7.755  -5.614  1.00  0.00    -0.258 OA
ATOM     22  O   UNL     1       5.518  -6.226  -4.426  1.00  0.00    -0.258 OA
ENDBRANCH  15  20
ENDBRANCH  12  13
ENDBRANCH  11  12
ENDBRANCH  10  11
ENDBRANCH   3   5
ENDBRANCH   2   3
ENDBRANCH   1   2
BRANCH   1  23
ATOM     23  C   UNL     1       4.116  -0.951   2.301  1.00  0.00     0.275 C 
BRANCH  23  24
ATOM     24  O   UNL     1       3.785  -2.026   1.385  1.00  0.00    -0.458 OA
BRANCH  24  25
ATOM     25  C   UNL     1       2.466  -2.319   1.215  1.00  0.00     0.338 C 
ATOM     26  O   UNL     1       1.556  -1.862   1.887  1.00  0.00    -0.246 OA
BRANCH  25  27
ATOM     27  C   UNL     1       2.250  -3.157  -0.014  1.00  0.00     0.060 A 
ATOM     28  C   UNL     1       1.047  -3.003  -0.709  1.00  0.00     0.016 A 
ATOM     29  C   UNL     1       3.199  -4.051  -0.527  1.00  0.00     0.016 A 
ATOM     30  C   UNL     1       0.820  -3.682  -1.924  1.00  0.00     0.010 A 
ATOM     31  C   UNL     1       2.994  -4.697  -1.774  1.00  0.00     0.010 A 
ATOM     32  C   UNL     1       1.825  -4.474  -2.538  1.00  0.00    -0.014 A 
BRANCH  32  33
ATOM     33  C   UNL     1       1.622  -5.135  -4.159  1.00  0.00     0.031 A 
ATOM     34  C   UNL     1       0.884  -6.715  -3.517  1.00  0.00     0.074 A 
ATOM     35  C   UNL     1       1.894  -4.548  -5.916  1.00  0.00     0.049 A 
ATOM     36  N   UNL     1       0.269  -7.635  -4.247  1.00  0.00    -0.248 NA
ATOM     37  C   UNL     1       0.958  -7.162  -2.112  1.00  0.00     0.031 C 
ATOM     38  C   UNL     1       2.361  -3.135  -6.708  1.00  0.00     0.029 A 
ATOM     39  N   UNL     1       1.683  -5.168  -7.303  1.00  0.00    -0.354 N 
ATOM     40  C   UNL     1       0.144  -8.781  -3.548  1.00  0.00     0.074 A 
ATOM     41  C   UNL     1       0.470  -8.410  -2.185  1.00  0.00     0.031 C 
ATOM     42  C   UNL     1       2.539  -3.273  -8.025  1.00  0.00     0.029 A 
ATOM     43  C   UNL     1       2.223  -4.605  -8.404  1.00  0.00     0.049 A 
ATOM     44  H   UNL     1       1.146  -5.988  -7.391  1.00  0.00     0.167 HD
ATOM     45  C   UNL     1      -0.127  -9.997  -4.084  1.00  0.00     0.034 A 
ATOM     46  C   UNL     1       2.427  -5.215  -9.582  1.00  0.00     0.034 A 
ATOM     47  C   UNL     1      -0.163 -10.334  -5.516  1.00  0.00     0.049 A 
ATOM     48  C   UNL     1       1.973  -6.643  -9.757  1.00  0.00     0.074 A 
ATOM     49  C   UNL     1      -0.464 -11.571  -6.065  1.00  0.00     0.029 A 
ATOM     50  N   UNL     1       0.177  -9.525  -6.619  1.00  0.00    -0.354 N 
ATOM     51  N   UNL     1       1.447  -7.473  -8.874  1.00  0.00    -0.248 NA
ATOM     52  C   UNL     1       2.086  -7.182 -11.108  1.00  0.00     0.031 C 
ATOM     53  C   UNL     1      -0.153 -11.551  -7.432  1.00  0.00     0.029 A 
ATOM     54  C   UNL     1       0.260 -10.275  -7.798  1.00  0.00     0.049 A 
ATOM     55  H   UNL     1       0.336  -8.555  -6.567  1.00  0.00     0.167 HD
ATOM     56  C   UNL     1       1.158  -8.650  -9.565  1.00  0.00     0.074 A 
ATOM     57  C   UNL     1       1.535  -8.379 -10.953  1.00  0.00     0.031 C 
ATOM     58  C   UNL     1       0.649  -9.848  -9.147  1.00  0.00     0.034 A 
BRANCH  45  59
ATOM     59  C   UNL     1      -0.369 -11.081  -3.074  1.00  0.00     0.023 A 
ATOM     60  C   UNL     1      -1.524 -10.999  -2.269  1.00  0.00     0.012 A 
ATOM     61  C   UNL     1       0.498 -12.179  -2.932  1.00  0.00     0.148 A 
ATOM     62  C   UNL     1      -1.790 -11.967  -1.306  1.00  0.00     0.002 A 
ATOM     63  C   UNL     1       0.202 -13.166  -1.999  1.00  0.00     0.091 A 
ATOM     64  F   UNL     1       1.601 -12.232  -3.692  1.00  0.00    -0.205 F 
ATOM     65  C   UNL     1      -0.931 -13.053  -1.177  1.00  0.00     0.022 A 
BRANCH  63  66
ATOM     66  S   UNL     1       1.200 -14.646  -1.807  1.00  0.00     0.127 S 
ATOM     67  O   UNL     1       1.880 -14.378  -0.541  1.00  0.00    -0.237 OA
ATOM     68  O   UNL     1       0.183 -15.696  -1.742  1.00  0.00    -0.237 OA
ATOM     69  O   UNL     1       2.057 -14.706  -2.982  1.00  0.00    -0.744 OA
ENDBRANCH  63  66
ENDBRANCH  45  59
BRANCH  46  70
ATOM     70  C   UNL     1       3.105  -4.398 -10.611  1.00  0.00     0.023 A 
ATOM     71  C   UNL     1       2.335  -3.735 -11.579  1.00  0.00     0.012 A 
ATOM     72  C   UNL     1       4.447  -4.021 -10.396  1.00  0.00     0.148 A 
ATOM     73  C   UNL     1       2.884  -2.672 -12.295  1.00  0.00     0.002 A 
ATOM     74  C   UNL     1       4.957  -2.914 -11.054  1.00  0.00     0.091 A 
ATOM     75  F   UNL     1       5.145  -4.676  -9.456  1.00  0.00    -0.205 F 
ATOM     76  C   UNL     1       4.181  -2.243 -12.011  1.00  0.00     0.022 A 
BRANCH  74  77
ATOM     77  S   UNL     1       6.502  -2.148 -10.545  1.00  0.00     0.127 S 
ATOM     78  O   UNL     1       7.384  -2.487 -11.657  1.00  0.00    -0.237 OA
ATOM     79  O   UNL     1       6.124  -0.736 -10.459  1.00  0.00    -0.237 OA
ATOM     80  O   UNL     1       6.830  -2.751  -9.260  1.00  0.00    -0.744 OA
ENDBRANCH  74  77
ENDBRANCH  46  70
BRANCH  58  81
ATOM     81  C   UNL     1       0.466 -10.885 -10.256  1.00  0.00     0.023 A 
ATOM     82  C   UNL     1       1.579 -11.503 -10.869  1.00  0.00     0.012 A 
ATOM     83  C   UNL     1      -0.830 -11.248 -10.678  1.00  0.00     0.148 A 
ATOM     84  C   UNL     1       1.406 -12.414 -11.915  1.00  0.00     0.002 A 
ATOM     85  C   UNL     1      -0.996 -12.202 -11.678  1.00  0.00     0.091 A 
ATOM     86  F   UNL     1      -1.878 -10.643 -10.101  1.00  0.00    -0.205 F 
ATOM     87  C   UNL     1       0.120 -12.771 -12.313  1.00  0.00     0.022 A 
BRANCH  85  88
ATOM     88  S   UNL     1      -2.613 -12.793 -12.194  1.00  0.00     0.127 S 
ATOM     89  O   UNL     1      -2.697 -12.278 -13.560  1.00  0.00    -0.237 OA
ATOM     90  O   UNL     1      -2.455 -14.244 -12.097  1.00  0.00    -0.237 OA
ATOM     91  O   UNL     1      -3.569 -12.221 -11.256  1.00  0.00    -0.744 OA
ENDBRANCH  85  88
ENDBRANCH  58  81
ENDBRANCH  32  33
ENDBRANCH  25  27
ENDBRANCH  24  25
ENDBRANCH  23  24
ENDBRANCH   1  23
TORSDOF 18
