REMARK SMILES C[C@@H](Sc1nc(-c2ccc3c(c2)OCO3)ccc1C#N)C(=O)OCCOC(=O)c1ccc(-c2c3nc(c(-c4cccc(S(=O)(=O)[O-])c4F)c4ccc([nH]4)c(-c4cccc(S(=O)(=O)[O-])c4F)c4nc(c(-c5cccc(S(=O)(=O)[O-])c5F)c5ccc2[nH]5)C=C4)C=C3)cc1
REMARK SMILES IDX 24 1 23 2 21 3 22 4 2 5 1 6 3 7 4 8 5 9 18 10 6 11 17 12
REMARK SMILES IDX 16 13 19 14 20 15 7 16 8 17 12 18 9 19 11 20 10 21 13 22
REMARK SMILES IDX 15 23 14 24 25 25 26 26 27 27 28 28 29 29 30 30 91 31 31 32
REMARK SMILES IDX 90 33 32 34 33 35 34 36 84 37 35 38 89 39 83 40 85 41 36 42
REMARK SMILES IDX 88 43 82 44 81 45 37 47 69 48 49 49 68 50 50 51 53 52 67 53
REMARK SMILES IDX 86 54 51 55 52 56 66 58 87 59 54 60 38 61 39 62 47 63 40 64
REMARK SMILES IDX 42 65 48 66 41 67 43 68 44 69 45 70 46 71 70 72 71 73 79 74
REMARK SMILES IDX 72 75 74 76 80 77 73 78 75 79 76 80 77 81 78 82 55 83 56 84
REMARK SMILES IDX 64 85 57 86 59 87 65 88 58 89 60 90 61 91 62 92 63 93
REMARK H PARENT 85 46 53 57
REMARK Flexibility Score: inf
ROOT
ATOM      1  C   UNL     1      -2.925  -0.917  -0.830  1.00  0.00     0.274 C 
ENDROOT
BRANCH   1   2
ATOM      2  O   UNL     1      -1.490  -0.972  -0.705  1.00  0.00    -0.461 OA
BRANCH   2   3
ATOM      3  C   UNL     1      -0.778  -0.410  -1.723  1.00  0.00     0.319 C 
ATOM      4  O   UNL     1      -1.286   0.062  -2.735  1.00  0.00    -0.251 OA
BRANCH   3   5
ATOM      5  C   UNL     1       0.735  -0.463  -1.501  1.00  0.00     0.160 C 
ATOM      6  C   UNL     1       1.140  -0.590  -0.036  1.00  0.00     0.032 C 
BRANCH   5   7
ATOM      7  S   UNL     1       1.358  -1.842  -2.526  1.00  0.00    -0.090 SA
BRANCH   7   8
ATOM      8  C   UNL     1       3.130  -1.672  -2.337  1.00  0.00     0.115 A 
ATOM      9  N   UNL     1       3.651  -0.411  -2.329  1.00  0.00    -0.240 NA
ATOM     10  C   UNL     1       3.921  -2.819  -2.261  1.00  0.00     0.084 A 
ATOM     11  C   UNL     1       5.003  -0.282  -2.266  1.00  0.00     0.072 A 
ATOM     12  C   UNL     1       5.301  -2.666  -2.160  1.00  0.00     0.024 A 
ATOM     13  C   UNL     1       5.847  -1.389  -2.167  1.00  0.00     0.030 A 
BRANCH  10  14
ATOM     14  C   UNL     1       3.369  -4.144  -2.274  1.00  0.00     0.102 C 
ATOM     15  N   UNL     1       2.965  -5.228  -2.272  1.00  0.00    -0.192 NA
ENDBRANCH  10  14
BRANCH  11  16
ATOM     16  C   UNL     1       5.582   1.070  -2.345  1.00  0.00     0.004 A 
ATOM     17  C   UNL     1       6.503   1.381  -3.382  1.00  0.00     0.014 A 
ATOM     18  C   UNL     1       5.327   2.042  -1.361  1.00  0.00     0.061 A 
ATOM     19  C   UNL     1       7.184   2.603  -3.425  1.00  0.00     0.051 A 
ATOM     20  C   UNL     1       6.023   3.238  -1.421  1.00  0.00     0.166 A 
ATOM     21  C   UNL     1       6.929   3.506  -2.420  1.00  0.00     0.165 A 
ATOM     22  O   UNL     1       5.939   4.257  -0.522  1.00  0.00    -0.454 OA
ATOM     23  O   UNL     1       7.527   4.717  -2.278  1.00  0.00    -0.454 OA
ATOM     24  C   UNL     1       6.875   5.204  -1.087  1.00  0.00     0.468 C 
ENDBRANCH  11  16
ENDBRANCH   7   8
ENDBRANCH   5   7
ENDBRANCH   3   5
ENDBRANCH   2   3
ENDBRANCH   1   2
BRANCH   1  25
ATOM     25  C   UNL     1      -3.516   0.277  -0.074  1.00  0.00     0.275 C 
BRANCH  25  26
ATOM     26  O   UNL     1      -3.142   1.530  -0.671  1.00  0.00    -0.458 OA
BRANCH  26  27
ATOM     27  C   UNL     1      -2.000   2.071  -0.189  1.00  0.00     0.338 C 
ATOM     28  O   UNL     1      -1.294   1.633   0.704  1.00  0.00    -0.246 OA
BRANCH  27  29
ATOM     29  C   UNL     1      -1.638   3.254  -0.976  1.00  0.00     0.060 A 
ATOM     30  C   UNL     1      -0.518   3.192  -1.811  1.00  0.00     0.016 A 
ATOM     31  C   UNL     1      -2.331   4.448  -0.799  1.00  0.00     0.016 A 
ATOM     32  C   UNL     1      -0.061   4.334  -2.456  1.00  0.00     0.010 A 
ATOM     33  C   UNL     1      -1.886   5.589  -1.464  1.00  0.00     0.010 A 
ATOM     34  C   UNL     1      -0.737   5.543  -2.277  1.00  0.00    -0.014 A 
BRANCH  34  35
ATOM     35  C   UNL     1      -0.228   6.789  -2.888  1.00  0.00     0.031 A 
ATOM     36  C   UNL     1       0.305   7.873  -2.001  1.00  0.00     0.074 A 
ATOM     37  C   UNL     1      -0.319   6.967  -4.218  1.00  0.00     0.049 A 
ATOM     38  N   UNL     1       0.602   9.110  -2.295  1.00  0.00    -0.248 NA
ATOM     39  C   UNL     1       0.512   7.519  -0.587  1.00  0.00     0.031 C 
ATOM     40  C   UNL     1      -0.800   5.969  -5.173  1.00  0.00     0.029 A 
ATOM     41  N   UNL     1      -0.057   8.073  -4.986  1.00  0.00    -0.354 N 
ATOM     42  C   UNL     1       0.967   9.703  -1.093  1.00  0.00     0.074 A 
ATOM     43  C   UNL     1       0.860   8.688  -0.068  1.00  0.00     0.031 C 
ATOM     44  C   UNL     1      -0.841   6.521  -6.396  1.00  0.00     0.029 A 
ATOM     45  C   UNL     1      -0.445   7.922  -6.296  1.00  0.00     0.049 A 
ATOM     46  H   UNL     1       0.365   8.890  -4.635  1.00  0.00     0.167 HD
ATOM     47  C   UNL     1       1.353  10.982  -0.871  1.00  0.00     0.034 A 
ATOM     48  C   UNL     1      -0.525   8.826  -7.290  1.00  0.00     0.034 A 
ATOM     49  C   UNL     1       1.469  11.971  -1.908  1.00  0.00     0.049 A 
ATOM     50  C   UNL     1      -0.112  10.246  -7.017  1.00  0.00     0.074 A 
ATOM     51  C   UNL     1       1.903  13.280  -1.805  1.00  0.00     0.029 A 
ATOM     52  N   UNL     1       1.131  11.764  -3.238  1.00  0.00    -0.354 N 
ATOM     53  N   UNL     1       0.308  10.781  -5.896  1.00  0.00    -0.248 NA
ATOM     54  C   UNL     1      -0.158  11.181  -8.149  1.00  0.00     0.031 C 
ATOM     55  C   UNL     1       1.785  13.877  -3.064  1.00  0.00     0.029 A 
ATOM     56  C   UNL     1       1.332  12.925  -3.964  1.00  0.00     0.049 A 
ATOM     57  H   UNL     1       0.797  10.916  -3.611  1.00  0.00     0.167 HD
ATOM     58  C   UNL     1       0.622  12.101  -6.197  1.00  0.00     0.074 A 
ATOM     59  C   UNL     1       0.342  12.284  -7.607  1.00  0.00     0.031 C 
ATOM     60  C   UNL     1       1.097  13.073  -5.379  1.00  0.00     0.034 A 
BRANCH  47  61
ATOM     61  C   UNL     1       1.662  11.380   0.549  1.00  0.00     0.023 A 
ATOM     62  C   UNL     1       2.800  10.862   1.201  1.00  0.00     0.012 A 
ATOM     63  C   UNL     1       0.832  12.290   1.233  1.00  0.00     0.148 A 
ATOM     64  C   UNL     1       3.078  11.203   2.524  1.00  0.00     0.002 A 
ATOM     65  C   UNL     1       1.145  12.666   2.534  1.00  0.00     0.091 A 
ATOM     66  F   UNL     1      -0.258  12.758   0.608  1.00  0.00    -0.205 F 
ATOM     67  C   UNL     1       2.257  12.111   3.187  1.00  0.00     0.022 A 
BRANCH  65  68
ATOM     68  S   UNL     1       0.197  13.893   3.440  1.00  0.00     0.127 S 
ATOM     69  O   UNL     1      -0.486  13.065   4.433  1.00  0.00    -0.237 OA
ATOM     70  O   UNL     1       1.248  14.754   3.983  1.00  0.00    -0.237 OA
ATOM     71  O   UNL     1      -0.667  14.537   2.461  1.00  0.00    -0.744 OA
ENDBRANCH  65  68
ENDBRANCH  47  61
BRANCH  48  72
ATOM     72  C   UNL     1      -1.003   8.399  -8.634  1.00  0.00     0.023 A 
ATOM     73  C   UNL     1      -0.088   8.321  -9.701  1.00  0.00     0.012 A 
ATOM     74  C   UNL     1      -2.342   8.014  -8.843  1.00  0.00     0.148 A 
ATOM     75  C   UNL     1      -0.504   7.888 -10.960  1.00  0.00     0.002 A 
ATOM     76  C   UNL     1      -2.737   7.532 -10.085  1.00  0.00     0.091 A 
ATOM     77  F   UNL     1      -3.195   8.101  -7.813  1.00  0.00    -0.205 F 
ATOM     78  C   UNL     1      -1.823   7.483 -11.149  1.00  0.00     0.022 A 
BRANCH  76  79
ATOM     79  S   UNL     1      -4.379   6.872 -10.392  1.00  0.00     0.127 S 
ATOM     80  O   UNL     1      -4.903   7.821 -11.371  1.00  0.00    -0.237 OA
ATOM     81  O   UNL     1      -4.071   5.544 -10.925  1.00  0.00    -0.237 OA
ATOM     82  O   UNL     1      -5.054   6.866  -9.102  1.00  0.00    -0.744 OA
ENDBRANCH  76  79
ENDBRANCH  48  72
BRANCH  60  83
ATOM     83  C   UNL     1       1.423  14.410  -5.991  1.00  0.00     0.023 A 
ATOM     84  C   UNL     1       0.393  15.286  -6.382  1.00  0.00     0.012 A 
ATOM     85  C   UNL     1       2.765  14.833  -6.080  1.00  0.00     0.148 A 
ATOM     86  C   UNL     1       0.695  16.556  -6.875  1.00  0.00     0.002 A 
ATOM     87  C   UNL     1       3.055  16.118  -6.518  1.00  0.00     0.091 A 
ATOM     88  F   UNL     1       3.730  13.975  -5.719  1.00  0.00    -0.205 F 
ATOM     89  C   UNL     1       2.023  16.976  -6.929  1.00  0.00     0.022 A 
BRANCH  87  90
ATOM     90  S   UNL     1       4.724  16.781  -6.519  1.00  0.00     0.127 S 
ATOM     91  O   UNL     1       4.996  16.902  -7.951  1.00  0.00    -0.237 OA
ATOM     92  O   UNL     1       4.550  18.055  -5.821  1.00  0.00    -0.237 OA
ATOM     93  O   UNL     1       5.547  15.809  -5.811  1.00  0.00    -0.744 OA
ENDBRANCH  87  90
ENDBRANCH  60  83
ENDBRANCH  34  35
ENDBRANCH  27  29
ENDBRANCH  26  27
ENDBRANCH  25  26
ENDBRANCH   1  25
TORSDOF 18
