REMARK SMILES C[C@H]1[C@H](C(=O)OCCOC(=O)c2ccc(-c3c4nc(c(-c5cccc(S(=O)(=O)[O-])c5F)c5ccc([nH]5)c(-c5cccc(S(=O)(=O)[O-])c5F)c5nc(c(-c6cccc(S(=O)(=O)[O-])c6F)c6ccc3[nH]6)C=C5)C=C4)cc2)CCN1C(=O)[C@](C)([NH3+])C1CC1
REMARK SMILES IDX 7 1 6 2 4 3 5 4 3 5 1 6 2 7 77 8 75 9 76 10 78 11 79 12
REMARK SMILES IDX 80 13 81 14 82 15 83 19 84 20 85 21 8 22 9 23 10 24 11 25
REMARK SMILES IDX 12 26 13 27 74 28 14 29 73 30 15 31 16 32 17 33 67 34 18 35
REMARK SMILES IDX 72 36 66 37 68 38 19 39 71 40 65 41 64 42 20 44 52 45 32 46
REMARK SMILES IDX 51 47 33 48 36 49 50 50 69 51 34 52 35 53 49 55 70 56 37 57
REMARK SMILES IDX 21 58 22 59 30 60 23 61 25 62 31 63 24 64 26 65 27 66 28 67
REMARK SMILES IDX 29 68 53 69 54 70 62 71 55 72 57 73 63 74 56 75 58 76 59 77
REMARK SMILES IDX 60 78 61 79 38 80 39 81 47 82 40 83 42 84 48 85 41 86 43 87
REMARK SMILES IDX 44 88 45 89 46 90
REMARK H PARENT 82 16 82 17 82 18 68 43 36 54
REMARK Flexibility Score: inf
ROOT
ATOM      1  C   UNL     1       6.715  -6.430   2.458  1.00  0.00     0.274 C 
ENDROOT
BRANCH   1   2
ATOM      2  O   UNL     1       5.942  -5.606   1.559  1.00  0.00    -0.462 OA
BRANCH   2   3
ATOM      3  C   UNL     1       6.187  -5.790   0.237  1.00  0.00     0.311 C 
ATOM      4  O   UNL     1       7.036  -6.551  -0.213  1.00  0.00    -0.252 OA
BRANCH   3   5
ATOM      5  C   UNL     1       5.368  -4.896  -0.666  1.00  0.00     0.123 C 
ATOM      6  C   UNL     1       2.942  -5.207  -1.281  1.00  0.00     0.032 C 
ATOM      7  C   UNL     1       3.904  -4.626  -0.238  1.00  0.00     0.096 C 
ATOM      8  N   UNL     1       3.791  -3.164  -0.209  1.00  0.00    -0.334 N 
ATOM      9  C   UNL     1       6.032  -3.525  -0.774  1.00  0.00     0.039 C 
ATOM     10  C   UNL     1       4.871  -2.580  -0.984  1.00  0.00     0.121 C 
BRANCH   8  11
ATOM     11  C   UNL     1       2.899  -2.344   0.440  1.00  0.00     0.284 C 
ATOM     12  O   UNL     1       3.084  -1.112   0.389  1.00  0.00    -0.268 OA
BRANCH  11  13
ATOM     13  C   UNL     1       1.607  -2.831   1.206  1.00  0.00     0.174 C 
ATOM     14  C   UNL     1       0.405  -2.561   0.289  1.00  0.00     0.090 C 
BRANCH  13  15
ATOM     15  N   UNL     1       1.460  -1.889   2.368  1.00  0.00    -0.345 N 
ATOM     16  H   UNL     1       0.637  -2.147   2.913  1.00  0.00     0.345 HD
ATOM     17  H   UNL     1       1.353  -0.935   2.022  1.00  0.00     0.345 HD
ATOM     18  H   UNL     1       2.290  -1.945   2.959  1.00  0.00     0.345 HD
ENDBRANCH  13  15
BRANCH  13  19
ATOM     19  C   UNL     1       1.593  -4.185   1.893  1.00  0.00     0.060 C 
ATOM     20  C   UNL     1       0.286  -4.760   2.428  1.00  0.00     0.011 C 
ATOM     21  C   UNL     1       1.011  -5.468   1.330  1.00  0.00     0.011 C 
ENDBRANCH  13  19
ENDBRANCH  11  13
ENDBRANCH   8  11
ENDBRANCH   3   5
ENDBRANCH   2   3
ENDBRANCH   1   2
BRANCH   1  22
ATOM     22  C   UNL     1       5.943  -7.669   2.925  1.00  0.00     0.275 C 
BRANCH  22  23
ATOM     23  O   UNL     1       5.691  -8.594   1.853  1.00  0.00    -0.458 OA
BRANCH  23  24
ATOM     24  C   UNL     1       4.542  -8.370   1.177  1.00  0.00     0.338 C 
ATOM     25  O   UNL     1       3.726  -7.489   1.387  1.00  0.00    -0.246 OA
BRANCH  24  26
ATOM     26  C   UNL     1       4.433  -9.271   0.026  1.00  0.00     0.060 A 
ATOM     27  C   UNL     1       4.490  -8.712  -1.254  1.00  0.00     0.016 A 
ATOM     28  C   UNL     1       4.146 -10.623   0.204  1.00  0.00     0.016 A 
ATOM     29  C   UNL     1       4.226  -9.497  -2.370  1.00  0.00     0.010 A 
ATOM     30  C   UNL     1       3.908 -11.416  -0.919  1.00  0.00     0.010 A 
ATOM     31  C   UNL     1       3.930 -10.854  -2.208  1.00  0.00    -0.014 A 
BRANCH  31  32
ATOM     32  C   UNL     1       3.640 -11.702  -3.385  1.00  0.00     0.031 A 
ATOM     33  C   UNL     1       2.248 -12.214  -3.610  1.00  0.00     0.074 A 
ATOM     34  C   UNL     1       4.646 -12.053  -4.207  1.00  0.00     0.049 A 
ATOM     35  N   UNL     1       1.829 -13.110  -4.463  1.00  0.00    -0.248 NA
ATOM     36  C   UNL     1       1.189 -11.648  -2.759  1.00  0.00     0.031 C 
ATOM     37  C   UNL     1       6.030 -11.592  -4.088  1.00  0.00     0.029 A 
ATOM     38  N   UNL     1       4.667 -12.909  -5.278  1.00  0.00    -0.354 N 
ATOM     39  C   UNL     1       0.470 -13.257  -4.218  1.00  0.00     0.074 A 
ATOM     40  C   UNL     1       0.130 -12.346  -3.147  1.00  0.00     0.031 C 
ATOM     41  C   UNL     1       6.774 -12.197  -5.026  1.00  0.00     0.029 A 
ATOM     42  C   UNL     1       5.931 -13.124  -5.775  1.00  0.00     0.049 A 
ATOM     43  H   UNL     1       3.859 -13.327  -5.653  1.00  0.00     0.167 HD
ATOM     44  C   UNL     1      -0.410 -14.078  -4.838  1.00  0.00     0.034 A 
ATOM     45  C   UNL     1       6.367 -14.003  -6.697  1.00  0.00     0.034 A 
ATOM     46  C   UNL     1      -0.063 -14.950  -5.927  1.00  0.00     0.049 A 
ATOM     47  C   UNL     1       5.370 -14.913  -7.360  1.00  0.00     0.074 A 
ATOM     48  C   UNL     1      -0.886 -15.796  -6.648  1.00  0.00     0.029 A 
ATOM     49  N   UNL     1       1.213 -15.088  -6.452  1.00  0.00    -0.354 N 
ATOM     50  N   UNL     1       4.074 -14.988  -7.173  1.00  0.00    -0.248 NA
ATOM     51  C   UNL     1       5.887 -15.844  -8.373  1.00  0.00     0.031 C 
ATOM     52  C   UNL     1      -0.105 -16.452  -7.604  1.00  0.00     0.029 A 
ATOM     53  C   UNL     1       1.202 -16.006  -7.487  1.00  0.00     0.049 A 
ATOM     54  H   UNL     1       2.010 -14.604  -6.135  1.00  0.00     0.167 HD
ATOM     55  C   UNL     1       3.615 -15.947  -8.067  1.00  0.00     0.074 A 
ATOM     56  C   UNL     1       4.771 -16.418  -8.804  1.00  0.00     0.031 C 
ATOM     57  C   UNL     1       2.354 -16.407  -8.252  1.00  0.00     0.034 A 
BRANCH  44  58
ATOM     58  C   UNL     1      -1.840 -14.055  -4.372  1.00  0.00     0.023 A 
ATOM     59  C   UNL     1      -2.676 -12.985  -4.746  1.00  0.00     0.012 A 
ATOM     60  C   UNL     1      -2.373 -15.122  -3.622  1.00  0.00     0.148 A 
ATOM     61  C   UNL     1      -4.017 -12.965  -4.362  1.00  0.00     0.002 A 
ATOM     62  C   UNL     1      -3.719 -15.112  -3.273  1.00  0.00     0.091 A 
ATOM     63  F   UNL     1      -1.554 -16.117  -3.253  1.00  0.00    -0.205 F 
ATOM     64  C   UNL     1      -4.540 -14.032  -3.636  1.00  0.00     0.022 A 
BRANCH  62  65
ATOM     65  S   UNL     1      -4.494 -16.475  -2.396  1.00  0.00     0.127 S 
ATOM     66  O   UNL     1      -4.613 -15.928  -1.045  1.00  0.00    -0.237 OA
ATOM     67  O   UNL     1      -5.764 -16.623  -3.107  1.00  0.00    -0.237 OA
ATOM     68  O   UNL     1      -3.588 -17.606  -2.540  1.00  0.00    -0.744 OA
ENDBRANCH  62  65
ENDBRANCH  44  58
BRANCH  45  69
ATOM     69  C   UNL     1       7.811 -14.037  -7.057  1.00  0.00     0.023 A 
ATOM     70  C   UNL     1       8.220 -13.562  -8.317  1.00  0.00     0.012 A 
ATOM     71  C   UNL     1       8.786 -14.480  -6.140  1.00  0.00     0.148 A 
ATOM     72  C   UNL     1       9.571 -13.542  -8.665  1.00  0.00     0.002 A 
ATOM     73  C   UNL     1      10.134 -14.406  -6.472  1.00  0.00     0.091 A 
ATOM     74  F   UNL     1       8.377 -14.949  -4.952  1.00  0.00    -0.205 F 
ATOM     75  C   UNL     1      10.528 -13.950  -7.739  1.00  0.00     0.022 A 
BRANCH  73  76
ATOM     76  S   UNL     1      11.431 -14.781  -5.286  1.00  0.00     0.127 S 
ATOM     77  O   UNL     1      11.868 -16.102  -5.728  1.00  0.00    -0.237 OA
ATOM     78  O   UNL     1      12.390 -13.702  -5.528  1.00  0.00    -0.237 OA
ATOM     79  O   UNL     1      10.788 -14.724  -3.980  1.00  0.00    -0.744 OA
ENDBRANCH  73  76
ENDBRANCH  45  69
BRANCH  57  80
ATOM     80  C   UNL     1       2.136 -17.444  -9.319  1.00  0.00     0.023 A 
ATOM     81  C   UNL     1       2.486 -18.784  -9.070  1.00  0.00     0.012 A 
ATOM     82  C   UNL     1       1.482 -17.106 -10.520  1.00  0.00     0.148 A 
ATOM     83  C   UNL     1       2.200 -19.774 -10.009  1.00  0.00     0.002 A 
ATOM     84  C   UNL     1       1.163 -18.104 -11.433  1.00  0.00     0.091 A 
ATOM     85  F   UNL     1       1.176 -15.819 -10.741  1.00  0.00    -0.205 F 
ATOM     86  C   UNL     1       1.527 -19.437 -11.182  1.00  0.00     0.022 A 
BRANCH  84  87
ATOM     87  S   UNL     1       0.219 -17.777 -12.926  1.00  0.00     0.127 S 
ATOM     88  O   UNL     1       1.239 -17.930 -13.962  1.00  0.00    -0.237 OA
ATOM     89  O   UNL     1      -0.785 -18.841 -12.897  1.00  0.00    -0.237 OA
ATOM     90  O   UNL     1      -0.320 -16.433 -12.774  1.00  0.00    -0.744 OA
ENDBRANCH  84  87
ENDBRANCH  57  80
ENDBRANCH  31  32
ENDBRANCH  24  26
ENDBRANCH  23  24
ENDBRANCH  22  23
ENDBRANCH   1  22
TORSDOF 18
