REMARK SMILES O=C(OCCOC(=O)[C@@H]1C[C@@H]1C(=O)N1CCN(c2ncc(C(F)(F)F)cc2Cl)CC1)c1ccc(-c2c3nc(c(-c4cccc(S(=O)(=O)[O-])c4F)c4ccc([nH]4)c(-c4cccc(S(=O)(=O)[O-])c4F)c4nc(c(-c5cccc(S(=O)(=O)[O-])c5F)c5ccc2[nH]5)C=C4)C=C3)cc1
REMARK SMILES IDX 4 1 3 2 2 3 1 4 31 5 32 6 93 7 33 8 92 9 34 10 35 11 36 12
REMARK SMILES IDX 86 13 37 14 91 15 85 16 87 17 38 18 90 19 84 20 83 21 39 23
REMARK SMILES IDX 71 24 51 25 70 26 52 27 55 28 69 29 88 30 53 31 54 32 68 34
REMARK SMILES IDX 89 35 56 36 40 37 41 38 49 39 42 40 44 41 50 42 43 43 45 44
REMARK SMILES IDX 46 45 47 46 48 47 72 48 73 49 81 50 74 51 76 52 82 53 75 54
REMARK SMILES IDX 77 55 78 56 79 57 80 58 57 59 58 60 66 61 59 62 61 63 67 64
REMARK SMILES IDX 60 65 62 66 63 67 64 68 65 69 5 70 6 71 7 72 8 73 9 74 10 75
REMARK SMILES IDX 11 76 12 77 13 78 14 79 15 80 30 81 16 82 29 83 17 84 18 85
REMARK SMILES IDX 19 86 27 87 20 88 26 89 28 90 21 91 22 92 23 93 24 94 25 95
REMARK H PARENT 87 22 55 33
REMARK Flexibility Score: inf
ROOT
ATOM      1  C   UNL     1       4.145   1.527  -0.924  1.00  0.00     0.275 C 
ENDROOT
BRANCH   1   2
ATOM      2  O   UNL     1       3.225   0.510  -1.340  1.00  0.00    -0.458 OA
BRANCH   2   3
ATOM      3  C   UNL     1       3.167  -0.801  -1.001  1.00  0.00     0.338 C 
ATOM      4  O   UNL     1       2.414  -1.530  -1.646  1.00  0.00    -0.246 OA
BRANCH   3   5
ATOM      5  C   UNL     1       3.904  -1.397   0.163  1.00  0.00     0.060 A 
ATOM      6  C   UNL     1       5.094  -0.930   0.721  1.00  0.00     0.016 A 
ATOM      7  C   UNL     1       3.330  -2.542   0.740  1.00  0.00     0.016 A 
ATOM      8  C   UNL     1       5.646  -1.525   1.859  1.00  0.00     0.010 A 
ATOM      9  C   UNL     1       3.848  -3.113   1.910  1.00  0.00     0.010 A 
ATOM     10  C   UNL     1       5.020  -2.608   2.479  1.00  0.00    -0.014 A 
BRANCH  10  11
ATOM     11  C   UNL     1       5.689  -3.250   3.636  1.00  0.00     0.031 A 
ATOM     12  C   UNL     1       6.278  -4.619   3.455  1.00  0.00     0.074 A 
ATOM     13  C   UNL     1       5.858  -2.576   4.793  1.00  0.00     0.049 A 
ATOM     14  N   UNL     1       7.070  -5.284   4.253  1.00  0.00    -0.248 NA
ATOM     15  C   UNL     1       5.946  -5.332   2.209  1.00  0.00     0.031 C 
ATOM     16  C   UNL     1       5.309  -1.251   5.091  1.00  0.00     0.029 A 
ATOM     17  N   UNL     1       6.554  -2.902   5.930  1.00  0.00    -0.354 N 
ATOM     18  C   UNL     1       7.335  -6.481   3.602  1.00  0.00     0.074 A 
ATOM     19  C   UNL     1       6.568  -6.485   2.380  1.00  0.00     0.031 C 
ATOM     20  C   UNL     1       5.690  -0.878   6.325  1.00  0.00     0.029 A 
ATOM     21  C   UNL     1       6.521  -1.928   6.903  1.00  0.00     0.049 A 
ATOM     22  H   UNL     1       7.033  -3.755   6.040  1.00  0.00     0.167 HD
ATOM     23  C   UNL     1       8.185  -7.470   3.959  1.00  0.00     0.034 A 
ATOM     24  C   UNL     1       7.118  -1.880   8.111  1.00  0.00     0.034 A 
ATOM     25  C   UNL     1       8.948  -7.462   5.171  1.00  0.00     0.049 A 
ATOM     26  C   UNL     1       8.047  -3.005   8.493  1.00  0.00     0.074 A 
ATOM     27  C   UNL     1       9.831  -8.416   5.641  1.00  0.00     0.029 A 
ATOM     28  N   UNL     1       8.909  -6.446   6.114  1.00  0.00    -0.354 N 
ATOM     29  N   UNL     1       8.392  -4.064   7.798  1.00  0.00    -0.248 NA
ATOM     30  C   UNL     1       8.713  -2.905   9.800  1.00  0.00     0.031 C 
ATOM     31  C   UNL     1      10.314  -7.981   6.880  1.00  0.00     0.029 A 
ATOM     32  C   UNL     1       9.752  -6.745   7.166  1.00  0.00     0.049 A 
ATOM     33  H   UNL     1       8.361  -5.631   6.043  1.00  0.00     0.167 HD
ATOM     34  C   UNL     1       9.336  -4.735   8.566  1.00  0.00     0.074 A 
ATOM     35  C   UNL     1       9.535  -3.945   9.764  1.00  0.00     0.031 C 
ATOM     36  C   UNL     1       9.970  -5.908   8.318  1.00  0.00     0.034 A 
BRANCH  23  37
ATOM     37  C   UNL     1       8.342  -8.606   2.986  1.00  0.00     0.023 A 
ATOM     38  C   UNL     1       9.026  -8.384   1.772  1.00  0.00     0.012 A 
ATOM     39  C   UNL     1       7.786  -9.870   3.249  1.00  0.00     0.148 A 
ATOM     40  C   UNL     1       9.111  -9.390   0.811  1.00  0.00     0.002 A 
ATOM     41  C   UNL     1       7.913 -10.882   2.305  1.00  0.00     0.091 A 
ATOM     42  F   UNL     1       7.122 -10.050   4.399  1.00  0.00    -0.205 F 
ATOM     43  C   UNL     1       8.559 -10.639   1.080  1.00  0.00     0.022 A 
BRANCH  41  44
ATOM     44  S   UNL     1       7.287 -12.543   2.571  1.00  0.00     0.127 S 
ATOM     45  O   UNL     1       6.249 -12.636   1.545  1.00  0.00    -0.237 OA
ATOM     46  O   UNL     1       8.474 -13.358   2.314  1.00  0.00    -0.237 OA
ATOM     47  O   UNL     1       6.805 -12.578   3.944  1.00  0.00    -0.744 OA
ENDBRANCH  41  44
ENDBRANCH  23  37
BRANCH  24  48
ATOM     48  C   UNL     1       6.918  -0.713   9.024  1.00  0.00     0.023 A 
ATOM     49  C   UNL     1       8.001   0.137   9.331  1.00  0.00     0.012 A 
ATOM     50  C   UNL     1       5.666  -0.460   9.618  1.00  0.00     0.148 A 
ATOM     51  C   UNL     1       7.855   1.177  10.251  1.00  0.00     0.002 A 
ATOM     52  C   UNL     1       5.514   0.612  10.493  1.00  0.00     0.091 A 
ATOM     53  F   UNL     1       4.647  -1.280   9.328  1.00  0.00    -0.205 F 
ATOM     54  C   UNL     1       6.612   1.418  10.828  1.00  0.00     0.022 A 
BRANCH  52  55
ATOM     55  S   UNL     1       3.920   1.064  11.187  1.00  0.00     0.127 S 
ATOM     56  O   UNL     1       4.053   0.609  12.568  1.00  0.00    -0.237 OA
ATOM     57  O   UNL     1       3.914   2.518  11.015  1.00  0.00    -0.237 OA
ATOM     58  O   UNL     1       2.931   0.365  10.377  1.00  0.00    -0.744 OA
ENDBRANCH  52  55
ENDBRANCH  24  48
BRANCH  36  59
ATOM     59  C   UNL     1      10.958  -6.396   9.342  1.00  0.00     0.023 A 
ATOM     60  C   UNL     1      10.498  -6.894  10.577  1.00  0.00     0.012 A 
ATOM     61  C   UNL     1      12.333  -6.443   9.042  1.00  0.00     0.148 A 
ATOM     62  C   UNL     1      11.397  -7.404  11.512  1.00  0.00     0.002 A 
ATOM     63  C   UNL     1      13.216  -7.003   9.956  1.00  0.00     0.091 A 
ATOM     64  F   UNL     1      12.752  -5.943   7.870  1.00  0.00    -0.205 F 
ATOM     65  C   UNL     1      12.753  -7.472  11.196  1.00  0.00     0.022 A 
BRANCH  63  66
ATOM     66  S   UNL     1      14.959  -7.231   9.585  1.00  0.00     0.127 S 
ATOM     67  O   UNL     1      15.575  -6.175  10.386  1.00  0.00    -0.237 OA
ATOM     68  O   UNL     1      15.205  -8.589  10.072  1.00  0.00    -0.237 OA
ATOM     69  O   UNL     1      15.082  -7.078   8.142  1.00  0.00    -0.744 OA
ENDBRANCH  63  66
ENDBRANCH  36  59
ENDBRANCH  10  11
ENDBRANCH   3   5
ENDBRANCH   2   3
ENDBRANCH   1   2
BRANCH   1  70
ATOM     70  C   UNL     1       3.743   2.262   0.354  1.00  0.00     0.274 C 
BRANCH  70  71
ATOM     71  O   UNL     1       3.284   1.421   1.424  1.00  0.00    -0.462 OA
BRANCH  71  72
ATOM     72  C   UNL     1       1.931   1.368   1.591  1.00  0.00     0.309 C 
ATOM     73  O   UNL     1       1.095   1.827   0.825  1.00  0.00    -0.252 OA
BRANCH  72  74
ATOM     74  C   UNL     1       1.552   0.908   2.947  1.00  0.00     0.112 C 
ATOM     75  C   UNL     1       2.034  -0.384   3.532  1.00  0.00     0.030 C 
ATOM     76  C   UNL     1       0.577  -0.231   3.176  1.00  0.00     0.094 C 
BRANCH  76  77
ATOM     77  C   UNL     1       0.002  -1.063   2.083  1.00  0.00     0.226 C 
ATOM     78  O   UNL     1       0.662  -1.976   1.607  1.00  0.00    -0.275 OA
ATOM     79  N   UNL     1      -1.309  -0.834   1.720  1.00  0.00    -0.339 N 
ATOM     80  C   UNL     1      -2.011  -1.849   0.915  1.00  0.00     0.141 C 
ATOM     81  C   UNL     1      -2.192   0.142   2.360  1.00  0.00     0.141 C 
ATOM     82  C   UNL     1      -3.035  -2.610   1.795  1.00  0.00     0.139 C 
ATOM     83  C   UNL     1      -3.197  -0.601   3.263  1.00  0.00     0.139 C 
ATOM     84  N   UNL     1      -3.887  -1.617   2.460  1.00  0.00    -0.352 N 
BRANCH  84  85
ATOM     85  C   UNL     1      -5.244  -1.795   2.536  1.00  0.00     0.147 A 
ATOM     86  N   UNL     1      -5.693  -3.021   2.901  1.00  0.00    -0.237 NA
ATOM     87  C   UNL     1      -6.154  -0.771   2.219  1.00  0.00     0.084 A 
ATOM     88  C   UNL     1      -7.029  -3.222   3.007  1.00  0.00     0.126 A 
ATOM     89  C   UNL     1      -7.523  -1.009   2.315  1.00  0.00     0.039 A 
ATOM     90  Cl  UNL     1      -5.674   0.773   1.602  1.00  0.00    -0.080 Cl
ATOM     91  C   UNL     1      -7.983  -2.258   2.727  1.00  0.00     0.075 A 
BRANCH  91  92
ATOM     92  C   UNL     1      -9.438  -2.563   2.864  1.00  0.00     0.417 C 
ATOM     93  F   UNL     1      -9.819  -3.650   2.138  1.00  0.00    -0.166 F 
ATOM     94  F   UNL     1      -9.802  -2.821   4.149  1.00  0.00    -0.166 F 
ATOM     95  F   UNL     1     -10.242  -1.543   2.449  1.00  0.00    -0.166 F 
ENDBRANCH  91  92
ENDBRANCH  84  85
ENDBRANCH  76  77
ENDBRANCH  72  74
ENDBRANCH  71  72
ENDBRANCH  70  71
ENDBRANCH   1  70
TORSDOF 17
