REMARK SMILES O=C(OCCOC(=O)[C@@H]1CC(=O)N(CCO)C1)c1ccc(-c2c3nc(c(-c4cccc(S(=O)(=O)[O-])c4F)c4ccc([nH]4)c(-c4cccc(S(=O)(=O)[O-])c4F)c4nc(c(-c5cccc(S(=O)(=O)[O-])c5F)c5ccc2[nH]5)C=C4)C=C3)cc1
REMARK SMILES IDX 4 1 3 2 2 3 1 4 18 5 19 6 80 7 20 8 79 9 21 10 22 11 23 12
REMARK SMILES IDX 73 13 24 14 78 15 72 16 74 17 25 18 77 19 71 20 70 21 26 23
REMARK SMILES IDX 58 24 38 25 57 26 39 27 42 28 56 29 75 30 40 31 41 32 55 34
REMARK SMILES IDX 76 35 43 36 27 37 28 38 36 39 29 40 31 41 37 42 30 43 32 44
REMARK SMILES IDX 33 45 34 46 35 47 59 48 60 49 68 50 61 51 63 52 69 53 62 54
REMARK SMILES IDX 64 55 65 56 66 57 67 58 44 59 45 60 53 61 46 62 48 63 54 64
REMARK SMILES IDX 47 65 49 66 50 67 51 68 52 69 5 70 6 71 7 72 8 73 9 74 10 75
REMARK SMILES IDX 17 76 11 77 13 78 12 79 14 80 15 81 16 82
REMARK H PARENT 74 22 42 33 16 83
REMARK Flexibility Score: inf
ROOT
ATOM      1  C   UNL     1       4.129  -1.705   0.210  1.00  0.00     0.275 C 
ENDROOT
BRANCH   1   2
ATOM      2  O   UNL     1       3.563  -0.686   1.036  1.00  0.00    -0.458 OA
BRANCH   2   3
ATOM      3  C   UNL     1       3.631   0.656   0.910  1.00  0.00     0.338 C 
ATOM      4  O   UNL     1       3.009   1.333   1.730  1.00  0.00    -0.246 OA
BRANCH   3   5
ATOM      5  C   UNL     1       4.366   1.382  -0.182  1.00  0.00     0.060 A 
ATOM      6  C   UNL     1       5.441   0.927  -0.962  1.00  0.00     0.016 A 
ATOM      7  C   UNL     1       3.932   2.691  -0.404  1.00  0.00     0.016 A 
ATOM      8  C   UNL     1       6.018   1.726  -1.977  1.00  0.00     0.010 A 
ATOM      9  C   UNL     1       4.507   3.479  -1.397  1.00  0.00     0.010 A 
ATOM     10  C   UNL     1       5.543   3.012  -2.228  1.00  0.00    -0.014 A 
BRANCH  10  11
ATOM     11  C   UNL     1       6.053   3.945  -3.289  1.00  0.00     0.031 A 
ATOM     12  C   UNL     1       6.395   5.353  -2.879  1.00  0.00     0.074 A 
ATOM     13  C   UNL     1       5.967   3.666  -4.609  1.00  0.00     0.049 A 
ATOM     14  N   UNL     1       6.460   6.440  -3.600  1.00  0.00    -0.248 NA
ATOM     15  C   UNL     1       6.622   5.567  -1.440  1.00  0.00     0.031 C 
ATOM     16  C   UNL     1       5.640   2.373  -5.194  1.00  0.00     0.029 A 
ATOM     17  N   UNL     1       6.021   4.510  -5.704  1.00  0.00    -0.354 N 
ATOM     18  C   UNL     1       6.675   7.469  -2.695  1.00  0.00     0.074 A 
ATOM     19  C   UNL     1       6.610   6.888  -1.371  1.00  0.00     0.031 C 
ATOM     20  C   UNL     1       5.360   2.532  -6.501  1.00  0.00     0.029 A 
ATOM     21  C   UNL     1       5.521   3.933  -6.856  1.00  0.00     0.049 A 
ATOM     22  H   UNL     1       6.379   5.426  -5.666  1.00  0.00     0.167 HD
ATOM     23  C   UNL     1       6.991   8.764  -2.934  1.00  0.00     0.034 A 
ATOM     24  C   UNL     1       5.207   4.466  -8.056  1.00  0.00     0.034 A 
ATOM     25  C   UNL     1       7.197   9.301  -4.247  1.00  0.00     0.049 A 
ATOM     26  C   UNL     1       5.608   5.889  -8.336  1.00  0.00     0.074 A 
ATOM     27  C   UNL     1       7.733  10.523  -4.609  1.00  0.00     0.029 A 
ATOM     28  N   UNL     1       6.894   8.630  -5.420  1.00  0.00    -0.354 N 
ATOM     29  N   UNL     1       6.039   6.798  -7.498  1.00  0.00    -0.248 NA
ATOM     30  C   UNL     1       5.607   6.322  -9.742  1.00  0.00     0.031 C 
ATOM     31  C   UNL     1       7.767  10.584  -6.007  1.00  0.00     0.029 A 
ATOM     32  C   UNL     1       7.250   9.400  -6.510  1.00  0.00     0.049 A 
ATOM     33  H   UNL     1       6.484   7.736  -5.470  1.00  0.00     0.167 HD
ATOM     34  C   UNL     1       6.476   7.859  -8.283  1.00  0.00     0.074 A 
ATOM     35  C   UNL     1       6.203   7.506  -9.659  1.00  0.00     0.031 C 
ATOM     36  C   UNL     1       7.080   9.004  -7.885  1.00  0.00     0.034 A 
BRANCH  23  37
ATOM     37  C   UNL     1       7.265   9.624  -1.730  1.00  0.00     0.023 A 
ATOM     38  C   UNL     1       8.391   9.337  -0.926  1.00  0.00     0.012 A 
ATOM     39  C   UNL     1       6.408  10.677  -1.365  1.00  0.00     0.148 A 
ATOM     40  C   UNL     1       8.604  10.015   0.271  1.00  0.00     0.002 A 
ATOM     41  C   UNL     1       6.663  11.390  -0.198  1.00  0.00     0.091 A 
ATOM     42  F   UNL     1       5.338  10.934  -2.131  1.00  0.00    -0.205 F 
ATOM     43  C   UNL     1       7.742  11.044   0.632  1.00  0.00     0.022 A 
BRANCH  41  44
ATOM     44  S   UNL     1       5.665  12.799   0.297  1.00  0.00     0.127 S 
ATOM     45  O   UNL     1       4.782  12.203   1.296  1.00  0.00    -0.237 OA
ATOM     46  O   UNL     1       6.668  13.716   0.841  1.00  0.00    -0.237 OA
ATOM     47  O   UNL     1       5.022  13.270  -0.922  1.00  0.00    -0.744 OA
ENDBRANCH  41  44
ENDBRANCH  23  37
BRANCH  24  48
ATOM     48  C   UNL     1       4.644   3.615  -9.146  1.00  0.00     0.023 A 
ATOM     49  C   UNL     1       5.531   3.061 -10.090  1.00  0.00     0.012 A 
ATOM     50  C   UNL     1       3.261   3.365  -9.272  1.00  0.00     0.148 A 
ATOM     51  C   UNL     1       5.055   2.302 -11.159  1.00  0.00     0.002 A 
ATOM     52  C   UNL     1       2.794   2.586 -10.330  1.00  0.00     0.091 A 
ATOM     53  F   UNL     1       2.430   3.909  -8.371  1.00  0.00    -0.205 F 
ATOM     54  C   UNL     1       3.689   2.064 -11.279  1.00  0.00     0.022 A 
BRANCH  52  55
ATOM     55  S   UNL     1       1.058   2.177 -10.571  1.00  0.00     0.127 S 
ATOM     56  O   UNL     1       0.775   2.815 -11.856  1.00  0.00    -0.237 OA
ATOM     57  O   UNL     1       1.095   0.715 -10.612  1.00  0.00    -0.237 OA
ATOM     58  O   UNL     1       0.349   2.739  -9.430  1.00  0.00    -0.744 OA
ENDBRANCH  52  55
ENDBRANCH  24  48
BRANCH  36  59
ATOM     59  C   UNL     1       7.621   9.936  -8.932  1.00  0.00     0.023 A 
ATOM     60  C   UNL     1       6.754  10.789  -9.638  1.00  0.00     0.012 A 
ATOM     61  C   UNL     1       9.016  10.068  -9.095  1.00  0.00     0.148 A 
ATOM     62  C   UNL     1       7.269  11.763 -10.493  1.00  0.00     0.002 A 
ATOM     63  C   UNL     1       9.522  11.070  -9.912  1.00  0.00     0.091 A 
ATOM     64  F   UNL     1       9.819   9.226  -8.428  1.00  0.00    -0.205 F 
ATOM     65  C   UNL     1       8.650  11.915 -10.616  1.00  0.00     0.022 A 
BRANCH  63  66
ATOM     66  S   UNL     1      11.281  11.411 -10.046  1.00  0.00     0.127 S 
ATOM     67  O   UNL     1      11.556  11.024 -11.429  1.00  0.00    -0.237 OA
ATOM     68  O   UNL     1      11.335  12.852  -9.794  1.00  0.00    -0.237 OA
ATOM     69  O   UNL     1      11.932  10.594  -9.032  1.00  0.00    -0.744 OA
ENDBRANCH  63  66
ENDBRANCH  36  59
ENDBRANCH  10  11
ENDBRANCH   3   5
ENDBRANCH   2   3
ENDBRANCH   1   2
BRANCH   1  70
ATOM     70  C   UNL     1       3.396  -1.962  -1.102  1.00  0.00     0.274 C 
BRANCH  70  71
ATOM     71  O   UNL     1       2.781  -0.812  -1.701  1.00  0.00    -0.462 OA
BRANCH  71  72
ATOM     72  C   UNL     1       1.428  -0.738  -1.551  1.00  0.00     0.311 C 
ATOM     73  O   UNL     1       0.792  -1.359  -0.707  1.00  0.00    -0.252 OA
BRANCH  72  74
ATOM     74  C   UNL     1       0.760   0.097  -2.623  1.00  0.00     0.128 C 
ATOM     75  C   UNL     1       1.377  -0.147  -3.991  1.00  0.00     0.117 C 
ATOM     76  C   UNL     1       0.820   1.597  -2.390  1.00  0.00     0.135 C 
ATOM     77  C   UNL     1       2.154   1.101  -4.254  1.00  0.00     0.223 C 
ATOM     78  N   UNL     1       1.634   2.111  -3.467  1.00  0.00    -0.339 N 
ATOM     79  O   UNL     1       3.045   1.173  -5.074  1.00  0.00    -0.275 OA
BRANCH  78  80
ATOM     80  C   UNL     1       2.022   3.510  -3.648  1.00  0.00     0.147 C 
BRANCH  80  81
ATOM     81  C   UNL     1       1.161   4.582  -2.976  1.00  0.00     0.177 C 
BRANCH  81  82
ATOM     82  O   UNL     1       0.971   4.331  -1.583  1.00  0.00    -0.395 OA
ATOM     83  H   UNL     1       0.510   3.485  -1.467  1.00  0.00     0.210 HD
ENDBRANCH  81  82
ENDBRANCH  80  81
ENDBRANCH  78  80
ENDBRANCH  72  74
ENDBRANCH  71  72
ENDBRANCH  70  71
ENDBRANCH   1  70
TORSDOF 17
