REMARK SMILES N#Cc1nccnc1N(CC(=O)OCCOC(=O)c1ccc(-c2c3nc(c(-c4cccc(S(=O)(=O)[O-])c4F)c4ccc([nH]4)c(-c4cccc(S(=O)(=O)[O-])c4F)c4nc(c(-c5cccc(S(=O)(=O)[O-])c5F)c5ccc2[nH]5)C=C4)C=C3)cc1)CC(F)(F)F
REMARK SMILES IDX 14 1 13 2 11 3 12 4 10 5 9 6 8 7 3 8 4 9 5 10 7 11 6 12 2 13
REMARK SMILES IDX 1 14 82 15 83 16 84 17 85 18 86 19 15 20 16 21 17 22 18 23
REMARK SMILES IDX 19 24 20 25 81 26 21 27 80 28 22 29 23 30 24 31 74 32 25 33
REMARK SMILES IDX 79 34 73 35 75 36 26 37 78 38 72 39 71 40 27 42 59 43 39 44
REMARK SMILES IDX 58 45 40 46 43 47 57 48 76 49 41 50 42 51 56 53 77 54 44 55
REMARK SMILES IDX 28 56 29 57 37 58 30 59 32 60 38 61 31 62 33 63 34 64 35 65
REMARK SMILES IDX 36 66 60 67 61 68 69 69 62 70 64 71 70 72 63 73 65 74 66 75
REMARK SMILES IDX 67 76 68 77 45 78 46 79 54 80 47 81 49 82 55 83 48 84 50 85
REMARK SMILES IDX 51 86 52 87 53 88
REMARK H PARENT 75 41 43 52
REMARK Flexibility Score: inf
ROOT
ATOM      1  C   UNL     1       3.382  -5.110   2.633  1.00  0.00     0.274 C 
ENDROOT
BRANCH   1   2
ATOM      2  O   UNL     1       3.670  -4.016   1.737  1.00  0.00    -0.461 OA
BRANCH   2   3
ATOM      3  C   UNL     1       4.457  -4.308   0.671  1.00  0.00     0.325 C 
ATOM      4  O   UNL     1       4.969  -5.409   0.479  1.00  0.00    -0.250 OA
BRANCH   3   5
ATOM      5  C   UNL     1       4.641  -3.161  -0.319  1.00  0.00     0.241 C 
BRANCH   5   6
ATOM      6  N   UNL     1       3.814  -1.936  -0.117  1.00  0.00    -0.334 N 
BRANCH   6   7
ATOM      7  C   UNL     1       4.509  -0.743   0.001  1.00  0.00     0.166 A 
ATOM      8  C   UNL     1       4.064   0.571  -0.264  1.00  0.00     0.183 A 
ATOM      9  N   UNL     1       4.864   1.683  -0.165  1.00  0.00    -0.240 NA
ATOM     10  C   UNL     1       6.138   1.469   0.196  1.00  0.00     0.133 A 
ATOM     11  N   UNL     1       5.807  -0.882   0.397  1.00  0.00    -0.235 NA
ATOM     12  C   UNL     1       6.602   0.208   0.472  1.00  0.00     0.133 A 
BRANCH   8  13
ATOM     13  C   UNL     1       2.753   0.914  -0.737  1.00  0.00     0.123 C 
ATOM     14  N   UNL     1       1.691   1.186  -1.117  1.00  0.00    -0.191 NA
ENDBRANCH   8  13
ENDBRANCH   6   7
BRANCH   6  15
ATOM     15  C   UNL     1       2.357  -2.068  -0.402  1.00  0.00     0.234 C 
BRANCH  15  16
ATOM     16  C   UNL     1       1.392  -1.769   0.769  1.00  0.00     0.405 C 
ATOM     17  F   UNL     1       1.640  -0.554   1.317  1.00  0.00    -0.169 F 
ATOM     18  F   UNL     1       0.107  -1.758   0.347  1.00  0.00    -0.169 F 
ATOM     19  F   UNL     1       1.484  -2.662   1.776  1.00  0.00    -0.169 F 
ENDBRANCH  15  16
ENDBRANCH   6  15
ENDBRANCH   5   6
ENDBRANCH   3   5
ENDBRANCH   2   3
ENDBRANCH   1   2
BRANCH   1  20
ATOM     20  C   UNL     1       2.037  -5.758   2.305  1.00  0.00     0.275 C 
BRANCH  20  21
ATOM     21  O   UNL     1       2.074  -6.354   0.997  1.00  0.00    -0.458 OA
BRANCH  21  22
ATOM     22  C   UNL     1       1.389  -5.692   0.041  1.00  0.00     0.338 C 
ATOM     23  O   UNL     1       0.714  -4.685   0.160  1.00  0.00    -0.246 OA
BRANCH  22  24
ATOM     24  C   UNL     1       1.569  -6.361  -1.246  1.00  0.00     0.060 A 
ATOM     25  C   UNL     1       0.530  -7.157  -1.719  1.00  0.00     0.016 A 
ATOM     26  C   UNL     1       2.706  -6.121  -2.021  1.00  0.00     0.016 A 
ATOM     27  C   UNL     1       0.666  -7.772  -2.957  1.00  0.00     0.010 A 
ATOM     28  C   UNL     1       2.807  -6.680  -3.291  1.00  0.00     0.010 A 
ATOM     29  C   UNL     1       1.805  -7.542  -3.749  1.00  0.00    -0.014 A 
BRANCH  29  30
ATOM     30  C   UNL     1       1.950  -8.254  -5.037  1.00  0.00     0.031 A 
ATOM     31  C   UNL     1       3.019  -9.297  -5.201  1.00  0.00     0.074 A 
ATOM     32  C   UNL     1       1.086  -7.989  -6.034  1.00  0.00     0.049 A 
ATOM     33  N   UNL     1       3.224 -10.101  -6.210  1.00  0.00    -0.248 NA
ATOM     34  C   UNL     1       3.985  -9.462  -4.100  1.00  0.00     0.031 C 
ATOM     35  C   UNL     1       0.044  -6.960  -5.995  1.00  0.00     0.029 A 
ATOM     36  N   UNL     1       0.935  -8.570  -7.266  1.00  0.00    -0.354 N 
ATOM     37  C   UNL     1       4.344 -10.851  -5.874  1.00  0.00     0.074 A 
ATOM     38  C   UNL     1       4.797 -10.392  -4.582  1.00  0.00     0.031 C 
ATOM     39  C   UNL     1      -0.662  -7.007  -7.136  1.00  0.00     0.029 A 
ATOM     40  C   UNL     1      -0.104  -8.046  -7.996  1.00  0.00     0.049 A 
ATOM     41  H   UNL     1       1.515  -9.294  -7.596  1.00  0.00     0.167 HD
ATOM     42  C   UNL     1       4.921 -11.854  -6.571  1.00  0.00     0.034 A 
ATOM     43  C   UNL     1      -0.559  -8.368  -9.222  1.00  0.00     0.034 A 
ATOM     44  C   UNL     1       4.440 -12.331  -7.836  1.00  0.00     0.049 A 
ATOM     45  C   UNL     1       0.092  -9.496  -9.967  1.00  0.00     0.074 A 
ATOM     46  C   UNL     1       4.920 -13.386  -8.589  1.00  0.00     0.029 A 
ATOM     47  N   UNL     1       3.380 -11.781  -8.537  1.00  0.00    -0.354 N 
ATOM     48  N   UNL     1       1.083 -10.265  -9.585  1.00  0.00    -0.248 NA
ATOM     49  C   UNL     1      -0.447  -9.822 -11.295  1.00  0.00     0.031 C 
ATOM     50  C   UNL     1       4.168 -13.456  -9.762  1.00  0.00     0.029 A 
ATOM     51  C   UNL     1       3.197 -12.468  -9.721  1.00  0.00     0.049 A 
ATOM     52  H   UNL     1       2.838 -11.016  -8.236  1.00  0.00     0.167 HD
ATOM     53  C   UNL     1       1.272 -11.180 -10.611  1.00  0.00     0.074 A 
ATOM     54  C   UNL     1       0.288 -10.877 -11.630  1.00  0.00     0.031 C 
ATOM     55  C   UNL     1       2.185 -12.176 -10.702  1.00  0.00     0.034 A 
BRANCH  42  56
ATOM     56  C   UNL     1       6.110 -12.549  -5.972  1.00  0.00     0.023 A 
ATOM     57  C   UNL     1       5.916 -13.497  -4.949  1.00  0.00     0.012 A 
ATOM     58  C   UNL     1       7.396 -12.359  -6.512  1.00  0.00     0.148 A 
ATOM     59  C   UNL     1       6.987 -14.252  -4.473  1.00  0.00     0.002 A 
ATOM     60  C   UNL     1       8.453 -13.135  -6.053  1.00  0.00     0.091 A 
ATOM     61  F   UNL     1       7.553 -11.440  -7.475  1.00  0.00    -0.205 F 
ATOM     62  C   UNL     1       8.250 -14.081  -5.034  1.00  0.00     0.022 A 
BRANCH  60  63
ATOM     63  S   UNL     1      10.108 -13.027  -6.740  1.00  0.00     0.127 S 
ATOM     64  O   UNL     1      10.881 -12.592  -5.577  1.00  0.00    -0.237 OA
ATOM     65  O   UNL     1      10.357 -14.406  -7.157  1.00  0.00    -0.237 OA
ATOM     66  O   UNL     1      10.035 -12.058  -7.825  1.00  0.00    -0.744 OA
ENDBRANCH  60  63
ENDBRANCH  42  56
BRANCH  43  67
ATOM     67  C   UNL     1      -1.722  -7.630  -9.781  1.00  0.00     0.023 A 
ATOM     68  C   UNL     1      -2.988  -8.244  -9.820  1.00  0.00     0.012 A 
ATOM     69  C   UNL     1      -1.588  -6.291 -10.195  1.00  0.00     0.148 A 
ATOM     70  C   UNL     1      -4.103  -7.534 -10.267  1.00  0.00     0.002 A 
ATOM     71  C   UNL     1      -2.708  -5.579 -10.604  1.00  0.00     0.091 A 
ATOM     72  F   UNL     1      -0.370  -5.733 -10.143  1.00  0.00    -0.205 F 
ATOM     73  C   UNL     1      -3.966  -6.200 -10.647  1.00  0.00     0.022 A 
BRANCH  71  74
ATOM     74  S   UNL     1      -2.643  -3.836 -11.030  1.00  0.00     0.127 S 
ATOM     75  O   UNL     1      -3.025  -3.861 -12.440  1.00  0.00    -0.237 OA
ATOM     76  O   UNL     1      -3.647  -3.272 -10.128  1.00  0.00    -0.237 OA
ATOM     77  O   UNL     1      -1.276  -3.411 -10.761  1.00  0.00    -0.744 OA
ENDBRANCH  71  74
ENDBRANCH  43  67
BRANCH  55  78
ATOM     78  C   UNL     1       2.166 -13.047 -11.925  1.00  0.00     0.023 A 
ATOM     79  C   UNL     1       2.729 -12.575 -13.125  1.00  0.00     0.012 A 
ATOM     80  C   UNL     1       1.726 -14.383 -11.835  1.00  0.00     0.148 A 
ATOM     81  C   UNL     1       2.852 -13.423 -14.224  1.00  0.00     0.002 A 
ATOM     82  C   UNL     1       1.883 -15.230 -12.922  1.00  0.00     0.091 A 
ATOM     83  F   UNL     1       1.195 -14.802 -10.677  1.00  0.00    -0.205 F 
ATOM     84  C   UNL     1       2.442 -14.752 -14.119  1.00  0.00     0.022 A 
BRANCH  82  85
ATOM     85  S   UNL     1       1.449 -16.972 -12.861  1.00  0.00     0.127 S 
ATOM     86  O   UNL     1       0.359 -17.039 -13.834  1.00  0.00    -0.237 OA
ATOM     87  O   UNL     1       2.691 -17.614 -13.290  1.00  0.00    -0.237 OA
ATOM     88  O   UNL     1       1.063 -17.247 -11.484  1.00  0.00    -0.744 OA
ENDBRANCH  82  85
ENDBRANCH  55  78
ENDBRANCH  29  30
ENDBRANCH  22  24
ENDBRANCH  21  22
ENDBRANCH  20  21
ENDBRANCH   1  20
TORSDOF 19
