REMARK SMILES CN(c1ccccc1)c1nc(OCC(=O)OCCOC(=O)c2ccc(-c3c4nc(c(-c5cccc(S(=O)(=O)[O-])c5F)c5ccc([nH]5)c(-c5cccc(S(=O)(=O)[O-])c5F)c5nc(c(-c6cccc(S(=O)(=O)[O-])c6F)c6ccc3[nH]6)C=C5)C=C4)cc2)cc(-c2ccncc2)n1
REMARK SMILES IDX 17 1 16 2 14 3 15 4 13 5 12 6 11 7 9 8 10 9 93 10 86 11
REMARK SMILES IDX 85 12 2 13 1 14 3 15 4 16 8 17 5 18 7 19 6 20 87 21 88 22
REMARK SMILES IDX 92 23 89 24 91 25 90 26 18 27 19 28 20 29 21 30 22 31 23 32
REMARK SMILES IDX 84 33 24 34 83 35 25 36 26 37 27 38 77 39 28 40 82 41 76 42
REMARK SMILES IDX 78 43 29 44 81 45 75 46 74 47 30 49 62 50 42 51 61 52 43 53
REMARK SMILES IDX 46 54 60 55 79 56 44 57 45 58 59 60 80 61 47 62 31 63 32 64
REMARK SMILES IDX 40 65 33 66 35 67 41 68 34 69 36 70 37 71 38 72 39 73 63 74
REMARK SMILES IDX 64 75 72 76 65 77 67 78 73 79 66 80 68 81 69 82 70 83 71 84
REMARK SMILES IDX 48 85 49 86 57 87 50 88 52 89 58 90 51 91 53 92 54 93 55 94
REMARK SMILES IDX 56 95
REMARK H PARENT 78 48 46 59
REMARK Flexibility Score: inf
ROOT
ATOM      1  C   UNL     1      -0.176  -7.448   2.240  1.00  0.00     0.274 C 
ENDROOT
BRANCH   1   2
ATOM      2  O   UNL     1      -0.251  -6.084   2.701  1.00  0.00    -0.460 OA
BRANCH   2   3
ATOM      3  C   UNL     1      -0.401  -5.933   4.045  1.00  0.00     0.344 C 
ATOM      4  O   UNL     1      -0.446  -6.858   4.851  1.00  0.00    -0.248 OA
BRANCH   3   5
ATOM      5  C   UNL     1      -0.466  -4.475   4.487  1.00  0.00     0.353 C 
BRANCH   5   6
ATOM      6  O   UNL     1      -0.759  -3.517   3.494  1.00  0.00    -0.466 OA
BRANCH   6   7
ATOM      7  C   UNL     1       0.242  -2.755   2.974  1.00  0.00     0.219 A 
ATOM      8  C   UNL     1       0.614  -0.883   1.685  1.00  0.00     0.233 A 
ATOM      9  N   UNL     1      -0.239  -1.673   2.353  1.00  0.00    -0.177 NA
ATOM     10  N   UNL     1       1.927  -1.132   1.607  1.00  0.00    -0.212 NA
ATOM     11  C   UNL     1       2.401  -2.194   2.279  1.00  0.00     0.080 A 
ATOM     12  C   UNL     1       1.582  -3.042   2.999  1.00  0.00     0.097 A 
BRANCH   8  13
ATOM     13  N   UNL     1       0.092   0.259   1.060  1.00  0.00    -0.314 N 
ATOM     14  C   UNL     1       0.865   0.705  -0.090  1.00  0.00     0.153 C 
BRANCH  13  15
ATOM     15  C   UNL     1      -0.719   1.207   1.708  1.00  0.00     0.043 A 
ATOM     16  C   UNL     1      -0.579   1.460   3.084  1.00  0.00     0.026 A 
ATOM     17  C   UNL     1      -1.703   1.922   1.012  1.00  0.00     0.026 A 
ATOM     18  C   UNL     1      -1.376   2.401   3.738  1.00  0.00     0.002 A 
ATOM     19  C   UNL     1      -2.513   2.857   1.665  1.00  0.00     0.002 A 
ATOM     20  C   UNL     1      -2.345   3.100   3.026  1.00  0.00     0.000 A 
ENDBRANCH  13  15
ENDBRANCH   8  13
BRANCH  11  21
ATOM     21  C   UNL     1       3.838  -2.423   2.122  1.00  0.00     0.004 A 
ATOM     22  C   UNL     1       4.303  -3.356   1.192  1.00  0.00     0.030 A 
ATOM     23  C   UNL     1       4.788  -1.703   2.853  1.00  0.00     0.030 A 
ATOM     24  C   UNL     1       5.662  -3.583   1.080  1.00  0.00     0.111 A 
ATOM     25  C   UNL     1       6.134  -1.983   2.655  1.00  0.00     0.111 A 
ATOM     26  N   UNL     1       6.587  -2.924   1.800  1.00  0.00    -0.265 NA
ENDBRANCH  11  21
ENDBRANCH   6   7
ENDBRANCH   5   6
ENDBRANCH   3   5
ENDBRANCH   2   3
ENDBRANCH   1   2
BRANCH   1  27
ATOM     27  C   UNL     1       1.266  -7.893   2.003  1.00  0.00     0.275 C 
BRANCH  27  28
ATOM     28  O   UNL     1       2.097  -7.578   3.137  1.00  0.00    -0.458 OA
BRANCH  28  29
ATOM     29  C   UNL     1       2.907  -6.517   2.934  1.00  0.00     0.338 C 
ATOM     30  O   UNL     1       2.991  -5.870   1.897  1.00  0.00    -0.246 OA
BRANCH  29  31
ATOM     31  C   UNL     1       3.680  -6.145   4.130  1.00  0.00     0.060 A 
ATOM     32  C   UNL     1       3.049  -5.866   5.345  1.00  0.00     0.016 A 
ATOM     33  C   UNL     1       5.045  -5.892   3.974  1.00  0.00     0.016 A 
ATOM     34  C   UNL     1       3.778  -5.285   6.388  1.00  0.00     0.010 A 
ATOM     35  C   UNL     1       5.784  -5.375   5.038  1.00  0.00     0.010 A 
ATOM     36  C   UNL     1       5.157  -5.053   6.250  1.00  0.00    -0.014 A 
BRANCH  36  37
ATOM     37  C   UNL     1       5.980  -4.590   7.397  1.00  0.00     0.031 A 
ATOM     38  C   UNL     1       6.681  -3.261   7.378  1.00  0.00     0.074 A 
ATOM     39  C   UNL     1       6.185  -5.444   8.417  1.00  0.00     0.049 A 
ATOM     40  N   UNL     1       7.582  -2.786   8.198  1.00  0.00    -0.248 NA
ATOM     41  C   UNL     1       6.328  -2.344   6.286  1.00  0.00     0.031 C 
ATOM     42  C   UNL     1       5.596  -6.780   8.524  1.00  0.00     0.029 A 
ATOM     43  N   UNL     1       6.978  -5.336   9.530  1.00  0.00    -0.354 N 
ATOM     44  C   UNL     1       7.954  -1.547   7.687  1.00  0.00     0.074 A 
ATOM     45  C   UNL     1       7.162  -1.332   6.494  1.00  0.00     0.031 C 
ATOM     46  C   UNL     1       6.065  -7.378   9.627  1.00  0.00     0.029 A 
ATOM     47  C   UNL     1       7.020  -6.488  10.278  1.00  0.00     0.049 A 
ATOM     48  H   UNL     1       7.468  -4.516   9.769  1.00  0.00     0.167 HD
ATOM     49  C   UNL     1       8.862  -0.669   8.178  1.00  0.00     0.034 A 
ATOM     50  C   UNL     1       7.768  -6.811  11.350  1.00  0.00     0.034 A 
ATOM     51  C   UNL     1       9.579  -0.857   9.413  1.00  0.00     0.049 A 
ATOM     52  C   UNL     1       8.711  -5.792  11.915  1.00  0.00     0.074 A 
ATOM     53  C   UNL     1      10.445   0.017  10.047  1.00  0.00     0.029 A 
ATOM     54  N   UNL     1       9.505  -1.991  10.206  1.00  0.00    -0.354 N 
ATOM     55  N   UNL     1       8.965  -4.581  11.482  1.00  0.00    -0.248 NA
ATOM     56  C   UNL     1       9.447  -6.167  13.129  1.00  0.00     0.031 C 
ATOM     57  C   UNL     1      10.890  -0.587  11.229  1.00  0.00     0.029 A 
ATOM     58  C   UNL     1      10.305  -1.838  11.326  1.00  0.00     0.049 A 
ATOM     59  H   UNL     1       8.965  -2.788  10.003  1.00  0.00     0.167 HD
ATOM     60  C   UNL     1       9.875  -4.041  12.380  1.00  0.00     0.074 A 
ATOM     61  C   UNL     1      10.109  -5.049  13.396  1.00  0.00     0.031 C 
ATOM     62  C   UNL     1      10.480  -2.829  12.355  1.00  0.00     0.034 A 
BRANCH  49  63
ATOM     63  C   UNL     1       9.101   0.616   7.429  1.00  0.00     0.023 A 
ATOM     64  C   UNL     1       8.179   1.673   7.559  1.00  0.00     0.012 A 
ATOM     65  C   UNL     1      10.292   0.824   6.704  1.00  0.00     0.148 A 
ATOM     66  C   UNL     1       8.434   2.914   6.974  1.00  0.00     0.002 A 
ATOM     67  C   UNL     1      10.554   2.073   6.150  1.00  0.00     0.091 A 
ATOM     68  F   UNL     1      11.148  -0.200   6.571  1.00  0.00    -0.205 F 
ATOM     69  C   UNL     1       9.625   3.117   6.281  1.00  0.00     0.022 A 
BRANCH  67  70
ATOM     70  S   UNL     1      12.100   2.450   5.312  1.00  0.00     0.127 S 
ATOM     71  O   UNL     1      11.695   2.394   3.908  1.00  0.00    -0.237 OA
ATOM     72  O   UNL     1      12.405   3.794   5.804  1.00  0.00    -0.237 OA
ATOM     73  O   UNL     1      13.041   1.425   5.740  1.00  0.00    -0.744 OA
ENDBRANCH  67  70
ENDBRANCH  49  63
BRANCH  50  74
ATOM     74  C   UNL     1       7.590  -8.150  11.972  1.00  0.00     0.023 A 
ATOM     75  C   UNL     1       6.896  -8.254  13.191  1.00  0.00     0.012 A 
ATOM     76  C   UNL     1       7.998  -9.323  11.310  1.00  0.00     0.148 A 
ATOM     77  C   UNL     1       6.618  -9.505  13.743  1.00  0.00     0.002 A 
ATOM     78  C   UNL     1       7.666 -10.566  11.836  1.00  0.00     0.091 A 
ATOM     79  F   UNL     1       8.673  -9.210  10.156  1.00  0.00    -0.205 F 
ATOM     80  C   UNL     1       6.987 -10.661  13.059  1.00  0.00     0.022 A 
BRANCH  78  81
ATOM     81  S   UNL     1       7.970 -12.066  10.895  1.00  0.00     0.127 S 
ATOM     82  O   UNL     1       9.341 -12.393  11.274  1.00  0.00    -0.237 OA
ATOM     83  O   UNL     1       6.955 -12.985  11.413  1.00  0.00    -0.237 OA
ATOM     84  O   UNL     1       7.753 -11.671   9.508  1.00  0.00    -0.744 OA
ENDBRANCH  78  81
ENDBRANCH  50  74
BRANCH  62  85
ATOM     85  C   UNL     1      11.446  -2.521  13.463  1.00  0.00     0.023 A 
ATOM     86  C   UNL     1      12.746  -3.059  13.410  1.00  0.00     0.012 A 
ATOM     87  C   UNL     1      11.091  -1.663  14.521  1.00  0.00     0.148 A 
ATOM     88  C   UNL     1      13.674  -2.764  14.408  1.00  0.00     0.002 A 
ATOM     89  C   UNL     1      12.032  -1.350  15.496  1.00  0.00     0.091 A 
ATOM     90  F   UNL     1       9.840  -1.182  14.569  1.00  0.00    -0.205 F 
ATOM     91  C   UNL     1      13.321  -1.903  15.445  1.00  0.00     0.022 A 
BRANCH  89  92
ATOM     92  S   UNL     1      11.654  -0.193  16.817  1.00  0.00     0.127 S 
ATOM     93  O   UNL     1      11.156  -1.083  17.864  1.00  0.00    -0.237 OA
ATOM     94  O   UNL     1      12.956   0.412  17.101  1.00  0.00    -0.237 OA
ATOM     95  O   UNL     1      10.681   0.731  16.248  1.00  0.00    -0.744 OA
ENDBRANCH  89  92
ENDBRANCH  62  85
ENDBRANCH  36  37
ENDBRANCH  29  31
ENDBRANCH  28  29
ENDBRANCH  27  28
ENDBRANCH   1  27
TORSDOF 19
