REMARK SMILES O=C(OCCOC(=O)c1ccnc(-n2cnnn2)c1)c1ccc(-c2c3nc(c(-c4cccc(S(=O)(=O)[O-])c4F)c4ccc([nH]4)c(-c4cccc(S(=O)(=O)[O-])c4F)c4nc(c(-c5cccc(S(=O)(=O)[O-])c5F)c5ccc2[nH]5)C=C4)C=C3)cc1
REMARK SMILES IDX 4 1 3 2 2 3 1 4 20 5 21 6 82 7 22 8 81 9 23 10 24 11 25 12
REMARK SMILES IDX 75 13 26 14 80 15 74 16 76 17 27 18 79 19 73 20 72 21 28 23
REMARK SMILES IDX 60 24 40 25 59 26 41 27 44 28 58 29 77 30 42 31 43 32 57 34
REMARK SMILES IDX 78 35 45 36 29 37 30 38 38 39 31 40 33 41 39 42 32 43 34 44
REMARK SMILES IDX 35 45 36 46 37 47 61 48 62 49 70 50 63 51 65 52 71 53 64 54
REMARK SMILES IDX 66 55 67 56 68 57 69 58 46 59 47 60 55 61 48 62 50 63 56 64
REMARK SMILES IDX 49 65 51 66 52 67 53 68 54 69 5 70 6 71 7 72 8 73 9 74 10 75
REMARK SMILES IDX 19 76 11 77 13 78 12 79 14 80 15 81 18 82 16 83 17 84
REMARK H PARENT 76 22 44 33
REMARK Flexibility Score: inf
ROOT
ATOM      1  C   UNL     1       4.726   0.495   0.869  1.00  0.00     0.275 C 
ENDROOT
BRANCH   1   2
ATOM      2  O   UNL     1       3.595   1.324   0.531  1.00  0.00    -0.458 OA
BRANCH   2   3
ATOM      3  C   UNL     1       2.499   0.759  -0.014  1.00  0.00     0.338 C 
ATOM      4  O   UNL     1       1.506   0.439   0.627  1.00  0.00    -0.246 OA
BRANCH   3   5
ATOM      5  C   UNL     1       2.512   0.774  -1.493  1.00  0.00     0.060 A 
ATOM      6  C   UNL     1       3.686   0.638  -2.244  1.00  0.00     0.016 A 
ATOM      7  C   UNL     1       1.279   0.899  -2.142  1.00  0.00     0.016 A 
ATOM      8  C   UNL     1       3.636   0.685  -3.629  1.00  0.00     0.010 A 
ATOM      9  C   UNL     1       1.229   0.934  -3.527  1.00  0.00     0.010 A 
ATOM     10  C   UNL     1       2.409   0.858  -4.270  1.00  0.00    -0.014 A 
BRANCH  10  11
ATOM     11  C   UNL     1       2.389   0.888  -5.730  1.00  0.00     0.031 A 
ATOM     12  C   UNL     1       2.897  -0.334  -6.423  1.00  0.00     0.074 A 
ATOM     13  C   UNL     1       1.800   1.883  -6.423  1.00  0.00     0.049 A 
ATOM     14  N   UNL     1       3.897  -0.441  -7.238  1.00  0.00    -0.248 NA
ATOM     15  C   UNL     1       2.257  -1.616  -6.098  1.00  0.00     0.031 C 
ATOM     16  C   UNL     1       1.001   2.994  -5.894  1.00  0.00     0.029 A 
ATOM     17  N   UNL     1       1.661   2.019  -7.771  1.00  0.00    -0.354 N 
ATOM     18  C   UNL     1       3.871  -1.759  -7.701  1.00  0.00     0.074 A 
ATOM     19  C   UNL     1       2.951  -2.469  -6.852  1.00  0.00     0.031 C 
ATOM     20  C   UNL     1       0.252   3.513  -6.889  1.00  0.00     0.029 A 
ATOM     21  C   UNL     1       0.640   2.887  -8.139  1.00  0.00     0.049 A 
ATOM     22  H   UNL     1       2.230   1.548  -8.422  1.00  0.00     0.167 HD
ATOM     23  C   UNL     1       4.436  -2.128  -8.885  1.00  0.00     0.034 A 
ATOM     24  C   UNL     1       0.106   3.033  -9.374  1.00  0.00     0.034 A 
ATOM     25  C   UNL     1       5.353  -1.139  -9.378  1.00  0.00     0.049 A 
ATOM     26  C   UNL     1       1.086   2.507 -10.348  1.00  0.00     0.074 A 
ATOM     27  C   UNL     1       6.502  -0.542  -8.902  1.00  0.00     0.029 A 
ATOM     28  N   UNL     1       4.931  -0.356 -10.424  1.00  0.00    -0.354 N 
ATOM     29  N   UNL     1       2.244   3.061 -10.576  1.00  0.00    -0.248 NA
ATOM     30  C   UNL     1       0.949   1.133 -10.797  1.00  0.00     0.031 C 
ATOM     31  C   UNL     1       6.418   0.810  -9.345  1.00  0.00     0.029 A 
ATOM     32  C   UNL     1       5.254   0.935 -10.107  1.00  0.00     0.049 A 
ATOM     33  H   UNL     1       4.483  -0.665 -11.244  1.00  0.00     0.167 HD
ATOM     34  C   UNL     1       3.105   1.992 -10.776  1.00  0.00     0.074 A 
ATOM     35  C   UNL     1       2.232   0.848 -11.030  1.00  0.00     0.031 C 
ATOM     36  C   UNL     1       4.424   2.075 -10.430  1.00  0.00     0.034 A 
BRANCH  23  37
ATOM     37  C   UNL     1       3.927  -3.237  -9.779  1.00  0.00     0.023 A 
ATOM     38  C   UNL     1       4.746  -3.646 -10.857  1.00  0.00     0.012 A 
ATOM     39  C   UNL     1       2.594  -3.704  -9.777  1.00  0.00     0.148 A 
ATOM     40  C   UNL     1       4.253  -4.447 -11.894  1.00  0.00     0.002 A 
ATOM     41  C   UNL     1       2.134  -4.571 -10.764  1.00  0.00     0.091 A 
ATOM     42  F   UNL     1       1.715  -3.208  -8.900  1.00  0.00    -0.205 F 
ATOM     43  C   UNL     1       2.949  -4.921 -11.841  1.00  0.00     0.022 A 
BRANCH  41  44
ATOM     44  S   UNL     1       0.479  -5.267 -10.701  1.00  0.00     0.127 S 
ATOM     45  O   UNL     1      -0.215  -4.459 -11.698  1.00  0.00    -0.237 OA
ATOM     46  O   UNL     1       0.724  -6.657 -11.089  1.00  0.00    -0.237 OA
ATOM     47  O   UNL     1       0.053  -5.101  -9.318  1.00  0.00    -0.744 OA
ENDBRANCH  41  44
ENDBRANCH  23  37
BRANCH  24  48
ATOM     48  C   UNL     1      -1.274   3.394  -9.762  1.00  0.00     0.023 A 
ATOM     49  C   UNL     1      -1.521   3.936 -11.038  1.00  0.00     0.012 A 
ATOM     50  C   UNL     1      -2.377   2.966  -8.990  1.00  0.00     0.148 A 
ATOM     51  C   UNL     1      -2.824   4.019 -11.543  1.00  0.00     0.002 A 
ATOM     52  C   UNL     1      -3.671   3.059  -9.494  1.00  0.00     0.091 A 
ATOM     53  F   UNL     1      -2.148   2.382  -7.806  1.00  0.00    -0.205 F 
ATOM     54  C   UNL     1      -3.897   3.574 -10.776  1.00  0.00     0.022 A 
BRANCH  52  55
ATOM     55  S   UNL     1      -5.102   2.493  -8.565  1.00  0.00     0.127 S 
ATOM     56  O   UNL     1      -6.038   3.604  -8.743  1.00  0.00    -0.237 OA
ATOM     57  O   UNL     1      -5.460   1.271  -9.279  1.00  0.00    -0.237 OA
ATOM     58  O   UNL     1      -4.636   2.320  -7.195  1.00  0.00    -0.744 OA
ENDBRANCH  52  55
ENDBRANCH  24  48
BRANCH  36  59
ATOM     59  C   UNL     1       4.984   3.429 -10.062  1.00  0.00     0.023 A 
ATOM     60  C   UNL     1       4.497   4.166  -8.962  1.00  0.00     0.012 A 
ATOM     61  C   UNL     1       6.144   3.878 -10.716  1.00  0.00     0.148 A 
ATOM     62  C   UNL     1       5.133   5.337  -8.542  1.00  0.00     0.002 A 
ATOM     63  C   UNL     1       6.803   5.016 -10.263  1.00  0.00     0.091 A 
ATOM     64  F   UNL     1       6.604   3.165 -11.755  1.00  0.00    -0.205 F 
ATOM     65  C   UNL     1       6.295   5.754  -9.183  1.00  0.00     0.022 A 
BRANCH  63  66
ATOM     66  S   UNL     1       8.379   5.522 -10.956  1.00  0.00     0.127 S 
ATOM     67  O   UNL     1       7.994   6.646 -11.805  1.00  0.00    -0.237 OA
ATOM     68  O   UNL     1       9.145   5.890  -9.763  1.00  0.00    -0.237 OA
ATOM     69  O   UNL     1       8.901   4.353 -11.655  1.00  0.00    -0.744 OA
ENDBRANCH  63  66
ENDBRANCH  36  59
ENDBRANCH  10  11
ENDBRANCH   3   5
ENDBRANCH   2   3
ENDBRANCH   1   2
BRANCH   1  70
ATOM     70  C   UNL     1       4.445  -0.960   1.248  1.00  0.00     0.275 C 
BRANCH  70  71
ATOM     71  O   UNL     1       3.894  -1.696   0.139  1.00  0.00    -0.458 OA
BRANCH  71  72
ATOM     72  C   UNL     1       2.769  -2.395   0.402  1.00  0.00     0.338 C 
ATOM     73  O   UNL     1       2.193  -2.511   1.486  1.00  0.00    -0.246 OA
BRANCH  72  74
ATOM     74  C   UNL     1       2.311  -3.070  -0.815  1.00  0.00     0.065 A 
ATOM     75  C   UNL     1       3.037  -4.170  -1.264  1.00  0.00     0.036 A 
ATOM     76  C   UNL     1       1.107  -2.704  -1.423  1.00  0.00     0.065 A 
ATOM     77  C   UNL     1       2.501  -4.906  -2.299  1.00  0.00     0.114 A 
ATOM     78  C   UNL     1       0.648  -3.517  -2.453  1.00  0.00     0.157 A 
ATOM     79  N   UNL     1       1.316  -4.622  -2.874  1.00  0.00    -0.237 NA
BRANCH  78  80
ATOM     80  N   UNL     1      -0.604  -3.246  -3.043  1.00  0.00    -0.182 N 
ATOM     81  C   UNL     1      -1.035  -2.100  -3.647  1.00  0.00     0.254 A 
ATOM     82  N   UNL     1      -1.629  -4.122  -2.995  1.00  0.00    -0.039 NA
ATOM     83  N   UNL     1      -2.313  -2.216  -3.921  1.00  0.00    -0.117 NA
ATOM     84  N   UNL     1      -2.668  -3.476  -3.510  1.00  0.00    -0.024 NA
ENDBRANCH  78  80
ENDBRANCH  72  74
ENDBRANCH  71  72
ENDBRANCH  70  71
ENDBRANCH   1  70
TORSDOF 15
