REMARK SMILES COc1ccc2c(c1OC)C(=O)O[C@@H]2Nc1nonc1C(=O)OCCOC(=O)c1ccc(-c2c3nc(c(-c4cccc(S(=O)(=O)[O-])c4F)c4ccc([nH]4)c(-c4cccc(S(=O)(=O)[O-])c4F)c4nc(c(-c5cccc(S(=O)(=O)[O-])c5F)c5ccc2[nH]5)C=C4)C=C3)cc1
REMARK SMILES IDX 24 1 23 2 21 3 22 4 20 5 16 6 17 7 18 8 19 9 15 10 14 12
REMARK SMILES IDX 3 13 4 14 8 15 5 16 7 17 6 18 11 19 12 20 13 21 2 22 1 23
REMARK SMILES IDX 9 24 10 25 25 26 26 27 27 28 28 29 29 30 30 31 91 32 31 33
REMARK SMILES IDX 90 34 32 35 33 36 34 37 84 38 35 39 89 40 83 41 85 42 36 43
REMARK SMILES IDX 88 44 82 45 81 46 37 48 69 49 49 50 68 51 50 52 53 53 67 54
REMARK SMILES IDX 86 55 51 56 52 57 66 59 87 60 54 61 38 62 39 63 47 64 40 65
REMARK SMILES IDX 42 66 48 67 41 68 43 69 44 70 45 71 46 72 70 73 71 74 79 75
REMARK SMILES IDX 72 76 74 77 80 78 73 79 75 80 76 81 77 82 78 83 55 84 56 85
REMARK SMILES IDX 64 86 57 87 59 88 65 89 58 90 60 91 61 92 62 93 63 94
REMARK H PARENT 15 11 85 47 53 58
REMARK Flexibility Score: inf
ROOT
ATOM      1  C   UNL     1      -1.718   3.444  -5.493  1.00  0.00     0.275 C 
ENDROOT
BRANCH   1   2
ATOM      2  O   UNL     1      -0.707   4.433  -5.181  1.00  0.00    -0.457 OA
BRANCH   2   3
ATOM      3  C   UNL     1      -0.137   5.124  -6.214  1.00  0.00     0.364 C 
ATOM      4  O   UNL     1      -0.314   4.834  -7.391  1.00  0.00    -0.244 OA
BRANCH   3   5
ATOM      5  C   UNL     1       0.649   6.275  -5.772  1.00  0.00     0.236 A 
ATOM      6  C   UNL     1       1.349   6.532  -4.563  1.00  0.00     0.209 A 
ATOM      7  N   UNL     1       1.733   7.808  -4.542  1.00  0.00    -0.031 NA
ATOM      8  O   UNL     1       1.392   8.316  -5.783  1.00  0.00    -0.241 OA
ATOM      9  N   UNL     1       0.790   7.349  -6.566  1.00  0.00    -0.040 NA
BRANCH   6  10
ATOM     10  N   UNL     1       1.683   5.664  -3.577  1.00  0.00    -0.326 N 
ATOM     11  H   UNL     1       1.530   5.899  -2.633  1.00  0.00     0.166 HD
BRANCH  10  12
ATOM     12  C   UNL     1       2.263   4.399  -3.924  1.00  0.00     0.307 C 
ATOM     13  C   UNL     1       1.373   0.899  -1.827  1.00  0.00     0.161 A 
ATOM     14  C   UNL     1       0.282   1.722  -2.134  1.00  0.00     0.051 A 
ATOM     15  C   UNL     1       2.708   1.275  -2.089  1.00  0.00     0.175 A 
ATOM     16  C   UNL     1       0.501   2.952  -2.727  1.00  0.00     0.014 A 
ATOM     17  C   UNL     1       2.892   2.501  -2.716  1.00  0.00     0.114 A 
ATOM     18  C   UNL     1       1.804   3.296  -3.058  1.00  0.00     0.032 A 
ATOM     19  C   UNL     1       4.089   3.231  -3.174  1.00  0.00     0.344 C 
ATOM     20  O   UNL     1       5.255   2.923  -3.065  1.00  0.00    -0.246 OA
ATOM     21  O   UNL     1       3.668   4.417  -3.708  1.00  0.00    -0.434 OA
BRANCH  13  22
ATOM     22  O   UNL     1       1.073  -0.331  -1.290  1.00  0.00    -0.493 OA
ATOM     23  C   UNL     1       1.113  -0.255   0.133  1.00  0.00     0.278 C 
ENDBRANCH  13  22
BRANCH  15  24
ATOM     24  O   UNL     1       3.640   0.340  -1.751  1.00  0.00    -0.492 OA
ATOM     25  C   UNL     1       4.927   0.784  -1.354  1.00  0.00     0.278 C 
ENDBRANCH  15  24
ENDBRANCH  10  12
ENDBRANCH   6  10
ENDBRANCH   3   5
ENDBRANCH   2   3
ENDBRANCH   1   2
BRANCH   1  26
ATOM     26  C   UNL     1      -3.061   3.840  -4.863  1.00  0.00     0.275 C 
BRANCH  26  27
ATOM     27  O   UNL     1      -3.696   4.866  -5.642  1.00  0.00    -0.458 OA
BRANCH  27  28
ATOM     28  C   UNL     1      -3.289   6.130  -5.376  1.00  0.00     0.338 C 
ATOM     29  O   UNL     1      -2.566   6.491  -4.464  1.00  0.00    -0.246 OA
BRANCH  28  30
ATOM     30  C   UNL     1      -3.634   6.963  -6.536  1.00  0.00     0.060 A 
ATOM     31  C   UNL     1      -2.574   7.536  -7.239  1.00  0.00     0.016 A 
ATOM     32  C   UNL     1      -4.947   7.145  -6.962  1.00  0.00     0.016 A 
ATOM     33  C   UNL     1      -2.800   8.276  -8.386  1.00  0.00     0.010 A 
ATOM     34  C   UNL     1      -5.180   7.888  -8.120  1.00  0.00     0.010 A 
ATOM     35  C   UNL     1      -4.106   8.447  -8.839  1.00  0.00    -0.014 A 
BRANCH  35  36
ATOM     36  C   UNL     1      -4.349   9.230 -10.065  1.00  0.00     0.031 A 
ATOM     37  C   UNL     1      -4.985  10.578  -9.955  1.00  0.00     0.074 A 
ATOM     38  C   UNL     1      -4.009   8.711 -11.258  1.00  0.00     0.049 A 
ATOM     39  N   UNL     1      -5.407  11.370 -10.902  1.00  0.00    -0.248 NA
ATOM     40  C   UNL     1      -5.178  11.101  -8.593  1.00  0.00     0.031 C 
ATOM     41  C   UNL     1      -3.331   7.429 -11.459  1.00  0.00     0.029 A 
ATOM     42  N   UNL     1      -4.207   9.189 -12.526  1.00  0.00    -0.354 N 
ATOM     43  C   UNL     1      -5.965  12.463 -10.254  1.00  0.00     0.074 A 
ATOM     44  C   UNL     1      -5.829  12.230  -8.832  1.00  0.00     0.031 C 
ATOM     45  C   UNL     1      -3.183   7.214 -12.776  1.00  0.00     0.029 A 
ATOM     46  C   UNL     1      -3.809   8.311 -13.505  1.00  0.00     0.049 A 
ATOM     47  H   UNL     1      -4.596  10.073 -12.717  1.00  0.00     0.167 HD
ATOM     48  C   UNL     1      -6.538  13.560 -10.803  1.00  0.00     0.034 A 
ATOM     49  C   UNL     1      -3.972   8.370 -14.840  1.00  0.00     0.034 A 
ATOM     50  C   UNL     1      -6.652  13.768 -12.221  1.00  0.00     0.049 A 
ATOM     51  C   UNL     1      -4.684   9.561 -15.421  1.00  0.00     0.074 A 
ATOM     52  C   UNL     1      -7.181  14.853 -12.893  1.00  0.00     0.029 A 
ATOM     53  N   UNL     1      -6.245  12.857 -13.187  1.00  0.00    -0.354 N 
ATOM     54  N   UNL     1      -5.145  10.626 -14.809  1.00  0.00    -0.248 NA
ATOM     55  C   UNL     1      -4.891   9.564 -16.875  1.00  0.00     0.031 C 
ATOM     56  C   UNL     1      -7.139  14.577 -14.264  1.00  0.00     0.029 A 
ATOM     57  C   UNL     1      -6.543  13.338 -14.450  1.00  0.00     0.049 A 
ATOM     58  H   UNL     1      -5.810  11.994 -13.001  1.00  0.00     0.167 HD
ATOM     59  C   UNL     1      -5.671  11.441 -15.804  1.00  0.00     0.074 A 
ATOM     60  C   UNL     1      -5.454  10.751 -17.061  1.00  0.00     0.031 C 
ATOM     61  C   UNL     1      -6.286  12.644 -15.689  1.00  0.00     0.034 A 
BRANCH  48  62
ATOM     62  C   UNL     1      -7.098  14.591  -9.858  1.00  0.00     0.023 A 
ATOM     63  C   UNL     1      -6.231  15.362  -9.056  1.00  0.00     0.012 A 
ATOM     64  C   UNL     1      -8.489  14.788  -9.756  1.00  0.00     0.148 A 
ATOM     65  C   UNL     1      -6.741  16.271  -8.128  1.00  0.00     0.002 A 
ATOM     66  C   UNL     1      -8.987  15.732  -8.866  1.00  0.00     0.091 A 
ATOM     67  F   UNL     1      -9.300  14.030 -10.507  1.00  0.00    -0.205 F 
ATOM     68  C   UNL     1      -8.117  16.461  -8.039  1.00  0.00     0.022 A 
BRANCH  66  69
ATOM     69  S   UNL     1     -10.739  16.102  -8.732  1.00  0.00     0.127 S 
ATOM     70  O   UNL     1     -11.071  15.498  -7.443  1.00  0.00    -0.237 OA
ATOM     71  O   UNL     1     -10.746  17.565  -8.740  1.00  0.00    -0.237 OA
ATOM     72  O   UNL     1     -11.369  15.487  -9.893  1.00  0.00    -0.744 OA
ENDBRANCH  66  69
ENDBRANCH  48  62
BRANCH  49  73
ATOM     73  C   UNL     1      -3.434   7.284 -15.706  1.00  0.00     0.023 A 
ATOM     74  C   UNL     1      -2.343   7.560 -16.551  1.00  0.00     0.012 A 
ATOM     75  C   UNL     1      -3.958   5.976 -15.664  1.00  0.00     0.148 A 
ATOM     76  C   UNL     1      -1.794   6.559 -17.353  1.00  0.00     0.002 A 
ATOM     77  C   UNL     1      -3.374   4.972 -16.427  1.00  0.00     0.091 A 
ATOM     78  F   UNL     1      -5.002   5.736 -14.858  1.00  0.00    -0.205 F 
ATOM     79  C   UNL     1      -2.301   5.265 -17.284  1.00  0.00     0.022 A 
BRANCH  77  80
ATOM     80  S   UNL     1      -3.881   3.251 -16.321  1.00  0.00     0.127 S 
ATOM     81  O   UNL     1      -4.397   3.008 -17.666  1.00  0.00    -0.237 OA
ATOM     82  O   UNL     1      -2.615   2.584 -16.018  1.00  0.00    -0.237 OA
ATOM     83  O   UNL     1      -4.868   3.192 -15.252  1.00  0.00    -0.744 OA
ENDBRANCH  77  80
ENDBRANCH  49  73
BRANCH  61  84
ATOM     84  C   UNL     1      -6.754  13.308 -16.958  1.00  0.00     0.023 A 
ATOM     85  C   UNL     1      -7.880  12.804 -17.637  1.00  0.00     0.012 A 
ATOM     86  C   UNL     1      -6.131  14.483 -17.422  1.00  0.00     0.148 A 
ATOM     87  C   UNL     1      -8.366  13.448 -18.774  1.00  0.00     0.002 A 
ATOM     88  C   UNL     1      -6.653  15.149 -18.523  1.00  0.00     0.091 A 
ATOM     89  F   UNL     1      -5.052  14.935 -16.766  1.00  0.00    -0.205 F 
ATOM     90  C   UNL     1      -7.762  14.627 -19.208  1.00  0.00     0.022 A 
BRANCH  88  91
ATOM     91  S   UNL     1      -6.009  16.725 -19.096  1.00  0.00     0.127 S 
ATOM     92  O   UNL     1      -5.480  16.369 -20.412  1.00  0.00    -0.237 OA
ATOM     93  O   UNL     1      -7.213  17.555 -19.127  1.00  0.00    -0.237 OA
ATOM     94  O   UNL     1      -5.011  17.135 -18.119  1.00  0.00    -0.744 OA
ENDBRANCH  88  91
ENDBRANCH  61  84
ENDBRANCH  35  36
ENDBRANCH  28  30
ENDBRANCH  27  28
ENDBRANCH  26  27
ENDBRANCH   1  26
TORSDOF 18
