REMARK SMILES CC[C@H](C)[C@@H](Nc1ncnc2ccccc12)C(=O)OCCOC(=O)c1ccc(-c2c3nc(c(-c4cccc(S(=O)(=O)[O-])c4F)c4ccc([nH]4)c(-c4cccc(S(=O)(=O)[O-])c4F)c4nc(c(-c5cccc(S(=O)(=O)[O-])c5F)c5ccc2[nH]5)C=C4)C=C3)cc1
REMARK SMILES IDX 21 1 20 2 19 3 17 4 18 5 5 6 3 7 4 8 2 9 1 10 6 11 7 13 8 14
REMARK SMILES IDX 16 15 9 16 11 17 15 18 10 19 12 20 14 21 13 22 22 23 23 24
REMARK SMILES IDX 24 25 25 26 26 27 87 28 27 29 86 30 28 31 29 32 30 33 80 34
REMARK SMILES IDX 31 35 85 36 79 37 81 38 32 39 84 40 78 41 77 42 33 44 65 45
REMARK SMILES IDX 45 46 64 47 46 48 49 49 63 50 82 51 47 52 48 53 62 55 83 56
REMARK SMILES IDX 50 57 34 58 35 59 43 60 36 61 38 62 44 63 37 64 39 65 40 66
REMARK SMILES IDX 41 67 42 68 66 69 67 70 75 71 68 72 70 73 76 74 69 75 71 76
REMARK SMILES IDX 72 77 73 78 74 79 51 80 52 81 60 82 53 83 55 84 61 85 54 86
REMARK SMILES IDX 56 87 57 88 58 89 59 90
REMARK H PARENT 6 12 81 43 49 54
REMARK Flexibility Score: inf
ROOT
ATOM      1  C   UNL     1       2.194   4.892   4.647  1.00  0.00     0.275 C 
ENDROOT
BRANCH   1   2
ATOM      2  C   UNL     1       2.817   3.550   5.066  1.00  0.00     0.274 C 
BRANCH   2   3
ATOM      3  O   UNL     1       2.449   2.434   4.224  1.00  0.00    -0.461 OA
BRANCH   3   4
ATOM      4  C   UNL     1       1.258   1.874   4.557  1.00  0.00     0.328 C 
ATOM      5  O   UNL     1       0.505   2.352   5.399  1.00  0.00    -0.250 OA
BRANCH   4   6
ATOM      6  C   UNL     1       0.936   0.544   3.848  1.00  0.00     0.194 C 
BRANCH   6   7
ATOM      7  C   UNL     1       1.198   0.564   2.304  1.00  0.00     0.019 C 
ATOM      8  C   UNL     1       0.627  -0.704   1.647  1.00  0.00     0.010 C 
BRANCH   7   9
ATOM      9  C   UNL     1       0.624   1.843   1.644  1.00  0.00     0.002 C 
ATOM     10  C   UNL     1       0.401   1.804   0.139  1.00  0.00     0.004 C 
ENDBRANCH   7   9
ENDBRANCH   6   7
BRANCH   6  11
ATOM     11  N   UNL     1       1.594  -0.631   4.468  1.00  0.00    -0.356 N 
ATOM     12  H   UNL     1       1.632  -1.460   3.938  1.00  0.00     0.163 HD
BRANCH  11  13
ATOM     13  C   UNL     1       2.156  -0.656   5.726  1.00  0.00     0.137 A 
ATOM     14  N   UNL     1       3.400  -1.162   5.690  1.00  0.00    -0.219 NA
ATOM     15  C   UNL     1       1.583  -0.166   6.914  1.00  0.00     0.043 A 
ATOM     16  C   UNL     1       4.117  -1.065   6.812  1.00  0.00     0.224 A 
ATOM     17  C   UNL     1       2.474  -0.031   7.988  1.00  0.00     0.076 A 
ATOM     18  C   UNL     1       0.227   0.209   7.107  1.00  0.00     0.014 A 
ATOM     19  N   UNL     1       3.734  -0.477   7.947  1.00  0.00    -0.236 NA
ATOM     20  C   UNL     1       2.043   0.612   9.143  1.00  0.00     0.029 A 
ATOM     21  C   UNL     1      -0.185   0.849   8.275  1.00  0.00     0.001 A 
ATOM     22  C   UNL     1       0.735   1.078   9.286  1.00  0.00     0.002 A 
ENDBRANCH  11  13
ENDBRANCH   6  11
ENDBRANCH   4   6
ENDBRANCH   3   4
ENDBRANCH   2   3
ENDBRANCH   1   2
BRANCH   1  23
ATOM     23  O   UNL     1       0.767   4.933   4.858  1.00  0.00    -0.458 OA
BRANCH  23  24
ATOM     24  C   UNL     1       0.003   4.948   3.741  1.00  0.00     0.338 C 
ATOM     25  O   UNL     1       0.394   5.034   2.589  1.00  0.00    -0.246 OA
BRANCH  24  26
ATOM     26  C   UNL     1      -1.420   4.738   4.069  1.00  0.00     0.060 A 
ATOM     27  C   UNL     1      -1.942   3.443   3.997  1.00  0.00     0.016 A 
ATOM     28  C   UNL     1      -2.275   5.821   4.268  1.00  0.00     0.016 A 
ATOM     29  C   UNL     1      -3.309   3.216   4.081  1.00  0.00     0.010 A 
ATOM     30  C   UNL     1      -3.653   5.593   4.376  1.00  0.00     0.010 A 
ATOM     31  C   UNL     1      -4.179   4.293   4.254  1.00  0.00    -0.014 A 
BRANCH  31  32
ATOM     32  C   UNL     1      -5.640   4.057   4.223  1.00  0.00     0.031 A 
ATOM     33  C   UNL     1      -6.431   4.483   3.020  1.00  0.00     0.074 A 
ATOM     34  C   UNL     1      -6.246   3.441   5.254  1.00  0.00     0.049 A 
ATOM     35  N   UNL     1      -7.726   4.478   2.841  1.00  0.00    -0.248 NA
ATOM     36  C   UNL     1      -5.663   4.976   1.865  1.00  0.00     0.031 C 
ATOM     37  C   UNL     1      -5.571   2.932   6.448  1.00  0.00     0.029 A 
ATOM     38  N   UNL     1      -7.571   3.158   5.470  1.00  0.00    -0.354 N 
ATOM     39  C   UNL     1      -7.933   5.011   1.576  1.00  0.00     0.074 A 
ATOM     40  C   UNL     1      -6.630   5.317   1.024  1.00  0.00     0.031 C 
ATOM     41  C   UNL     1      -6.489   2.425   7.286  1.00  0.00     0.029 A 
ATOM     42  C   UNL     1      -7.817   2.615   6.709  1.00  0.00     0.049 A 
ATOM     43  H   UNL     1      -8.276   3.327   4.804  1.00  0.00     0.167 HD
ATOM     44  C   UNL     1      -9.104   5.219   0.930  1.00  0.00     0.034 A 
ATOM     45  C   UNL     1      -8.984   2.341   7.324  1.00  0.00     0.034 A 
ATOM     46  C   UNL     1     -10.393   4.876   1.467  1.00  0.00     0.049 A 
ATOM     47  C   UNL     1     -10.274   2.611   6.597  1.00  0.00     0.074 A 
ATOM     48  C   UNL     1     -11.638   5.039   0.887  1.00  0.00     0.029 A 
ATOM     49  N   UNL     1     -10.601   4.294   2.708  1.00  0.00    -0.354 N 
ATOM     50  N   UNL     1     -10.455   3.069   5.381  1.00  0.00    -0.248 NA
ATOM     51  C   UNL     1     -11.519   2.312   7.318  1.00  0.00     0.031 C 
ATOM     52  C   UNL     1     -12.601   4.559   1.782  1.00  0.00     0.029 A 
ATOM     53  C   UNL     1     -11.954   4.092   2.915  1.00  0.00     0.049 A 
ATOM     54  H   UNL     1      -9.890   4.060   3.348  1.00  0.00     0.167 HD
ATOM     55  C   UNL     1     -11.830   3.094   5.183  1.00  0.00     0.074 A 
ATOM     56  C   UNL     1     -12.435   2.580   6.396  1.00  0.00     0.031 C 
ATOM     57  C   UNL     1     -12.532   3.525   4.106  1.00  0.00     0.034 A 
BRANCH  44  58
ATOM     58  C   UNL     1      -9.041   5.827  -0.443  1.00  0.00     0.023 A 
ATOM     59  C   UNL     1      -8.678   5.024  -1.542  1.00  0.00     0.012 A 
ATOM     60  C   UNL     1      -9.383   7.177  -0.653  1.00  0.00     0.148 A 
ATOM     61  C   UNL     1      -8.634   5.561  -2.828  1.00  0.00     0.002 A 
ATOM     62  C   UNL     1      -9.369   7.697  -1.943  1.00  0.00     0.091 A 
ATOM     63  F   UNL     1      -9.696   7.932   0.410  1.00  0.00    -0.205 F 
ATOM     64  C   UNL     1      -8.990   6.893  -3.030  1.00  0.00     0.022 A 
BRANCH  62  65
ATOM     65  S   UNL     1      -9.869   9.384  -2.302  1.00  0.00     0.127 S 
ATOM     66  O   UNL     1      -8.578  10.040  -2.498  1.00  0.00    -0.237 OA
ATOM     67  O   UNL     1     -10.662   9.223  -3.522  1.00  0.00    -0.237 OA
ATOM     68  O   UNL     1     -10.633   9.826  -1.143  1.00  0.00    -0.744 OA
ENDBRANCH  62  65
ENDBRANCH  44  58
BRANCH  45  69
ATOM     69  C   UNL     1      -8.979   1.770   8.700  1.00  0.00     0.023 A 
ATOM     70  C   UNL     1      -9.385   0.438   8.899  1.00  0.00     0.012 A 
ATOM     71  C   UNL     1      -8.534   2.525   9.803  1.00  0.00     0.148 A 
ATOM     72  C   UNL     1      -9.366  -0.128  10.175  1.00  0.00     0.002 A 
ATOM     73  C   UNL     1      -8.464   1.938  11.062  1.00  0.00     0.091 A 
ATOM     74  F   UNL     1      -8.178   3.801   9.601  1.00  0.00    -0.205 F 
ATOM     75  C   UNL     1      -8.893   0.617  11.253  1.00  0.00     0.022 A 
BRANCH  73  76
ATOM     76  S   UNL     1      -7.733   2.792  12.464  1.00  0.00     0.127 S 
ATOM     77  O   UNL     1      -8.915   3.254  13.184  1.00  0.00    -0.237 OA
ATOM     78  O   UNL     1      -6.988   1.719  13.126  1.00  0.00    -0.237 OA
ATOM     79  O   UNL     1      -6.889   3.828  11.883  1.00  0.00    -0.744 OA
ENDBRANCH  73  76
ENDBRANCH  45  69
BRANCH  57  80
ATOM     80  C   UNL     1     -14.033   3.446   4.178  1.00  0.00     0.023 A 
ATOM     81  C   UNL     1     -14.738   4.399   4.938  1.00  0.00     0.012 A 
ATOM     82  C   UNL     1     -14.745   2.487   3.432  1.00  0.00     0.148 A 
ATOM     83  C   UNL     1     -16.132   4.385   4.973  1.00  0.00     0.002 A 
ATOM     84  C   UNL     1     -16.135   2.503   3.441  1.00  0.00     0.091 A 
ATOM     85  F   UNL     1     -14.053   1.574   2.734  1.00  0.00    -0.205 F 
ATOM     86  C   UNL     1     -16.830   3.446   4.216  1.00  0.00     0.022 A 
BRANCH  84  87
ATOM     87  S   UNL     1     -17.105   1.383   2.426  1.00  0.00     0.127 S 
ATOM     88  O   UNL     1     -17.502   0.366   3.398  1.00  0.00    -0.237 OA
ATOM     89  O   UNL     1     -18.197   2.240   1.962  1.00  0.00    -0.237 OA
ATOM     90  O   UNL     1     -16.208   0.932   1.370  1.00  0.00    -0.744 OA
ENDBRANCH  84  87
ENDBRANCH  57  80
ENDBRANCH  31  32
ENDBRANCH  24  26
ENDBRANCH  23  24
ENDBRANCH   1  23
TORSDOF 18
