REMARK SMILES C[C@@H](C(=O)OCCOC(=O)c1ccc(-c2c3nc(c(-c4cccc(S(=O)(=O)[O-])c4F)c4ccc([nH]4)c(-c4cccc(S(=O)(=O)[O-])c4F)c4nc(c(-c5cccc(S(=O)(=O)[O-])c5F)c5ccc2[nH]5)C=C4)C=C3)cc1)c1ccc(-c2cccc(OC(=O)NC3CC3)c2)c(F)c1
REMARK SMILES IDX 6 1 5 2 3 3 4 4 2 5 1 6 74 7 75 8 93 9 76 10 91 11 77 12
REMARK SMILES IDX 92 13 78 14 79 15 90 16 80 17 82 18 81 19 83 20 84 21 85 22
REMARK SMILES IDX 86 23 87 25 88 26 89 27 7 28 8 29 9 30 10 31 11 32 12 33
REMARK SMILES IDX 73 34 13 35 72 36 14 37 15 38 16 39 66 40 17 41 71 42 65 43
REMARK SMILES IDX 67 44 18 45 70 46 64 47 63 48 19 50 51 51 31 52 50 53 32 54
REMARK SMILES IDX 35 55 49 56 68 57 33 58 34 59 48 61 69 62 36 63 20 64 21 65
REMARK SMILES IDX 29 66 22 67 24 68 30 69 23 70 25 71 26 72 27 73 28 74 52 75
REMARK SMILES IDX 53 76 61 77 54 78 56 79 62 80 55 81 57 82 58 83 59 84 60 85
REMARK SMILES IDX 37 86 38 87 46 88 39 89 41 90 47 91 40 92 42 93 43 94 44 95
REMARK SMILES IDX 45 96
REMARK H PARENT 86 24 67 49 35 60
REMARK Flexibility Score: inf
ROOT
ATOM      1  C   UNL     1       2.708  -0.016   3.729  1.00  0.00     0.274 C 
ENDROOT
BRANCH   1   2
ATOM      2  O   UNL     1       2.277  -0.230   2.369  1.00  0.00    -0.462 OA
BRANCH   2   3
ATOM      3  C   UNL     1       1.188  -1.031   2.194  1.00  0.00     0.313 C 
ATOM      4  O   UNL     1       0.633  -1.628   3.110  1.00  0.00    -0.252 OA
BRANCH   3   5
ATOM      5  C   UNL     1       0.789  -1.177   0.716  1.00  0.00     0.126 C 
ATOM      6  C   UNL     1       1.425  -0.126  -0.196  1.00  0.00     0.025 C 
BRANCH   5   7
ATOM      7  C   UNL     1      -0.726  -1.278   0.554  1.00  0.00    -0.031 A 
ATOM      8  C   UNL     1      -1.548  -0.176   0.278  1.00  0.00     0.005 A 
ATOM      9  C   UNL     1      -1.348  -2.513   0.776  1.00  0.00     0.044 A 
ATOM     10  C   UNL     1      -2.949  -0.297   0.310  1.00  0.00     0.012 A 
ATOM     11  C   UNL     1      -2.739  -2.624   0.803  1.00  0.00     0.131 A 
ATOM     12  C   UNL     1      -3.576  -1.514   0.638  1.00  0.00     0.018 A 
ATOM     13  F   UNL     1      -3.256  -3.840   1.037  1.00  0.00    -0.206 F 
BRANCH  12  14
ATOM     14  C   UNL     1      -5.028  -1.588   0.932  1.00  0.00    -0.012 A 
ATOM     15  C   UNL     1      -5.971  -0.828   0.208  1.00  0.00     0.009 A 
ATOM     16  C   UNL     1      -5.496  -2.360   2.024  1.00  0.00     0.056 A 
ATOM     17  C   UNL     1      -7.328  -0.843   0.543  1.00  0.00     0.004 A 
ATOM     18  C   UNL     1      -6.844  -2.365   2.343  1.00  0.00     0.133 A 
ATOM     19  C   UNL     1      -7.768  -1.624   1.604  1.00  0.00     0.047 A 
BRANCH  18  20
ATOM     20  O   UNL     1      -7.383  -3.034   3.490  1.00  0.00    -0.410 OA
BRANCH  20  21
ATOM     21  C   UNL     1      -6.972  -3.715   4.674  1.00  0.00     0.412 C 
ATOM     22  O   UNL     1      -5.786  -3.989   4.876  1.00  0.00    -0.224 OA
ATOM     23  N   UNL     1      -7.973  -4.077   5.749  1.00  0.00    -0.318 N 
ATOM     24  H   UNL     1      -7.450  -4.381   6.526  1.00  0.00     0.167 HD
BRANCH  23  25
ATOM     25  C   UNL     1      -9.956  -4.209   6.294  1.00  0.00     0.085 C 
ATOM     26  C   UNL     1     -11.389  -3.847   5.635  1.00  0.00     0.027 C 
ATOM     27  C   UNL     1     -11.153  -5.265   5.987  1.00  0.00     0.027 C 
ENDBRANCH  23  25
ENDBRANCH  20  21
ENDBRANCH  18  20
ENDBRANCH  12  14
ENDBRANCH   5   7
ENDBRANCH   3   5
ENDBRANCH   2   3
ENDBRANCH   1   2
BRANCH   1  28
ATOM     28  C   UNL     1       2.277   1.362   4.227  1.00  0.00     0.275 C 
BRANCH  28  29
ATOM     29  O   UNL     1       0.848   1.422   4.386  1.00  0.00    -0.458 OA
BRANCH  29  30
ATOM     30  C   UNL     1       0.181   2.000   3.362  1.00  0.00     0.338 C 
ATOM     31  O   UNL     1       0.658   2.491   2.352  1.00  0.00    -0.246 OA
BRANCH  30  32
ATOM     32  C   UNL     1      -1.268   1.951   3.604  1.00  0.00     0.060 A 
ATOM     33  C   UNL     1      -1.940   0.740   3.499  1.00  0.00     0.016 A 
ATOM     34  C   UNL     1      -1.982   3.140   3.764  1.00  0.00     0.016 A 
ATOM     35  C   UNL     1      -3.335   0.737   3.441  1.00  0.00     0.010 A 
ATOM     36  C   UNL     1      -3.384   3.115   3.786  1.00  0.00     0.010 A 
ATOM     37  C   UNL     1      -4.086   1.921   3.564  1.00  0.00    -0.014 A 
BRANCH  37  38
ATOM     38  C   UNL     1      -5.579   1.888   3.462  1.00  0.00     0.031 A 
ATOM     39  C   UNL     1      -6.357   2.715   2.466  1.00  0.00     0.074 A 
ATOM     40  C   UNL     1      -6.296   1.066   4.252  1.00  0.00     0.049 A 
ATOM     41  N   UNL     1      -7.654   2.742   2.255  1.00  0.00    -0.248 NA
ATOM     42  C   UNL     1      -5.600   3.641   1.616  1.00  0.00     0.031 C 
ATOM     43  C   UNL     1      -5.744   0.138   5.229  1.00  0.00     0.029 A 
ATOM     44  N   UNL     1      -7.649   0.813   4.270  1.00  0.00    -0.354 N 
ATOM     45  C   UNL     1      -7.880   3.777   1.359  1.00  0.00     0.074 A 
ATOM     46  C   UNL     1      -6.575   4.309   1.014  1.00  0.00     0.031 C 
ATOM     47  C   UNL     1      -6.705  -0.725   5.582  1.00  0.00     0.029 A 
ATOM     48  C   UNL     1      -7.956  -0.355   4.928  1.00  0.00     0.049 A 
ATOM     49  H   UNL     1      -8.322   1.402   3.858  1.00  0.00     0.167 HD
ATOM     50  C   UNL     1      -9.053   4.268   0.884  1.00  0.00     0.034 A 
ATOM     51  C   UNL     1      -9.101  -1.062   4.935  1.00  0.00     0.034 A 
ATOM     52  C   UNL     1     -10.369   3.724   1.111  1.00  0.00     0.049 A 
ATOM     53  C   UNL     1     -10.348  -0.398   4.529  1.00  0.00     0.074 A 
ATOM     54  C   UNL     1     -11.582   4.171   0.603  1.00  0.00     0.029 A 
ATOM     55  N   UNL     1     -10.663   2.634   1.905  1.00  0.00    -0.354 N 
ATOM     56  N   UNL     1     -10.580   0.430   3.558  1.00  0.00    -0.248 NA
ATOM     57  C   UNL     1     -11.510  -0.733   5.349  1.00  0.00     0.031 C 
ATOM     58  C   UNL     1     -12.611   3.379   1.127  1.00  0.00     0.029 A 
ATOM     59  C   UNL     1     -12.038   2.425   1.944  1.00  0.00     0.049 A 
ATOM     60  H   UNL     1      -9.996   2.084   2.376  1.00  0.00     0.167 HD
ATOM     61  C   UNL     1     -11.957   0.609   3.566  1.00  0.00     0.074 A 
ATOM     62  C   UNL     1     -12.493  -0.218   4.626  1.00  0.00     0.031 C 
ATOM     63  C   UNL     1     -12.676   1.438   2.776  1.00  0.00     0.034 A 
BRANCH  50  64
ATOM     64  C   UNL     1      -8.981   5.536   0.082  1.00  0.00     0.023 A 
ATOM     65  C   UNL     1      -8.550   5.515  -1.256  1.00  0.00     0.012 A 
ATOM     66  C   UNL     1      -9.424   6.745   0.658  1.00  0.00     0.148 A 
ATOM     67  C   UNL     1      -8.529   6.691  -2.003  1.00  0.00     0.002 A 
ATOM     68  C   UNL     1      -9.450   7.899  -0.108  1.00  0.00     0.091 A 
ATOM     69  F   UNL     1      -9.811   6.737   1.942  1.00  0.00    -0.205 F 
ATOM     70  C   UNL     1      -8.990   7.878  -1.435  1.00  0.00     0.022 A 
BRANCH  68  71
ATOM     71  S   UNL     1     -10.117   9.448   0.508  1.00  0.00     0.127 S 
ATOM     72  O   UNL     1      -8.906  10.257   0.640  1.00  0.00    -0.237 OA
ATOM     73  O   UNL     1     -11.005   9.853  -0.582  1.00  0.00    -0.237 OA
ATOM     74  O   UNL     1     -10.794   9.128   1.756  1.00  0.00    -0.744 OA
ENDBRANCH  68  71
ENDBRANCH  50  64
BRANCH  51  75
ATOM     75  C   UNL     1      -9.147  -2.461   5.415  1.00  0.00     0.023 A 
ATOM     76  C   UNL     1      -9.361  -3.935   4.310  1.00  0.00     0.012 A 
ATOM     77  C   UNL     1      -8.639  -2.700   7.127  1.00  0.00     0.148 A 
ATOM     78  C   UNL     1      -8.991  -5.608   4.969  1.00  0.00     0.002 A 
ATOM     79  C   UNL     1      -8.374  -4.345   7.788  1.00  0.00     0.091 A 
ATOM     80  F   UNL     1      -8.530  -1.617   7.911  1.00  0.00    -0.205 F 
ATOM     81  C   UNL     1      -8.563  -5.801   6.728  1.00  0.00     0.022 A 
BRANCH  79  82
ATOM     82  S   UNL     1      -7.863  -4.481   9.476  1.00  0.00     0.127 S 
ATOM     83  O   UNL     1      -9.144  -4.498  10.174  1.00  0.00    -0.237 OA
ATOM     84  O   UNL     1      -7.133  -5.745   9.466  1.00  0.00    -0.237 OA
ATOM     85  O   UNL     1      -7.037  -3.296   9.669  1.00  0.00    -0.744 OA
ENDBRANCH  79  82
ENDBRANCH  51  75
BRANCH  63  86
ATOM     86  C   UNL     1     -14.177   1.315   2.794  1.00  0.00     0.023 A 
ATOM     87  C   UNL     1     -14.926   1.605   3.952  1.00  0.00     0.012 A 
ATOM     88  C   UNL     1     -14.855   0.892   1.633  1.00  0.00     0.148 A 
ATOM     89  C   UNL     1     -16.307   1.402   3.979  1.00  0.00     0.002 A 
ATOM     90  C   UNL     1     -16.239   0.766   1.642  1.00  0.00     0.091 A 
ATOM     91  F   UNL     1     -14.133   0.599   0.541  1.00  0.00    -0.205 F 
ATOM     92  C   UNL     1     -16.964   0.993   2.822  1.00  0.00     0.022 A 
BRANCH  90  93
ATOM     93  S   UNL     1     -17.186   0.373   0.167  1.00  0.00     0.127 S 
ATOM     94  O   UNL     1     -17.714  -0.951   0.493  1.00  0.00    -0.237 OA
ATOM     95  O   UNL     1     -18.184   1.442   0.153  1.00  0.00    -0.237 OA
ATOM     96  O   UNL     1     -16.242   0.410  -0.941  1.00  0.00    -0.744 OA
ENDBRANCH  90  93
ENDBRANCH  63  86
ENDBRANCH  37  38
ENDBRANCH  30  32
ENDBRANCH  29  30
ENDBRANCH  28  29
ENDBRANCH   1  28
TORSDOF 19
