REMARK SMILES COc1ccccc1-n1nnc(C(=O)OCCOC(=O)c2ccc(-c3c4nc(c(-c5cccc(S(=O)(=O)[O-])c5F)c5ccc([nH]5)c(-c5cccc(S(=O)(=O)[O-])c5F)c5nc(c(-c6cccc(S(=O)(=O)[O-])c6F)c6ccc3[nH]6)C=C5)C=C4)cc2)c1-c1ccc(Cl)cc1
REMARK SMILES IDX 17 1 16 2 15 3 13 4 14 5 12 6 9 7 10 8 84 9 11 10 8 11 3 12
REMARK SMILES IDX 4 13 5 14 7 15 6 16 2 17 1 18 85 19 86 20 91 21 87 22 90 23
REMARK SMILES IDX 88 24 89 25 18 26 19 27 20 28 21 29 22 30 83 31 23 32 82 33
REMARK SMILES IDX 24 34 25 35 26 36 76 37 27 38 81 39 75 40 77 41 28 42 80 43
REMARK SMILES IDX 74 44 73 45 29 47 61 48 41 49 60 50 42 51 45 52 59 53 78 54
REMARK SMILES IDX 43 55 44 56 58 58 79 59 46 60 30 61 31 62 39 63 32 64 34 65
REMARK SMILES IDX 40 66 33 67 35 68 36 69 37 70 38 71 62 72 63 73 71 74 64 75
REMARK SMILES IDX 66 76 72 77 65 78 67 79 68 80 69 81 70 82 47 83 48 84 56 85
REMARK SMILES IDX 49 86 51 87 57 88 50 89 52 90 53 91 54 92 55 93
REMARK H PARENT 77 46 45 57
REMARK Flexibility Score: inf
ROOT
ATOM      1  C   UNL     1       5.896   0.274  -4.460  1.00  0.00     0.275 C 
ENDROOT
BRANCH   1   2
ATOM      2  C   UNL     1       4.540  -0.377  -4.276  1.00  0.00     0.275 C 
BRANCH   2   3
ATOM      3  O   UNL     1       4.023  -0.040  -2.985  1.00  0.00    -0.457 OA
BRANCH   3   4
ATOM      4  C   UNL     1       4.295  -0.837  -1.905  1.00  0.00     0.361 C 
ATOM      5  O   UNL     1       4.768  -1.953  -1.979  1.00  0.00    -0.244 OA
BRANCH   4   6
ATOM      6  C   UNL     1       3.955  -0.157  -0.654  1.00  0.00     0.198 A 
ATOM      7  N   UNL     1       3.117   1.143   0.874  1.00  0.00    -0.208 N 
ATOM      8  N   UNL     1       3.967   0.291   1.491  1.00  0.00    -0.061 NA
ATOM      9  C   UNL     1       3.197   0.997  -0.499  1.00  0.00     0.109 A 
ATOM     10  N   UNL     1       4.409  -0.567   0.579  1.00  0.00    -0.122 NA
BRANCH   7  11
ATOM     11  C   UNL     1       2.200   1.916   1.612  1.00  0.00     0.109 A 
ATOM     12  C   UNL     1       0.850   1.987   1.240  1.00  0.00     0.144 A 
ATOM     13  C   UNL     1       0.030   2.949   1.832  1.00  0.00     0.049 A 
ATOM     14  C   UNL     1       0.533   3.784   2.830  1.00  0.00     0.004 A 
ATOM     15  C   UNL     1       2.690   2.701   2.665  1.00  0.00     0.032 A 
ATOM     16  C   UNL     1       1.853   3.647   3.260  1.00  0.00     0.003 A 
BRANCH  12  17
ATOM     17  O   UNL     1       0.243   1.214   0.285  1.00  0.00    -0.494 OA
ATOM     18  C   UNL     1       0.267  -0.189   0.559  1.00  0.00     0.278 C 
ENDBRANCH  12  17
ENDBRANCH   7  11
BRANCH   9  19
ATOM     19  C   UNL     1       2.572   1.879  -1.484  1.00  0.00     0.003 A 
ATOM     20  C   UNL     1       1.697   1.344  -2.443  1.00  0.00     0.012 A 
ATOM     21  C   UNL     1       2.881   3.244  -1.530  1.00  0.00     0.012 A 
ATOM     22  C   UNL     1       1.180   2.140  -3.460  1.00  0.00     0.021 A 
ATOM     23  C   UNL     1       2.340   4.051  -2.535  1.00  0.00     0.021 A 
ATOM     24  C   UNL     1       1.504   3.492  -3.502  1.00  0.00     0.041 A 
ATOM     25  Cl  UNL     1       0.873   4.473  -4.765  1.00  0.00    -0.084 Cl
ENDBRANCH   9  19
ENDBRANCH   4   6
ENDBRANCH   3   4
ENDBRANCH   2   3
ENDBRANCH   1   2
BRANCH   1  26
ATOM     26  O   UNL     1       6.839  -0.431  -3.666  1.00  0.00    -0.458 OA
BRANCH  26  27
ATOM     27  C   UNL     1       7.074   0.063  -2.432  1.00  0.00     0.338 C 
ATOM     28  O   UNL     1       6.464   0.952  -1.861  1.00  0.00    -0.246 OA
BRANCH  27  29
ATOM     29  C   UNL     1       8.333  -0.510  -1.961  1.00  0.00     0.060 A 
ATOM     30  C   UNL     1       8.799  -0.080  -0.718  1.00  0.00     0.016 A 
ATOM     31  C   UNL     1       9.157  -1.146  -2.901  1.00  0.00     0.016 A 
ATOM     32  C   UNL     1      10.158  -0.068  -0.518  1.00  0.00     0.010 A 
ATOM     33  C   UNL     1      10.508  -1.092  -2.720  1.00  0.00     0.010 A 
ATOM     34  C   UNL     1      10.986  -0.477  -1.569  1.00  0.00    -0.014 A 
BRANCH  34  35
ATOM     35  C   UNL     1      12.413  -0.396  -1.393  1.00  0.00     0.031 A 
ATOM     36  C   UNL     1      12.903  -1.468  -0.500  1.00  0.00     0.074 A 
ATOM     37  C   UNL     1      13.162   0.469  -2.101  1.00  0.00     0.049 A 
ATOM     38  N   UNL     1      13.383  -1.337   0.691  1.00  0.00    -0.248 NA
ATOM     39  C   UNL     1      12.607  -2.862  -0.878  1.00  0.00     0.031 C 
ATOM     40  C   UNL     1      12.751   1.319  -3.223  1.00  0.00     0.029 A 
ATOM     41  N   UNL     1      14.506   0.648  -2.064  1.00  0.00    -0.354 N 
ATOM     42  C   UNL     1      13.695  -2.632   1.092  1.00  0.00     0.074 A 
ATOM     43  C   UNL     1      12.963  -3.514   0.228  1.00  0.00     0.031 C 
ATOM     44  C   UNL     1      13.852   1.694  -3.916  1.00  0.00     0.029 A 
ATOM     45  C   UNL     1      15.033   1.214  -3.220  1.00  0.00     0.049 A 
ATOM     46  H   UNL     1      15.059   0.399  -1.288  1.00  0.00     0.167 HD
ATOM     47  C   UNL     1      14.780  -2.870   1.874  1.00  0.00     0.034 A 
ATOM     48  C   UNL     1      16.336   1.173  -3.601  1.00  0.00     0.034 A 
ATOM     49  C   UNL     1      15.218  -1.662   2.531  1.00  0.00     0.049 A 
ATOM     50  C   UNL     1      17.129   0.817  -2.396  1.00  0.00     0.074 A 
ATOM     51  C   UNL     1      14.618  -0.740   3.367  1.00  0.00     0.029 A 
ATOM     52  N   UNL     1      16.326  -1.038   2.009  1.00  0.00    -0.354 N 
ATOM     53  N   UNL     1      17.255   1.597  -1.360  1.00  0.00    -0.248 NA
ATOM     54  C   UNL     1      17.391  -0.595  -2.157  1.00  0.00     0.031 C 
ATOM     55  C   UNL     1      15.115   0.523   2.934  1.00  0.00     0.029 A 
ATOM     56  C   UNL     1      16.047   0.298   1.919  1.00  0.00     0.049 A 
ATOM     57  H   UNL     1      17.169  -1.475   1.748  1.00  0.00     0.167 HD
ATOM     58  C   UNL     1      17.146   0.739  -0.272  1.00  0.00     0.074 A 
ATOM     59  C   UNL     1      17.329  -0.604  -0.822  1.00  0.00     0.031 C 
ATOM     60  C   UNL     1      16.612   1.165   0.910  1.00  0.00     0.034 A 
BRANCH  47  61
ATOM     61  C   UNL     1      15.697  -4.062   1.710  1.00  0.00     0.023 A 
ATOM     62  C   UNL     1      16.734  -4.197   2.659  1.00  0.00     0.012 A 
ATOM     63  C   UNL     1      15.786  -4.872   0.551  1.00  0.00     0.148 A 
ATOM     64  C   UNL     1      17.834  -5.027   2.431  1.00  0.00     0.002 A 
ATOM     65  C   UNL     1      16.841  -5.755   0.365  1.00  0.00     0.091 A 
ATOM     66  F   UNL     1      14.929  -4.711  -0.458  1.00  0.00    -0.205 F 
ATOM     67  C   UNL     1      17.888  -5.810   1.285  1.00  0.00     0.022 A 
BRANCH  65  68
ATOM     68  S   UNL     1      16.936  -6.819  -1.082  1.00  0.00     0.127 S 
ATOM     69  O   UNL     1      18.026  -6.199  -1.828  1.00  0.00    -0.237 OA
ATOM     70  O   UNL     1      17.253  -8.113  -0.476  1.00  0.00    -0.237 OA
ATOM     71  O   UNL     1      15.620  -6.760  -1.705  1.00  0.00    -0.744 OA
ENDBRANCH  65  68
ENDBRANCH  47  61
BRANCH  48  72
ATOM     72  C   UNL     1      16.939   1.098  -4.957  1.00  0.00     0.023 A 
ATOM     73  C   UNL     1      18.315   1.367  -5.112  1.00  0.00     0.012 A 
ATOM     74  C   UNL     1      16.262   0.477  -6.030  1.00  0.00     0.148 A 
ATOM     75  C   UNL     1      19.004   0.987  -6.271  1.00  0.00     0.002 A 
ATOM     76  C   UNL     1      16.950   0.104  -7.183  1.00  0.00     0.091 A 
ATOM     77  F   UNL     1      14.969   0.162  -5.885  1.00  0.00    -0.205 F 
ATOM     78  C   UNL     1      18.324   0.345  -7.301  1.00  0.00     0.022 A 
BRANCH  76  79
ATOM     79  S   UNL     1      16.145  -0.761  -8.539  1.00  0.00     0.127 S 
ATOM     80  O   UNL     1      16.628  -0.018  -9.704  1.00  0.00    -0.237 OA
ATOM     81  O   UNL     1      16.689  -2.109  -8.403  1.00  0.00    -0.237 OA
ATOM     82  O   UNL     1      14.713  -0.629  -8.299  1.00  0.00    -0.744 OA
ENDBRANCH  76  79
ENDBRANCH  48  72
BRANCH  60  83
ATOM     83  C   UNL     1      16.377   2.642   1.097  1.00  0.00     0.023 A 
ATOM     84  C   UNL     1      15.464   3.379   0.312  1.00  0.00     0.012 A 
ATOM     85  C   UNL     1      16.960   3.255   2.216  1.00  0.00     0.148 A 
ATOM     86  C   UNL     1      15.157   4.705   0.631  1.00  0.00     0.002 A 
ATOM     87  C   UNL     1      16.616   4.555   2.559  1.00  0.00     0.091 A 
ATOM     88  F   UNL     1      17.825   2.539   2.951  1.00  0.00    -0.205 F 
ATOM     89  C   UNL     1      15.722   5.289   1.764  1.00  0.00     0.022 A 
BRANCH  87  90
ATOM     90  S   UNL     1      17.212   5.305   4.075  1.00  0.00     0.127 S 
ATOM     91  O   UNL     1      18.235   6.222   3.579  1.00  0.00    -0.237 OA
ATOM     92  O   UNL     1      16.009   5.954   4.599  1.00  0.00    -0.237 OA
ATOM     93  O   UNL     1      17.699   4.206   4.900  1.00  0.00    -0.744 OA
ENDBRANCH  87  90
ENDBRANCH  60  83
ENDBRANCH  34  35
ENDBRANCH  27  29
ENDBRANCH  26  27
ENDBRANCH   1  26
TORSDOF 17
