REMARK SMILES C[NH2+][C@]1(C(=O)OCCOC(=O)c2ccc(-c3c4nc(c(-c5cccc(S(=O)(=O)[O-])c5F)c5ccc([nH]5)c(-c5cccc(S(=O)(=O)[O-])c5F)c5nc(c(-c6cccc(S(=O)(=O)[O-])c6F)c6ccc3[nH]6)C=C5)C=C4)cc2)CCC[C@@H]1CC[N@H+]1CCC[C@H]([NH+](C)C)C1
REMARK SMILES IDX 7 1 6 2 4 3 5 4 3 5 75 6 78 7 76 8 77 9 2 10 1 11 79 14
REMARK SMILES IDX 80 15 81 16 82 17 89 18 83 20 85 21 84 22 86 23 87 24 88 25
REMARK SMILES IDX 8 27 9 28 10 29 11 30 12 31 13 32 74 33 14 34 73 35 15 36
REMARK SMILES IDX 16 37 17 38 67 39 18 40 72 41 66 42 68 43 19 44 71 45 65 46
REMARK SMILES IDX 64 47 20 49 52 50 32 51 51 52 33 53 36 54 50 55 69 56 34 57
REMARK SMILES IDX 35 58 49 60 70 61 37 62 21 63 22 64 30 65 23 66 25 67 31 68
REMARK SMILES IDX 24 69 26 70 27 71 28 72 29 73 53 74 54 75 62 76 55 77 57 78
REMARK SMILES IDX 63 79 56 80 58 81 59 82 60 83 61 84 38 85 39 86 47 87 40 88
REMARK SMILES IDX 42 89 48 90 41 91 43 92 44 93 45 94 46 95
REMARK H PARENT 2 12 2 13 81 19 86 26 68 48 36 59
REMARK Flexibility Score: inf
ROOT
ATOM      1  C   UNL     1       2.290   2.150  -1.748  1.00  0.00     0.274 C 
ENDROOT
BRANCH   1   2
ATOM      2  O   UNL     1       0.866   2.388  -1.714  1.00  0.00    -0.457 OA
BRANCH   2   3
ATOM      3  C   UNL     1       0.184   1.506  -0.939  1.00  0.00     0.368 C 
ATOM      4  O   UNL     1       0.744   0.693  -0.210  1.00  0.00    -0.245 OA
BRANCH   3   5
ATOM      5  C   UNL     1      -1.351   1.554  -1.075  1.00  0.00     0.197 C 
ATOM      6  C   UNL     1      -1.885   2.534  -2.130  1.00  0.00     0.081 C 
ATOM      7  C   UNL     1      -1.812   0.198  -1.713  1.00  0.00     0.068 C 
ATOM      8  C   UNL     1      -3.287   2.019  -2.443  1.00  0.00     0.008 C 
ATOM      9  C   UNL     1      -3.227   0.501  -2.241  1.00  0.00     0.011 C 
BRANCH   5  10
ATOM     10  N   UNL     1      -2.007   1.726   0.252  1.00  0.00    -0.334 N 
ATOM     11  C   UNL     1      -1.842   3.043   0.850  1.00  0.00     0.331 C 
ATOM     12  H   UNL     1      -3.006   1.553   0.137  1.00  0.00     0.347 HD
ATOM     13  H   UNL     1      -1.553   1.066   0.883  1.00  0.00     0.347 HD
ENDBRANCH   5  10
BRANCH   7  14
ATOM     14  C   UNL     1      -1.764  -1.036  -0.782  1.00  0.00     0.072 C 
BRANCH  14  15
ATOM     15  C   UNL     1      -1.549  -2.395  -1.480  1.00  0.00     0.262 C 
BRANCH  15  16
ATOM     16  N   UNL     1      -0.339  -2.562  -2.315  1.00  0.00    -0.330 N 
ATOM     17  C   UNL     1       0.889  -2.081  -1.675  1.00  0.00     0.262 C 
ATOM     18  C   UNL     1      -0.164  -3.989  -2.654  1.00  0.00     0.327 C 
ATOM     19  H   UNL     1      -0.488  -1.994  -3.150  1.00  0.00     0.348 HD
ATOM     20  C   UNL     1       2.124  -2.208  -2.564  1.00  0.00     0.068 C 
ATOM     21  C   UNL     1       1.010  -4.262  -3.639  1.00  0.00     0.239 C 
ATOM     22  C   UNL     1       2.308  -3.613  -3.116  1.00  0.00     0.077 C 
BRANCH  21  23
ATOM     23  N   UNL     1       0.760  -4.001  -5.083  1.00  0.00    -0.333 N 
ATOM     24  C   UNL     1      -0.253  -4.914  -5.617  1.00  0.00     0.332 C 
ATOM     25  C   UNL     1       0.389  -2.625  -5.407  1.00  0.00     0.332 C 
ATOM     26  H   UNL     1       1.663  -4.165  -5.529  1.00  0.00     0.348 HD
ENDBRANCH  21  23
ENDBRANCH  15  16
ENDBRANCH  14  15
ENDBRANCH   7  14
ENDBRANCH   3   5
ENDBRANCH   2   3
ENDBRANCH   1   2
BRANCH   1  27
ATOM     27  C   UNL     1       3.051   2.843  -0.612  1.00  0.00     0.275 C 
BRANCH  27  28
ATOM     28  O   UNL     1       2.654   2.340   0.677  1.00  0.00    -0.458 OA
BRANCH  28  29
ATOM     29  C   UNL     1       2.213   3.261   1.566  1.00  0.00     0.338 C 
ATOM     30  O   UNL     1       2.198   4.470   1.411  1.00  0.00    -0.246 OA
BRANCH  29  31
ATOM     31  C   UNL     1       1.710   2.616   2.800  1.00  0.00     0.060 A 
ATOM     32  C   UNL     1       0.728   1.629   2.739  1.00  0.00     0.016 A 
ATOM     33  C   UNL     1       2.095   3.119   4.041  1.00  0.00     0.016 A 
ATOM     34  C   UNL     1       0.064   1.204   3.884  1.00  0.00     0.010 A 
ATOM     35  C   UNL     1       1.491   2.629   5.205  1.00  0.00     0.010 A 
ATOM     36  C   UNL     1       0.441   1.696   5.134  1.00  0.00    -0.014 A 
BRANCH  36  37
ATOM     37  C   UNL     1      -0.310   1.292   6.349  1.00  0.00     0.031 A 
ATOM     38  C   UNL     1      -1.011   2.341   7.167  1.00  0.00     0.074 A 
ATOM     39  C   UNL     1      -0.379  -0.004   6.714  1.00  0.00     0.049 A 
ATOM     40  N   UNL     1      -1.530   2.244   8.362  1.00  0.00    -0.248 NA
ATOM     41  C   UNL     1      -1.131   3.680   6.566  1.00  0.00     0.031 C 
ATOM     42  C   UNL     1       0.207  -1.125   5.977  1.00  0.00     0.029 A 
ATOM     43  N   UNL     1      -0.968  -0.596   7.804  1.00  0.00    -0.354 N 
ATOM     44  C   UNL     1      -1.952   3.526   8.694  1.00  0.00     0.074 A 
ATOM     45  C   UNL     1      -1.658   4.378   7.562  1.00  0.00     0.031 C 
ATOM     46  C   UNL     1      -0.064  -2.268   6.625  1.00  0.00     0.029 A 
ATOM     47  C   UNL     1      -0.766  -1.955   7.865  1.00  0.00     0.049 A 
ATOM     48  H   UNL     1      -1.484  -0.096   8.477  1.00  0.00     0.167 HD
ATOM     49  C   UNL     1      -2.532   3.950   9.840  1.00  0.00     0.034 A 
ATOM     50  C   UNL     1      -1.068  -2.844   8.831  1.00  0.00     0.034 A 
ATOM     51  C   UNL     1      -2.903   3.078  10.921  1.00  0.00     0.049 A 
ATOM     52  C   UNL     1      -1.734  -2.352  10.085  1.00  0.00     0.074 A 
ATOM     53  C   UNL     1      -3.512   3.403  12.120  1.00  0.00     0.029 A 
ATOM     54  N   UNL     1      -2.722   1.704  10.923  1.00  0.00    -0.354 N 
ATOM     55  N   UNL     1      -2.124  -1.137  10.389  1.00  0.00    -0.248 NA
ATOM     56  C   UNL     1      -2.003  -3.349  11.130  1.00  0.00     0.031 C 
ATOM     57  C   UNL     1      -3.706   2.222  12.844  1.00  0.00     0.029 A 
ATOM     58  C   UNL     1      -3.217   1.163  12.096  1.00  0.00     0.049 A 
ATOM     59  H   UNL     1      -2.303   1.189  10.196  1.00  0.00     0.167 HD
ATOM     60  C   UNL     1      -2.689  -1.223  11.655  1.00  0.00     0.074 A 
ATOM     61  C   UNL     1      -2.623  -2.617  12.047  1.00  0.00     0.031 C 
ATOM     62  C   UNL     1      -3.188  -0.236  12.437  1.00  0.00     0.034 A 
BRANCH  49  63
ATOM     63  C   UNL     1      -2.817   5.420   9.976  1.00  0.00     0.023 A 
ATOM     64  C   UNL     1      -3.925   5.983   9.316  1.00  0.00     0.012 A 
ATOM     65  C   UNL     1      -2.010   6.234  10.795  1.00  0.00     0.148 A 
ATOM     66  C   UNL     1      -4.215   7.341   9.452  1.00  0.00     0.002 A 
ATOM     67  C   UNL     1      -2.325   7.579  10.954  1.00  0.00     0.091 A 
ATOM     68  F   UNL     1      -0.939   5.687  11.389  1.00  0.00    -0.205 F 
ATOM     69  C   UNL     1      -3.423   8.135  10.278  1.00  0.00     0.022 A 
BRANCH  67  70
ATOM     70  S   UNL     1      -1.397   8.657  12.051  1.00  0.00     0.127 S 
ATOM     71  O   UNL     1      -0.558   9.392  11.105  1.00  0.00    -0.237 OA
ATOM     72  O   UNL     1      -2.453   9.455  12.675  1.00  0.00    -0.237 OA
ATOM     73  O   UNL     1      -0.691   7.773  12.968  1.00  0.00    -0.744 OA
ENDBRANCH  67  70
ENDBRANCH  49  63
BRANCH  50  74
ATOM     74  C   UNL     1      -0.746  -4.287   8.636  1.00  0.00     0.023 A 
ATOM     75  C   UNL     1      -1.793  -5.210   8.459  1.00  0.00     0.012 A 
ATOM     76  C   UNL     1       0.586  -4.739   8.556  1.00  0.00     0.148 A 
ATOM     77  C   UNL     1      -1.520  -6.558   8.216  1.00  0.00     0.002 A 
ATOM     78  C   UNL     1       0.851  -6.069   8.250  1.00  0.00     0.091 A 
ATOM     79  F   UNL     1       1.574  -3.856   8.760  1.00  0.00    -0.205 F 
ATOM     80  C   UNL     1      -0.200  -6.984   8.094  1.00  0.00     0.022 A 
BRANCH  78  81
ATOM     81  S   UNL     1       2.522  -6.640   7.913  1.00  0.00     0.127 S 
ATOM     82  O   UNL     1       2.908  -7.220   9.196  1.00  0.00    -0.237 OA
ATOM     83  O   UNL     1       2.311  -7.609   6.837  1.00  0.00    -0.237 OA
ATOM     84  O   UNL     1       3.251  -5.448   7.499  1.00  0.00    -0.744 OA
ENDBRANCH  78  81
ENDBRANCH  50  74
BRANCH  62  85
ATOM     85  C   UNL     1      -3.709  -0.627  13.792  1.00  0.00     0.023 A 
ATOM     86  C   UNL     1      -2.796  -0.882  14.833  1.00  0.00     0.012 A 
ATOM     87  C   UNL     1      -5.091  -0.669  14.053  1.00  0.00     0.148 A 
ATOM     88  C   UNL     1      -3.252  -1.194  16.112  1.00  0.00     0.002 A 
ATOM     89  C   UNL     1      -5.538  -0.946  15.340  1.00  0.00     0.091 A 
ATOM     90  F   UNL     1      -5.944  -0.448  13.041  1.00  0.00    -0.205 F 
ATOM     91  C   UNL     1      -4.621  -1.215  16.369  1.00  0.00     0.022 A 
BRANCH  89  92
ATOM     92  S   UNL     1      -7.283  -0.912  15.765  1.00  0.00     0.127 S 
ATOM     93  O   UNL     1      -7.627  -2.332  15.730  1.00  0.00    -0.237 OA
ATOM     94  O   UNL     1      -7.273  -0.320  17.103  1.00  0.00    -0.237 OA
ATOM     95  O   UNL     1      -7.918  -0.082  14.749  1.00  0.00    -0.744 OA
ENDBRANCH  89  92
ENDBRANCH  62  85
ENDBRANCH  36  37
ENDBRANCH  29  31
ENDBRANCH  28  29
ENDBRANCH  27  28
ENDBRANCH   1  27
TORSDOF 19
