REMARK SMILES O=C(N[C@@H](C(=O)OCCOC(=O)c1ccc(-c2c3nc(c(-c4cccc(S(=O)(=O)[O-])c4F)c4ccc([nH]4)c(-c4cccc(S(=O)(=O)[O-])c4F)c4nc(c(-c5cccc(S(=O)(=O)[O-])c5F)c5ccc2[nH]5)C=C4)C=C3)cc1)c1ccccc1)c1ccc(Br)nc1
REMARK SMILES IDX 9 1 8 2 7 3 5 4 6 5 4 6 3 7 1 8 2 9 82 11 83 12 88 13 84 14
REMARK SMILES IDX 87 15 85 16 86 17 76 18 77 19 81 20 78 21 80 22 79 23 10 24
REMARK SMILES IDX 11 25 12 26 13 27 14 28 75 29 15 30 74 31 16 32 17 33 18 34
REMARK SMILES IDX 68 35 19 36 73 37 67 38 69 39 20 40 72 41 66 42 65 43 21 45
REMARK SMILES IDX 53 46 33 47 52 48 34 49 37 50 51 51 70 52 35 53 36 54 50 56
REMARK SMILES IDX 71 57 38 58 22 59 23 60 31 61 24 62 26 63 32 64 25 65 27 66
REMARK SMILES IDX 28 67 29 68 30 69 54 70 55 71 63 72 56 73 58 74 64 75 57 76
REMARK SMILES IDX 59 77 60 78 61 79 62 80 39 81 40 82 48 83 41 84 43 85 49 86
REMARK SMILES IDX 42 87 44 88 45 89 46 90 47 91
REMARK H PARENT 3 10 69 44 37 55
REMARK Flexibility Score: inf
ROOT
ATOM      1  C   UNL     1       4.854   4.578  -2.408  1.00  0.00     0.275 C 
ENDROOT
BRANCH   1   2
ATOM      2  C   UNL     1       5.044   3.086  -2.667  1.00  0.00     0.274 C 
BRANCH   2   3
ATOM      3  O   UNL     1       4.333   2.292  -1.695  1.00  0.00    -0.460 OA
BRANCH   3   4
ATOM      4  C   UNL     1       5.095   1.693  -0.734  1.00  0.00     0.333 C 
ATOM      5  O   UNL     1       6.313   1.809  -0.650  1.00  0.00    -0.249 OA
BRANCH   4   6
ATOM      6  C   UNL     1       4.266   0.775   0.187  1.00  0.00     0.223 C 
BRANCH   6   7
ATOM      7  N   UNL     1       2.832   0.723  -0.124  1.00  0.00    -0.335 N 
ATOM      8  O   UNL     1       0.905  -0.198  -0.865  1.00  0.00    -0.269 OA
ATOM      9  C   UNL     1       2.078  -0.340  -0.538  1.00  0.00     0.253 C 
ATOM     10  H   UNL     1       2.345   1.572  -0.020  1.00  0.00     0.165 HD
BRANCH   9  11
ATOM     11  C   UNL     1       2.705  -1.660  -0.686  1.00  0.00     0.058 A 
ATOM     12  C   UNL     1       2.723  -2.256  -1.945  1.00  0.00     0.018 A 
ATOM     13  C   UNL     1       3.311  -2.319   0.373  1.00  0.00     0.126 A 
ATOM     14  C   UNL     1       3.404  -3.459  -2.113  1.00  0.00     0.037 A 
ATOM     15  N   UNL     1       3.990  -3.484   0.232  1.00  0.00    -0.249 NA
ATOM     16  C   UNL     1       4.031  -4.023  -1.008  1.00  0.00     0.106 A 
ATOM     17  Br  UNL     1       5.020  -5.623  -1.243  1.00  0.00    -0.029 Br
ENDBRANCH   9  11
ENDBRANCH   6   7
BRANCH   6  18
ATOM     18  C   UNL     1       4.470   1.042   1.671  1.00  0.00    -0.014 A 
ATOM     19  C   UNL     1       5.451   0.329   2.383  1.00  0.00     0.006 A 
ATOM     20  C   UNL     1       3.694   1.984   2.370  1.00  0.00     0.006 A 
ATOM     21  C   UNL     1       5.632   0.534   3.753  1.00  0.00     0.000 A 
ATOM     22  C   UNL     1       3.875   2.183   3.742  1.00  0.00     0.000 A 
ATOM     23  C   UNL     1       4.841   1.457   4.433  1.00  0.00     0.000 A 
ENDBRANCH   6  18
ENDBRANCH   4   6
ENDBRANCH   3   4
ENDBRANCH   2   3
ENDBRANCH   1   2
BRANCH   1  24
ATOM     24  O   UNL     1       5.459   4.946  -1.157  1.00  0.00    -0.458 OA
BRANCH  24  25
ATOM     25  C   UNL     1       4.600   5.180  -0.144  1.00  0.00     0.338 C 
ATOM     26  O   UNL     1       3.371   5.154  -0.192  1.00  0.00    -0.246 OA
BRANCH  25  27
ATOM     27  C   UNL     1       5.334   5.402   1.106  1.00  0.00     0.060 A 
ATOM     28  C   UNL     1       6.013   4.332   1.677  1.00  0.00     0.016 A 
ATOM     29  C   UNL     1       5.190   6.597   1.809  1.00  0.00     0.016 A 
ATOM     30  C   UNL     1       6.426   4.405   3.004  1.00  0.00     0.010 A 
ATOM     31  C   UNL     1       5.707   6.700   3.107  1.00  0.00     0.010 A 
ATOM     32  C   UNL     1       6.271   5.583   3.749  1.00  0.00    -0.014 A 
BRANCH  32  33
ATOM     33  C   UNL     1       6.620   5.606   5.202  1.00  0.00     0.031 A 
ATOM     34  C   UNL     1       5.601   6.046   6.227  1.00  0.00     0.074 A 
ATOM     35  C   UNL     1       7.834   5.199   5.629  1.00  0.00     0.049 A 
ATOM     36  N   UNL     1       5.768   6.304   7.500  1.00  0.00    -0.248 NA
ATOM     37  C   UNL     1       4.218   6.242   5.761  1.00  0.00     0.031 C 
ATOM     38  C   UNL     1       8.918   4.718   4.771  1.00  0.00     0.029 A 
ATOM     39  N   UNL     1       8.359   5.116   6.897  1.00  0.00    -0.354 N 
ATOM     40  C   UNL     1       4.548   6.791   7.956  1.00  0.00     0.074 A 
ATOM     41  C   UNL     1       3.638   6.766   6.832  1.00  0.00     0.031 C 
ATOM     42  C   UNL     1       9.951   4.336   5.535  1.00  0.00     0.029 A 
ATOM     43  C   UNL     1       9.649   4.637   6.930  1.00  0.00     0.049 A 
ATOM     44  H   UNL     1       7.860   5.374   7.706  1.00  0.00     0.167 HD
ATOM     45  C   UNL     1       4.212   7.214   9.199  1.00  0.00     0.034 A 
ATOM     46  C   UNL     1      10.513   4.489   7.954  1.00  0.00     0.034 A 
ATOM     47  C   UNL     1       5.074   7.127  10.347  1.00  0.00     0.049 A 
ATOM     48  C   UNL     1      10.095   4.905   9.335  1.00  0.00     0.074 A 
ATOM     49  C   UNL     1       4.808   7.503  11.653  1.00  0.00     0.029 A 
ATOM     50  N   UNL     1       6.353   6.595  10.339  1.00  0.00    -0.354 N 
ATOM     51  N   UNL     1       8.941   5.374   9.740  1.00  0.00    -0.248 NA
ATOM     52  C   UNL     1      11.100   4.774  10.400  1.00  0.00     0.031 C 
ATOM     53  C   UNL     1       5.923   7.187  12.437  1.00  0.00     0.029 A 
ATOM     54  C   UNL     1       6.883   6.616  11.619  1.00  0.00     0.049 A 
ATOM     55  H   UNL     1       6.817   6.253   9.541  1.00  0.00     0.167 HD
ATOM     56  C   UNL     1       9.079   5.595  11.105  1.00  0.00     0.074 A 
ATOM     57  C   UNL     1      10.415   5.167  11.466  1.00  0.00     0.031 C 
ATOM     58  C   UNL     1       8.193   6.138  11.974  1.00  0.00     0.034 A 
BRANCH  45  59
ATOM     59  C   UNL     1       2.834   7.788   9.400  1.00  0.00     0.023 A 
ATOM     60  C   UNL     1       1.723   6.928   9.493  1.00  0.00     0.012 A 
ATOM     61  C   UNL     1       2.652   9.175   9.573  1.00  0.00     0.148 A 
ATOM     62  C   UNL     1       0.449   7.441   9.735  1.00  0.00     0.002 A 
ATOM     63  C   UNL     1       1.385   9.675   9.852  1.00  0.00     0.091 A 
ATOM     64  F   UNL     1       3.717   9.981   9.453  1.00  0.00    -0.205 F 
ATOM     65  C   UNL     1       0.282   8.811   9.927  1.00  0.00     0.022 A 
BRANCH  63  66
ATOM     66  S   UNL     1       1.099  11.416  10.192  1.00  0.00     0.127 S 
ATOM     67  O   UNL     1       0.569  11.885   8.913  1.00  0.00    -0.237 OA
ATOM     68  O   UNL     1       0.118  11.369  11.277  1.00  0.00    -0.237 OA
ATOM     69  O   UNL     1       2.394  11.960  10.578  1.00  0.00    -0.744 OA
ENDBRANCH  63  66
ENDBRANCH  45  59
BRANCH  46  70
ATOM     70  C   UNL     1      11.859   3.900   7.700  1.00  0.00     0.023 A 
ATOM     71  C   UNL     1      12.159   2.620   8.204  1.00  0.00     0.012 A 
ATOM     72  C   UNL     1      12.814   4.564   6.906  1.00  0.00     0.148 A 
ATOM     73  C   UNL     1      13.387   2.017   7.927  1.00  0.00     0.002 A 
ATOM     74  C   UNL     1      14.004   3.928   6.575  1.00  0.00     0.091 A 
ATOM     75  F   UNL     1      12.531   5.798   6.464  1.00  0.00    -0.205 F 
ATOM     76  C   UNL     1      14.301   2.661   7.096  1.00  0.00     0.022 A 
BRANCH  74  77
ATOM     77  S   UNL     1      15.131   4.631   5.364  1.00  0.00     0.127 S 
ATOM     78  O   UNL     1      16.101   5.315   6.214  1.00  0.00    -0.237 OA
ATOM     79  O   UNL     1      15.640   3.442   4.680  1.00  0.00    -0.237 OA
ATOM     80  O   UNL     1      14.295   5.481   4.525  1.00  0.00    -0.744 OA
ENDBRANCH  74  77
ENDBRANCH  46  70
BRANCH  58  81
ATOM     81  C   UNL     1       8.636   6.301  13.402  1.00  0.00     0.023 A 
ATOM     82  C   UNL     1       9.514   7.352  13.733  1.00  0.00     0.012 A 
ATOM     83  C   UNL     1       8.145   5.461  14.419  1.00  0.00     0.148 A 
ATOM     84  C   UNL     1       9.918   7.549  15.053  1.00  0.00     0.002 A 
ATOM     85  C   UNL     1       8.525   5.685  15.738  1.00  0.00     0.091 A 
ATOM     86  F   UNL     1       7.330   4.451  14.081  1.00  0.00    -0.205 F 
ATOM     87  C   UNL     1       9.416   6.723  16.056  1.00  0.00     0.022 A 
BRANCH  85  88
ATOM     88  S   UNL     1       7.863   4.708  17.093  1.00  0.00     0.127 S 
ATOM     89  O   UNL     1       8.927   3.729  17.305  1.00  0.00    -0.237 OA
ATOM     90  O   UNL     1       7.725   5.698  18.162  1.00  0.00    -0.237 OA
ATOM     91  O   UNL     1       6.598   4.174  16.606  1.00  0.00    -0.744 OA
ENDBRANCH  85  88
ENDBRANCH  58  81
ENDBRANCH  32  33
ENDBRANCH  25  27
ENDBRANCH  24  25
ENDBRANCH   1  24
TORSDOF 17
