REMARK SMILES COc1cc(/C=C2\SC(=S)N([C@H](C)C(=O)OCCOC(=O)c3ccc(-c4c5nc(c(-c6cccc(S(=O)(=O)[O-])c6F)c6ccc([nH]6)c(-c6cccc(S(=O)(=O)[O-])c6F)c6nc(c(-c7cccc(S(=O)(=O)[O-])c7F)c7ccc4[nH]7)C=C6)C=C5)cc3)C2=O)ccc1OCc1ccc(Cl)cc1Cl
REMARK SMILES IDX 17 1 16 2 14 3 15 4 12 5 13 6 11 7 6 8 7 9 8 10 85 11 9 12
REMARK SMILES IDX 86 13 10 14 5 15 3 16 4 17 89 18 88 19 87 20 2 21 1 22 90 23
REMARK SMILES IDX 91 24 92 25 93 26 98 27 94 28 97 29 99 30 95 31 96 32 18 33
REMARK SMILES IDX 19 34 20 35 21 36 22 37 23 38 84 39 24 40 83 41 25 42 26 43
REMARK SMILES IDX 27 44 77 45 28 46 82 47 76 48 78 49 29 50 81 51 75 52 74 53
REMARK SMILES IDX 30 55 62 56 42 57 61 58 43 59 46 60 60 61 79 62 44 63 45 64
REMARK SMILES IDX 59 66 80 67 47 68 31 69 32 70 40 71 33 72 35 73 41 74 34 75
REMARK SMILES IDX 36 76 37 77 38 78 39 79 63 80 64 81 72 82 65 83 67 84 73 85
REMARK SMILES IDX 66 86 68 87 69 88 70 89 71 90 48 91 49 92 57 93 50 94 52 95
REMARK SMILES IDX 58 96 51 97 53 98 54 99 55 100 56 101
REMARK H PARENT 78 54 46 65
REMARK Flexibility Score: inf
ROOT
ATOM      1  C   UNL     1      -2.074 -11.449   1.305  1.00  0.00     0.274 C 
ENDROOT
BRANCH   1   2
ATOM      2  O   UNL     1      -1.875 -10.224   2.031  1.00  0.00    -0.461 OA
BRANCH   2   3
ATOM      3  C   UNL     1      -1.952 -10.299   3.387  1.00  0.00     0.329 C 
ATOM      4  O   UNL     1      -2.143 -11.328   4.026  1.00  0.00    -0.250 OA
BRANCH   3   5
ATOM      5  C   UNL     1      -1.840  -8.918   4.052  1.00  0.00     0.199 C 
ATOM      6  C   UNL     1      -1.486  -7.767   3.116  1.00  0.00     0.044 C 
BRANCH   5   7
ATOM      7  N   UNL     1      -3.040  -8.653   4.862  1.00  0.00    -0.279 N 
ATOM      8  C   UNL     1      -6.625  -8.924   5.052  1.00  0.00     0.029 C 
ATOM      9  C   UNL     1      -5.347  -8.623   5.305  1.00  0.00     0.081 C 
ATOM     10  S   UNL     1      -4.697  -7.721   6.608  1.00  0.00    -0.054 SA
ATOM     11  C   UNL     1      -4.281  -8.971   4.341  1.00  0.00     0.266 C 
ATOM     12  C   UNL     1      -3.043  -7.947   6.049  1.00  0.00     0.149 C 
ATOM     13  O   UNL     1      -4.513  -9.396   3.217  1.00  0.00    -0.268 OA
ATOM     14  S   UNL     1      -1.745  -7.313   6.883  1.00  0.00    -0.052 S 
BRANCH   8  15
ATOM     15  C   UNL     1      -7.743  -8.283   5.736  1.00  0.00    -0.020 A 
ATOM     16  C   UNL     1      -9.486  -8.157   7.426  1.00  0.00     0.161 A 
ATOM     17  C   UNL     1      -8.400  -8.834   6.841  1.00  0.00     0.058 A 
ATOM     18  C   UNL     1      -9.889  -6.923   6.891  1.00  0.00     0.161 A 
ATOM     19  C   UNL     1      -9.173  -6.352   5.834  1.00  0.00     0.051 A 
ATOM     20  C   UNL     1      -8.124  -7.035   5.243  1.00  0.00     0.012 A 
BRANCH  16  21
ATOM     21  O   UNL     1     -10.132  -8.622   8.541  1.00  0.00    -0.493 OA
ATOM     22  C   UNL     1     -10.195 -10.040   8.680  1.00  0.00     0.278 C 
ENDBRANCH  16  21
BRANCH  18  23
ATOM     23  O   UNL     1     -10.977  -6.162   7.217  1.00  0.00    -0.485 OA
BRANCH  23  24
ATOM     24  C   UNL     1     -12.128  -6.747   7.817  1.00  0.00     0.267 C 
BRANCH  24  25
ATOM     25  C   UNL     1     -12.767  -7.984   7.203  1.00  0.00     0.008 A 
ATOM     26  C   UNL     1     -13.435  -8.847   8.097  1.00  0.00     0.010 A 
ATOM     27  C   UNL     1     -12.767  -8.324   5.841  1.00  0.00     0.049 A 
ATOM     28  C   UNL     1     -13.990 -10.051   7.667  1.00  0.00     0.021 A 
ATOM     29  C   UNL     1     -13.280  -9.557   5.417  1.00  0.00     0.041 A 
ATOM     30  Cl  UNL     1     -12.230  -7.258   4.594  1.00  0.00    -0.084 Cl
ATOM     31  C   UNL     1     -13.879 -10.416   6.332  1.00  0.00     0.042 A 
ATOM     32  Cl  UNL     1     -14.514 -11.925   5.804  1.00  0.00    -0.084 Cl
ENDBRANCH  24  25
ENDBRANCH  23  24
ENDBRANCH  18  23
ENDBRANCH   8  15
ENDBRANCH   5   7
ENDBRANCH   3   5
ENDBRANCH   2   3
ENDBRANCH   1   2
BRANCH   1  33
ATOM     33  C   UNL     1      -0.744 -12.035   0.826  1.00  0.00     0.275 C 
BRANCH  33  34
ATOM     34  O   UNL     1       0.054 -12.516   1.923  1.00  0.00    -0.458 OA
BRANCH  34  35
ATOM     35  C   UNL     1       0.835 -11.583   2.509  1.00  0.00     0.338 C 
ATOM     36  O   UNL     1       0.974 -10.414   2.160  1.00  0.00    -0.246 OA
BRANCH  35  37
ATOM     37  C   UNL     1       1.382 -12.093   3.772  1.00  0.00     0.060 A 
ATOM     38  C   UNL     1       1.135 -11.341   4.924  1.00  0.00     0.016 A 
ATOM     39  C   UNL     1       2.192 -13.228   3.827  1.00  0.00     0.016 A 
ATOM     40  C   UNL     1       1.709 -11.698   6.134  1.00  0.00     0.010 A 
ATOM     41  C   UNL     1       2.780 -13.584   5.046  1.00  0.00     0.010 A 
ATOM     42  C   UNL     1       2.561 -12.804   6.196  1.00  0.00    -0.014 A 
BRANCH  42  43
ATOM     43  C   UNL     1       3.300 -13.048   7.452  1.00  0.00     0.031 A 
ATOM     44  C   UNL     1       4.742 -12.638   7.545  1.00  0.00     0.074 A 
ATOM     45  C   UNL     1       2.663 -13.566   8.517  1.00  0.00     0.049 A 
ATOM     46  N   UNL     1       5.565 -12.742   8.554  1.00  0.00    -0.248 NA
ATOM     47  C   UNL     1       5.334 -12.027   6.343  1.00  0.00     0.031 C 
ATOM     48  C   UNL     1       1.257 -13.970   8.543  1.00  0.00     0.029 A 
ATOM     49  N   UNL     1       3.117 -13.841   9.780  1.00  0.00    -0.354 N 
ATOM     50  C   UNL     1       6.781 -12.245   8.101  1.00  0.00     0.074 A 
ATOM     51  C   UNL     1       6.590 -11.843   6.725  1.00  0.00     0.031 C 
ATOM     52  C   UNL     1       0.965 -14.451   9.763  1.00  0.00     0.029 A 
ATOM     53  C   UNL     1       2.166 -14.412  10.592  1.00  0.00     0.049 A 
ATOM     54  H   UNL     1       4.035 -13.648  10.078  1.00  0.00     0.167 HD
ATOM     55  C   UNL     1       7.947 -12.121   8.778  1.00  0.00     0.034 A 
ATOM     56  C   UNL     1       2.262 -14.861  11.858  1.00  0.00     0.034 A 
ATOM     57  C   UNL     1       8.119 -12.487  10.157  1.00  0.00     0.049 A 
ATOM     58  C   UNL     1       3.570 -14.706  12.587  1.00  0.00     0.074 A 
ATOM     59  C   UNL     1       9.254 -12.384  10.941  1.00  0.00     0.029 A 
ATOM     60  N   UNL     1       7.125 -13.026  10.960  1.00  0.00    -0.354 N 
ATOM     61  N   UNL     1       4.688 -14.157  12.172  1.00  0.00    -0.248 NA
ATOM     62  C   UNL     1       3.622 -15.201  13.970  1.00  0.00     0.031 C 
ATOM     63  C   UNL     1       8.947 -12.869  12.218  1.00  0.00     0.029 A 
ATOM     64  C   UNL     1       7.618 -13.261  12.232  1.00  0.00     0.049 A 
ATOM     65  H   UNL     1       6.203 -13.213  10.669  1.00  0.00     0.167 HD
ATOM     66  C   UNL     1       5.565 -14.216  13.249  1.00  0.00     0.074 A 
ATOM     67  C   UNL     1       4.839 -14.828  14.344  1.00  0.00     0.031 C 
ATOM     68  C   UNL     1       6.861 -13.821  13.322  1.00  0.00     0.034 A 
BRANCH  55  69
ATOM     69  C   UNL     1       9.120 -11.541   8.035  1.00  0.00     0.023 A 
ATOM     70  C   UNL     1       9.164 -10.156   7.776  1.00  0.00     0.012 A 
ATOM     71  C   UNL     1      10.190 -12.358   7.624  1.00  0.00     0.148 A 
ATOM     72  C   UNL     1      10.244  -9.597   7.094  1.00  0.00     0.002 A 
ATOM     73  C   UNL     1      11.281 -11.787   6.977  1.00  0.00     0.091 A 
ATOM     74  F   UNL     1      10.115 -13.676   7.853  1.00  0.00    -0.205 F 
ATOM     75  C   UNL     1      11.306 -10.410   6.703  1.00  0.00     0.022 A 
BRANCH  73  76
ATOM     76  S   UNL     1      12.723 -12.743   6.494  1.00  0.00     0.127 S 
ATOM     77  O   UNL     1      12.544 -12.837   5.046  1.00  0.00    -0.237 OA
ATOM     78  O   UNL     1      13.825 -11.878   6.917  1.00  0.00    -0.237 OA
ATOM     79  O   UNL     1      12.629 -14.001   7.222  1.00  0.00    -0.744 OA
ENDBRANCH  73  76
ENDBRANCH  55  69
BRANCH  56  80
ATOM     80  C   UNL     1       1.072 -15.454  12.529  1.00  0.00     0.023 A 
ATOM     81  C   UNL     1       0.453 -14.761  13.586  1.00  0.00     0.012 A 
ATOM     82  C   UNL     1       0.534 -16.686  12.107  1.00  0.00     0.148 A 
ATOM     83  C   UNL     1      -0.664 -15.296  14.230  1.00  0.00     0.002 A 
ATOM     84  C   UNL     1      -0.611 -17.187  12.715  1.00  0.00     0.091 A 
ATOM     85  F   UNL     1       1.150 -17.343  11.114  1.00  0.00    -0.205 F 
ATOM     86  C   UNL     1      -1.203 -16.502  13.787  1.00  0.00     0.022 A 
BRANCH  84  87
ATOM     87  S   UNL     1      -1.443 -18.663  12.118  1.00  0.00     0.127 S 
ATOM     88  O   UNL     1      -1.060 -19.651  13.123  1.00  0.00    -0.237 OA
ATOM     89  O   UNL     1      -2.849 -18.259  12.156  1.00  0.00    -0.237 OA
ATOM     90  O   UNL     1      -0.923 -18.885  10.775  1.00  0.00    -0.744 OA
ENDBRANCH  84  87
ENDBRANCH  56  80
BRANCH  68  91
ATOM     91  C   UNL     1       7.570 -14.020  14.635  1.00  0.00     0.023 A 
ATOM     92  C   UNL     1       7.954 -15.317  15.029  1.00  0.00     0.012 A 
ATOM     93  C   UNL     1       7.910 -12.921  15.448  1.00  0.00     0.148 A 
ATOM     94  C   UNL     1       8.632 -15.522  16.230  1.00  0.00     0.002 A 
ATOM     95  C   UNL     1       8.626 -13.129  16.622  1.00  0.00     0.091 A 
ATOM     96  F   UNL     1       7.518 -11.695  15.070  1.00  0.00    -0.205 F 
ATOM     97  C   UNL     1       8.978 -14.428  17.020  1.00  0.00     0.022 A 
BRANCH  95  98
ATOM     98  S   UNL     1       9.186 -11.760  17.643  1.00  0.00     0.127 S 
ATOM     99  O   UNL     1       8.155 -11.716  18.678  1.00  0.00    -0.237 OA
ATOM    100  O   UNL     1      10.495 -12.224  18.106  1.00  0.00    -0.237 OA
ATOM    101  O   UNL     1       9.242 -10.608  16.753  1.00  0.00    -0.744 OA
ENDBRANCH  95  98
ENDBRANCH  68  91
ENDBRANCH  42  43
ENDBRANCH  35  37
ENDBRANCH  34  35
ENDBRANCH  33  34
ENDBRANCH   1  33
TORSDOF 20
