REMARK SMILES C[C@@H]1c2ccccc2-c2ccc(C(=O)OCCOC(=O)c3ccc(-c4c5nc(c(-c6cccc(S(=O)(=O)[O-])c6F)c6ccc([nH]6)c(-c6cccc(S(=O)(=O)[O-])c6F)c6nc(c(-c7cccc(S(=O)(=O)[O-])c7F)c7ccc4[nH]7)C=C6)C=C5)cc3)cc21
REMARK SMILES IDX 18 1 17 2 16 3 15 4 13 5 14 6 12 7 1 8 2 9 3 10 85 11 4 12
REMARK SMILES IDX 8 13 9 14 84 15 5 16 7 17 10 18 6 19 11 20 19 21 20 22 21 23
REMARK SMILES IDX 22 24 83 25 23 26 82 27 24 28 25 29 26 30 76 31 27 32 81 33
REMARK SMILES IDX 75 34 77 35 28 36 80 37 74 38 73 39 29 41 61 42 41 43 60 44
REMARK SMILES IDX 42 45 45 46 59 47 78 48 43 49 44 50 58 52 79 53 46 54 30 55
REMARK SMILES IDX 31 56 39 57 32 58 34 59 40 60 33 61 35 62 36 63 37 64 38 65
REMARK SMILES IDX 62 66 63 67 71 68 64 69 66 70 72 71 65 72 67 73 68 74 69 75
REMARK SMILES IDX 70 76 47 77 48 78 56 79 49 80 51 81 57 82 50 83 52 84 53 85
REMARK SMILES IDX 54 86 55 87
REMARK H PARENT 77 40 45 51
REMARK Flexibility Score: inf
ROOT
ATOM      1  O   UNL     1      -7.282   0.469   1.037  1.00  0.00    -0.458 OA
ENDROOT
BRANCH   1   2
ATOM      2  C   UNL     1      -7.317  -0.947   1.292  1.00  0.00     0.275 C 
BRANCH   2   3
ATOM      3  C   UNL     1      -6.527  -1.715   0.230  1.00  0.00     0.275 C 
BRANCH   3   4
ATOM      4  O   UNL     1      -5.109  -1.468   0.335  1.00  0.00    -0.458 OA
BRANCH   4   5
ATOM      5  C   UNL     1      -4.602  -0.599  -0.577  1.00  0.00     0.338 C 
ATOM      6  O   UNL     1      -5.218  -0.054  -1.474  1.00  0.00    -0.246 OA
BRANCH   5   7
ATOM      7  C   UNL     1      -3.171  -0.315  -0.311  1.00  0.00     0.060 A 
ATOM      8  C   UNL     1       0.205  -2.612   1.709  1.00  0.00     0.018 C 
ATOM      9  C   UNL     1       0.275  -1.892   0.370  1.00  0.00     0.047 C 
ATOM     10  C   UNL     1       1.436  -0.907   0.283  1.00  0.00    -0.033 A 
ATOM     11  C   UNL     1      -0.927  -0.984   0.142  1.00  0.00    -0.032 A 
ATOM     12  C   UNL     1       2.798  -1.158   0.334  1.00  0.00     0.005 A 
ATOM     13  C   UNL     1       0.951   0.398   0.067  1.00  0.00    -0.014 A 
ATOM     14  C   UNL     1      -0.487   0.349  -0.029  1.00  0.00    -0.014 A 
ATOM     15  C   UNL     1      -2.270  -1.329   0.027  1.00  0.00     0.020 A 
ATOM     16  C   UNL     1       3.675  -0.080   0.178  1.00  0.00     0.000 A 
ATOM     17  C   UNL     1       1.817   1.470  -0.075  1.00  0.00     0.009 A 
ATOM     18  C   UNL     1      -1.378   1.357  -0.326  1.00  0.00     0.010 A 
ATOM     19  C   UNL     1       3.190   1.224  -0.020  1.00  0.00     0.001 A 
ATOM     20  C   UNL     1      -2.712   1.006  -0.506  1.00  0.00     0.016 A 
ENDBRANCH   5   7
ENDBRANCH   4   5
ENDBRANCH   3   4
ENDBRANCH   2   3
ENDBRANCH   1   2
BRANCH   1  21
ATOM     21  C   UNL     1      -6.441   1.167   1.832  1.00  0.00     0.338 C 
ATOM     22  O   UNL     1      -5.749   0.732   2.739  1.00  0.00    -0.246 OA
BRANCH  21  23
ATOM     23  C   UNL     1      -6.378   2.573   1.412  1.00  0.00     0.060 A 
ATOM     24  C   UNL     1      -5.593   2.882   0.311  1.00  0.00     0.016 A 
ATOM     25  C   UNL     1      -6.884   3.590   2.213  1.00  0.00     0.016 A 
ATOM     26  C   UNL     1      -5.152   4.186   0.109  1.00  0.00     0.010 A 
ATOM     27  C   UNL     1      -6.572   4.921   1.908  1.00  0.00     0.010 A 
ATOM     28  C   UNL     1      -5.651   5.236   0.890  1.00  0.00    -0.014 A 
BRANCH  28  29
ATOM     29  C   UNL     1      -5.204   6.644   0.654  1.00  0.00     0.031 A 
ATOM     30  C   UNL     1      -4.696   7.488   1.801  1.00  0.00     0.074 A 
ATOM     31  C   UNL     1      -5.271   7.186  -0.581  1.00  0.00     0.049 A 
ATOM     32  N   UNL     1      -4.473   8.777   1.845  1.00  0.00    -0.248 NA
ATOM     33  C   UNL     1      -4.424   6.795   3.071  1.00  0.00     0.031 C 
ATOM     34  C   UNL     1      -5.718   6.493  -1.792  1.00  0.00     0.029 A 
ATOM     35  N   UNL     1      -4.983   8.456  -1.023  1.00  0.00    -0.354 N 
ATOM     36  C   UNL     1      -4.127   9.062   3.163  1.00  0.00     0.074 A 
ATOM     37  C   UNL     1      -4.158   7.808   3.884  1.00  0.00     0.031 C 
ATOM     38  C   UNL     1      -5.654   7.330  -2.836  1.00  0.00     0.029 A 
ATOM     39  C   UNL     1      -5.273   8.650  -2.355  1.00  0.00     0.049 A 
ATOM     40  H   UNL     1      -4.607   9.158  -0.443  1.00  0.00     0.167 HD
ATOM     41  C   UNL     1      -3.810  10.257   3.720  1.00  0.00     0.034 A 
ATOM     42  C   UNL     1      -5.300   9.770  -3.103  1.00  0.00     0.034 A 
ATOM     43  C   UNL     1      -3.711  11.489   2.981  1.00  0.00     0.049 A 
ATOM     44  C   UNL     1      -4.955  11.082  -2.461  1.00  0.00     0.074 A 
ATOM     45  C   UNL     1      -3.343  12.741   3.442  1.00  0.00     0.029 A 
ATOM     46  N   UNL     1      -3.977  11.626   1.627  1.00  0.00    -0.354 N 
ATOM     47  N   UNL     1      -4.594  11.326  -1.225  1.00  0.00    -0.248 NA
ATOM     48  C   UNL     1      -5.011  12.273  -3.320  1.00  0.00     0.031 C 
ATOM     49  C   UNL     1      -3.420  13.642   2.374  1.00  0.00     0.029 A 
ATOM     50  C   UNL     1      -3.794  12.943   1.238  1.00  0.00     0.049 A 
ATOM     51  H   UNL     1      -4.256  10.895   1.030  1.00  0.00     0.167 HD
ATOM     52  C   UNL     1      -4.350  12.692  -1.164  1.00  0.00     0.074 A 
ATOM     53  C   UNL     1      -4.581  13.218  -2.494  1.00  0.00     0.031 C 
ATOM     54  C   UNL     1      -3.982  13.445  -0.099  1.00  0.00     0.034 A 
BRANCH  41  55
ATOM     55  C   UNL     1      -3.543  10.298   5.206  1.00  0.00     0.023 A 
ATOM     56  C   UNL     1      -2.369   9.725   5.734  1.00  0.00     0.012 A 
ATOM     57  C   UNL     1      -4.437  10.959   6.074  1.00  0.00     0.148 A 
ATOM     58  C   UNL     1      -2.110   9.771   7.105  1.00  0.00     0.002 A 
ATOM     59  C   UNL     1      -4.147  11.045   7.431  1.00  0.00     0.091 A 
ATOM     60  F   UNL     1      -5.556  11.487   5.559  1.00  0.00    -0.205 F 
ATOM     61  C   UNL     1      -2.992  10.439   7.950  1.00  0.00     0.022 A 
BRANCH  59  62
ATOM     62  S   UNL     1      -5.176  11.957   8.588  1.00  0.00     0.127 S 
ATOM     63  O   UNL     1      -5.756  10.875   9.383  1.00  0.00    -0.237 OA
ATOM     64  O   UNL     1      -4.191  12.773   9.298  1.00  0.00    -0.237 OA
ATOM     65  O   UNL     1      -6.122  12.712   7.779  1.00  0.00    -0.744 OA
ENDBRANCH  59  62
ENDBRANCH  41  55
BRANCH  42  66
ATOM     66  C   UNL     1      -5.684   9.694  -4.542  1.00  0.00     0.023 A 
ATOM     67  C   UNL     1      -4.718   9.951  -5.533  1.00  0.00     0.012 A 
ATOM     68  C   UNL     1      -6.989   9.329  -4.933  1.00  0.00     0.148 A 
ATOM     69  C   UNL     1      -5.051   9.871  -6.886  1.00  0.00     0.002 A 
ATOM     70  C   UNL     1      -7.295   9.189  -6.280  1.00  0.00     0.091 A 
ATOM     71  F   UNL     1      -7.899   9.102  -3.974  1.00  0.00    -0.205 F 
ATOM     72  C   UNL     1      -6.333   9.478  -7.259  1.00  0.00     0.022 A 
BRANCH  70  73
ATOM     73  S   UNL     1      -8.875   8.550  -6.848  1.00  0.00     0.127 S 
ATOM     74  O   UNL     1      -9.467   9.731  -7.472  1.00  0.00    -0.237 OA
ATOM     75  O   UNL     1      -8.458   7.503  -7.782  1.00  0.00    -0.237 OA
ATOM     76  O   UNL     1      -9.554   8.058  -5.658  1.00  0.00    -0.744 OA
ENDBRANCH  70  73
ENDBRANCH  42  66
BRANCH  54  77
ATOM     77  C   UNL     1      -3.754  14.915  -0.335  1.00  0.00     0.023 A 
ATOM     78  C   UNL     1      -4.848  15.770  -0.574  1.00  0.00     0.012 A 
ATOM     79  C   UNL     1      -2.455  15.455  -0.262  1.00  0.00     0.148 A 
ATOM     80  C   UNL     1      -4.647  17.136  -0.773  1.00  0.00     0.002 A 
ATOM     81  C   UNL     1      -2.269  16.823  -0.408  1.00  0.00     0.091 A 
ATOM     82  F   UNL     1      -1.426  14.620  -0.053  1.00  0.00    -0.205 F 
ATOM     83  C   UNL     1      -3.361  17.663  -0.678  1.00  0.00     0.022 A 
BRANCH  81  84
ATOM     84  S   UNL     1      -0.665  17.604  -0.204  1.00  0.00     0.127 S 
ATOM     85  O   UNL     1      -0.353  18.008  -1.575  1.00  0.00    -0.237 OA
ATOM     86  O   UNL     1      -0.973  18.711   0.702  1.00  0.00    -0.237 OA
ATOM     87  O   UNL     1       0.211  16.586   0.360  1.00  0.00    -0.744 OA
ENDBRANCH  81  84
ENDBRANCH  54  77
ENDBRANCH  28  29
ENDBRANCH  21  23
ENDBRANCH   1  21
TORSDOF 14
