REMARK SMILES CS(=O)(=O)Nc1ccc(-c2cc(Cl)cc3c2O[C@H](C(F)(F)F)C(C(=O)OCCOC(=O)c2ccc(-c4c5nc(c(-c6cccc(S(=O)(=O)[O-])c6F)c6ccc([nH]6)c(-c6cccc(S(=O)(=O)[O-])c6F)c6nc(c(-c7cccc(S(=O)(=O)[O-])c7F)c7ccc4[nH]7)C=C6)C=C5)cc2)=C3)cc1
REMARK SMILES IDX 27 1 26 2 24 3 25 4 23 5 10 6 11 7 16 8 12 9 15 10 17 11
REMARK SMILES IDX 13 12 14 13 95 14 18 15 9 16 6 17 7 18 97 19 8 20 96 21 5 22
REMARK SMILES IDX 2 24 1 25 3 26 4 27 19 28 20 29 21 30 22 31 28 32 29 33
REMARK SMILES IDX 30 34 31 35 32 36 33 37 94 38 34 39 93 40 35 41 36 42 37 43
REMARK SMILES IDX 87 44 38 45 92 46 86 47 88 48 39 49 91 50 85 51 84 52 40 54
REMARK SMILES IDX 72 55 52 56 71 57 53 58 56 59 70 60 89 61 54 62 55 63 69 65
REMARK SMILES IDX 90 66 57 67 41 68 42 69 50 70 43 71 45 72 51 73 44 74 46 75
REMARK SMILES IDX 47 76 48 77 49 78 73 79 74 80 82 81 75 82 77 83 83 84 76 85
REMARK SMILES IDX 78 86 79 87 80 88 81 89 58 90 59 91 67 92 60 93 62 94 68 95
REMARK SMILES IDX 61 96 63 97 64 98 65 99 66 100
REMARK H PARENT 5 23 88 53 56 64
REMARK Flexibility Score: inf
ROOT
ATOM      1  C   UNL     1       9.041   7.888   6.293  1.00  0.00     0.275 C 
ENDROOT
BRANCH   1   2
ATOM      2  O   UNL     1       9.164   7.021   5.134  1.00  0.00    -0.459 OA
BRANCH   2   3
ATOM      3  C   UNL     1       9.289   5.706   5.454  1.00  0.00     0.338 C 
ATOM      4  O   UNL     1       9.279   5.275   6.603  1.00  0.00    -0.246 OA
BRANCH   3   5
ATOM      5  C   UNL     1       9.457   4.794   4.289  1.00  0.00     0.087 C 
ATOM      6  C   UNL     1       6.117   3.711   2.284  1.00  0.00     0.026 A 
ATOM      7  C   UNL     1       5.167   3.918   3.318  1.00  0.00     0.033 A 
ATOM      8  C   UNL     1       7.445   3.748   2.728  1.00  0.00     0.135 A 
ATOM      9  C   UNL     1       5.500   3.958   4.678  1.00  0.00     0.042 A 
ATOM     10  C   UNL     1       7.724   3.496   4.096  1.00  0.00     0.019 A 
ATOM     11  O   UNL     1       8.506   4.279   1.993  1.00  0.00    -0.475 OA
ATOM     12  Cl  UNL     1       4.481   4.543   5.925  1.00  0.00    -0.084 Cl
ATOM     13  C   UNL     1       6.755   3.585   5.073  1.00  0.00     0.032 A 
ATOM     14  C   UNL     1       9.125   3.519   4.554  1.00  0.00     0.027 C 
ATOM     15  C   UNL     1       9.381   5.201   2.829  1.00  0.00     0.316 C 
BRANCH   6  16
ATOM     16  C   UNL     1       5.521   3.236   0.982  1.00  0.00    -0.014 A 
ATOM     17  C   UNL     1       3.308   2.322  -0.633  1.00  0.00     0.048 A 
ATOM     18  C   UNL     1       3.748   3.644  -0.686  1.00  0.00     0.027 A 
ATOM     19  C   UNL     1       4.070   1.426   0.107  1.00  0.00     0.027 A 
ATOM     20  C   UNL     1       4.878   4.075   0.058  1.00  0.00     0.011 A 
ATOM     21  C   UNL     1       5.147   1.877   0.905  1.00  0.00     0.011 A 
BRANCH  17  22
ATOM     22  N   UNL     1       2.038   2.001  -1.198  1.00  0.00    -0.284 N 
ATOM     23  H   UNL     1       1.366   2.720  -1.216  1.00  0.00     0.180 HD
BRANCH  22  24
ATOM     24  S   UNL     1       1.580   0.528  -1.829  1.00  0.00     0.229 S 
ATOM     25  C   UNL     1       1.192  -0.435  -0.387  1.00  0.00     0.183 C 
ATOM     26  O   UNL     1       2.717  -0.092  -2.491  1.00  0.00    -0.207 OA
ATOM     27  O   UNL     1       0.339   0.750  -2.521  1.00  0.00    -0.207 OA
ENDBRANCH  22  24
ENDBRANCH  17  22
ENDBRANCH   6  16
BRANCH  15  28
ATOM     28  C   UNL     1      10.836   5.174   2.341  1.00  0.00     0.430 C 
ATOM     29  F   UNL     1      11.341   3.914   2.334  1.00  0.00    -0.167 F 
ATOM     30  F   UNL     1      10.981   5.680   1.099  1.00  0.00    -0.167 F 
ATOM     31  F   UNL     1      11.639   5.905   3.160  1.00  0.00    -0.167 F 
ENDBRANCH  15  28
ENDBRANCH   3   5
ENDBRANCH   2   3
ENDBRANCH   1   2
BRANCH   1  32
ATOM     32  C   UNL     1       8.082   9.067   6.089  1.00  0.00     0.275 C 
BRANCH  32  33
ATOM     33  O   UNL     1       6.793   8.641   5.614  1.00  0.00    -0.458 OA
BRANCH  33  34
ATOM     34  C   UNL     1       6.672   8.672   4.265  1.00  0.00     0.338 C 
ATOM     35  O   UNL     1       7.535   9.041   3.480  1.00  0.00    -0.246 OA
BRANCH  34  36
ATOM     36  C   UNL     1       5.395   8.063   3.817  1.00  0.00     0.060 A 
ATOM     37  C   UNL     1       5.424   7.434   2.579  1.00  0.00     0.016 A 
ATOM     38  C   UNL     1       4.188   8.093   4.530  1.00  0.00     0.016 A 
ATOM     39  C   UNL     1       4.275   6.806   2.099  1.00  0.00     0.010 A 
ATOM     40  C   UNL     1       3.033   7.432   4.034  1.00  0.00     0.010 A 
ATOM     41  C   UNL     1       3.070   6.738   2.819  1.00  0.00    -0.014 A 
BRANCH  41  42
ATOM     42  C   UNL     1       1.922   5.984   2.186  1.00  0.00     0.031 A 
ATOM     43  C   UNL     1       1.411   6.451   0.854  1.00  0.00     0.074 A 
ATOM     44  C   UNL     1       1.449   4.796   2.636  1.00  0.00     0.049 A 
ATOM     45  N   UNL     1       0.598   5.846   0.028  1.00  0.00    -0.248 NA
ATOM     46  C   UNL     1       1.893   7.760   0.385  1.00  0.00     0.031 C 
ATOM     47  C   UNL     1       1.854   4.167   3.874  1.00  0.00     0.029 A 
ATOM     48  N   UNL     1       0.588   3.860   2.091  1.00  0.00    -0.354 N 
ATOM     49  C   UNL     1       0.441   6.715  -1.038  1.00  0.00     0.074 A 
ATOM     50  C   UNL     1       1.300   7.854  -0.793  1.00  0.00     0.031 C 
ATOM     51  C   UNL     1       1.414   2.902   3.929  1.00  0.00     0.029 A 
ATOM     52  C   UNL     1       0.497   2.683   2.819  1.00  0.00     0.049 A 
ATOM     53  H   UNL     1       0.084   4.016   1.260  1.00  0.00     0.167 HD
ATOM     54  C   UNL     1      -0.381   6.609  -2.105  1.00  0.00     0.034 A 
ATOM     55  C   UNL     1      -0.272   1.579   2.669  1.00  0.00     0.034 A 
ATOM     56  C   UNL     1      -1.321   5.548  -2.323  1.00  0.00     0.049 A 
ATOM     57  C   UNL     1      -1.267   1.558   1.536  1.00  0.00     0.074 A 
ATOM     58  C   UNL     1      -2.231   5.420  -3.357  1.00  0.00     0.029 A 
ATOM     59  N   UNL     1      -1.518   4.467  -1.481  1.00  0.00    -0.354 N 
ATOM     60  N   UNL     1      -1.370   2.377   0.519  1.00  0.00    -0.248 NA
ATOM     61  C   UNL     1      -2.248   0.461   1.524  1.00  0.00     0.031 C 
ATOM     62  C   UNL     1      -2.999   4.276  -3.124  1.00  0.00     0.029 A 
ATOM     63  C   UNL     1      -2.525   3.658  -1.979  1.00  0.00     0.049 A 
ATOM     64  H   UNL     1      -1.016   4.298  -0.651  1.00  0.00     0.167 HD
ATOM     65  C   UNL     1      -2.421   1.893  -0.255  1.00  0.00     0.074 A 
ATOM     66  C   UNL     1      -2.885   0.678   0.380  1.00  0.00     0.031 C 
ATOM     67  C   UNL     1      -2.966   2.425  -1.377  1.00  0.00     0.034 A 
BRANCH  54  68
ATOM     68  C   UNL     1      -0.347   7.745  -3.080  1.00  0.00     0.023 A 
ATOM     69  C   UNL     1       0.718   7.856  -3.995  1.00  0.00     0.012 A 
ATOM     70  C   UNL     1      -1.370   8.710  -3.070  1.00  0.00     0.148 A 
ATOM     71  C   UNL     1       0.776   8.937  -4.872  1.00  0.00     0.002 A 
ATOM     72  C   UNL     1      -1.324   9.761  -3.971  1.00  0.00     0.091 A 
ATOM     73  F   UNL     1      -2.347   8.594  -2.159  1.00  0.00    -0.205 F 
ATOM     74  C   UNL     1      -0.247   9.883  -4.865  1.00  0.00     0.022 A 
BRANCH  72  75
ATOM     75  S   UNL     1      -2.617  11.001  -4.067  1.00  0.00     0.127 S 
ATOM     76  O   UNL     1      -1.920  12.189  -3.577  1.00  0.00    -0.237 OA
ATOM     77  O   UNL     1      -2.919  11.015  -5.498  1.00  0.00    -0.237 OA
ATOM     78  O   UNL     1      -3.699  10.521  -3.219  1.00  0.00    -0.744 OA
ENDBRANCH  72  75
ENDBRANCH  54  68
BRANCH  55  79
ATOM     79  C   UNL     1      -0.193   0.411   3.619  1.00  0.00     0.023 A 
ATOM     80  C   UNL     1       0.085  -0.888   3.138  1.00  0.00     0.012 A 
ATOM     81  C   UNL     1      -0.434   0.562   4.998  1.00  0.00     0.148 A 
ATOM     82  C   UNL     1       0.116  -1.995   3.992  1.00  0.00     0.002 A 
ATOM     83  C   UNL     1      -0.333  -0.531   5.856  1.00  0.00     0.091 A 
ATOM     84  F   UNL     1      -0.773   1.775   5.455  1.00  0.00    -0.205 F 
ATOM     85  C   UNL     1      -0.076  -1.814   5.354  1.00  0.00     0.022 A 
BRANCH  83  86
ATOM     86  S   UNL     1      -0.444  -0.358   7.640  1.00  0.00     0.127 S 
ATOM     87  O   UNL     1      -1.750  -0.950   7.915  1.00  0.00    -0.237 OA
ATOM     88  O   UNL     1       0.701  -1.149   8.091  1.00  0.00    -0.237 OA
ATOM     89  O   UNL     1      -0.325   1.071   7.898  1.00  0.00    -0.744 OA
ENDBRANCH  83  86
ENDBRANCH  55  79
BRANCH  67  90
ATOM     90  C   UNL     1      -4.102   1.684  -2.041  1.00  0.00     0.023 A 
ATOM     91  C   UNL     1      -5.366   1.618  -1.420  1.00  0.00     0.012 A 
ATOM     92  C   UNL     1      -3.939   1.128  -3.327  1.00  0.00     0.148 A 
ATOM     93  C   UNL     1      -6.435   0.980  -2.050  1.00  0.00     0.002 A 
ATOM     94  C   UNL     1      -5.022   0.544  -3.972  1.00  0.00     0.091 A 
ATOM     95  F   UNL     1      -2.732   1.198  -3.905  1.00  0.00    -0.205 F 
ATOM     96  C   UNL     1      -6.266   0.454  -3.329  1.00  0.00     0.022 A 
BRANCH  94  97
ATOM     97  S   UNL     1      -4.935  -0.061  -5.662  1.00  0.00     0.127 S 
ATOM     98  O   UNL     1      -5.081  -1.503  -5.470  1.00  0.00    -0.237 OA
ATOM     99  O   UNL     1      -6.091   0.591  -6.279  1.00  0.00    -0.237 OA
ATOM    100  O   UNL     1      -3.647   0.371  -6.185  1.00  0.00    -0.744 OA
ENDBRANCH  94  97
ENDBRANCH  67  90
ENDBRANCH  41  42
ENDBRANCH  34  36
ENDBRANCH  33  34
ENDBRANCH  32  33
ENDBRANCH   1  32
TORSDOF 18
