REMARK SMILES O=C(OCCOC(=O)c1ccc(N2C(=O)[C@@H]3N=NC(c4ccccc4)=C3[C@H]2c2cccc(Br)c2)cc1)c1ccc(-c2c3nc(c(-c4cccc(S(=O)(=O)[O-])c4F)c4ccc([nH]4)c(-c4cccc(S(=O)(=O)[O-])c4F)c4nc(c(-c5cccc(S(=O)(=O)[O-])c5F)c5ccc2[nH]5)C=C4)C=C3)cc1
REMARK SMILES IDX 4 1 3 2 2 3 1 4 37 5 38 6 99 7 39 8 98 9 40 10 41 11 42 12
REMARK SMILES IDX 92 13 43 14 97 15 91 16 93 17 44 18 96 19 90 20 89 21 45 23
REMARK SMILES IDX 77 24 57 25 76 26 58 27 61 28 75 29 94 30 59 31 60 32 74 34
REMARK SMILES IDX 95 35 62 36 46 37 47 38 55 39 48 40 50 41 56 42 49 43 51 44
REMARK SMILES IDX 52 45 53 46 54 47 78 48 79 49 87 50 80 51 82 52 88 53 81 54
REMARK SMILES IDX 83 55 84 56 85 57 86 58 63 59 64 60 72 61 65 62 67 63 73 64
REMARK SMILES IDX 66 65 68 66 69 67 70 68 71 69 5 70 6 71 7 72 8 73 9 74 10 75
REMARK SMILES IDX 36 76 11 77 35 78 12 79 13 80 14 81 27 82 16 83 15 84 26 85
REMARK SMILES IDX 17 86 19 87 18 88 28 89 29 90 34 91 30 92 32 93 31 94 33 95
REMARK SMILES IDX 20 96 21 97 25 98 22 99 24 100 23 101
REMARK H PARENT 93 22 61 33
REMARK Flexibility Score: inf
ROOT
ATOM      1  C   UNL     1       4.569   0.856  -0.335  1.00  0.00     0.275 C 
ENDROOT
BRANCH   1   2
ATOM      2  O   UNL     1       3.355   0.820  -1.111  1.00  0.00    -0.458 OA
BRANCH   2   3
ATOM      3  C   UNL     1       2.274   0.170  -0.625  1.00  0.00     0.338 C 
ATOM      4  O   UNL     1       1.338   0.737  -0.082  1.00  0.00    -0.246 OA
BRANCH   3   5
ATOM      5  C   UNL     1       2.211  -1.248  -1.053  1.00  0.00     0.060 A 
ATOM      6  C   UNL     1       3.348  -1.990  -1.388  1.00  0.00     0.016 A 
ATOM      7  C   UNL     1       0.944  -1.840  -1.126  1.00  0.00     0.016 A 
ATOM      8  C   UNL     1       3.216  -3.275  -1.886  1.00  0.00     0.010 A 
ATOM      9  C   UNL     1       0.812  -3.138  -1.594  1.00  0.00     0.010 A 
ATOM     10  C   UNL     1       1.943  -3.826  -2.034  1.00  0.00    -0.014 A 
BRANCH  10  11
ATOM     11  C   UNL     1       1.844  -5.167  -2.596  1.00  0.00     0.031 A 
ATOM     12  C   UNL     1       2.531  -6.235  -1.814  1.00  0.00     0.074 A 
ATOM     13  C   UNL     1       1.069  -5.442  -3.664  1.00  0.00     0.049 A 
ATOM     14  N   UNL     1       3.513  -7.001  -2.167  1.00  0.00    -0.248 NA
ATOM     15  C   UNL     1       2.146  -6.375  -0.409  1.00  0.00     0.031 C 
ATOM     16  C   UNL     1       0.124  -4.551  -4.345  1.00  0.00     0.029 A 
ATOM     17  N   UNL     1       0.855  -6.638  -4.274  1.00  0.00    -0.354 N 
ATOM     18  C   UNL     1       3.720  -7.870  -1.089  1.00  0.00     0.074 A 
ATOM     19  C   UNL     1       2.979  -7.327   0.011  1.00  0.00     0.031 C 
ATOM     20  C   UNL     1      -0.740  -5.294  -5.070  1.00  0.00     0.029 A 
ATOM     21  C   UNL     1      -0.313  -6.680  -5.028  1.00  0.00     0.049 A 
ATOM     22  H   UNL     1       1.468  -7.404  -4.190  1.00  0.00     0.167 HD
ATOM     23  C   UNL     1       4.303  -9.092  -1.247  1.00  0.00     0.034 A 
ATOM     24  C   UNL     1      -0.923  -7.790  -5.510  1.00  0.00     0.034 A 
ATOM     25  C   UNL     1       5.004  -9.171  -2.502  1.00  0.00     0.049 A 
ATOM     26  C   UNL     1       0.086  -8.872  -5.529  1.00  0.00     0.074 A 
ATOM     27  C   UNL     1       6.051  -8.488  -3.084  1.00  0.00     0.029 A 
ATOM     28  N   UNL     1       4.372  -9.837  -3.523  1.00  0.00    -0.354 N 
ATOM     29  N   UNL     1       1.143  -8.855  -6.293  1.00  0.00    -0.248 NA
ATOM     30  C   UNL     1       0.153  -9.761  -4.381  1.00  0.00     0.031 C 
ATOM     31  C   UNL     1       5.685  -8.374  -4.457  1.00  0.00     0.029 A 
ATOM     32  C   UNL     1       4.478  -9.054  -4.638  1.00  0.00     0.049 A 
ATOM     33  H   UNL     1       3.926 -10.713  -3.463  1.00  0.00     0.167 HD
ATOM     34  C   UNL     1       2.156  -9.359  -5.488  1.00  0.00     0.074 A 
ATOM     35  C   UNL     1       1.468  -9.998  -4.366  1.00  0.00     0.031 C 
ATOM     36  C   UNL     1       3.452  -8.963  -5.652  1.00  0.00     0.034 A 
BRANCH  23  37
ATOM     37  C   UNL     1       3.949 -10.350  -0.473  1.00  0.00     0.023 A 
ATOM     38  C   UNL     1       4.705 -11.512  -0.769  1.00  0.00     0.012 A 
ATOM     39  C   UNL     1       2.766 -10.540   0.278  1.00  0.00     0.148 A 
ATOM     40  C   UNL     1       4.258 -12.793  -0.430  1.00  0.00     0.002 A 
ATOM     41  C   UNL     1       2.364 -11.812   0.678  1.00  0.00     0.091 A 
ATOM     42  F   UNL     1       1.942  -9.518   0.513  1.00  0.00    -0.205 F 
ATOM     43  C   UNL     1       3.083 -12.944   0.291  1.00  0.00     0.022 A 
BRANCH  41  44
ATOM     44  S   UNL     1       0.883 -12.068   1.667  1.00  0.00     0.127 S 
ATOM     45  O   UNL     1      -0.058 -12.556   0.664  1.00  0.00    -0.237 OA
ATOM     46  O   UNL     1       1.334 -13.074   2.630  1.00  0.00    -0.237 OA
ATOM     47  O   UNL     1       0.583 -10.774   2.268  1.00  0.00    -0.744 OA
ENDBRANCH  41  44
ENDBRANCH  23  37
BRANCH  24  48
ATOM     48  C   UNL     1      -2.369  -8.058  -5.677  1.00  0.00     0.023 A 
ATOM     49  C   UNL     1      -2.797  -9.064  -6.565  1.00  0.00     0.012 A 
ATOM     50  C   UNL     1      -3.312  -7.523  -4.769  1.00  0.00     0.148 A 
ATOM     51  C   UNL     1      -4.114  -9.541  -6.533  1.00  0.00     0.002 A 
ATOM     52  C   UNL     1      -4.621  -7.995  -4.746  1.00  0.00     0.091 A 
ATOM     53  F   UNL     1      -2.900  -6.618  -3.871  1.00  0.00    -0.205 F 
ATOM     54  C   UNL     1      -5.023  -9.012  -5.619  1.00  0.00     0.022 A 
BRANCH  52  55
ATOM     55  S   UNL     1      -5.845  -7.377  -3.582  1.00  0.00     0.127 S 
ATOM     56  O   UNL     1      -6.972  -7.071  -4.465  1.00  0.00    -0.237 OA
ATOM     57  O   UNL     1      -6.047  -8.533  -2.713  1.00  0.00    -0.237 OA
ATOM     58  O   UNL     1      -5.245  -6.208  -2.953  1.00  0.00    -0.744 OA
ENDBRANCH  52  55
ENDBRANCH  24  48
BRANCH  36  59
ATOM     59  C   UNL     1       3.802  -8.133  -6.861  1.00  0.00     0.023 A 
ATOM     60  C   UNL     1       3.301  -6.828  -7.051  1.00  0.00     0.012 A 
ATOM     61  C   UNL     1       4.827  -8.597  -7.700  1.00  0.00     0.148 A 
ATOM     62  C   UNL     1       3.806  -6.008  -8.063  1.00  0.00     0.002 A 
ATOM     63  C   UNL     1       5.363  -7.762  -8.671  1.00  0.00     0.091 A 
ATOM     64  F   UNL     1       5.296  -9.838  -7.499  1.00  0.00    -0.205 F 
ATOM     65  C   UNL     1       4.850  -6.469  -8.863  1.00  0.00     0.022 A 
BRANCH  63  66
ATOM     66  S   UNL     1       6.801  -8.242  -9.629  1.00  0.00     0.127 S 
ATOM     67  O   UNL     1       6.222  -8.482 -10.949  1.00  0.00    -0.237 OA
ATOM     68  O   UNL     1       7.649  -7.053  -9.540  1.00  0.00    -0.237 OA
ATOM     69  O   UNL     1       7.354  -9.417  -8.966  1.00  0.00    -0.744 OA
ENDBRANCH  63  66
ENDBRANCH  36  59
ENDBRANCH  10  11
ENDBRANCH   3   5
ENDBRANCH   2   3
ENDBRANCH   1   2
BRANCH   1  70
ATOM     70  C   UNL     1       4.430   0.830   1.188  1.00  0.00     0.275 C 
BRANCH  70  71
ATOM     71  O   UNL     1       3.901  -0.425   1.659  1.00  0.00    -0.458 OA
BRANCH  71  72
ATOM     72  C   UNL     1       2.856  -0.327   2.522  1.00  0.00     0.338 C 
ATOM     73  O   UNL     1       2.335   0.694   2.939  1.00  0.00    -0.246 OA
BRANCH  72  74
ATOM     74  C   UNL     1       2.432  -1.667   2.958  1.00  0.00     0.060 A 
ATOM     75  C   UNL     1       1.237  -2.211   2.486  1.00  0.00     0.018 A 
ATOM     76  C   UNL     1       3.177  -2.342   3.928  1.00  0.00     0.018 A 
ATOM     77  C   UNL     1       0.798  -3.446   2.977  1.00  0.00     0.027 A 
ATOM     78  C   UNL     1       2.713  -3.561   4.443  1.00  0.00     0.027 A 
ATOM     79  C   UNL     1       1.514  -4.113   3.984  1.00  0.00     0.045 A 
BRANCH  79  80
ATOM     80  N   UNL     1       1.052  -5.360   4.485  1.00  0.00    -0.299 N 
ATOM     81  C   UNL     1       0.744  -6.395   3.547  1.00  0.00     0.259 C 
ATOM     82  C   UNL     1       0.170  -5.439   5.660  1.00  0.00     0.152 C 
ATOM     83  C   UNL     1      -0.309  -7.287   4.162  1.00  0.00     0.248 C 
ATOM     84  O   UNL     1       1.227  -6.490   2.444  1.00  0.00    -0.271 OA
ATOM     85  C   UNL     1      -0.911  -6.237   5.030  1.00  0.00     0.021 C 
ATOM     86  N   UNL     1      -1.423  -7.645   3.283  1.00  0.00    -0.170 NA
ATOM     87  C   UNL     1      -2.199  -6.173   4.686  1.00  0.00     0.097 C 
ATOM     88  N   UNL     1      -2.482  -7.104   3.707  1.00  0.00    -0.154 NA
BRANCH  82  89
ATOM     89  C   UNL     1       0.819  -6.193   6.842  1.00  0.00    -0.020 A 
ATOM     90  C   UNL     1       0.202  -7.322   7.427  1.00  0.00     0.006 A 
ATOM     91  C   UNL     1       2.060  -5.803   7.372  1.00  0.00     0.022 A 
ATOM     92  C   UNL     1       0.829  -8.077   8.422  1.00  0.00     0.002 A 
ATOM     93  C   UNL     1       2.679  -6.554   8.382  1.00  0.00     0.018 A 
ATOM     94  C   UNL     1       2.077  -7.698   8.897  1.00  0.00     0.016 A 
ATOM     95  Br  UNL     1       4.366  -6.019   9.055  1.00  0.00    -0.051 Br
ENDBRANCH  82  89
BRANCH  87  96
ATOM     96  C   UNL     1      -3.217  -5.142   4.898  1.00  0.00     0.002 A 
ATOM     97  C   UNL     1      -4.232  -5.321   5.845  1.00  0.00     0.010 A 
ATOM     98  C   UNL     1      -3.376  -4.168   3.900  1.00  0.00     0.010 A 
ATOM     99  C   UNL     1      -5.421  -4.589   5.743  1.00  0.00     0.001 A 
ATOM    100  C   UNL     1      -4.565  -3.446   3.796  1.00  0.00     0.001 A 
ATOM    101  C   UNL     1      -5.596  -3.674   4.704  1.00  0.00     0.000 A 
ENDBRANCH  87  96
ENDBRANCH  79  80
ENDBRANCH  72  74
ENDBRANCH  71  72
ENDBRANCH  70  71
ENDBRANCH   1  70
TORSDOF 17
