REMARK SMILES Cc1ccc(NC(=O)C[C@H]([NH2+]Cc2cccnc2)C(=O)OCCOC(=O)c2ccc(-c3c4nc(c(-c5cccc(S(=O)(=O)[O-])c5F)c5ccc([nH]5)c(-c5cccc(S(=O)(=O)[O-])c5F)c5nc(c(-c6cccc(S(=O)(=O)[O-])c6F)c6ccc3[nH]6)C=C5)C=C4)cc2)cc1Cl
REMARK SMILES IDX 22 1 21 2 19 3 20 4 10 5 9 6 7 7 6 8 8 10 5 11 1 12 2 13
REMARK SMILES IDX 3 14 91 15 4 16 90 17 92 18 11 19 12 22 13 23 14 24 18 25
REMARK SMILES IDX 15 26 17 27 16 28 23 29 24 30 25 31 26 32 27 33 28 34 89 35
REMARK SMILES IDX 29 36 88 37 30 38 31 39 32 40 82 41 33 42 87 43 81 44 83 45
REMARK SMILES IDX 34 46 86 47 80 48 79 49 35 51 67 52 47 53 66 54 48 55 51 56
REMARK SMILES IDX 65 57 84 58 49 59 50 60 64 62 85 63 52 64 36 65 37 66 45 67
REMARK SMILES IDX 38 68 40 69 46 70 39 71 41 72 42 73 43 74 44 75 68 76 69 77
REMARK SMILES IDX 77 78 70 79 72 80 78 81 71 82 73 83 74 84 75 85 76 86 53 87
REMARK SMILES IDX 54 88 62 89 55 90 57 91 63 92 56 93 58 94 59 95 60 96 61 97
REMARK H PARENT 6 9 11 20 11 21 83 50 51 61
REMARK Flexibility Score: inf
ROOT
ATOM      1  C   UNL     1       3.408  -2.730  -0.816  1.00  0.00     0.274 C 
ENDROOT
BRANCH   1   2
ATOM      2  O   UNL     1       1.994  -2.594  -0.555  1.00  0.00    -0.458 OA
BRANCH   2   3
ATOM      3  C   UNL     1       1.151  -2.572  -1.620  1.00  0.00     0.365 C 
ATOM      4  O   UNL     1       1.513  -2.687  -2.786  1.00  0.00    -0.245 OA
BRANCH   3   5
ATOM      5  C   UNL     1      -0.327  -2.347  -1.232  1.00  0.00     0.303 C 
BRANCH   5   6
ATOM      6  C   UNL     1      -0.460  -1.059  -0.443  1.00  0.00     0.177 C 
BRANCH   6   7
ATOM      7  C   UNL     1       0.334  -0.700   0.801  1.00  0.00     0.231 C 
ATOM      8  N   UNL     1       0.449  -1.344   1.984  1.00  0.00    -0.326 N 
ATOM      9  H   UNL     1       0.665  -0.690   2.686  1.00  0.00     0.169 HD
ATOM     10  O   UNL     1       0.779   0.466   0.839  1.00  0.00    -0.274 OA
BRANCH   8  11
ATOM     11  C   UNL     1       0.366  -2.626   2.560  1.00  0.00     0.042 A 
ATOM     12  C   UNL     1       0.289  -6.373   4.782  1.00  0.00     0.046 C 
ATOM     13  C   UNL     1       0.324  -5.084   4.013  1.00  0.00    -0.032 A 
ATOM     14  C   UNL     1       0.276  -3.859   4.678  1.00  0.00     0.007 A 
ATOM     15  C   UNL     1       0.398  -5.066   2.619  1.00  0.00     0.046 A 
ATOM     16  C   UNL     1       0.295  -2.655   3.960  1.00  0.00     0.026 A 
ATOM     17  C   UNL     1       0.463  -3.849   1.917  1.00  0.00     0.047 A 
ATOM     18  Cl  UNL     1       0.408  -6.558   1.741  1.00  0.00    -0.084 Cl
ENDBRANCH   8  11
ENDBRANCH   6   7
ENDBRANCH   5   6
BRANCH   5  19
ATOM     19  N   UNL     1      -0.987  -3.503  -0.613  1.00  0.00    -0.330 N 
ATOM     20  H   UNL     1      -0.592  -3.621   0.320  1.00  0.00     0.347 HD
ATOM     21  H   UNL     1      -0.816  -4.281  -1.251  1.00  0.00     0.347 HD
BRANCH  19  22
ATOM     22  C   UNL     1      -2.435  -3.436  -0.474  1.00  0.00     0.299 C 
BRANCH  22  23
ATOM     23  C   UNL     1      -2.881  -4.087   0.810  1.00  0.00     0.024 A 
ATOM     24  C   UNL     1      -3.058  -5.468   0.914  1.00  0.00     0.013 A 
ATOM     25  C   UNL     1      -3.082  -3.336   1.968  1.00  0.00     0.120 A 
ATOM     26  C   UNL     1      -3.425  -6.030   2.135  1.00  0.00     0.021 A 
ATOM     27  N   UNL     1      -3.454  -3.849   3.167  1.00  0.00    -0.264 NA
ATOM     28  C   UNL     1      -3.607  -5.189   3.220  1.00  0.00     0.111 A 
ENDBRANCH  22  23
ENDBRANCH  19  22
ENDBRANCH   5  19
ENDBRANCH   3   5
ENDBRANCH   2   3
ENDBRANCH   1   2
BRANCH   1  29
ATOM     29  C   UNL     1       3.916  -4.161  -0.592  1.00  0.00     0.275 C 
BRANCH  29  30
ATOM     30  O   UNL     1       3.595  -5.024  -1.698  1.00  0.00    -0.458 OA
BRANCH  30  31
ATOM     31  C   UNL     1       2.352  -5.545  -1.641  1.00  0.00     0.338 C 
ATOM     32  O   UNL     1       1.537  -5.402  -0.749  1.00  0.00    -0.246 OA
BRANCH  31  33
ATOM     33  C   UNL     1       1.971  -6.184  -2.895  1.00  0.00     0.060 A 
ATOM     34  C   UNL     1       0.779  -5.740  -3.481  1.00  0.00     0.016 A 
ATOM     35  C   UNL     1       2.696  -7.245  -3.430  1.00  0.00     0.016 A 
ATOM     36  C   UNL     1       0.301  -6.351  -4.624  1.00  0.00     0.010 A 
ATOM     37  C   UNL     1       2.216  -7.859  -4.583  1.00  0.00     0.010 A 
ATOM     38  C   UNL     1       1.023  -7.410  -5.178  1.00  0.00    -0.014 A 
BRANCH  38  39
ATOM     39  C   UNL     1       0.536  -8.038  -6.414  1.00  0.00     0.031 A 
ATOM     40  C   UNL     1      -0.121  -9.375  -6.353  1.00  0.00     0.074 A 
ATOM     41  C   UNL     1       0.751  -7.398  -7.575  1.00  0.00     0.049 A 
ATOM     42  N   UNL     1      -0.483 -10.155  -7.333  1.00  0.00    -0.248 NA
ATOM     43  C   UNL     1      -0.402  -9.912  -5.011  1.00  0.00     0.031 C 
ATOM     44  C   UNL     1       1.379  -6.081  -7.703  1.00  0.00     0.029 A 
ATOM     45  N   UNL     1       0.514  -7.788  -8.865  1.00  0.00    -0.354 N 
ATOM     46  C   UNL     1      -0.986 -11.300  -6.732  1.00  0.00     0.074 A 
ATOM     47  C   UNL     1      -0.901 -11.106  -5.301  1.00  0.00     0.031 C 
ATOM     48  C   UNL     1       1.531  -5.796  -9.004  1.00  0.00     0.029 A 
ATOM     49  C   UNL     1       1.052  -6.928  -9.791  1.00  0.00     0.049 A 
ATOM     50  H   UNL     1       0.012  -8.600  -9.104  1.00  0.00     0.167 HD
ATOM     51  C   UNL     1      -1.468 -12.410  -7.335  1.00  0.00     0.034 A 
ATOM     52  C   UNL     1       1.192  -7.067 -11.121  1.00  0.00     0.034 A 
ATOM     53  C   UNL     1      -1.553 -12.561  -8.762  1.00  0.00     0.049 A 
ATOM     54  C   UNL     1       0.648  -8.309 -11.767  1.00  0.00     0.074 A 
ATOM     55  C   UNL     1      -2.080 -13.612  -9.488  1.00  0.00     0.029 A 
ATOM     56  N   UNL     1      -1.079 -11.634  -9.681  1.00  0.00    -0.354 N 
ATOM     57  N   UNL     1       0.068  -9.341 -11.200  1.00  0.00    -0.248 NA
ATOM     58  C   UNL     1       0.748  -8.399 -13.228  1.00  0.00     0.031 C 
ATOM     59  C   UNL     1      -1.904 -13.330 -10.847  1.00  0.00     0.029 A 
ATOM     60  C   UNL     1      -1.287 -12.093 -10.969  1.00  0.00     0.049 A 
ATOM     61  H   UNL     1      -0.656 -10.776  -9.450  1.00  0.00     0.167 HD
ATOM     62  C   UNL     1      -0.293 -10.192 -12.235  1.00  0.00     0.074 A 
ATOM     63  C   UNL     1       0.124  -9.546 -13.466  1.00  0.00     0.031 C 
ATOM     64  C   UNL     1      -0.903 -11.402 -12.175  1.00  0.00     0.034 A 
BRANCH  51  65
ATOM     65  C   UNL     1      -1.934 -13.534  -6.452  1.00  0.00     0.023 A 
ATOM     66  C   UNL     1      -3.144 -13.412  -5.739  1.00  0.00     0.012 A 
ATOM     67  C   UNL     1      -1.185 -14.721  -6.343  1.00  0.00     0.148 A 
ATOM     68  C   UNL     1      -3.584 -14.441  -4.907  1.00  0.00     0.002 A 
ATOM     69  C   UNL     1      -1.649 -15.758  -5.541  1.00  0.00     0.091 A 
ATOM     70  F   UNL     1      -0.020 -14.807  -7.001  1.00  0.00    -0.205 F 
ATOM     71  C   UNL     1      -2.842 -15.616  -4.815  1.00  0.00     0.022 A 
BRANCH  69  72
ATOM     72  S   UNL     1      -0.789 -17.330  -5.418  1.00  0.00     0.127 S 
ATOM     73  O   UNL     1      -0.108 -17.195  -4.131  1.00  0.00    -0.237 OA
ATOM     74  O   UNL     1      -1.893 -18.291  -5.424  1.00  0.00    -0.237 OA
ATOM     75  O   UNL     1       0.076 -17.400  -6.587  1.00  0.00    -0.744 OA
ENDBRANCH  69  72
ENDBRANCH  51  65
BRANCH  52  76
ATOM     76  C   UNL     1       1.860  -5.989 -11.897  1.00  0.00     0.023 A 
ATOM     77  C   UNL     1       1.091  -5.144 -12.716  1.00  0.00     0.012 A 
ATOM     78  C   UNL     1       3.238  -5.731 -11.740  1.00  0.00     0.148 A 
ATOM     79  C   UNL     1       1.683  -4.066 -13.376  1.00  0.00     0.002 A 
ATOM     80  C   UNL     1       3.810  -4.625 -12.357  1.00  0.00     0.091 A 
ATOM     81  F   UNL     1       3.953  -6.554 -10.960  1.00  0.00    -0.205 F 
ATOM     82  C   UNL     1       3.037  -3.798 -13.186  1.00  0.00     0.022 A 
BRANCH  80  83
ATOM     83  S   UNL     1       5.510  -4.123 -12.056  1.00  0.00     0.127 S 
ATOM     84  O   UNL     1       6.139  -4.417 -13.341  1.00  0.00    -0.237 OA
ATOM     85  O   UNL     1       5.356  -2.699 -11.757  1.00  0.00    -0.237 OA
ATOM     86  O   UNL     1       5.965  -4.927 -10.930  1.00  0.00    -0.744 OA
ENDBRANCH  80  83
ENDBRANCH  52  76
BRANCH  64  87
ATOM     87  C   UNL     1      -1.187 -12.100 -13.476  1.00  0.00     0.023 A 
ATOM     88  C   UNL     1      -0.140 -12.741 -14.165  1.00  0.00     0.012 A 
ATOM     89  C   UNL     1      -2.508 -12.213 -13.950  1.00  0.00     0.148 A 
ATOM     90  C   UNL     1      -0.403 -13.475 -15.320  1.00  0.00     0.002 A 
ATOM     91  C   UNL     1      -2.768 -12.984 -15.075  1.00  0.00     0.091 A 
ATOM     92  F   UNL     1      -3.483 -11.576 -13.285  1.00  0.00    -0.205 F 
ATOM     93  C   UNL     1      -1.717 -13.608 -15.767  1.00  0.00     0.022 A 
BRANCH  91  94
ATOM     94  S   UNL     1      -4.437 -13.293 -15.664  1.00  0.00     0.127 S 
ATOM     95  O   UNL     1      -4.469 -12.507 -16.896  1.00  0.00    -0.237 OA
ATOM     96  O   UNL     1      -4.431 -14.742 -15.864  1.00  0.00    -0.237 OA
ATOM     97  O   UNL     1      -5.328 -12.832 -14.607  1.00  0.00    -0.744 OA
ENDBRANCH  91  94
ENDBRANCH  64  87
ENDBRANCH  38  39
ENDBRANCH  31  33
ENDBRANCH  30  31
ENDBRANCH  29  30
ENDBRANCH   1  29
TORSDOF 20
