REMARK SMILES CC(C)[C@H]1CC[C@@H](C)C/C1=C(\F)C(=O)OCCOC(=O)c1ccc(-c2c3nc(c(-c4cccc(S(=O)(=O)[O-])c4F)c4ccc([nH]4)c(-c4cccc(S(=O)(=O)[O-])c4F)c4nc(c(-c5cccc(S(=O)(=O)[O-])c5F)c5ccc2[nH]5)C=C4)C=C3)cc1
REMARK SMILES IDX 17 1 16 2 15 3 13 4 14 5 11 6 4 7 5 8 10 9 6 10 9 11 7 12
REMARK SMILES IDX 12 13 8 14 2 15 1 16 3 17 18 18 19 19 20 20 21 21 22 22
REMARK SMILES IDX 83 23 23 24 82 25 24 26 25 27 26 28 76 29 27 30 81 31 75 32
REMARK SMILES IDX 77 33 28 34 80 35 74 36 73 37 29 39 61 40 41 41 60 42 42 43
REMARK SMILES IDX 45 44 59 45 78 46 43 47 44 48 58 50 79 51 46 52 30 53 31 54
REMARK SMILES IDX 39 55 32 56 34 57 40 58 33 59 35 60 36 61 37 62 38 63 62 64
REMARK SMILES IDX 63 65 71 66 64 67 66 68 72 69 65 70 67 71 68 72 69 73 70 74
REMARK SMILES IDX 47 75 48 76 56 77 49 78 51 79 57 80 50 81 52 82 53 83 54 84
REMARK SMILES IDX 55 85
REMARK H PARENT 77 38 45 49
REMARK Flexibility Score: inf
ROOT
ATOM      1  C   UNL     1      -4.183   1.002   4.759  1.00  0.00     0.275 C 
ENDROOT
BRANCH   1   2
ATOM      2  C   UNL     1      -3.501   2.199   4.008  1.00  0.00     0.275 C 
BRANCH   2   3
ATOM      3  O   UNL     1      -3.533   2.096   2.548  1.00  0.00    -0.457 OA
BRANCH   3   4
ATOM      4  C   UNL     1      -2.497   2.698   1.863  1.00  0.00     0.367 C 
ATOM      5  O   UNL     1      -1.720   3.500   2.372  1.00  0.00    -0.243 OA
BRANCH   4   6
ATOM      6  C   UNL     1      -2.385   2.312   0.389  1.00  0.00     0.207 C 
ATOM      7  C   UNL     1      -1.243  -0.047   0.407  1.00  0.00     0.021 C 
ATOM      8  C   UNL     1      -1.225  -1.358  -0.424  1.00  0.00     0.009 C 
ATOM      9  C   UNL     1      -1.814   1.232  -0.232  1.00  0.00    -0.023 C 
ATOM     10  C   UNL     1      -0.872  -1.145  -1.875  1.00  0.00     0.004 C 
ATOM     11  C   UNL     1      -1.525   1.280  -1.727  1.00  0.00     0.038 C 
ATOM     12  C   UNL     1      -1.758  -0.048  -2.473  1.00  0.00    -0.010 C 
ATOM     13  F   UNL     1      -2.726   3.367  -0.394  1.00  0.00    -0.199 F 
ATOM     14  C   UNL     1      -3.241  -0.438  -2.468  1.00  0.00     0.008 C 
BRANCH   7  15
ATOM     15  C   UNL     1      -1.905  -0.296   1.756  1.00  0.00    -0.010 C 
ATOM     16  C   UNL     1      -2.890  -1.462   1.809  1.00  0.00     0.008 C 
ATOM     17  C   UNL     1      -0.882   0.074   2.830  1.00  0.00     0.008 C 
ENDBRANCH   7  15
ENDBRANCH   4   6
ENDBRANCH   3   4
ENDBRANCH   2   3
ENDBRANCH   1   2
BRANCH   1  18
ATOM     18  O   UNL     1      -3.358  -0.196   4.836  1.00  0.00    -0.458 OA
BRANCH  18  19
ATOM     19  C   UNL     1      -3.950  -1.397   5.160  1.00  0.00     0.338 C 
ATOM     20  O   UNL     1      -5.126  -1.530   5.476  1.00  0.00    -0.246 OA
BRANCH  19  21
ATOM     21  C   UNL     1      -3.024  -2.563   4.867  1.00  0.00     0.060 A 
ATOM     22  C   UNL     1      -1.701  -2.304   4.577  1.00  0.00     0.016 A 
ATOM     23  C   UNL     1      -3.478  -3.866   4.610  1.00  0.00     0.016 A 
ATOM     24  C   UNL     1      -0.991  -3.171   3.743  1.00  0.00     0.010 A 
ATOM     25  C   UNL     1      -2.630  -4.837   3.989  1.00  0.00     0.010 A 
ATOM     26  C   UNL     1      -1.368  -4.490   3.480  1.00  0.00    -0.014 A 
BRANCH  26  27
ATOM     27  C   UNL     1      -0.419  -5.401   2.710  1.00  0.00     0.031 A 
ATOM     28  C   UNL     1      -0.911  -6.444   1.718  1.00  0.00     0.074 A 
ATOM     29  C   UNL     1       0.932  -5.285   2.838  1.00  0.00     0.049 A 
ATOM     30  N   UNL     1      -0.279  -7.492   1.241  1.00  0.00    -0.248 NA
ATOM     31  C   UNL     1      -2.271  -6.290   1.178  1.00  0.00     0.031 C 
ATOM     32  C   UNL     1       1.640  -4.288   3.649  1.00  0.00     0.029 A 
ATOM     33  N   UNL     1       1.974  -6.003   2.276  1.00  0.00    -0.354 N 
ATOM     34  C   UNL     1      -1.196  -8.184   0.452  1.00  0.00     0.074 A 
ATOM     35  C   UNL     1      -2.408  -7.392   0.445  1.00  0.00     0.031 C 
ATOM     36  C   UNL     1       2.954  -4.362   3.435  1.00  0.00     0.029 A 
ATOM     37  C   UNL     1       3.216  -5.592   2.720  1.00  0.00     0.049 A 
ATOM     38  H   UNL     1       1.843  -6.732   1.628  1.00  0.00     0.167 HD
ATOM     39  C   UNL     1      -1.047  -9.382  -0.173  1.00  0.00     0.034 A 
ATOM     40  C   UNL     1       4.429  -6.182   2.722  1.00  0.00     0.034 A 
ATOM     41  C   UNL     1       0.191 -10.126  -0.215  1.00  0.00     0.049 A 
ATOM     42  C   UNL     1       4.554  -7.549   2.133  1.00  0.00     0.074 A 
ATOM     43  C   UNL     1       0.434 -11.371  -0.774  1.00  0.00     0.029 A 
ATOM     44  N   UNL     1       1.396  -9.691   0.315  1.00  0.00    -0.354 N 
ATOM     45  N   UNL     1       3.649  -8.255   1.505  1.00  0.00    -0.248 NA
ATOM     46  C   UNL     1       5.857  -8.212   2.271  1.00  0.00     0.031 C 
ATOM     47  C   UNL     1       1.772 -11.707  -0.539  1.00  0.00     0.029 A 
ATOM     48  C   UNL     1       2.378 -10.649   0.118  1.00  0.00     0.049 A 
ATOM     49  H   UNL     1       1.534  -8.827   0.765  1.00  0.00     0.167 HD
ATOM     50  C   UNL     1       4.273  -9.445   1.163  1.00  0.00     0.074 A 
ATOM     51  C   UNL     1       5.644  -9.348   1.623  1.00  0.00     0.031 C 
ATOM     52  C   UNL     1       3.748 -10.529   0.544  1.00  0.00     0.034 A 
BRANCH  39  53
ATOM     53  C   UNL     1      -2.268 -10.028  -0.790  1.00  0.00     0.023 A 
ATOM     54  C   UNL     1      -2.792  -9.585  -2.018  1.00  0.00     0.012 A 
ATOM     55  C   UNL     1      -2.852 -11.150  -0.159  1.00  0.00     0.148 A 
ATOM     56  C   UNL     1      -3.898 -10.224  -2.589  1.00  0.00     0.002 A 
ATOM     57  C   UNL     1      -3.925 -11.805  -0.752  1.00  0.00     0.091 A 
ATOM     58  F   UNL     1      -2.341 -11.559   1.011  1.00  0.00    -0.205 F 
ATOM     59  C   UNL     1      -4.459 -11.335  -1.962  1.00  0.00     0.022 A 
BRANCH  57  60
ATOM     60  S   UNL     1      -4.667 -13.286  -0.054  1.00  0.00     0.127 S 
ATOM     61  O   UNL     1      -5.990 -12.798   0.333  1.00  0.00    -0.237 OA
ATOM     62  O   UNL     1      -4.665 -14.199  -1.198  1.00  0.00    -0.237 OA
ATOM     63  O   UNL     1      -3.807 -13.689   1.049  1.00  0.00    -0.744 OA
ENDBRANCH  57  60
ENDBRANCH  39  53
BRANCH  40  64
ATOM     64  C   UNL     1       5.578  -5.535   3.434  1.00  0.00     0.023 A 
ATOM     65  C   UNL     1       6.717  -5.130   2.715  1.00  0.00     0.012 A 
ATOM     66  C   UNL     1       5.524  -5.278   4.823  1.00  0.00     0.148 A 
ATOM     67  C   UNL     1       7.777  -4.491   3.364  1.00  0.00     0.002 A 
ATOM     68  C   UNL     1       6.539  -4.561   5.442  1.00  0.00     0.091 A 
ATOM     69  F   UNL     1       4.456  -5.707   5.511  1.00  0.00    -0.205 F 
ATOM     70  C   UNL     1       7.678  -4.186   4.720  1.00  0.00     0.022 A 
BRANCH  68  71
ATOM     71  S   UNL     1       6.389  -3.966   7.132  1.00  0.00     0.127 S 
ATOM     72  O   UNL     1       7.287  -4.867   7.848  1.00  0.00    -0.237 OA
ATOM     73  O   UNL     1       6.863  -2.587   7.014  1.00  0.00    -0.237 OA
ATOM     74  O   UNL     1       4.973  -4.080   7.460  1.00  0.00    -0.744 OA
ENDBRANCH  68  71
ENDBRANCH  40  64
BRANCH  52  75
ATOM     75  C   UNL     1       4.678 -11.680   0.281  1.00  0.00     0.023 A 
ATOM     76  C   UNL     1       5.111 -12.498   1.344  1.00  0.00     0.012 A 
ATOM     77  C   UNL     1       5.094 -11.967  -1.032  1.00  0.00     0.148 A 
ATOM     78  C   UNL     1       5.974 -13.566   1.105  1.00  0.00     0.002 A 
ATOM     79  C   UNL     1       5.910 -13.065  -1.269  1.00  0.00     0.091 A 
ATOM     80  F   UNL     1       4.692 -11.156  -2.022  1.00  0.00    -0.205 F 
ATOM     81  C   UNL     1       6.363 -13.857  -0.201  1.00  0.00     0.022 A 
BRANCH  79  82
ATOM     82  S   UNL     1       6.381 -13.569  -2.926  1.00  0.00     0.127 S 
ATOM     83  O   UNL     1       7.806 -13.244  -2.942  1.00  0.00    -0.237 OA
ATOM     84  O   UNL     1       6.082 -15.001  -2.908  1.00  0.00    -0.237 OA
ATOM     85  O   UNL     1       5.553 -12.789  -3.836  1.00  0.00    -0.744 OA
ENDBRANCH  79  82
ENDBRANCH  52  75
ENDBRANCH  26  27
ENDBRANCH  19  21
ENDBRANCH  18  19
ENDBRANCH   1  18
TORSDOF 15
