REMARK SMILES CC(C)Oc1ccc(/C=C(\NC(=O)c2ccccc2)C(=O)OCCOC(=O)c2ccc(-c3c4nc(c(-c5cccc(S(=O)(=O)[O-])c5F)c5ccc([nH]5)c(-c5cccc(S(=O)(=O)[O-])c5F)c5nc(c(-c6cccc(S(=O)(=O)[O-])c6F)c6ccc3[nH]6)C=C5)C=C4)cc2)cc1
REMARK SMILES IDX 23 1 22 2 20 3 21 4 10 5 9 6 8 7 5 8 6 9 92 10 7 11 91 12
REMARK SMILES IDX 4 13 2 14 1 15 3 16 11 17 12 18 13 20 14 21 15 22 19 23
REMARK SMILES IDX 16 24 18 25 17 26 24 27 25 28 26 29 27 30 28 31 29 32 90 33
REMARK SMILES IDX 30 34 89 35 31 36 32 37 33 38 83 39 34 40 88 41 82 42 84 43
REMARK SMILES IDX 35 44 87 45 81 46 80 47 36 49 68 50 48 51 67 52 49 53 52 54
REMARK SMILES IDX 66 55 85 56 50 57 51 58 65 60 86 61 53 62 37 63 38 64 46 65
REMARK SMILES IDX 39 66 41 67 47 68 40 69 42 70 43 71 44 72 45 73 69 74 70 75
REMARK SMILES IDX 78 76 71 77 73 78 79 79 72 80 74 81 75 82 76 83 77 84 54 85
REMARK SMILES IDX 55 86 63 87 56 88 58 89 64 90 57 91 59 92 60 93 61 94 62 95
REMARK H PARENT 11 19 84 48 52 59
REMARK Flexibility Score: inf
ROOT
ATOM      1  C   UNL     1      -7.393   2.656   6.628  1.00  0.00     0.275 C 
ENDROOT
BRANCH   1   2
ATOM      2  O   UNL     1      -6.692   1.664   5.847  1.00  0.00    -0.457 OA
BRANCH   2   3
ATOM      3  C   UNL     1      -6.496   1.951   4.534  1.00  0.00     0.354 C 
ATOM      4  O   UNL     1      -6.790   2.998   3.975  1.00  0.00    -0.244 OA
BRANCH   3   5
ATOM      5  C   UNL     1      -5.803   0.810   3.840  1.00  0.00     0.128 C 
ATOM      6  C   UNL     1      -4.715   1.191   3.133  1.00  0.00     0.042 C 
BRANCH   6   7
ATOM      7  C   UNL     1      -3.688   0.439   2.374  1.00  0.00    -0.023 A 
ATOM      8  C   UNL     1      -1.617  -0.764   0.838  1.00  0.00     0.119 A 
ATOM      9  C   UNL     1      -2.880  -1.355   0.944  1.00  0.00     0.047 A 
ATOM     10  C   UNL     1      -1.395   0.440   1.487  1.00  0.00     0.047 A 
ATOM     11  C   UNL     1      -3.909  -0.759   1.693  1.00  0.00     0.012 A 
ATOM     12  C   UNL     1      -2.418   1.030   2.247  1.00  0.00     0.012 A 
BRANCH   8  13
ATOM     13  O   UNL     1      -0.749  -1.401   0.005  1.00  0.00    -0.491 OA
BRANCH  13  14
ATOM     14  C   UNL     1       0.669  -1.406   0.227  1.00  0.00     0.167 C 
ATOM     15  C   UNL     1       1.381  -0.123  -0.189  1.00  0.00     0.052 C 
ATOM     16  C   UNL     1       1.071  -1.908   1.610  1.00  0.00     0.052 C 
ENDBRANCH  13  14
ENDBRANCH   8  13
ENDBRANCH   6   7
BRANCH   5  17
ATOM     17  N   UNL     1      -6.205  -0.502   3.958  1.00  0.00    -0.316 N 
ATOM     18  C   UNL     1      -7.356  -1.108   4.407  1.00  0.00     0.255 C 
ATOM     19  H   UNL     1      -5.522  -1.144   3.656  1.00  0.00     0.170 HD
ATOM     20  O   UNL     1      -7.400  -2.339   4.454  1.00  0.00    -0.269 OA
BRANCH  18  21
ATOM     21  C   UNL     1      -8.565  -0.363   4.821  1.00  0.00     0.040 A 
ATOM     22  C   UNL     1      -9.146  -0.716   6.047  1.00  0.00     0.014 A 
ATOM     23  C   UNL     1      -9.150   0.635   4.035  1.00  0.00     0.014 A 
ATOM     24  C   UNL     1     -10.264  -0.027   6.518  1.00  0.00     0.001 A 
ATOM     25  C   UNL     1     -10.258   1.337   4.521  1.00  0.00     0.001 A 
ATOM     26  C   UNL     1     -10.809   1.010   5.762  1.00  0.00     0.000 A 
ENDBRANCH  18  21
ENDBRANCH   5  17
ENDBRANCH   3   5
ENDBRANCH   2   3
ENDBRANCH   1   2
BRANCH   1  27
ATOM     27  C   UNL     1      -6.759   2.803   8.012  1.00  0.00     0.275 C 
BRANCH  27  28
ATOM     28  O   UNL     1      -5.557   3.581   7.904  1.00  0.00    -0.458 OA
BRANCH  28  29
ATOM     29  C   UNL     1      -4.455   2.860   7.599  1.00  0.00     0.338 C 
ATOM     30  O   UNL     1      -4.327   1.650   7.609  1.00  0.00    -0.246 OA
BRANCH  29  31
ATOM     31  C   UNL     1      -3.477   3.772   7.000  1.00  0.00     0.060 A 
ATOM     32  C   UNL     1      -3.201   3.596   5.644  1.00  0.00     0.016 A 
ATOM     33  C   UNL     1      -2.814   4.740   7.749  1.00  0.00     0.016 A 
ATOM     34  C   UNL     1      -2.220   4.358   5.025  1.00  0.00     0.010 A 
ATOM     35  C   UNL     1      -1.832   5.511   7.127  1.00  0.00     0.010 A 
ATOM     36  C   UNL     1      -1.508   5.300   5.772  1.00  0.00    -0.014 A 
BRANCH  36  37
ATOM     37  C   UNL     1      -0.326   5.970   5.183  1.00  0.00     0.031 A 
ATOM     38  C   UNL     1       1.035   5.607   5.706  1.00  0.00     0.074 A 
ATOM     39  C   UNL     1      -0.470   6.880   4.202  1.00  0.00     0.049 A 
ATOM     40  N   UNL     1       2.182   6.196   5.508  1.00  0.00    -0.248 NA
ATOM     41  C   UNL     1       1.109   4.425   6.584  1.00  0.00     0.031 C 
ATOM     42  C   UNL     1      -1.738   7.264   3.581  1.00  0.00     0.029 A 
ATOM     43  N   UNL     1       0.462   7.664   3.572  1.00  0.00    -0.354 N 
ATOM     44  C   UNL     1       3.100   5.504   6.289  1.00  0.00     0.074 A 
ATOM     45  C   UNL     1       2.381   4.441   6.955  1.00  0.00     0.031 C 
ATOM     46  C   UNL     1      -1.508   8.226   2.672  1.00  0.00     0.029 A 
ATOM     47  C   UNL     1      -0.089   8.565   2.690  1.00  0.00     0.049 A 
ATOM     48  H   UNL     1       1.430   7.589   3.735  1.00  0.00     0.167 HD
ATOM     49  C   UNL     1       4.426   5.734   6.429  1.00  0.00     0.034 A 
ATOM     50  C   UNL     1       0.487   9.577   2.012  1.00  0.00     0.034 A 
ATOM     51  C   UNL     1       5.133   6.759   5.712  1.00  0.00     0.049 A 
ATOM     52  C   UNL     1       1.964   9.812   2.188  1.00  0.00     0.074 A 
ATOM     53  C   UNL     1       6.474   7.088   5.774  1.00  0.00     0.029 A 
ATOM     54  N   UNL     1       4.552   7.608   4.781  1.00  0.00    -0.354 N 
ATOM     55  N   UNL     1       2.825   9.145   2.921  1.00  0.00    -0.248 NA
ATOM     56  C   UNL     1       2.554  10.927   1.435  1.00  0.00     0.031 C 
ATOM     57  C   UNL     1       6.705   8.135   4.876  1.00  0.00     0.029 A 
ATOM     58  C   UNL     1       5.510   8.449   4.247  1.00  0.00     0.049 A 
ATOM     59  H   UNL     1       3.598   7.611   4.537  1.00  0.00     0.167 HD
ATOM     60  C   UNL     1       4.060   9.739   2.694  1.00  0.00     0.074 A 
ATOM     61  C   UNL     1       3.840  10.804   1.736  1.00  0.00     0.031 C 
ATOM     62  C   UNL     1       5.266   9.451   3.243  1.00  0.00     0.034 A 
BRANCH  49  63
ATOM     63  C   UNL     1       5.199   4.846   7.367  1.00  0.00     0.023 A 
ATOM     64  C   UNL     1       5.500   3.524   6.985  1.00  0.00     0.012 A 
ATOM     65  C   UNL     1       5.672   5.334   8.602  1.00  0.00     0.148 A 
ATOM     66  C   UNL     1       6.238   2.692   7.827  1.00  0.00     0.002 A 
ATOM     67  C   UNL     1       6.440   4.512   9.418  1.00  0.00     0.091 A 
ATOM     68  F   UNL     1       5.356   6.588   8.956  1.00  0.00    -0.205 F 
ATOM     69  C   UNL     1       6.716   3.189   9.037  1.00  0.00     0.022 A 
BRANCH  67  70
ATOM     70  S   UNL     1       7.161   5.075  10.965  1.00  0.00     0.127 S 
ATOM     71  O   UNL     1       6.411   4.289  11.944  1.00  0.00    -0.237 OA
ATOM     72  O   UNL     1       8.562   4.682  10.811  1.00  0.00    -0.237 OA
ATOM     73  O   UNL     1       6.933   6.513  11.016  1.00  0.00    -0.744 OA
ENDBRANCH  67  70
ENDBRANCH  49  63
BRANCH  50  74
ATOM     74  C   UNL     1      -0.326  10.433   1.100  1.00  0.00     0.023 A 
ATOM     75  C   UNL     1      -0.097  10.377  -0.288  1.00  0.00     0.012 A 
ATOM     76  C   UNL     1      -1.333  11.287   1.592  1.00  0.00     0.148 A 
ATOM     77  C   UNL     1      -0.833  11.176  -1.165  1.00  0.00     0.002 A 
ATOM     78  C   UNL     1      -2.103  12.036   0.708  1.00  0.00     0.091 A 
ATOM     79  F   UNL     1      -1.523  11.354   2.917  1.00  0.00    -0.205 F 
ATOM     80  C   UNL     1      -1.844  11.995  -0.670  1.00  0.00     0.022 A 
BRANCH  78  81
ATOM     81  S   UNL     1      -3.511  13.000   1.268  1.00  0.00     0.127 S 
ATOM     82  O   UNL     1      -2.942  14.341   1.359  1.00  0.00    -0.237 OA
ATOM     83  O   UNL     1      -4.472  12.812   0.180  1.00  0.00    -0.237 OA
ATOM     84  O   UNL     1      -3.914  12.385   2.527  1.00  0.00    -0.744 OA
ENDBRANCH  78  81
ENDBRANCH  50  74
BRANCH  62  85
ATOM     85  C   UNL     1       6.445  10.265   2.786  1.00  0.00     0.023 A 
ATOM     86  C   UNL     1       6.606  11.583   3.256  1.00  0.00     0.012 A 
ATOM     87  C   UNL     1       7.430   9.695   1.957  1.00  0.00     0.148 A 
ATOM     88  C   UNL     1       7.720  12.333   2.884  1.00  0.00     0.002 A 
ATOM     89  C   UNL     1       8.559  10.434   1.626  1.00  0.00     0.091 A 
ATOM     90  F   UNL     1       7.243   8.446   1.506  1.00  0.00    -0.205 F 
ATOM     91  C   UNL     1       8.701  11.755   2.080  1.00  0.00     0.022 A 
BRANCH  89  92
ATOM     92  S   UNL     1       9.911   9.737   0.672  1.00  0.00     0.127 S 
ATOM     93  O   UNL     1       9.709  10.364  -0.633  1.00  0.00    -0.237 OA
ATOM     94  O   UNL     1      11.087  10.213   1.403  1.00  0.00    -0.237 OA
ATOM     95  O   UNL     1       9.724   8.293   0.711  1.00  0.00    -0.744 OA
ENDBRANCH  89  92
ENDBRANCH  62  85
ENDBRANCH  36  37
ENDBRANCH  29  31
ENDBRANCH  28  29
ENDBRANCH  27  28
ENDBRANCH   1  27
TORSDOF 19
