REMARK SMILES NC(=O)COc1ccc(/C=C2\SC(=S)N(CCC(=O)OCCOC(=O)c3ccc(-c4c5nc(c(-c6cccc(S(=O)(=O)[O-])c6F)c6ccc([nH]6)c(-c6cccc(S(=O)(=O)[O-])c6F)c6nc(c(-c7cccc(S(=O)(=O)[O-])c7F)c7ccc4[nH]7)C=C6)C=C5)cc3)C2=O)cc1
REMARK SMILES IDX 20 1 18 2 19 3 17 4 16 5 15 6 10 7 11 8 12 9 89 10 13 11
REMARK SMILES IDX 90 12 14 13 9 14 6 15 7 16 92 17 8 18 91 19 5 20 4 21 2 22
REMARK SMILES IDX 1 23 3 26 21 27 22 28 23 29 24 30 25 31 26 32 27 33 88 34
REMARK SMILES IDX 28 35 87 36 29 37 30 38 31 39 81 40 32 41 86 42 80 43 82 44
REMARK SMILES IDX 33 45 85 46 79 47 78 48 34 50 66 51 46 52 65 53 47 54 50 55
REMARK SMILES IDX 64 56 83 57 48 58 49 59 63 61 84 62 51 63 35 64 36 65 44 66
REMARK SMILES IDX 37 67 39 68 45 69 38 70 40 71 41 72 42 73 43 74 67 75 68 76
REMARK SMILES IDX 76 77 69 78 71 79 77 80 70 81 72 82 73 83 74 84 75 85 52 86
REMARK SMILES IDX 53 87 61 88 54 89 56 90 62 91 55 92 57 93 58 94 59 95 60 96
REMARK H PARENT 1 24 1 25 82 49 50 60
REMARK Flexibility Score: inf
ROOT
ATOM      1  O   UNL     1      -0.305   3.476  -9.869  1.00  0.00    -0.462 OA
ENDROOT
BRANCH   1   2
ATOM      2  C   UNL     1      -0.113   4.650 -10.516  1.00  0.00     0.307 C 
ATOM      3  O   UNL     1      -0.027   4.774 -11.730  1.00  0.00    -0.252 OA
BRANCH   2   4
ATOM      4  C   UNL     1       0.083   5.805  -9.561  1.00  0.00     0.144 C 
BRANCH   4   5
ATOM      5  C   UNL     1      -0.968   5.905  -8.451  1.00  0.00     0.139 C 
BRANCH   5   6
ATOM      6  N   UNL     1      -0.617   5.078  -7.295  1.00  0.00    -0.292 N 
ATOM      7  C   UNL     1      -0.611   1.711  -6.119  1.00  0.00     0.029 C 
ATOM      8  C   UNL     1      -0.465   3.040  -6.162  1.00  0.00     0.081 C 
ATOM      9  S   UNL     1       0.553   4.059  -5.235  1.00  0.00    -0.054 SA
ATOM     10  C   UNL     1      -1.192   3.829  -7.172  1.00  0.00     0.266 C 
ATOM     11  C   UNL     1       0.282   5.430  -6.310  1.00  0.00     0.148 C 
ATOM     12  O   UNL     1      -2.155   3.386  -7.775  1.00  0.00    -0.268 OA
ATOM     13  S   UNL     1       1.073   6.884  -6.103  1.00  0.00    -0.052 S 
BRANCH   7  14
ATOM     14  C   UNL     1       0.028   0.850  -5.135  1.00  0.00    -0.024 A 
ATOM     15  C   UNL     1       1.215  -0.745  -3.183  1.00  0.00     0.120 A 
ATOM     16  C   UNL     1       1.683  -0.789  -4.498  1.00  0.00     0.047 A 
ATOM     17  C   UNL     1       0.168   0.111  -2.843  1.00  0.00     0.047 A 
ATOM     18  C   UNL     1       1.080   0.000  -5.481  1.00  0.00     0.012 A 
ATOM     19  C   UNL     1      -0.429   0.899  -3.818  1.00  0.00     0.012 A 
BRANCH  15  20
ATOM     20  O   UNL     1       1.876  -1.515  -2.264  1.00  0.00    -0.484 OA
BRANCH  20  21
ATOM     21  C   UNL     1       1.006  -2.283  -1.434  1.00  0.00     0.329 C 
BRANCH  21  22
ATOM     22  C   UNL     1       0.520  -1.585  -0.162  1.00  0.00     0.255 C 
ATOM     23  N   UNL     1       1.312  -0.570   0.295  1.00  0.00    -0.367 N 
ATOM     24  H   UNL     1       1.059  -0.077   1.109  1.00  0.00     0.159 HD
ATOM     25  H   UNL     1       2.135  -0.332  -0.189  1.00  0.00     0.159 HD
ATOM     26  O   UNL     1      -0.500  -1.909   0.438  1.00  0.00    -0.271 OA
ENDBRANCH  21  22
ENDBRANCH  20  21
ENDBRANCH  15  20
ENDBRANCH   7  14
ENDBRANCH   5   6
ENDBRANCH   4   5
ENDBRANCH   2   4
ENDBRANCH   1   2
BRANCH   1  27
ATOM     27  C   UNL     1      -0.571   2.315 -10.682  1.00  0.00     0.274 C 
BRANCH  27  28
ATOM     28  C   UNL     1      -2.070   2.096 -10.911  1.00  0.00     0.275 C 
BRANCH  28  29
ATOM     29  O   UNL     1      -2.600   3.090 -11.804  1.00  0.00    -0.458 OA
BRANCH  29  30
ATOM     30  C   UNL     1      -3.357   4.046 -11.224  1.00  0.00     0.338 C 
ATOM     31  O   UNL     1      -3.697   4.136 -10.059  1.00  0.00    -0.246 OA
BRANCH  30  32
ATOM     32  C   UNL     1      -3.655   5.105 -12.189  1.00  0.00     0.060 A 
ATOM     33  C   UNL     1      -3.047   6.349 -12.001  1.00  0.00     0.016 A 
ATOM     34  C   UNL     1      -4.640   4.920 -13.158  1.00  0.00     0.016 A 
ATOM     35  C   UNL     1      -3.449   7.434 -12.767  1.00  0.00     0.010 A 
ATOM     36  C   UNL     1      -5.038   6.010 -13.931  1.00  0.00     0.010 A 
ATOM     37  C   UNL     1      -4.467   7.276 -13.714  1.00  0.00    -0.014 A 
BRANCH  37  38
ATOM     38  C   UNL     1      -4.993   8.468 -14.412  1.00  0.00     0.031 A 
ATOM     39  C   UNL     1      -6.312   9.048 -13.990  1.00  0.00     0.074 A 
ATOM     40  C   UNL     1      -4.278   9.026 -15.404  1.00  0.00     0.049 A 
ATOM     41  N   UNL     1      -6.953  10.077 -14.477  1.00  0.00    -0.248 NA
ATOM     42  C   UNL     1      -7.003   8.382 -12.873  1.00  0.00     0.031 C 
ATOM     43  C   UNL     1      -2.986   8.537 -15.889  1.00  0.00     0.029 A 
ATOM     44  N   UNL     1      -4.543  10.116 -16.190  1.00  0.00    -0.354 N 
ATOM     45  C   UNL     1      -8.137  10.161 -13.755  1.00  0.00     0.074 A 
ATOM     46  C   UNL     1      -8.129   9.077 -12.798  1.00  0.00     0.031 C 
ATOM     47  C   UNL     1      -2.578   9.318 -16.902  1.00  0.00     0.029 A 
ATOM     48  C   UNL     1      -3.586  10.345 -17.148  1.00  0.00     0.049 A 
ATOM     49  H   UNL     1      -5.343  10.680 -16.079  1.00  0.00     0.167 HD
ATOM     50  C   UNL     1      -9.132  11.072 -13.871  1.00  0.00     0.034 A 
ATOM     51  C   UNL     1      -3.536  11.278 -18.118  1.00  0.00     0.034 A 
ATOM     52  C   UNL     1      -9.111  12.168 -14.802  1.00  0.00     0.049 A 
ATOM     53  C   UNL     1      -4.640  12.296 -18.202  1.00  0.00     0.074 A 
ATOM     54  C   UNL     1     -10.056  13.162 -14.984  1.00  0.00     0.029 A 
ATOM     55  N   UNL     1      -8.088  12.416 -15.704  1.00  0.00    -0.354 N 
ATOM     56  N   UNL     1      -5.705  12.423 -17.446  1.00  0.00    -0.248 NA
ATOM     57  C   UNL     1      -4.519  13.324 -19.245  1.00  0.00     0.031 C 
ATOM     58  C   UNL     1      -9.603  14.012 -16.000  1.00  0.00     0.029 A 
ATOM     59  C   UNL     1      -8.372  13.552 -16.442  1.00  0.00     0.049 A 
ATOM     60  H   UNL     1      -7.278  11.865 -15.805  1.00  0.00     0.167 HD
ATOM     61  C   UNL     1      -6.361  13.562 -17.897  1.00  0.00     0.074 A 
ATOM     62  C   UNL     1      -5.562  14.100 -18.981  1.00  0.00     0.031 C 
ATOM     63  C   UNL     1      -7.527  14.104 -17.469  1.00  0.00     0.034 A 
BRANCH  50  64
ATOM     64  C   UNL     1     -10.306  10.943 -12.939  1.00  0.00     0.023 A 
ATOM     65  C   UNL     1     -10.164  11.326 -11.590  1.00  0.00     0.012 A 
ATOM     66  C   UNL     1     -11.555  10.487 -13.400  1.00  0.00     0.148 A 
ATOM     67  C   UNL     1     -11.241  11.233 -10.708  1.00  0.00     0.002 A 
ATOM     68  C   UNL     1     -12.634  10.431 -12.524  1.00  0.00     0.091 A 
ATOM     69  F   UNL     1     -11.664  10.099 -14.679  1.00  0.00    -0.205 F 
ATOM     70  C   UNL     1     -12.476  10.796 -11.177  1.00  0.00     0.022 A 
BRANCH  68  71
ATOM     71  S   UNL     1     -14.280   9.945 -13.055  1.00  0.00     0.127 S 
ATOM     72  O   UNL     1     -14.371   8.585 -12.527  1.00  0.00    -0.237 OA
ATOM     73  O   UNL     1     -15.130  10.921 -12.373  1.00  0.00    -0.237 OA
ATOM     74  O   UNL     1     -14.278  10.058 -14.507  1.00  0.00    -0.744 OA
ENDBRANCH  68  71
ENDBRANCH  50  64
BRANCH  51  75
ATOM     75  C   UNL     1      -2.364  11.327 -19.035  1.00  0.00     0.023 A 
ATOM     76  C   UNL     1      -1.438  12.381 -18.916  1.00  0.00     0.012 A 
ATOM     77  C   UNL     1      -2.134  10.316 -19.987  1.00  0.00     0.148 A 
ATOM     78  C   UNL     1      -0.318  12.440 -19.745  1.00  0.00     0.002 A 
ATOM     79  C   UNL     1      -0.989  10.352 -20.774  1.00  0.00     0.091 A 
ATOM     80  F   UNL     1      -3.036   9.330 -20.100  1.00  0.00    -0.205 F 
ATOM     81  C   UNL     1      -0.086  11.421 -20.665  1.00  0.00     0.022 A 
BRANCH  79  82
ATOM     82  S   UNL     1      -0.553   9.009 -21.885  1.00  0.00     0.127 S 
ATOM     83  O   UNL     1      -0.940   9.555 -23.183  1.00  0.00    -0.237 OA
ATOM     84  O   UNL     1       0.890   8.887 -21.673  1.00  0.00    -0.237 OA
ATOM     85  O   UNL     1      -1.321   7.861 -21.420  1.00  0.00    -0.744 OA
ENDBRANCH  79  82
ENDBRANCH  51  75
BRANCH  63  86
ATOM     86  C   UNL     1      -7.995  15.364 -18.145  1.00  0.00     0.023 A 
ATOM     87  C   UNL     1      -8.553  15.294 -19.437  1.00  0.00     0.012 A 
ATOM     88  C   UNL     1      -7.948  16.602 -17.476  1.00  0.00     0.148 A 
ATOM     89  C   UNL     1      -9.032  16.444 -20.063  1.00  0.00     0.002 A 
ATOM     90  C   UNL     1      -8.466  17.736 -18.090  1.00  0.00     0.091 A 
ATOM     91  F   UNL     1      -7.391  16.654 -16.257  1.00  0.00    -0.205 F 
ATOM     92  C   UNL     1      -9.000  17.661 -19.386  1.00  0.00     0.022 A 
BRANCH  90  93
ATOM     93  S   UNL     1      -8.538  19.319 -17.242  1.00  0.00     0.127 S 
ATOM     94  O   UNL     1      -7.335  19.982 -17.742  1.00  0.00    -0.237 OA
ATOM     95  O   UNL     1      -9.795  19.887 -17.732  1.00  0.00    -0.237 OA
ATOM     96  O   UNL     1      -8.542  18.998 -15.821  1.00  0.00    -0.744 OA
ENDBRANCH  90  93
ENDBRANCH  63  86
ENDBRANCH  37  38
ENDBRANCH  30  32
ENDBRANCH  29  30
ENDBRANCH  28  29
ENDBRANCH  27  28
ENDBRANCH   1  27
TORSDOF 20
