REMARK SMILES CSc1ccc(C[C@H]([NH3+])C(=O)OCCOC(=O)c2ccc(-c3c4nc(c(-c5cccc(S(=O)(=O)[O-])c5F)c5ccc([nH]5)c(-c5cccc(S(=O)(=O)[O-])c5F)c5nc(c(-c6cccc(S(=O)(=O)[O-])c6F)c6ccc3[nH]6)C=C5)C=C4)cc2)cc1
REMARK SMILES IDX 13 1 12 2 10 3 11 4 8 5 7 6 6 7 3 8 4 9 82 10 5 11 81 12
REMARK SMILES IDX 2 13 1 14 9 15 14 19 15 20 16 21 17 22 18 23 19 24 80 25
REMARK SMILES IDX 20 26 79 27 21 28 22 29 23 30 73 31 24 32 78 33 72 34 74 35
REMARK SMILES IDX 25 36 77 37 71 38 70 39 26 41 58 42 38 43 57 44 39 45 42 46
REMARK SMILES IDX 56 47 75 48 40 49 41 50 55 52 76 53 43 54 27 55 28 56 36 57
REMARK SMILES IDX 29 58 31 59 37 60 30 61 32 62 33 63 34 64 35 65 59 66 60 67
REMARK SMILES IDX 68 68 61 69 63 70 69 71 62 72 64 73 65 74 66 75 67 76 44 77
REMARK SMILES IDX 45 78 53 79 46 80 48 81 54 82 47 83 49 84 50 85 51 86 52 87
REMARK H PARENT 9 16 9 17 9 18 74 40 42 51
REMARK Flexibility Score: inf
ROOT
ATOM      1  C   UNL     1       3.961  10.308   1.711  1.00  0.00     0.274 C 
ENDROOT
BRANCH   1   2
ATOM      2  O   UNL     1       3.749   8.930   1.355  1.00  0.00    -0.458 OA
BRANCH   2   3
ATOM      3  C   UNL     1       2.861   8.226   2.119  1.00  0.00     0.365 C 
ATOM      4  O   UNL     1       2.368   8.624   3.166  1.00  0.00    -0.245 OA
BRANCH   3   5
ATOM      5  C   UNL     1       2.566   6.844   1.509  1.00  0.00     0.296 C 
BRANCH   5   6
ATOM      6  C   UNL     1       3.328   5.786   2.325  1.00  0.00     0.113 C 
BRANCH   6   7
ATOM      7  C   UNL     1       3.558   4.480   1.604  1.00  0.00    -0.041 A 
ATOM      8  C   UNL     1       4.007   2.116   0.128  1.00  0.00     0.007 A 
ATOM      9  C   UNL     1       2.721   2.448   0.566  1.00  0.00     0.015 A 
ATOM     10  C   UNL     1       5.067   2.969   0.455  1.00  0.00     0.015 A 
ATOM     11  C   UNL     1       2.496   3.621   1.297  1.00  0.00     0.005 A 
ATOM     12  C   UNL     1       4.847   4.138   1.184  1.00  0.00     0.005 A 
BRANCH   8  13
ATOM     13  S   UNL     1       4.408   0.647  -0.811  1.00  0.00    -0.130 SA
ATOM     14  C   UNL     1       2.829   0.247  -1.605  1.00  0.00     0.091 C 
ENDBRANCH   8  13
ENDBRANCH   6   7
ENDBRANCH   5   6
BRANCH   5  15
ATOM     15  N   UNL     1       2.841   6.834   0.050  1.00  0.00    -0.346 N 
ATOM     16  H   UNL     1       3.823   7.057  -0.113  1.00  0.00     0.345 HD
ATOM     17  H   UNL     1       2.253   7.528  -0.412  1.00  0.00     0.345 HD
ATOM     18  H   UNL     1       2.635   5.909  -0.329  1.00  0.00     0.345 HD
ENDBRANCH   5  15
ENDBRANCH   3   5
ENDBRANCH   2   3
ENDBRANCH   1   2
BRANCH   1  19
ATOM     19  C   UNL     1       3.194  11.240   0.766  1.00  0.00     0.275 C 
BRANCH  19  20
ATOM     20  O   UNL     1       1.773  11.186   0.995  1.00  0.00    -0.458 OA
BRANCH  20  21
ATOM     21  C   UNL     1       1.110  10.236   0.294  1.00  0.00     0.338 C 
ATOM     22  O   UNL     1       1.585   9.454  -0.514  1.00  0.00    -0.246 OA
BRANCH  21  23
ATOM     23  C   UNL     1      -0.283  10.149   0.763  1.00  0.00     0.060 A 
ATOM     24  C   UNL     1      -0.731   8.912   1.233  1.00  0.00     0.016 A 
ATOM     25  C   UNL     1      -1.155  11.235   0.683  1.00  0.00     0.016 A 
ATOM     26  C   UNL     1      -2.056   8.747   1.620  1.00  0.00     0.010 A 
ATOM     27  C   UNL     1      -2.489  11.068   1.072  1.00  0.00     0.010 A 
ATOM     28  C   UNL     1      -2.948   9.820   1.530  1.00  0.00    -0.014 A 
BRANCH  28  29
ATOM     29  C   UNL     1      -4.373   9.612   1.879  1.00  0.00     0.031 A 
ATOM     30  C   UNL     1      -5.404   9.540   0.791  1.00  0.00     0.074 A 
ATOM     31  C   UNL     1      -4.730   9.476   3.169  1.00  0.00     0.049 A 
ATOM     32  N   UNL     1      -6.702   9.418   0.892  1.00  0.00    -0.248 NA
ATOM     33  C   UNL     1      -4.912   9.617  -0.595  1.00  0.00     0.031 C 
ATOM     34  C   UNL     1      -3.810   9.511   4.306  1.00  0.00     0.029 A 
ATOM     35  N   UNL     1      -5.964   9.296   3.740  1.00  0.00    -0.354 N 
ATOM     36  C   UNL     1      -7.187   9.445  -0.409  1.00  0.00     0.074 A 
ATOM     37  C   UNL     1      -6.045   9.593  -1.284  1.00  0.00     0.031 C 
ATOM     38  C   UNL     1      -4.514   9.375   5.442  1.00  0.00     0.029 A 
ATOM     39  C   UNL     1      -5.934   9.279   5.115  1.00  0.00     0.049 A 
ATOM     40  H   UNL     1      -6.791   9.190   3.217  1.00  0.00     0.167 HD
ATOM     41  C   UNL     1      -8.469   9.341  -0.834  1.00  0.00     0.034 A 
ATOM     42  C   UNL     1      -6.940   9.218   6.008  1.00  0.00     0.034 A 
ATOM     43  C   UNL     1      -9.595   9.153   0.040  1.00  0.00     0.049 A 
ATOM     44  C   UNL     1      -8.355   9.112   5.508  1.00  0.00     0.074 A 
ATOM     45  C   UNL     1     -10.928   8.997  -0.297  1.00  0.00     0.029 A 
ATOM     46  N   UNL     1      -9.523   9.097   1.423  1.00  0.00    -0.354 N 
ATOM     47  N   UNL     1      -8.790   9.044   4.272  1.00  0.00    -0.248 NA
ATOM     48  C   UNL     1      -9.417   9.048   6.522  1.00  0.00     0.031 C 
ATOM     49  C   UNL     1     -11.664   8.859   0.885  1.00  0.00     0.029 A 
ATOM     50  C   UNL     1     -10.787   8.915   1.957  1.00  0.00     0.049 A 
ATOM     51  H   UNL     1      -8.694   9.175   1.949  1.00  0.00     0.167 HD
ATOM     52  C   UNL     1     -10.170   8.904   4.360  1.00  0.00     0.074 A 
ATOM     53  C   UNL     1     -10.496   8.871   5.771  1.00  0.00     0.031 C 
ATOM     54  C   UNL     1     -11.087   8.829   3.364  1.00  0.00     0.034 A 
BRANCH  41  55
ATOM     55  C   UNL     1      -8.718   9.400  -2.317  1.00  0.00     0.023 A 
ATOM     56  C   UNL     1      -8.409   8.284  -3.119  1.00  0.00     0.012 A 
ATOM     57  C   UNL     1      -9.305  10.537  -2.907  1.00  0.00     0.148 A 
ATOM     58  C   UNL     1      -8.657   8.307  -4.491  1.00  0.00     0.002 A 
ATOM     59  C   UNL     1      -9.582  10.538  -4.269  1.00  0.00     0.091 A 
ATOM     60  F   UNL     1      -9.566  11.598  -2.131  1.00  0.00    -0.205 F 
ATOM     61  C   UNL     1      -9.252   9.428  -5.064  1.00  0.00     0.022 A 
BRANCH  59  62
ATOM     62  S   UNL     1     -10.407  11.911  -5.083  1.00  0.00     0.127 S 
ATOM     63  O   UNL     1      -9.300  12.534  -5.806  1.00  0.00    -0.237 OA
ATOM     64  O   UNL     1     -11.383  11.227  -5.934  1.00  0.00    -0.237 OA
ATOM     65  O   UNL     1     -10.993  12.712  -4.017  1.00  0.00    -0.744 OA
ENDBRANCH  59  62
ENDBRANCH  41  55
BRANCH  42  66
ATOM     66  C   UNL     1      -6.637   9.222   7.467  1.00  0.00     0.023 A 
ATOM     67  C   UNL     1      -6.846   8.052   8.222  1.00  0.00     0.012 A 
ATOM     68  C   UNL     1      -6.108  10.363   8.101  1.00  0.00     0.148 A 
ATOM     69  C   UNL     1      -6.554   8.025   9.586  1.00  0.00     0.002 A 
ATOM     70  C   UNL     1      -5.768  10.312   9.448  1.00  0.00     0.091 A 
ATOM     71  F   UNL     1      -5.939  11.476   7.372  1.00  0.00    -0.205 F 
ATOM     72  C   UNL     1      -6.004   9.149  10.196  1.00  0.00     0.022 A 
BRANCH  70  73
ATOM     73  S   UNL     1      -4.932  11.672  10.274  1.00  0.00     0.127 S 
ATOM     74  O   UNL     1      -6.014  12.253  11.064  1.00  0.00    -0.237 OA
ATOM     75  O   UNL     1      -3.907  10.974  11.052  1.00  0.00    -0.237 OA
ATOM     76  O   UNL     1      -4.402  12.508   9.205  1.00  0.00    -0.744 OA
ENDBRANCH  70  73
ENDBRANCH  42  66
BRANCH  54  77
ATOM     77  C   UNL     1     -12.532   8.682   3.758  1.00  0.00     0.023 A 
ATOM     78  C   UNL     1     -13.229   9.795   4.267  1.00  0.00     0.012 A 
ATOM     79  C   UNL     1     -13.217   7.469   3.553  1.00  0.00     0.148 A 
ATOM     80  C   UNL     1     -14.582   9.695   4.591  1.00  0.00     0.002 A 
ATOM     81  C   UNL     1     -14.576   7.389   3.837  1.00  0.00     0.091 A 
ATOM     82  F   UNL     1     -12.531   6.415   3.087  1.00  0.00    -0.205 F 
ATOM     83  C   UNL     1     -15.257   8.498   4.365  1.00  0.00     0.022 A 
BRANCH  81  84
ATOM     84  S   UNL     1     -15.541   5.914   3.491  1.00  0.00     0.127 S 
ATOM     85  O   UNL     1     -15.692   5.336   4.825  1.00  0.00    -0.237 OA
ATOM     86  O   UNL     1     -16.771   6.469   2.924  1.00  0.00    -0.237 OA
ATOM     87  O   UNL     1     -14.748   5.132   2.552  1.00  0.00    -0.744 OA
ENDBRANCH  81  84
ENDBRANCH  54  77
ENDBRANCH  28  29
ENDBRANCH  21  23
ENDBRANCH  20  21
ENDBRANCH  19  20
ENDBRANCH   1  19
TORSDOF 18
