REMARK SMILES O=C(OCCOC(=O)c1cc(SCc2csc(-c3ccsc3)n2)ccn1)c1ccc(-c2c3nc(c(-c4cccc(S(=O)(=O)[O-])c4F)c4ccc([nH]4)c(-c4cccc(S(=O)(=O)[O-])c4F)c4nc(c(-c5cccc(S(=O)(=O)[O-])c5F)c5ccc2[nH]5)C=C4)C=C3)cc1
REMARK SMILES IDX 5 1 4 2 3 3 2 4 1 5 27 6 28 7 89 8 29 9 88 10 30 11 31 12
REMARK SMILES IDX 32 13 82 14 33 15 87 16 81 17 83 18 34 19 86 20 80 21 79 22
REMARK SMILES IDX 35 24 67 25 47 26 66 27 48 28 51 29 65 30 84 31 49 32 50 33
REMARK SMILES IDX 64 35 85 36 52 37 36 38 37 39 45 40 38 41 40 42 46 43 39 44
REMARK SMILES IDX 41 45 42 46 43 47 44 48 68 49 69 50 77 51 70 52 72 53 78 54
REMARK SMILES IDX 71 55 73 56 74 57 75 58 76 59 53 60 54 61 62 62 55 63 57 64
REMARK SMILES IDX 63 65 56 66 58 67 59 68 60 69 61 70 6 71 7 72 8 73 9 74
REMARK SMILES IDX 10 75 26 76 11 77 25 78 24 79 12 80 13 81 14 82 15 83 23 84
REMARK SMILES IDX 16 85 17 86 18 87 19 88 22 89 20 90 21 91
REMARK H PARENT 83 23 51 34
REMARK Flexibility Score: inf
ROOT
ATOM      1  C   UNL     1       4.016   1.388   1.608  1.00  0.00     0.275 C 
ENDROOT
BRANCH   1   2
ATOM      2  C   UNL     1       4.167   1.286   0.089  1.00  0.00     0.275 C 
BRANCH   2   3
ATOM      3  O   UNL     1       2.953   0.845  -0.552  1.00  0.00    -0.458 OA
BRANCH   3   4
ATOM      4  C   UNL     1       2.572  -0.361  -1.037  1.00  0.00     0.338 C 
ATOM      5  O   UNL     1       1.611  -0.380  -1.808  1.00  0.00    -0.246 OA
BRANCH   4   6
ATOM      6  C   UNL     1       3.216  -1.682  -0.705  1.00  0.00     0.060 A 
ATOM      7  C   UNL     1       4.398  -1.873   0.005  1.00  0.00     0.016 A 
ATOM      8  C   UNL     1       2.557  -2.845  -1.165  1.00  0.00     0.016 A 
ATOM      9  C   UNL     1       4.922  -3.154   0.207  1.00  0.00     0.010 A 
ATOM     10  C   UNL     1       3.068  -4.136  -0.939  1.00  0.00     0.010 A 
ATOM     11  C   UNL     1       4.275  -4.296  -0.263  1.00  0.00    -0.014 A 
BRANCH  11  12
ATOM     12  C   UNL     1       4.954  -5.607  -0.090  1.00  0.00     0.031 A 
ATOM     13  C   UNL     1       5.790  -6.146  -1.197  1.00  0.00     0.074 A 
ATOM     14  C   UNL     1       4.901  -6.269   1.081  1.00  0.00     0.049 A 
ATOM     15  N   UNL     1       6.601  -7.168  -1.181  1.00  0.00    -0.248 NA
ATOM     16  C   UNL     1       5.695  -5.455  -2.490  1.00  0.00     0.031 C 
ATOM     17  C   UNL     1       4.085  -5.842   2.200  1.00  0.00     0.029 A 
ATOM     18  N   UNL     1       5.541  -7.393   1.550  1.00  0.00    -0.354 N 
ATOM     19  C   UNL     1       7.050  -7.301  -2.484  1.00  0.00     0.074 A 
ATOM     20  C   UNL     1       6.469  -6.217  -3.249  1.00  0.00     0.031 C 
ATOM     21  C   UNL     1       4.305  -6.649   3.246  1.00  0.00     0.029 A 
ATOM     22  C   UNL     1       5.314  -7.633   2.891  1.00  0.00     0.049 A 
ATOM     23  H   UNL     1       6.105  -7.969   0.985  1.00  0.00     0.167 HD
ATOM     24  C   UNL     1       7.837  -8.272  -2.999  1.00  0.00     0.034 A 
ATOM     25  C   UNL     1       5.896  -8.495   3.752  1.00  0.00     0.034 A 
ATOM     26  C   UNL     1       8.379  -9.361  -2.234  1.00  0.00     0.049 A 
ATOM     27  C   UNL     1       6.897  -9.461   3.189  1.00  0.00     0.074 A 
ATOM     28  C   UNL     1       9.137 -10.430  -2.675  1.00  0.00     0.029 A 
ATOM     29  N   UNL     1       8.204  -9.533  -0.868  1.00  0.00    -0.354 N 
ATOM     30  N   UNL     1       7.376  -9.524   1.971  1.00  0.00    -0.248 NA
ATOM     31  C   UNL     1       7.429 -10.482   4.103  1.00  0.00     0.031 C 
ATOM     32  C   UNL     1       9.397 -11.262  -1.581  1.00  0.00     0.029 A 
ATOM     33  C   UNL     1       8.835 -10.692  -0.450  1.00  0.00     0.049 A 
ATOM     34  H   UNL     1       7.705  -8.919  -0.281  1.00  0.00     0.167 HD
ATOM     35  C   UNL     1       8.238 -10.610   1.960  1.00  0.00     0.074 A 
ATOM     36  C   UNL     1       8.285 -11.121   3.316  1.00  0.00     0.031 C 
ATOM     37  C   UNL     1       8.885 -11.169   0.909  1.00  0.00     0.034 A 
BRANCH  24  38
ATOM     38  C   UNL     1       8.063  -8.227  -4.482  1.00  0.00     0.023 A 
ATOM     39  C   UNL     1       8.916  -7.258  -5.045  1.00  0.00     0.012 A 
ATOM     40  C   UNL     1       7.382  -9.129  -5.321  1.00  0.00     0.148 A 
ATOM     41  C   UNL     1       9.053  -7.160  -6.429  1.00  0.00     0.002 A 
ATOM     42  C   UNL     1       7.559  -9.054  -6.695  1.00  0.00     0.091 A 
ATOM     43  F   UNL     1       6.549 -10.018  -4.761  1.00  0.00    -0.205 F 
ATOM     44  C   UNL     1       8.381  -8.061  -7.252  1.00  0.00     0.022 A 
BRANCH  42  45
ATOM     45  S   UNL     1       6.782 -10.205  -7.832  1.00  0.00     0.127 S 
ATOM     46  O   UNL     1       5.846  -9.334  -8.540  1.00  0.00    -0.237 OA
ATOM     47  O   UNL     1       7.922 -10.656  -8.630  1.00  0.00    -0.237 OA
ATOM     48  O   UNL     1       6.170 -11.237  -7.006  1.00  0.00    -0.744 OA
ENDBRANCH  42  45
ENDBRANCH  24  38
BRANCH  25  49
ATOM     49  C   UNL     1       5.658  -8.407   5.231  1.00  0.00     0.023 A 
ATOM     50  C   UNL     1       6.746  -8.101   6.080  1.00  0.00     0.012 A 
ATOM     51  C   UNL     1       4.386  -8.573   5.812  1.00  0.00     0.148 A 
ATOM     52  C   UNL     1       6.577  -7.982   7.462  1.00  0.00     0.002 A 
ATOM     53  C   UNL     1       4.210  -8.377   7.180  1.00  0.00     0.091 A 
ATOM     54  F   UNL     1       3.361  -8.911   5.017  1.00  0.00    -0.205 F 
ATOM     55  C   UNL     1       5.306  -8.101   8.010  1.00  0.00     0.022 A 
BRANCH  53  56
ATOM     56  S   UNL     1       2.575  -8.338   7.926  1.00  0.00     0.127 S 
ATOM     57  O   UNL     1       2.477  -9.674   8.505  1.00  0.00    -0.237 OA
ATOM     58  O   UNL     1       2.705  -7.252   8.899  1.00  0.00    -0.237 OA
ATOM     59  O   UNL     1       1.666  -8.045   6.825  1.00  0.00    -0.744 OA
ENDBRANCH  53  56
ENDBRANCH  25  49
BRANCH  37  60
ATOM     60  C   UNL     1       9.670 -12.421   1.183  1.00  0.00     0.023 A 
ATOM     61  C   UNL     1       8.986 -13.625   1.448  1.00  0.00     0.012 A 
ATOM     62  C   UNL     1      11.074 -12.418   1.114  1.00  0.00     0.148 A 
ATOM     63  C   UNL     1       9.693 -14.804   1.674  1.00  0.00     0.002 A 
ATOM     64  C   UNL     1      11.770 -13.607   1.292  1.00  0.00     0.091 A 
ATOM     65  F   UNL     1      11.700 -11.256   0.882  1.00  0.00    -0.205 F 
ATOM     66  C   UNL     1      11.083 -14.797   1.585  1.00  0.00     0.022 A 
BRANCH  64  67
ATOM     67  S   UNL     1      13.552 -13.712   1.107  1.00  0.00     0.127 S 
ATOM     68  O   UNL     1      13.981 -13.923   2.488  1.00  0.00    -0.237 OA
ATOM     69  O   UNL     1      13.702 -14.877   0.235  1.00  0.00    -0.237 OA
ATOM     70  O   UNL     1      13.969 -12.450   0.510  1.00  0.00    -0.744 OA
ENDBRANCH  64  67
ENDBRANCH  37  60
ENDBRANCH  11  12
ENDBRANCH   4   6
ENDBRANCH   3   4
ENDBRANCH   2   3
ENDBRANCH   1   2
BRANCH   1  71
ATOM     71  O   UNL     1       3.594   0.148   2.187  1.00  0.00    -0.457 OA
BRANCH  71  72
ATOM     72  C   UNL     1       2.251   0.013   2.360  1.00  0.00     0.357 C 
ATOM     73  O   UNL     1       1.405   0.875   2.182  1.00  0.00    -0.244 OA
BRANCH  72  74
ATOM     74  C   UNL     1       1.975  -1.396   2.732  1.00  0.00     0.149 A 
ATOM     75  C   UNL     1       2.665  -1.971   3.793  1.00  0.00     0.051 A 
ATOM     76  N   UNL     1       1.046  -2.035   1.978  1.00  0.00    -0.249 NA
ATOM     77  C   UNL     1       2.379  -3.287   4.117  1.00  0.00     0.012 A 
ATOM     78  C   UNL     1       0.794  -3.316   2.303  1.00  0.00     0.113 A 
ATOM     79  C   UNL     1       1.405  -3.963   3.365  1.00  0.00     0.035 A 
BRANCH  77  80
ATOM     80  S   UNL     1       3.143  -4.178   5.458  1.00  0.00    -0.120 SA
BRANCH  80  81
ATOM     81  C   UNL     1       4.743  -3.376   5.790  1.00  0.00     0.132 C 
BRANCH  81  82
ATOM     82  C   UNL     1       5.755  -3.374   4.682  1.00  0.00     0.062 A 
ATOM     83  C   UNL     1       6.536  -4.436   4.266  1.00  0.00     0.091 A 
ATOM     84  N   UNL     1       6.094  -2.161   4.082  1.00  0.00    -0.240 NA
ATOM     85  S   UNL     1       7.581  -3.961   2.997  1.00  0.00    -0.122 S 
ATOM     86  C   UNL     1       7.023  -2.347   3.164  1.00  0.00     0.124 A 
BRANCH  86  87
ATOM     87  C   UNL     1       7.563  -1.192   2.369  1.00  0.00     0.021 A 
ATOM     88  C   UNL     1       7.546   0.157   2.836  1.00  0.00     0.023 A 
ATOM     89  C   UNL     1       8.136  -1.293   1.118  1.00  0.00     0.076 A 
ATOM     90  C   UNL     1       8.133   1.026   1.944  1.00  0.00     0.065 A 
ATOM     91  S   UNL     1       8.620   0.235   0.507  1.00  0.00    -0.152 S 
ENDBRANCH  86  87
ENDBRANCH  81  82
ENDBRANCH  80  81
ENDBRANCH  77  80
ENDBRANCH  72  74
ENDBRANCH  71  72
ENDBRANCH   1  71
TORSDOF 18
