REMARK SMILES O=C(CN(Cc1ccccc1Cl)S(=O)(=O)c1ccc(Cl)cc1)OCCOC(=O)c1ccc(-c2c3nc(c(-c4cccc(S(=O)(=O)[O-])c4F)c4ccc([nH]4)c(-c4cccc(S(=O)(=O)[O-])c4F)c4nc(c(-c5cccc(S(=O)(=O)[O-])c5F)c5ccc2[nH]5)C=C4)C=C3)cc1
REMARK SMILES IDX 24 1 23 2 2 3 1 4 3 5 4 6 5 7 6 8 7 9 11 10 8 11 10 12 12 13
REMARK SMILES IDX 9 14 13 15 14 16 15 17 16 18 17 19 22 20 18 21 21 22 19 23
REMARK SMILES IDX 20 24 25 25 26 26 27 27 28 28 29 29 30 30 91 31 31 32 90 33
REMARK SMILES IDX 32 34 33 35 34 36 84 37 35 38 89 39 83 40 85 41 36 42 88 43
REMARK SMILES IDX 82 44 81 45 37 47 69 48 49 49 68 50 50 51 53 52 67 53 86 54
REMARK SMILES IDX 51 55 52 56 66 58 87 59 54 60 38 61 39 62 47 63 40 64 42 65
REMARK SMILES IDX 48 66 41 67 43 68 44 69 45 70 46 71 70 72 71 73 79 74 72 75
REMARK SMILES IDX 74 76 80 77 73 78 75 79 76 80 77 81 78 82 55 83 56 84 64 85
REMARK SMILES IDX 57 86 59 87 65 88 58 89 60 90 61 91 62 92 63 93
REMARK H PARENT 85 46 53 57
REMARK Flexibility Score: inf
ROOT
ATOM      1  C   UNL     1       4.706  -1.175  -0.338  1.00  0.00     0.274 C 
ENDROOT
BRANCH   1   2
ATOM      2  O   UNL     1       3.531  -1.353   0.475  1.00  0.00    -0.461 OA
BRANCH   2   3
ATOM      3  C   UNL     1       2.829  -0.352   1.060  1.00  0.00     0.321 C 
ATOM      4  O   UNL     1       1.900  -0.636   1.813  1.00  0.00    -0.251 OA
BRANCH   3   5
ATOM      5  C   UNL     1       3.131   1.072   0.663  1.00  0.00     0.225 C 
BRANCH   5   6
ATOM      6  N   UNL     1       3.794   2.005   1.606  1.00  0.00    -0.182 NA
BRANCH   6   7
ATOM      7  C   UNL     1       4.783   2.943   1.016  1.00  0.00     0.140 C 
BRANCH   7   8
ATOM      8  C   UNL     1       4.500   4.175   0.177  1.00  0.00    -0.014 A 
ATOM      9  C   UNL     1       5.577   5.088   0.046  1.00  0.00     0.006 A 
ATOM     10  C   UNL     1       3.396   4.423  -0.633  1.00  0.00     0.045 A 
ATOM     11  C   UNL     1       5.580   6.116  -0.904  1.00  0.00     0.000 A 
ATOM     12  C   UNL     1       3.450   5.391  -1.644  1.00  0.00     0.021 A 
ATOM     13  Cl  UNL     1       1.877   3.686  -0.406  1.00  0.00    -0.084 Cl
ATOM     14  C   UNL     1       4.533   6.234  -1.792  1.00  0.00     0.002 A 
ENDBRANCH   7   8
ENDBRANCH   6   7
BRANCH   6  15
ATOM     15  S   UNL     1       2.913   2.422   2.987  1.00  0.00     0.243 S 
ATOM     16  O   UNL     1       1.764   3.215   2.615  1.00  0.00    -0.207 OA
ATOM     17  O   UNL     1       2.759   1.225   3.784  1.00  0.00    -0.207 OA
BRANCH  15  18
ATOM     18  C   UNL     1       4.018   3.473   3.900  1.00  0.00     0.082 A 
ATOM     19  C   UNL     1       4.978   2.885   4.730  1.00  0.00     0.023 A 
ATOM     20  C   UNL     1       3.918   4.863   3.783  1.00  0.00     0.023 A 
ATOM     21  C   UNL     1       5.865   3.700   5.431  1.00  0.00     0.022 A 
ATOM     22  C   UNL     1       4.814   5.673   4.484  1.00  0.00     0.022 A 
ATOM     23  C   UNL     1       5.781   5.088   5.304  1.00  0.00     0.041 A 
ATOM     24  Cl  UNL     1       6.883   6.080   6.177  1.00  0.00    -0.084 Cl
ENDBRANCH  15  18
ENDBRANCH   6  15
ENDBRANCH   5   6
ENDBRANCH   3   5
ENDBRANCH   2   3
ENDBRANCH   1   2
BRANCH   1  25
ATOM     25  C   UNL     1       4.385  -1.210  -1.839  1.00  0.00     0.275 C 
BRANCH  25  26
ATOM     26  O   UNL     1       3.742  -0.001  -2.309  1.00  0.00    -0.458 OA
BRANCH  26  27
ATOM     27  C   UNL     1       2.414  -0.080  -2.606  1.00  0.00     0.338 C 
ATOM     28  O   UNL     1       1.716  -1.069  -2.455  1.00  0.00    -0.246 OA
BRANCH  27  29
ATOM     29  C   UNL     1       1.876   1.239  -3.057  1.00  0.00     0.060 A 
ATOM     30  C   UNL     1       0.532   1.555  -2.789  1.00  0.00     0.016 A 
ATOM     31  C   UNL     1       2.660   2.170  -3.740  1.00  0.00     0.016 A 
ATOM     32  C   UNL     1      -0.013   2.805  -3.154  1.00  0.00     0.010 A 
ATOM     33  C   UNL     1       2.109   3.408  -4.117  1.00  0.00     0.010 A 
ATOM     34  C   UNL     1       0.773   3.757  -3.810  1.00  0.00    -0.014 A 
BRANCH  34  35
ATOM     35  C   UNL     1       0.270   5.103  -4.244  1.00  0.00     0.031 A 
ATOM     36  C   UNL     1       0.030   5.351  -5.705  1.00  0.00     0.074 A 
ATOM     37  C   UNL     1       0.185   6.164  -3.408  1.00  0.00     0.049 A 
ATOM     38  N   UNL     1      -0.245   6.482  -6.300  1.00  0.00    -0.248 NA
ATOM     39  C   UNL     1       0.040   4.182  -6.597  1.00  0.00     0.031 C 
ATOM     40  C   UNL     1       0.245   6.137  -1.954  1.00  0.00     0.029 A 
ATOM     41  N   UNL     1       0.202   7.515  -3.692  1.00  0.00    -0.354 N 
ATOM     42  C   UNL     1      -0.534   6.153  -7.613  1.00  0.00     0.074 A 
ATOM     43  C   UNL     1      -0.292   4.733  -7.758  1.00  0.00     0.031 C 
ATOM     44  C   UNL     1       0.590   7.356  -1.498  1.00  0.00     0.029 A 
ATOM     45  C   UNL     1       0.647   8.276  -2.626  1.00  0.00     0.049 A 
ATOM     46  H   UNL     1      -0.073   7.895  -4.558  1.00  0.00     0.167 HD
ATOM     47  C   UNL     1      -1.042   6.952  -8.580  1.00  0.00     0.034 A 
ATOM     48  C   UNL     1       1.068   9.556  -2.573  1.00  0.00     0.034 A 
ATOM     49  C   UNL     1      -1.258   8.365  -8.437  1.00  0.00     0.049 A 
ATOM     50  C   UNL     1       0.778  10.449  -3.748  1.00  0.00     0.074 A 
ATOM     51  C   UNL     1      -1.882   9.238  -9.310  1.00  0.00     0.029 A 
ATOM     52  N   UNL     1      -0.807   9.124  -7.371  1.00  0.00    -0.354 N 
ATOM     53  N   UNL     1       0.248  10.131  -4.901  1.00  0.00    -0.248 NA
ATOM     54  C   UNL     1       1.007  11.892  -3.570  1.00  0.00     0.031 C 
ATOM     55  C   UNL     1      -1.760  10.535  -8.794  1.00  0.00     0.029 A 
ATOM     56  C   UNL     1      -1.082  10.463  -7.589  1.00  0.00     0.049 A 
ATOM     57  H   UNL     1      -0.355   8.764  -6.574  1.00  0.00     0.167 HD
ATOM     58  C   UNL     1      -0.037  11.335  -5.532  1.00  0.00     0.074 A 
ATOM     59  C   UNL     1       0.433  12.389  -4.659  1.00  0.00     0.031 C 
ATOM     60  C   UNL     1      -0.674  11.530  -6.711  1.00  0.00     0.034 A 
BRANCH  47  61
ATOM     61  C   UNL     1      -1.486   6.285  -9.846  1.00  0.00     0.023 A 
ATOM     62  C   UNL     1      -2.679   5.532  -9.834  1.00  0.00     0.012 A 
ATOM     63  C   UNL     1      -0.769   6.437 -11.044  1.00  0.00     0.148 A 
ATOM     64  C   UNL     1      -3.139   4.915 -10.993  1.00  0.00     0.002 A 
ATOM     65  C   UNL     1      -1.249   5.843 -12.204  1.00  0.00     0.091 A 
ATOM     66  F   UNL     1       0.368   7.147 -11.022  1.00  0.00    -0.205 F 
ATOM     67  C   UNL     1      -2.428   5.076 -12.179  1.00  0.00     0.022 A 
BRANCH  65  68
ATOM     68  S   UNL     1      -0.434   6.018 -13.792  1.00  0.00     0.127 S 
ATOM     69  O   UNL     1      -0.026   4.640 -14.067  1.00  0.00    -0.237 OA
ATOM     70  O   UNL     1      -1.519   6.514 -14.638  1.00  0.00    -0.237 OA
ATOM     71  O   UNL     1       0.661   6.955 -13.584  1.00  0.00    -0.744 OA
ENDBRANCH  65  68
ENDBRANCH  47  61
BRANCH  48  72
ATOM     72  C   UNL     1       1.708  10.128  -1.353  1.00  0.00     0.023 A 
ATOM     73  C   UNL     1       0.950  10.921  -0.474  1.00  0.00     0.012 A 
ATOM     74  C   UNL     1       3.091   9.973  -1.120  1.00  0.00     0.148 A 
ATOM     75  C   UNL     1       1.562  11.583   0.593  1.00  0.00     0.002 A 
ATOM     76  C   UNL     1       3.689  10.607  -0.034  1.00  0.00     0.091 A 
ATOM     77  F   UNL     1       3.806   9.259  -2.000  1.00  0.00    -0.205 F 
ATOM     78  C   UNL     1       2.928  11.425   0.815  1.00  0.00     0.022 A 
BRANCH  76  79
ATOM     79  S   UNL     1       5.435  10.434   0.364  1.00  0.00     0.127 S 
ATOM     80  O   UNL     1       5.940  11.778   0.095  1.00  0.00    -0.237 OA
ATOM     81  O   UNL     1       5.389  10.065   1.780  1.00  0.00    -0.237 OA
ATOM     82  O   UNL     1       5.944   9.389  -0.514  1.00  0.00    -0.744 OA
ENDBRANCH  76  79
ENDBRANCH  48  72
BRANCH  60  83
ATOM     83  C   UNL     1      -0.981  12.944  -7.127  1.00  0.00     0.023 A 
ATOM     84  C   UNL     1       0.055  13.793  -7.560  1.00  0.00     0.012 A 
ATOM     85  C   UNL     1      -2.314  13.402  -7.167  1.00  0.00     0.148 A 
ATOM     86  C   UNL     1      -0.228  15.083  -8.008  1.00  0.00     0.002 A 
ATOM     87  C   UNL     1      -2.594  14.668  -7.665  1.00  0.00     0.091 A 
ATOM     88  F   UNL     1      -3.284  12.588  -6.724  1.00  0.00    -0.205 F 
ATOM     89  C   UNL     1      -1.551  15.514  -8.075  1.00  0.00     0.022 A 
BRANCH  87  90
ATOM     90  S   UNL     1      -4.272  15.270  -7.888  1.00  0.00     0.127 S 
ATOM     91  O   UNL     1      -4.359  16.302  -6.856  1.00  0.00    -0.237 OA
ATOM     92  O   UNL     1      -4.238  15.779  -9.259  1.00  0.00    -0.237 OA
ATOM     93  O   UNL     1      -5.142  14.118  -7.692  1.00  0.00    -0.744 OA
ENDBRANCH  87  90
ENDBRANCH  60  83
ENDBRANCH  34  35
ENDBRANCH  27  29
ENDBRANCH  26  27
ENDBRANCH  25  26
ENDBRANCH   1  25
TORSDOF 19
