REMARK SMILES O=C(Cc1cccn(C(F)F)c1=O)OCCOC(=O)c1ccc(-c2c3nc(c(-c4cccc(S(=O)(=O)[O-])c4F)c4ccc([nH]4)c(-c4cccc(S(=O)(=O)[O-])c4F)c4nc(c(-c5cccc(S(=O)(=O)[O-])c5F)c5ccc2[nH]5)C=C4)C=C3)cc1
REMARK SMILES IDX 16 1 15 2 14 3 2 4 1 5 3 6 4 7 5 8 12 9 6 10 8 11 13 12 7 13
REMARK SMILES IDX 9 14 10 15 11 16 17 17 18 18 19 19 20 20 21 21 82 22 22 23
REMARK SMILES IDX 81 24 23 25 24 26 25 27 75 28 26 29 80 30 74 31 76 32 27 33
REMARK SMILES IDX 79 34 73 35 72 36 28 38 60 39 40 40 59 41 41 42 44 43 58 44
REMARK SMILES IDX 77 45 42 46 43 47 57 49 78 50 45 51 29 52 30 53 38 54 31 55
REMARK SMILES IDX 33 56 39 57 32 58 34 59 35 60 36 61 37 62 61 63 62 64 70 65
REMARK SMILES IDX 63 66 65 67 71 68 64 69 66 70 67 71 68 72 69 73 46 74 47 75
REMARK SMILES IDX 55 76 48 77 50 78 56 79 49 80 51 81 52 82 53 83 54 84
REMARK H PARENT 76 37 44 48
REMARK Flexibility Score: inf
ROOT
ATOM      1  C   UNL     1       4.491   1.660  -1.168  1.00  0.00     0.275 C 
ENDROOT
BRANCH   1   2
ATOM      2  C   UNL     1       4.495   0.149  -0.930  1.00  0.00     0.274 C 
BRANCH   2   3
ATOM      3  O   UNL     1       3.159  -0.391  -1.002  1.00  0.00    -0.462 OA
BRANCH   3   4
ATOM      4  C   UNL     1       2.313  -0.585   0.035  1.00  0.00     0.310 C 
ATOM      5  O   UNL     1       1.120  -0.791  -0.184  1.00  0.00    -0.252 OA
BRANCH   4   6
ATOM      6  C   UNL     1       2.831  -0.482   1.461  1.00  0.00     0.164 C 
BRANCH   6   7
ATOM      7  C   UNL     1       3.839  -1.481   1.933  1.00  0.00     0.029 A 
ATOM      8  C   UNL     1       4.880  -1.131   2.713  1.00  0.00     0.011 A 
ATOM      9  C   UNL     1       3.659  -2.921   1.568  1.00  0.00     0.258 A 
ATOM     10  C   UNL     1       5.807  -2.112   3.209  1.00  0.00     0.019 A 
ATOM     11  N   UNL     1       4.585  -3.802   2.096  1.00  0.00    -0.258 N 
ATOM     12  O   UNL     1       2.742  -3.263   0.830  1.00  0.00    -0.269 OA
ATOM     13  C   UNL     1       5.634  -3.401   2.901  1.00  0.00     0.095 A 
BRANCH  11  14
ATOM     14  C   UNL     1       4.425  -5.198   1.780  1.00  0.00     0.451 C 
ATOM     15  F   UNL     1       5.542  -5.643   1.140  1.00  0.00    -0.185 F 
ATOM     16  F   UNL     1       4.338  -5.920   2.928  1.00  0.00    -0.185 F 
ENDBRANCH  11  14
ENDBRANCH   6   7
ENDBRANCH   4   6
ENDBRANCH   3   4
ENDBRANCH   2   3
ENDBRANCH   1   2
BRANCH   1  17
ATOM     17  O   UNL     1       4.085   2.322   0.041  1.00  0.00    -0.458 OA
BRANCH  17  18
ATOM     18  C   UNL     1       2.819   2.812   0.073  1.00  0.00     0.338 C 
ATOM     19  O   UNL     1       2.043   2.884  -0.861  1.00  0.00    -0.246 OA
BRANCH  18  20
ATOM     20  C   UNL     1       2.458   3.031   1.495  1.00  0.00     0.060 A 
ATOM     21  C   UNL     1       3.408   3.470   2.426  1.00  0.00     0.016 A 
ATOM     22  C   UNL     1       1.169   2.681   1.918  1.00  0.00     0.016 A 
ATOM     23  C   UNL     1       3.064   3.561   3.776  1.00  0.00     0.010 A 
ATOM     24  C   UNL     1       0.826   2.778   3.270  1.00  0.00     0.010 A 
ATOM     25  C   UNL     1       1.768   3.228   4.206  1.00  0.00    -0.014 A 
BRANCH  25  26
ATOM     26  C   UNL     1       1.361   3.543   5.597  1.00  0.00     0.031 A 
ATOM     27  C   UNL     1       1.274   2.500   6.670  1.00  0.00     0.074 A 
ATOM     28  C   UNL     1       1.059   4.825   5.877  1.00  0.00     0.049 A 
ATOM     29  N   UNL     1       1.043   2.668   7.947  1.00  0.00    -0.248 NA
ATOM     30  C   UNL     1       1.471   1.098   6.273  1.00  0.00     0.031 C 
ATOM     31  C   UNL     1       1.049   5.914   4.898  1.00  0.00     0.029 A 
ATOM     32  N   UNL     1       0.697   5.427   7.054  1.00  0.00    -0.354 N 
ATOM     33  C   UNL     1       1.066   1.400   8.512  1.00  0.00     0.074 A 
ATOM     34  C   UNL     1       1.320   0.467   7.434  1.00  0.00     0.031 C 
ATOM     35  C   UNL     1       0.699   7.052   5.514  1.00  0.00     0.029 A 
ATOM     36  C   UNL     1       0.456   6.773   6.927  1.00  0.00     0.049 A 
ATOM     37  H   UNL     1       0.618   4.942   7.907  1.00  0.00     0.167 HD
ATOM     38  C   UNL     1       0.913   1.058   9.813  1.00  0.00     0.034 A 
ATOM     39  C   UNL     1       0.087   7.690   7.842  1.00  0.00     0.034 A 
ATOM     40  C   UNL     1       0.668   1.992  10.882  1.00  0.00     0.049 A 
ATOM     41  C   UNL     1      -0.065   7.283   9.276  1.00  0.00     0.074 A 
ATOM     42  C   UNL     1       0.572   1.733  12.239  1.00  0.00     0.029 A 
ATOM     43  N   UNL     1       0.462   3.352  10.721  1.00  0.00    -0.354 N 
ATOM     44  N   UNL     1       0.127   6.105   9.816  1.00  0.00    -0.248 NA
ATOM     45  C   UNL     1      -0.448   8.331  10.233  1.00  0.00     0.031 C 
ATOM     46  C   UNL     1       0.301   2.935  12.898  1.00  0.00     0.029 A 
ATOM     47  C   UNL     1       0.232   3.943  11.952  1.00  0.00     0.049 A 
ATOM     48  H   UNL     1       0.476   3.828   9.859  1.00  0.00     0.167 HD
ATOM     49  C   UNL     1      -0.097   6.271  11.177  1.00  0.00     0.074 A 
ATOM     50  C   UNL     1      -0.422   7.667  11.383  1.00  0.00     0.031 C 
ATOM     51  C   UNL     1      -0.050   5.340  12.159  1.00  0.00     0.034 A 
BRANCH  38  52
ATOM     52  C   UNL     1       1.090  -0.384  10.202  1.00  0.00     0.023 A 
ATOM     53  C   UNL     1       2.399  -0.873  10.387  1.00  0.00     0.012 A 
ATOM     54  C   UNL     1      -0.010  -1.192  10.549  1.00  0.00     0.148 A 
ATOM     55  C   UNL     1       2.612  -2.145  10.916  1.00  0.00     0.002 A 
ATOM     56  C   UNL     1       0.211  -2.450  11.097  1.00  0.00     0.091 A 
ATOM     57  F   UNL     1      -1.244  -0.703  10.362  1.00  0.00    -0.205 F 
ATOM     58  C   UNL     1       1.520  -2.928  11.281  1.00  0.00     0.022 A 
BRANCH  56  59
ATOM     59  S   UNL     1      -1.119  -3.519  11.661  1.00  0.00     0.127 S 
ATOM     60  O   UNL     1      -0.990  -4.655  10.749  1.00  0.00    -0.237 OA
ATOM     61  O   UNL     1      -0.724  -3.798  13.042  1.00  0.00    -0.237 OA
ATOM     62  O   UNL     1      -2.346  -2.748  11.518  1.00  0.00    -0.744 OA
ENDBRANCH  56  59
ENDBRANCH  38  52
BRANCH  39  63
ATOM     63  C   UNL     1      -0.083   9.100   7.410  1.00  0.00     0.023 A 
ATOM     64  C   UNL     1       0.932  10.033   7.693  1.00  0.00     0.012 A 
ATOM     65  C   UNL     1      -1.190   9.490   6.632  1.00  0.00     0.148 A 
ATOM     66  C   UNL     1       0.846  11.337   7.208  1.00  0.00     0.002 A 
ATOM     67  C   UNL     1      -1.249  10.779   6.119  1.00  0.00     0.091 A 
ATOM     68  F   UNL     1      -2.140   8.578   6.381  1.00  0.00    -0.205 F 
ATOM     69  C   UNL     1      -0.237  11.707   6.413  1.00  0.00     0.022 A 
BRANCH  67  70
ATOM     70  S   UNL     1      -2.540  11.312   4.990  1.00  0.00     0.127 S 
ATOM     71  O   UNL     1      -3.237  12.317   5.790  1.00  0.00    -0.237 OA
ATOM     72  O   UNL     1      -1.759  11.846   3.874  1.00  0.00    -0.237 OA
ATOM     73  O   UNL     1      -3.308  10.117   4.673  1.00  0.00    -0.744 OA
ENDBRANCH  67  70
ENDBRANCH  39  63
BRANCH  51  74
ATOM     74  C   UNL     1      -0.361   5.776  13.563  1.00  0.00     0.023 A 
ATOM     75  C   UNL     1      -1.707   5.916  13.954  1.00  0.00     0.012 A 
ATOM     76  C   UNL     1       0.661   5.914  14.522  1.00  0.00     0.148 A 
ATOM     77  C   UNL     1      -2.032   6.191  15.281  1.00  0.00     0.002 A 
ATOM     78  C   UNL     1       0.328   6.158  15.849  1.00  0.00     0.091 A 
ATOM     79  F   UNL     1       1.933   5.778  14.121  1.00  0.00    -0.205 F 
ATOM     80  C   UNL     1      -1.017   6.301  16.229  1.00  0.00     0.022 A 
BRANCH  78  81
ATOM     81  S   UNL     1       1.554   6.250  17.159  1.00  0.00     0.127 S 
ATOM     82  O   UNL     1       1.398   7.630  17.618  1.00  0.00    -0.237 OA
ATOM     83  O   UNL     1       1.077   5.236  18.099  1.00  0.00    -0.237 OA
ATOM     84  O   UNL     1       2.837   5.952  16.536  1.00  0.00    -0.744 OA
ENDBRANCH  78  81
ENDBRANCH  51  74
ENDBRANCH  25  26
ENDBRANCH  18  20
ENDBRANCH  17  18
ENDBRANCH   1  17
TORSDOF 16
