REMARK SMILES C[NH+](C)[C@@H]1CC[N@@H+](Cc2ccc(C(=O)OCCOC(=O)c3ccc(-c4c5nc(c(-c6cccc(S(=O)(=O)[O-])c6F)c6ccc([nH]6)c(-c6cccc(S(=O)(=O)[O-])c6F)c6nc(c(-c7cccc(S(=O)(=O)[O-])c7F)c7ccc4[nH]7)C=C6)C=C5)cc3)cn2)C1
REMARK SMILES IDX 16 1 15 2 13 3 14 4 12 5 9 6 10 7 85 8 11 9 84 10 8 11 7 12
REMARK SMILES IDX 4 13 5 14 86 15 6 16 2 18 1 19 3 20 17 22 18 23 19 24 20 25
REMARK SMILES IDX 21 26 22 27 83 28 23 29 82 30 24 31 25 32 26 33 76 34 27 35
REMARK SMILES IDX 81 36 75 37 77 38 28 39 80 40 74 41 73 42 29 44 61 45 41 46
REMARK SMILES IDX 60 47 42 48 45 49 59 50 78 51 43 52 44 53 58 55 79 56 46 57
REMARK SMILES IDX 30 58 31 59 39 60 32 61 34 62 40 63 33 64 35 65 36 66 37 67
REMARK SMILES IDX 38 68 62 69 63 70 71 71 64 72 66 73 72 74 65 75 67 76 68 77
REMARK SMILES IDX 69 78 70 79 47 80 48 81 56 82 49 83 51 84 57 85 50 86 52 87
REMARK SMILES IDX 53 88 54 89 55 90
REMARK H PARENT 7 17 2 21 77 43 45 54
REMARK Flexibility Score: inf
ROOT
ATOM      1  C   UNL     1      -0.237   2.584   7.644  1.00  0.00     0.275 C 
ENDROOT
BRANCH   1   2
ATOM      2  O   UNL     1       0.582   2.769   6.473  1.00  0.00    -0.458 OA
BRANCH   2   3
ATOM      3  C   UNL     1       0.004   3.477   5.472  1.00  0.00     0.339 C 
ATOM      4  O   UNL     1      -1.147   3.866   5.431  1.00  0.00    -0.246 OA
BRANCH   3   5
ATOM      5  C   UNL     1       0.983   3.800   4.419  1.00  0.00     0.078 A 
ATOM      6  C   UNL     1       2.516   4.450   2.234  1.00  0.00     0.095 A 
ATOM      7  C   UNL     1       2.860   3.332   2.995  1.00  0.00     0.031 A 
ATOM      8  N   UNL     1       1.504   5.277   2.582  1.00  0.00    -0.254 NA
ATOM      9  C   UNL     1       2.084   3.006   4.110  1.00  0.00     0.019 A 
ATOM     10  C   UNL     1       0.747   4.920   3.637  1.00  0.00     0.127 A 
BRANCH   6  11
ATOM     11  C   UNL     1       3.112   4.681   0.861  1.00  0.00     0.319 C 
BRANCH  11  12
ATOM     12  N   UNL     1       2.382   4.089  -0.278  1.00  0.00    -0.325 N 
ATOM     13  C   UNL     1       0.897   2.202   0.240  1.00  0.00     0.245 C 
ATOM     14  C   UNL     1       0.102   3.514   0.242  1.00  0.00     0.132 C 
ATOM     15  C   UNL     1       2.297   2.626  -0.281  1.00  0.00     0.328 C 
ATOM     16  C   UNL     1       0.997   4.553  -0.417  1.00  0.00     0.269 C 
ATOM     17  H   UNL     1       2.965   4.410  -1.051  1.00  0.00     0.348 HD
BRANCH  13  18
ATOM     18  N   UNL     1       0.355   1.068  -0.547  1.00  0.00    -0.333 N 
ATOM     19  C   UNL     1       1.023  -0.184  -0.174  1.00  0.00     0.332 C 
ATOM     20  C   UNL     1      -1.092   0.900  -0.424  1.00  0.00     0.332 C 
ATOM     21  H   UNL     1       0.545   1.297  -1.523  1.00  0.00     0.348 HD
ENDBRANCH  13  18
ENDBRANCH  11  12
ENDBRANCH   6  11
ENDBRANCH   3   5
ENDBRANCH   2   3
ENDBRANCH   1   2
BRANCH   1  22
ATOM     22  C   UNL     1       0.212   3.521   8.764  1.00  0.00     0.275 C 
BRANCH  22  23
ATOM     23  O   UNL     1      -0.061   4.893   8.421  1.00  0.00    -0.458 OA
BRANCH  23  24
ATOM     24  C   UNL     1       1.013   5.618   8.029  1.00  0.00     0.338 C 
ATOM     25  O   UNL     1       2.173   5.244   7.965  1.00  0.00    -0.246 OA
BRANCH  24  26
ATOM     26  C   UNL     1       0.586   6.947   7.566  1.00  0.00     0.060 A 
ATOM     27  C   UNL     1       0.013   7.043   6.304  1.00  0.00     0.016 A 
ATOM     28  C   UNL     1       0.896   8.101   8.278  1.00  0.00     0.016 A 
ATOM     29  C   UNL     1      -0.135   8.280   5.688  1.00  0.00     0.010 A 
ATOM     30  C   UNL     1       0.611   9.352   7.713  1.00  0.00     0.010 A 
ATOM     31  C   UNL     1       0.123   9.461   6.395  1.00  0.00    -0.014 A 
BRANCH  31  32
ATOM     32  C   UNL     1      -0.142  10.790   5.766  1.00  0.00     0.031 A 
ATOM     33  C   UNL     1       0.931  11.847   5.714  1.00  0.00     0.074 A 
ATOM     34  C   UNL     1      -1.365  11.064   5.262  1.00  0.00     0.049 A 
ATOM     35  N   UNL     1       0.831  13.112   5.393  1.00  0.00    -0.248 NA
ATOM     36  C   UNL     1       2.294  11.435   6.088  1.00  0.00     0.031 C 
ATOM     37  C   UNL     1      -2.498  10.135   5.228  1.00  0.00     0.029 A 
ATOM     38  N   UNL     1      -1.870  12.212   4.697  1.00  0.00    -0.354 N 
ATOM     39  C   UNL     1       2.091  13.663   5.602  1.00  0.00     0.074 A 
ATOM     40  C   UNL     1       2.945  12.591   6.066  1.00  0.00     0.031 C 
ATOM     41  C   UNL     1      -3.550  10.735   4.657  1.00  0.00     0.029 A 
ATOM     42  C   UNL     1      -3.208  12.124   4.385  1.00  0.00     0.049 A 
ATOM     43  H   UNL     1      -1.328  13.017   4.532  1.00  0.00     0.167 HD
ATOM     44  C   UNL     1       2.498  14.944   5.421  1.00  0.00     0.034 A 
ATOM     45  C   UNL     1      -4.089  13.062   3.987  1.00  0.00     0.034 A 
ATOM     46  C   UNL     1       1.660  15.991   4.897  1.00  0.00     0.049 A 
ATOM     47  C   UNL     1      -3.617  14.475   3.812  1.00  0.00     0.074 A 
ATOM     48  C   UNL     1       1.997  17.306   4.624  1.00  0.00     0.029 A 
ATOM     49  N   UNL     1       0.320  15.848   4.568  1.00  0.00    -0.354 N 
ATOM     50  N   UNL     1      -2.412  14.966   3.965  1.00  0.00    -0.248 NA
ATOM     51  C   UNL     1      -4.624  15.463   3.403  1.00  0.00     0.031 C 
ATOM     52  C   UNL     1       0.852  17.966   4.163  1.00  0.00     0.029 A 
ATOM     53  C   UNL     1      -0.189  17.054   4.114  1.00  0.00     0.049 A 
ATOM     54  H   UNL     1      -0.193  15.012   4.646  1.00  0.00     0.167 HD
ATOM     55  C   UNL     1      -2.510  16.316   3.653  1.00  0.00     0.074 A 
ATOM     56  C   UNL     1      -3.886  16.557   3.271  1.00  0.00     0.031 C 
ATOM     57  C   UNL     1      -1.551  17.273   3.700  1.00  0.00     0.034 A 
BRANCH  44  58
ATOM     58  C   UNL     1       3.920  15.294   5.787  1.00  0.00     0.023 A 
ATOM     59  C   UNL     1       4.989  14.847   4.985  1.00  0.00     0.012 A 
ATOM     60  C   UNL     1       4.189  16.125   6.894  1.00  0.00     0.148 A 
ATOM     61  C   UNL     1       6.305  15.193   5.298  1.00  0.00     0.002 A 
ATOM     62  C   UNL     1       5.498  16.503   7.172  1.00  0.00     0.091 A 
ATOM     63  F   UNL     1       3.162  16.528   7.655  1.00  0.00    -0.205 F 
ATOM     64  C   UNL     1       6.558  16.028   6.383  1.00  0.00     0.022 A 
BRANCH  62  65
ATOM     65  S   UNL     1       5.919  17.640   8.499  1.00  0.00     0.127 S 
ATOM     66  O   UNL     1       6.599  16.754   9.443  1.00  0.00    -0.237 OA
ATOM     67  O   UNL     1       6.797  18.594   7.819  1.00  0.00    -0.237 OA
ATOM     68  O   UNL     1       4.659  18.200   8.966  1.00  0.00    -0.744 OA
ENDBRANCH  62  65
ENDBRANCH  44  58
BRANCH  45  69
ATOM     69  C   UNL     1      -5.514  12.689   3.750  1.00  0.00     0.023 A 
ATOM     70  C   UNL     1      -6.035  12.724   2.443  1.00  0.00     0.012 A 
ATOM     71  C   UNL     1      -6.342  12.259   4.808  1.00  0.00     0.148 A 
ATOM     72  C   UNL     1      -7.359  12.360   2.197  1.00  0.00     0.002 A 
ATOM     73  C   UNL     1      -7.638  11.834   4.545  1.00  0.00     0.091 A 
ATOM     74  F   UNL     1      -5.835  12.250   6.049  1.00  0.00    -0.205 F 
ATOM     75  C   UNL     1      -8.156  11.901   3.243  1.00  0.00     0.022 A 
BRANCH  73  76
ATOM     76  S   UNL     1      -8.680  11.090   5.806  1.00  0.00     0.127 S 
ATOM     77  O   UNL     1      -9.691  12.125   6.007  1.00  0.00    -0.237 OA
ATOM     78  O   UNL     1      -9.159   9.884   5.129  1.00  0.00    -0.237 OA
ATOM     79  O   UNL     1      -7.804  10.832   6.940  1.00  0.00    -0.744 OA
ENDBRANCH  73  76
ENDBRANCH  45  69
BRANCH  57  80
ATOM     80  C   UNL     1      -1.951  18.670   3.302  1.00  0.00     0.023 A 
ATOM     81  C   UNL     1      -2.775  19.432   4.155  1.00  0.00     0.012 A 
ATOM     82  C   UNL     1      -1.470  19.244   2.110  1.00  0.00     0.148 A 
ATOM     83  C   UNL     1      -3.144  20.731   3.808  1.00  0.00     0.002 A 
ATOM     84  C   UNL     1      -1.798  20.557   1.797  1.00  0.00     0.091 A 
ATOM     85  F   UNL     1      -0.702  18.496   1.304  1.00  0.00    -0.205 F 
ATOM     86  C   UNL     1      -2.647  21.297   2.637  1.00  0.00     0.022 A 
BRANCH  84  87
ATOM     87  S   UNL     1      -1.133  21.402   0.358  1.00  0.00     0.127 S 
ATOM     88  O   UNL     1      -2.317  21.526  -0.489  1.00  0.00    -0.237 OA
ATOM     89  O   UNL     1      -0.659  22.662   0.933  1.00  0.00    -0.237 OA
ATOM     90  O   UNL     1      -0.080  20.541  -0.164  1.00  0.00    -0.744 OA
ENDBRANCH  84  87
ENDBRANCH  57  80
ENDBRANCH  31  32
ENDBRANCH  24  26
ENDBRANCH  23  24
ENDBRANCH  22  23
ENDBRANCH   1  22
TORSDOF 17
