REMARK SMILES Nc1ccc(-c2cc(Cl)cc3c2O[C@H](C(F)(F)F)C(C(=O)OCCOC(=O)c2ccc(-c4c5nc(c(-c6cccc(S(=O)(=O)[O-])c6F)c6ccc([nH]6)c(-c6cccc(S(=O)(=O)[O-])c6F)c6nc(c(-c7cccc(S(=O)(=O)[O-])c7F)c7ccc4[nH]7)C=C6)C=C5)cc2)=C3)cc1
REMARK SMILES IDX 24 1 23 2 22 3 20 4 21 5 19 6 6 7 7 8 12 9 8 10 11 11 13 12
REMARK SMILES IDX 9 13 10 14 91 15 14 16 5 17 2 18 3 19 93 20 4 21 92 22 1 23
REMARK SMILES IDX 15 26 16 27 17 28 18 29 25 30 26 31 27 32 28 33 29 34 90 35
REMARK SMILES IDX 30 36 89 37 31 38 32 39 33 40 83 41 34 42 88 43 82 44 84 45
REMARK SMILES IDX 35 46 87 47 81 48 80 49 36 51 68 52 48 53 67 54 49 55 52 56
REMARK SMILES IDX 66 57 85 58 50 59 51 60 65 62 86 63 53 64 37 65 38 66 46 67
REMARK SMILES IDX 39 68 41 69 47 70 40 71 42 72 43 73 44 74 45 75 69 76 70 77
REMARK SMILES IDX 78 78 71 79 73 80 79 81 72 82 74 83 75 84 76 85 77 86 54 87
REMARK SMILES IDX 55 88 63 89 56 90 58 91 64 92 57 93 59 94 60 95 61 96 62 97
REMARK H PARENT 1 24 1 25 84 50 52 61
REMARK Flexibility Score: inf
ROOT
ATOM      1  C   UNL     1      -7.141  -2.615   6.935  1.00  0.00     0.275 C 
ENDROOT
BRANCH   1   2
ATOM      2  C   UNL     1      -6.150  -3.486   6.162  1.00  0.00     0.275 C 
BRANCH   2   3
ATOM      3  O   UNL     1      -5.475  -2.729   5.134  1.00  0.00    -0.459 OA
BRANCH   3   4
ATOM      4  C   UNL     1      -5.877  -2.974   3.864  1.00  0.00     0.338 C 
ATOM      5  O   UNL     1      -6.725  -3.778   3.512  1.00  0.00    -0.246 OA
BRANCH   4   6
ATOM      6  C   UNL     1      -5.151  -2.104   2.918  1.00  0.00     0.087 C 
ATOM      7  C   UNL     1      -3.040   0.033  -0.012  1.00  0.00     0.026 A 
ATOM      8  C   UNL     1      -3.771   0.675  -1.028  1.00  0.00     0.033 A 
ATOM      9  C   UNL     1      -3.746  -0.635   1.009  1.00  0.00     0.135 A 
ATOM     10  C   UNL     1      -5.163   0.652  -1.027  1.00  0.00     0.042 A 
ATOM     11  C   UNL     1      -5.140  -0.686   0.979  1.00  0.00     0.019 A 
ATOM     12  O   UNL     1      -3.015  -1.188   2.030  1.00  0.00    -0.475 OA
ATOM     13  Cl  UNL     1      -6.032   1.446  -2.279  1.00  0.00    -0.084 Cl
ATOM     14  C   UNL     1      -5.852  -0.028  -0.030  1.00  0.00     0.032 A 
ATOM     15  C   UNL     1      -5.850  -1.459   1.978  1.00  0.00     0.027 C 
ATOM     16  C   UNL     1      -3.653  -2.087   2.972  1.00  0.00     0.316 C 
BRANCH   7  17
ATOM     17  C   UNL     1      -1.571   0.042  -0.049  1.00  0.00    -0.014 A 
ATOM     18  C   UNL     1       1.257   0.040  -0.064  1.00  0.00     0.031 A 
ATOM     19  C   UNL     1       0.548  -1.160  -0.075  1.00  0.00     0.026 A 
ATOM     20  C   UNL     1       0.545   1.240  -0.016  1.00  0.00     0.026 A 
ATOM     21  C   UNL     1      -0.849  -1.161  -0.087  1.00  0.00     0.011 A 
ATOM     22  C   UNL     1      -0.854   1.244  -0.021  1.00  0.00     0.011 A 
BRANCH  18  23
ATOM     23  N   UNL     1       2.639   0.037   0.035  1.00  0.00    -0.399 N 
ATOM     24  H   UNL     1       3.133  -0.814  -0.000  1.00  0.00     0.156 HD
ATOM     25  H   UNL     1       3.127   0.885   0.139  1.00  0.00     0.156 HD
ENDBRANCH  18  23
ENDBRANCH   7  17
BRANCH  16  26
ATOM     26  C   UNL     1      -3.072  -3.496   2.774  1.00  0.00     0.430 C 
ATOM     27  F   UNL     1      -1.717  -3.483   2.800  1.00  0.00    -0.167 F 
ATOM     28  F   UNL     1      -3.464  -4.342   3.758  1.00  0.00    -0.167 F 
ATOM     29  F   UNL     1      -3.446  -4.045   1.596  1.00  0.00    -0.167 F 
ENDBRANCH  16  26
ENDBRANCH   4   6
ENDBRANCH   3   4
ENDBRANCH   2   3
ENDBRANCH   1   2
BRANCH   1  30
ATOM     30  O   UNL     1      -8.246  -2.245   6.092  1.00  0.00    -0.458 OA
BRANCH  30  31
ATOM     31  C   UNL     1      -8.222  -0.974   5.632  1.00  0.00     0.338 C 
ATOM     32  O   UNL     1      -7.409  -0.105   5.893  1.00  0.00    -0.246 OA
BRANCH  31  33
ATOM     33  C   UNL     1      -9.298  -0.800   4.646  1.00  0.00     0.060 A 
ATOM     34  C   UNL     1     -10.415  -0.019   4.908  1.00  0.00     0.016 A 
ATOM     35  C   UNL     1      -9.105  -1.332   3.378  1.00  0.00     0.016 A 
ATOM     36  C   UNL     1     -11.345   0.197   3.882  1.00  0.00     0.010 A 
ATOM     37  C   UNL     1      -9.937  -0.979   2.324  1.00  0.00     0.010 A 
ATOM     38  C   UNL     1     -11.102  -0.250   2.566  1.00  0.00    -0.014 A 
BRANCH  38  39
ATOM     39  C   UNL     1     -12.057   0.023   1.452  1.00  0.00     0.031 A 
ATOM     40  C   UNL     1     -12.599  -1.099   0.591  1.00  0.00     0.074 A 
ATOM     41  C   UNL     1     -12.410   1.296   1.176  1.00  0.00     0.049 A 
ATOM     42  N   UNL     1     -13.455  -1.034  -0.399  1.00  0.00    -0.248 NA
ATOM     43  C   UNL     1     -12.092  -2.463   0.833  1.00  0.00     0.031 C 
ATOM     44  C   UNL     1     -11.862   2.488   1.830  1.00  0.00     0.029 A 
ATOM     45  N   UNL     1     -13.321   1.803   0.282  1.00  0.00    -0.354 N 
ATOM     46  C   UNL     1     -13.544  -2.321  -0.918  1.00  0.00     0.074 A 
ATOM     47  C   UNL     1     -12.620  -3.143  -0.174  1.00  0.00     0.031 C 
ATOM     48  C   UNL     1     -12.500   3.576   1.371  1.00  0.00     0.029 A 
ATOM     49  C   UNL     1     -13.478   3.167   0.369  1.00  0.00     0.049 A 
ATOM     50  H   UNL     1     -13.815   1.244  -0.360  1.00  0.00     0.167 HD
ATOM     51  C   UNL     1     -14.361  -2.798  -1.886  1.00  0.00     0.034 A 
ATOM     52  C   UNL     1     -14.331   3.997  -0.263  1.00  0.00     0.034 A 
ATOM     53  C   UNL     1     -15.364  -2.012  -2.546  1.00  0.00     0.049 A 
ATOM     54  C   UNL     1     -15.318   3.428  -1.242  1.00  0.00     0.074 A 
ATOM     55  C   UNL     1     -16.327  -2.431  -3.446  1.00  0.00     0.029 A 
ATOM     56  N   UNL     1     -15.546  -0.652  -2.361  1.00  0.00    -0.354 N 
ATOM     57  N   UNL     1     -15.483   2.180  -1.606  1.00  0.00    -0.248 NA
ATOM     58  C   UNL     1     -16.253   4.370  -1.875  1.00  0.00     0.031 C 
ATOM     59  C   UNL     1     -17.096  -1.321  -3.805  1.00  0.00     0.029 A 
ATOM     60  C   UNL     1     -16.612  -0.215  -3.124  1.00  0.00     0.049 A 
ATOM     61  H   UNL     1     -14.998  -0.082  -1.775  1.00  0.00     0.167 HD
ATOM     62  C   UNL     1     -16.548   2.182  -2.498  1.00  0.00     0.074 A 
ATOM     63  C   UNL     1     -17.003   3.553  -2.605  1.00  0.00     0.031 C 
ATOM     64  C   UNL     1     -17.085   1.143  -3.180  1.00  0.00     0.034 A 
BRANCH  51  65
ATOM     65  C   UNL     1     -14.295  -4.267  -2.215  1.00  0.00     0.023 A 
ATOM     66  C   UNL     1     -14.864  -5.194  -1.319  1.00  0.00     0.012 A 
ATOM     67  C   UNL     1     -13.770  -4.720  -3.441  1.00  0.00     0.148 A 
ATOM     68  C   UNL     1     -14.895  -6.553  -1.626  1.00  0.00     0.002 A 
ATOM     69  C   UNL     1     -13.836  -6.073  -3.756  1.00  0.00     0.091 A 
ATOM     70  F   UNL     1     -13.228  -3.821  -4.274  1.00  0.00    -0.205 F 
ATOM     71  C   UNL     1     -14.391  -6.990  -2.848  1.00  0.00     0.022 A 
BRANCH  69  72
ATOM     72  S   UNL     1     -13.275  -6.740  -5.327  1.00  0.00     0.127 S 
ATOM     73  O   UNL     1     -12.182  -7.616  -4.903  1.00  0.00    -0.237 OA
ATOM     74  O   UNL     1     -14.467  -7.440  -5.804  1.00  0.00    -0.237 OA
ATOM     75  O   UNL     1     -12.871  -5.596  -6.132  1.00  0.00    -0.744 OA
ENDBRANCH  69  72
ENDBRANCH  51  65
BRANCH  52  76
ATOM     76  C   UNL     1     -14.355   5.438   0.112  1.00  0.00     0.023 A 
ATOM     77  C   UNL     1     -15.387   5.908   0.947  1.00  0.00     0.012 A 
ATOM     78  C   UNL     1     -13.323   6.315  -0.273  1.00  0.00     0.148 A 
ATOM     79  C   UNL     1     -15.396   7.231   1.389  1.00  0.00     0.002 A 
ATOM     80  C   UNL     1     -13.316   7.621   0.204  1.00  0.00     0.091 A 
ATOM     81  F   UNL     1     -12.354   5.841  -1.067  1.00  0.00    -0.205 F 
ATOM     82  C   UNL     1     -14.356   8.084   1.027  1.00  0.00     0.022 A 
BRANCH  80  83
ATOM     83  S   UNL     1     -11.968   8.764  -0.116  1.00  0.00     0.127 S 
ATOM     84  O   UNL     1     -12.635   9.799  -0.903  1.00  0.00    -0.237 OA
ATOM     85  O   UNL     1     -11.592   9.167   1.240  1.00  0.00    -0.237 OA
ATOM     86  O   UNL     1     -10.954   7.995  -0.823  1.00  0.00    -0.744 OA
ENDBRANCH  80  83
ENDBRANCH  52  76
BRANCH  64  87
ATOM     87  C   UNL     1     -18.235   1.419  -4.105  1.00  0.00     0.023 A 
ATOM     88  C   UNL     1     -17.975   1.950  -5.382  1.00  0.00     0.012 A 
ATOM     89  C   UNL     1     -19.541   1.016  -3.766  1.00  0.00     0.148 A 
ATOM     90  C   UNL     1     -19.004   2.081  -6.312  1.00  0.00     0.002 A 
ATOM     91  C   UNL     1     -20.555   1.118  -4.709  1.00  0.00     0.091 A 
ATOM     92  F   UNL     1     -19.757   0.519  -2.539  1.00  0.00    -0.205 F 
ATOM     93  C   UNL     1     -20.289   1.653  -5.981  1.00  0.00     0.022 A 
BRANCH  91  94
ATOM     94  S   UNL     1     -22.222   0.523  -4.407  1.00  0.00     0.127 S 
ATOM     95  O   UNL     1     -22.987   1.769  -4.409  1.00  0.00    -0.237 OA
ATOM     96  O   UNL     1     -22.457  -0.340  -5.565  1.00  0.00    -0.237 OA
ATOM     97  O   UNL     1     -22.178  -0.173  -3.128  1.00  0.00    -0.744 OA
ENDBRANCH  91  94
ENDBRANCH  64  87
ENDBRANCH  38  39
ENDBRANCH  31  33
ENDBRANCH  30  31
ENDBRANCH   1  30
TORSDOF 17
