REMARK SMILES CS(=O)(=O)Nc1cc(C(=O)OCCOC(=O)c2ccc(-c3c4nc(c(-c5cccc(S(=O)(=O)[O-])c5F)c5ccc([nH]5)c(-c5cccc(S(=O)(=O)[O-])c5F)c5nc(c(-c6cccc(S(=O)(=O)[O-])c6F)c6ccc3[nH]6)C=C5)C=C4)cc2)ccc1N1CC[NH+](CC(=O)N2CCCC2)CC1
REMARK SMILES IDX 12 1 11 2 9 3 10 4 8 5 6 6 7 7 82 8 81 9 80 10 5 11 2 13
REMARK SMILES IDX 1 14 3 15 4 16 83 17 84 18 96 19 85 20 95 21 86 22 87 24
REMARK SMILES IDX 88 25 89 26 90 27 91 28 94 29 92 30 93 31 13 32 14 33 15 34
REMARK SMILES IDX 16 35 17 36 18 37 79 38 19 39 78 40 20 41 21 42 22 43 72 44
REMARK SMILES IDX 23 45 77 46 71 47 73 48 24 49 76 50 70 51 69 52 25 54 57 55
REMARK SMILES IDX 37 56 56 57 38 58 41 59 55 60 74 61 39 62 40 63 54 65 75 66
REMARK SMILES IDX 42 67 26 68 27 69 35 70 28 71 30 72 36 73 29 74 31 75 32 76
REMARK SMILES IDX 33 77 34 78 58 79 59 80 67 81 60 82 62 83 68 84 61 85 63 86
REMARK SMILES IDX 64 87 65 88 66 89 43 90 44 91 52 92 45 93 47 94 53 95 46 96
REMARK SMILES IDX 48 97 49 98 50 99 51 100
REMARK H PARENT 5 12 86 23 73 53 41 64
REMARK Flexibility Score: inf
ROOT
ATOM      1  C   UNL     1       3.788   7.354  -3.325  1.00  0.00     0.275 C 
ENDROOT
BRANCH   1   2
ATOM      2  O   UNL     1       3.688   6.104  -2.610  1.00  0.00    -0.458 OA
BRANCH   2   3
ATOM      3  C   UNL     1       2.479   5.844  -2.053  1.00  0.00     0.338 C 
ATOM      4  O   UNL     1       1.496   6.568  -2.076  1.00  0.00    -0.246 OA
BRANCH   3   5
ATOM      5  C   UNL     1       2.437   4.471  -1.501  1.00  0.00     0.062 A 
ATOM      6  C   UNL     1       1.209   2.372  -1.400  1.00  0.00     0.073 A 
ATOM      7  C   UNL     1       1.266   3.737  -1.693  1.00  0.00     0.044 A 
ATOM      8  C   UNL     1       2.268   1.747  -0.698  1.00  0.00     0.062 A 
ATOM      9  C   UNL     1       3.414   2.538  -0.444  1.00  0.00     0.029 A 
ATOM     10  C   UNL     1       3.523   3.865  -0.883  1.00  0.00     0.018 A 
BRANCH   6  11
ATOM     11  N   UNL     1       0.241   1.687  -2.197  1.00  0.00    -0.282 N 
ATOM     12  H   UNL     1       0.354   1.756  -3.172  1.00  0.00     0.180 HD
BRANCH  11  13
ATOM     13  S   UNL     1      -1.046   0.794  -1.673  1.00  0.00     0.229 S 
ATOM     14  C   UNL     1      -1.044   0.785   0.103  1.00  0.00     0.183 C 
ATOM     15  O   UNL     1      -0.801  -0.554  -2.146  1.00  0.00    -0.207 OA
ATOM     16  O   UNL     1      -2.228   1.507  -2.106  1.00  0.00    -0.207 OA
ENDBRANCH  11  13
ENDBRANCH   6  11
BRANCH   8  17
ATOM     17  N   UNL     1       2.231   0.406  -0.301  1.00  0.00    -0.359 N 
ATOM     18  C   UNL     1       2.999  -0.025   0.896  1.00  0.00     0.178 C 
ATOM     19  C   UNL     1       2.288  -0.580  -1.383  1.00  0.00     0.178 C 
ATOM     20  C   UNL     1       2.655  -1.480   1.324  1.00  0.00     0.284 C 
ATOM     21  C   UNL     1       1.785  -1.949  -0.888  1.00  0.00     0.284 C 
ATOM     22  N   UNL     1       2.523  -2.488   0.258  1.00  0.00    -0.324 N 
ATOM     23  H   UNL     1       1.959  -3.229   0.674  1.00  0.00     0.348 HD
BRANCH  22  24
ATOM     24  C   UNL     1       3.728  -3.248  -0.099  1.00  0.00     0.363 C 
BRANCH  24  25
ATOM     25  C   UNL     1       4.965  -2.434  -0.487  1.00  0.00     0.277 C 
ATOM     26  O   UNL     1       5.677  -1.941   0.396  1.00  0.00    -0.268 OA
ATOM     27  N   UNL     1       5.299  -2.306  -1.822  1.00  0.00    -0.338 N 
ATOM     28  C   UNL     1       4.531  -2.674  -3.010  1.00  0.00     0.119 C 
ATOM     29  C   UNL     1       6.576  -1.724  -2.193  1.00  0.00     0.119 C 
ATOM     30  C   UNL     1       5.511  -2.538  -4.166  1.00  0.00     0.023 C 
ATOM     31  C   UNL     1       6.477  -1.462  -3.686  1.00  0.00     0.023 C 
ENDBRANCH  24  25
ENDBRANCH  22  24
ENDBRANCH   8  17
ENDBRANCH   3   5
ENDBRANCH   2   3
ENDBRANCH   1   2
BRANCH   1  32
ATOM     32  C   UNL     1       3.886   7.128  -4.834  1.00  0.00     0.275 C 
BRANCH  32  33
ATOM     33  O   UNL     1       2.679   6.524  -5.333  1.00  0.00    -0.458 OA
BRANCH  33  34
ATOM     34  C   UNL     1       2.814   5.281  -5.848  1.00  0.00     0.338 C 
ATOM     35  O   UNL     1       3.839   4.630  -5.962  1.00  0.00    -0.246 OA
BRANCH  34  36
ATOM     36  C   UNL     1       1.490   4.744  -6.195  1.00  0.00     0.060 A 
ATOM     37  C   UNL     1       0.691   4.266  -5.161  1.00  0.00     0.016 A 
ATOM     38  C   UNL     1       1.096   4.570  -7.518  1.00  0.00     0.016 A 
ATOM     39  C   UNL     1      -0.469   3.544  -5.431  1.00  0.00     0.010 A 
ATOM     40  C   UNL     1      -0.112   3.912  -7.790  1.00  0.00     0.010 A 
ATOM     41  C   UNL     1      -0.890   3.356  -6.753  1.00  0.00    -0.014 A 
BRANCH  41  42
ATOM     42  C   UNL     1      -2.101   2.538  -7.060  1.00  0.00     0.031 A 
ATOM     43  C   UNL     1      -1.981   1.317  -7.940  1.00  0.00     0.074 A 
ATOM     44  C   UNL     1      -3.309   2.876  -6.564  1.00  0.00     0.049 A 
ATOM     45  N   UNL     1      -2.922   0.586  -8.481  1.00  0.00    -0.248 NA
ATOM     46  C   UNL     1      -0.617   0.867  -8.268  1.00  0.00     0.031 C 
ATOM     47  C   UNL     1      -3.576   4.001  -5.667  1.00  0.00     0.029 A 
ATOM     48  N   UNL     1      -4.547   2.308  -6.754  1.00  0.00    -0.354 N 
ATOM     49  C   UNL     1      -2.271  -0.363  -9.262  1.00  0.00     0.074 A 
ATOM     50  C   UNL     1      -0.852  -0.117  -9.126  1.00  0.00     0.031 C 
ATOM     51  C   UNL     1      -4.885   4.032  -5.373  1.00  0.00     0.029 A 
ATOM     52  C   UNL     1      -5.566   2.979  -6.117  1.00  0.00     0.049 A 
ATOM     53  H   UNL     1      -4.691   1.497  -7.295  1.00  0.00     0.167 HD
ATOM     54  C   UNL     1      -2.803  -1.357 -10.012  1.00  0.00     0.034 A 
ATOM     55  C   UNL     1      -6.901   2.796  -6.154  1.00  0.00     0.034 A 
ATOM     56  C   UNL     1      -4.210  -1.650 -10.087  1.00  0.00     0.049 A 
ATOM     57  C   UNL     1      -7.465   1.689  -7.003  1.00  0.00     0.074 A 
ATOM     58  C   UNL     1      -4.845  -2.642 -10.815  1.00  0.00     0.029 A 
ATOM     59  N   UNL     1      -5.198  -0.972  -9.390  1.00  0.00    -0.354 N 
ATOM     60  N   UNL     1      -6.833   0.794  -7.723  1.00  0.00    -0.248 NA
ATOM     61  C   UNL     1      -8.930   1.557  -7.035  1.00  0.00     0.031 C 
ATOM     62  C   UNL     1      -6.218  -2.560 -10.562  1.00  0.00     0.029 A 
ATOM     63  C   UNL     1      -6.436  -1.528  -9.664  1.00  0.00     0.049 A 
ATOM     64  H   UNL     1      -5.042  -0.207  -8.790  1.00  0.00     0.167 HD
ATOM     65  C   UNL     1      -7.818  -0.025  -8.263  1.00  0.00     0.074 A 
ATOM     66  C   UNL     1      -9.088   0.465  -7.771  1.00  0.00     0.031 C 
ATOM     67  C   UNL     1      -7.684  -1.076  -9.109  1.00  0.00     0.034 A 
BRANCH  54  68
ATOM     68  C   UNL     1      -1.859  -2.234 -10.794  1.00  0.00     0.023 A 
ATOM     69  C   UNL     1      -1.090  -3.204 -10.121  1.00  0.00     0.012 A 
ATOM     70  C   UNL     1      -1.786  -2.147 -12.199  1.00  0.00     0.148 A 
ATOM     71  C   UNL     1      -0.242  -4.055 -10.830  1.00  0.00     0.002 A 
ATOM     72  C   UNL     1      -0.970  -3.026 -12.902  1.00  0.00     0.091 A 
ATOM     73  F   UNL     1      -2.512  -1.206 -12.820  1.00  0.00    -0.205 F 
ATOM     74  C   UNL     1      -0.191  -3.973 -12.219  1.00  0.00     0.022 A 
BRANCH  72  75
ATOM     75  S   UNL     1      -0.889  -3.052 -14.697  1.00  0.00     0.127 S 
ATOM     76  O   UNL     1       0.453  -2.525 -14.940  1.00  0.00    -0.237 OA
ATOM     77  O   UNL     1      -1.046  -4.477 -14.992  1.00  0.00    -0.237 OA
ATOM     78  O   UNL     1      -1.983  -2.212 -15.162  1.00  0.00    -0.744 OA
ENDBRANCH  72  75
ENDBRANCH  54  68
BRANCH  55  79
ATOM     79  C   UNL     1      -7.804   3.675  -5.353  1.00  0.00     0.023 A 
ATOM     80  C   UNL     1      -8.530   3.123  -4.279  1.00  0.00     0.012 A 
ATOM     81  C   UNL     1      -7.947   5.046  -5.642  1.00  0.00     0.148 A 
ATOM     82  C   UNL     1      -9.404   3.913  -3.529  1.00  0.00     0.002 A 
ATOM     83  C   UNL     1      -8.772   5.840  -4.853  1.00  0.00     0.091 A 
ATOM     84  F   UNL     1      -7.273   5.552  -6.685  1.00  0.00    -0.205 F 
ATOM     85  C   UNL     1      -9.515   5.272  -3.808  1.00  0.00     0.022 A 
BRANCH  83  86
ATOM     86  S   UNL     1      -8.862   7.622  -5.064  1.00  0.00     0.127 S 
ATOM     87  O   UNL     1     -10.123   7.776  -5.783  1.00  0.00    -0.237 OA
ATOM     88  O   UNL     1      -8.882   8.098  -3.679  1.00  0.00    -0.237 OA
ATOM     89  O   UNL     1      -7.658   7.985  -5.799  1.00  0.00    -0.744 OA
ENDBRANCH  83  86
ENDBRANCH  55  79
BRANCH  67  90
ATOM     90  C   UNL     1      -8.936  -1.803  -9.524  1.00  0.00     0.023 A 
ATOM     91  C   UNL     1      -9.815  -1.208 -10.450  1.00  0.00     0.012 A 
ATOM     92  C   UNL     1      -9.200  -3.105  -9.055  1.00  0.00     0.148 A 
ATOM     93  C   UNL     1     -10.955  -1.887 -10.880  1.00  0.00     0.002 A 
ATOM     94  C   UNL     1     -10.313  -3.793  -9.523  1.00  0.00     0.091 A 
ATOM     95  F   UNL     1      -8.360  -3.646  -8.160  1.00  0.00    -0.205 F 
ATOM     96  C   UNL     1     -11.197  -3.181 -10.426  1.00  0.00     0.022 A 
BRANCH  94  97
ATOM     97  S   UNL     1     -10.655  -5.496  -9.065  1.00  0.00     0.127 S 
ATOM     98  O   UNL     1     -11.791  -5.339  -8.159  1.00  0.00    -0.237 OA
ATOM     99  O   UNL     1     -10.984  -6.104 -10.355  1.00  0.00    -0.237 OA
ATOM    100  O   UNL     1      -9.433  -6.001  -8.455  1.00  0.00    -0.744 OA
ENDBRANCH  94  97
ENDBRANCH  67  90
ENDBRANCH  41  42
ENDBRANCH  34  36
ENDBRANCH  33  34
ENDBRANCH  32  33
ENDBRANCH   1  32
TORSDOF 19
