REMARK SMILES COC(=O)[C@H]1CN(C(=O)[C@@H]2CC=CC[C@@H]2C(=O)OCCOC(=O)c2ccc(-c3c4nc(c(-c5cccc(S(=O)(=O)[O-])c5F)c5ccc([nH]5)c(-c5cccc(S(=O)(=O)[O-])c5F)c5nc(c(-c6cccc(S(=O)(=O)[O-])c6F)c6ccc3[nH]6)C=C5)C=C4)cc2)C[C@H]1C
REMARK SMILES IDX 19 1 18 2 16 3 17 4 15 5 10 6 11 7 12 8 14 9 13 10 8 11 9 12
REMARK SMILES IDX 7 13 5 14 6 15 88 16 87 17 89 18 3 19 4 20 2 21 1 22 20 23
REMARK SMILES IDX 21 24 22 25 23 26 24 27 25 28 86 29 26 30 85 31 27 32 28 33
REMARK SMILES IDX 29 34 79 35 30 36 84 37 78 38 80 39 31 40 83 41 77 42 76 43
REMARK SMILES IDX 32 45 64 46 44 47 63 48 45 49 48 50 62 51 81 52 46 53 47 54
REMARK SMILES IDX 61 56 82 57 49 58 33 59 34 60 42 61 35 62 37 63 43 64 36 65
REMARK SMILES IDX 38 66 39 67 40 68 41 69 65 70 66 71 74 72 67 73 69 74 75 75
REMARK SMILES IDX 68 76 70 77 71 78 72 79 73 80 50 81 51 82 59 83 52 84 54 85
REMARK SMILES IDX 60 86 53 87 55 88 56 89 57 90 58 91
REMARK H PARENT 80 44 48 55
REMARK Flexibility Score: inf
ROOT
ATOM      1  C   UNL     1      -2.915  10.819  -1.526  1.00  0.00     0.274 C 
ENDROOT
BRANCH   1   2
ATOM      2  O   UNL     1      -2.627   9.908  -0.443  1.00  0.00    -0.462 OA
BRANCH   2   3
ATOM      3  C   UNL     1      -2.093   8.711  -0.804  1.00  0.00     0.310 C 
ATOM      4  O   UNL     1      -1.824   8.414  -1.963  1.00  0.00    -0.252 OA
BRANCH   3   5
ATOM      5  C   UNL     1      -2.000   7.716   0.348  1.00  0.00     0.115 C 
ATOM      6  C   UNL     1      -1.855   8.295   1.774  1.00  0.00     0.097 C 
ATOM      7  C   UNL     1      -0.454   8.818   2.076  1.00  0.00     0.041 C 
ATOM      8  C   UNL     1       0.616   7.851   1.672  1.00  0.00    -0.030 C 
ATOM      9  C   UNL     1      -0.897   6.660   0.067  1.00  0.00     0.043 C 
ATOM     10  C   UNL     1       0.409   6.877   0.778  1.00  0.00    -0.030 C 
BRANCH   6  11
ATOM     11  C   UNL     1      -3.097   9.089   2.202  1.00  0.00     0.226 C 
ATOM     12  O   UNL     1      -4.175   8.476   2.236  1.00  0.00    -0.275 OA
BRANCH  11  13
ATOM     13  N   UNL     1      -3.066  10.418   2.550  1.00  0.00    -0.341 N 
ATOM     14  C   UNL     1      -3.819  12.338   3.680  1.00  0.00     0.123 C 
ATOM     15  C   UNL     1      -4.291  11.074   2.982  1.00  0.00     0.135 C 
ATOM     16  C   UNL     1      -2.568  12.739   2.885  1.00  0.00     0.021 C 
ATOM     17  C   UNL     1      -1.977  11.383   2.477  1.00  0.00     0.123 C 
ATOM     18  C   UNL     1      -2.847  13.629   1.672  1.00  0.00     0.010 C 
BRANCH  14  19
ATOM     19  C   UNL     1      -4.886  13.399   3.739  1.00  0.00     0.310 C 
ATOM     20  O   UNL     1      -5.983  13.334   3.205  1.00  0.00    -0.252 OA
BRANCH  19  21
ATOM     21  O   UNL     1      -4.432  14.459   4.469  1.00  0.00    -0.469 OA
ATOM     22  C   UNL     1      -5.323  15.573   4.495  1.00  0.00     0.282 C 
ENDBRANCH  19  21
ENDBRANCH  14  19
ENDBRANCH  11  13
ENDBRANCH   6  11
ENDBRANCH   3   5
ENDBRANCH   2   3
ENDBRANCH   1   2
BRANCH   1  23
ATOM     23  C   UNL     1      -1.848  11.904  -1.641  1.00  0.00     0.275 C 
BRANCH  23  24
ATOM     24  O   UNL     1      -0.549  11.302  -1.687  1.00  0.00    -0.458 OA
BRANCH  24  25
ATOM     25  C   UNL     1       0.337  11.700  -0.745  1.00  0.00     0.338 C 
ATOM     26  O   UNL     1       0.190  12.588   0.077  1.00  0.00    -0.246 OA
BRANCH  25  27
ATOM     27  C   UNL     1       1.556  10.873  -0.838  1.00  0.00     0.060 A 
ATOM     28  C   UNL     1       1.490   9.534  -1.229  1.00  0.00     0.016 A 
ATOM     29  C   UNL     1       2.785  11.445  -0.505  1.00  0.00     0.016 A 
ATOM     30  C   UNL     1       2.647   8.766  -1.288  1.00  0.00     0.010 A 
ATOM     31  C   UNL     1       3.954  10.701  -0.657  1.00  0.00     0.010 A 
ATOM     32  C   UNL     1       3.897   9.360  -1.070  1.00  0.00    -0.014 A 
BRANCH  32  33
ATOM     33  C   UNL     1       5.144   8.633  -1.414  1.00  0.00     0.031 A 
ATOM     34  C   UNL     1       6.215   8.410  -0.389  1.00  0.00     0.074 A 
ATOM     35  C   UNL     1       5.335   8.266  -2.697  1.00  0.00     0.049 A 
ATOM     36  N   UNL     1       7.438   7.980  -0.559  1.00  0.00    -0.248 NA
ATOM     37  C   UNL     1       5.880   8.736   1.006  1.00  0.00     0.031 C 
ATOM     38  C   UNL     1       4.369   8.462  -3.782  1.00  0.00     0.029 A 
ATOM     39  N   UNL     1       6.407   7.676  -3.317  1.00  0.00    -0.354 N 
ATOM     40  C   UNL     1       8.043   8.052   0.689  1.00  0.00     0.074 A 
ATOM     41  C   UNL     1       7.045   8.550   1.613  1.00  0.00     0.031 C 
ATOM     42  C   UNL     1       4.875   7.977  -4.922  1.00  0.00     0.029 A 
ATOM     43  C   UNL     1       6.234   7.520  -4.673  1.00  0.00     0.049 A 
ATOM     44  H   UNL     1       7.220   7.392  -2.839  1.00  0.00     0.167 HD
ATOM     45  C   UNL     1       9.316   7.731   1.026  1.00  0.00     0.034 A 
ATOM     46  C   UNL     1       7.087   7.099  -5.626  1.00  0.00     0.034 A 
ATOM     47  C   UNL     1      10.275   7.188   0.099  1.00  0.00     0.049 A 
ATOM     48  C   UNL     1       8.482   6.733  -5.223  1.00  0.00     0.074 A 
ATOM     49  C   UNL     1      11.565   6.754   0.349  1.00  0.00     0.029 A 
ATOM     50  N   UNL     1      10.050   7.007  -1.259  1.00  0.00    -0.354 N 
ATOM     51  N   UNL     1       9.017   6.732  -4.025  1.00  0.00    -0.248 NA
ATOM     52  C   UNL     1       9.393   6.314  -6.294  1.00  0.00     0.031 C 
ATOM     53  C   UNL     1      12.126   6.330  -0.862  1.00  0.00     0.029 A 
ATOM     54  C   UNL     1      11.181   6.485  -1.865  1.00  0.00     0.049 A 
ATOM     55  H   UNL     1       9.209   7.220  -1.724  1.00  0.00     0.167 HD
ATOM     56  C   UNL     1      10.329   6.315  -4.195  1.00  0.00     0.074 A 
ATOM     57  C   UNL     1      10.495   6.035  -5.609  1.00  0.00     0.031 C 
ATOM     58  C   UNL     1      11.314   6.198  -3.271  1.00  0.00     0.034 A 
BRANCH  45  59
ATOM     59  C   UNL     1       9.737   7.945   2.457  1.00  0.00     0.023 A 
ATOM     60  C   UNL     1       9.264   7.081   3.465  1.00  0.00     0.012 A 
ATOM     61  C   UNL     1      10.631   8.979   2.801  1.00  0.00     0.148 A 
ATOM     62  C   UNL     1       9.645   7.263   4.795  1.00  0.00     0.002 A 
ATOM     63  C   UNL     1      11.036   9.130   4.124  1.00  0.00     0.091 A 
ATOM     64  F   UNL     1      11.052   9.810   1.837  1.00  0.00    -0.205 F 
ATOM     65  C   UNL     1      10.537   8.280   5.123  1.00  0.00     0.022 A 
BRANCH  63  66
ATOM     66  S   UNL     1      12.235  10.373   4.624  1.00  0.00     0.127 S 
ATOM     67  O   UNL     1      11.372  11.400   5.204  1.00  0.00    -0.237 OA
ATOM     68  O   UNL     1      13.053   9.645   5.597  1.00  0.00    -0.237 OA
ATOM     69  O   UNL     1      12.942  10.751   3.409  1.00  0.00    -0.744 OA
ENDBRANCH  63  66
ENDBRANCH  45  59
BRANCH  46  70
ATOM     70  C   UNL     1       6.611   6.987  -7.034  1.00  0.00     0.023 A 
ATOM     71  C   UNL     1       6.404   5.709  -7.585  1.00  0.00     0.012 A 
ATOM     72  C   UNL     1       6.247   8.125  -7.782  1.00  0.00     0.148 A 
ATOM     73  C   UNL     1       5.840   5.566  -8.853  1.00  0.00     0.002 A 
ATOM     74  C   UNL     1       5.627   7.974  -9.016  1.00  0.00     0.091 A 
ATOM     75  F   UNL     1       6.472   9.335  -7.248  1.00  0.00    -0.205 F 
ATOM     76  C   UNL     1       5.433   6.695  -9.560  1.00  0.00     0.022 A 
BRANCH  74  77
ATOM     77  S   UNL     1       4.918   9.364  -9.910  1.00  0.00     0.127 S 
ATOM     78  O   UNL     1       5.857   9.519 -11.017  1.00  0.00    -0.237 OA
ATOM     79  O   UNL     1       3.602   8.846 -10.286  1.00  0.00    -0.237 OA
ATOM     80  O   UNL     1       4.875  10.462  -8.954  1.00  0.00    -0.744 OA
ENDBRANCH  74  77
ENDBRANCH  46  70
BRANCH  58  81
ATOM     81  C   UNL     1      12.665   5.764  -3.772  1.00  0.00     0.023 A 
ATOM     82  C   UNL     1      13.469   6.686  -4.471  1.00  0.00     0.012 A 
ATOM     83  C   UNL     1      13.155   4.472  -3.509  1.00  0.00     0.148 A 
ATOM     84  C   UNL     1      14.733   6.318  -4.926  1.00  0.00     0.002 A 
ATOM     85  C   UNL     1      14.433   4.125  -3.930  1.00  0.00     0.091 A 
ATOM     86  F   UNL     1      12.363   3.606  -2.862  1.00  0.00    -0.205 F 
ATOM     87  C   UNL     1      15.219   5.043  -4.647  1.00  0.00     0.022 A 
BRANCH  85  88
ATOM     88  S   UNL     1      15.173   2.535  -3.546  1.00  0.00     0.127 S 
ATOM     89  O   UNL     1      15.134   1.867  -4.846  1.00  0.00    -0.237 OA
ATOM     90  O   UNL     1      16.512   2.915  -3.095  1.00  0.00    -0.237 OA
ATOM     91  O   UNL     1      14.334   1.943  -2.513  1.00  0.00    -0.744 OA
ENDBRANCH  85  88
ENDBRANCH  58  81
ENDBRANCH  32  33
ENDBRANCH  25  27
ENDBRANCH  24  25
ENDBRANCH  23  24
ENDBRANCH   1  23
TORSDOF 18
