REMARK SMILES CC[NH2+][C@@]1(C(=O)OCCOC(=O)c2ccc(-c3c4nc(c(-c5cccc(S(=O)(=O)[O-])c5F)c5ccc([nH]5)c(-c5cccc(S(=O)(=O)[O-])c5F)c5nc(c(-c6cccc(S(=O)(=O)[O-])c6F)c6ccc3[nH]6)C=C5)C=C4)cc2)CC[C@@H]([NH+]2CCC(C)(CC)CC2)C1
REMARK SMILES IDX 9 1 8 2 7 3 5 4 6 5 4 6 76 7 88 8 77 9 78 10 3 11 2 14 1 15
REMARK SMILES IDX 79 16 80 17 87 18 81 20 86 21 82 22 83 23 84 24 85 25 10 26
REMARK SMILES IDX 11 27 12 28 13 29 14 30 75 31 15 32 74 33 16 34 17 35 18 36
REMARK SMILES IDX 68 37 19 38 73 39 67 40 69 41 20 42 72 43 66 44 65 45 21 47
REMARK SMILES IDX 53 48 33 49 52 50 34 51 37 52 51 53 70 54 35 55 36 56 50 58
REMARK SMILES IDX 71 59 38 60 22 61 23 62 31 63 24 64 26 65 32 66 25 67 27 68
REMARK SMILES IDX 28 69 29 70 30 71 54 72 55 73 63 74 56 75 58 76 64 77 57 78
REMARK SMILES IDX 59 79 60 80 61 81 62 82 39 83 40 84 48 85 41 86 43 87 49 88
REMARK SMILES IDX 42 89 44 90 45 91 46 92 47 93
REMARK H PARENT 3 12 3 13 79 19 69 46 37 57
REMARK Flexibility Score: inf
ROOT
ATOM      1  C   UNL     1      -3.962  -3.784   0.330  1.00  0.00     0.275 C 
ENDROOT
BRANCH   1   2
ATOM      2  C   UNL     1      -3.253  -4.182  -0.965  1.00  0.00     0.274 C 
BRANCH   2   3
ATOM      3  O   UNL     1      -1.843  -4.359  -0.732  1.00  0.00    -0.457 OA
BRANCH   3   4
ATOM      4  C   UNL     1      -1.012  -3.524  -1.414  1.00  0.00     0.368 C 
ATOM      5  O   UNL     1      -1.394  -2.771  -2.307  1.00  0.00    -0.245 OA
BRANCH   4   6
ATOM      6  C   UNL     1       0.488  -3.697  -1.017  1.00  0.00     0.200 C 
ATOM      7  C   UNL     1       1.228  -4.273  -2.232  1.00  0.00     0.087 C 
ATOM      8  C   UNL     1       0.751  -4.773   0.064  1.00  0.00     0.146 C 
ATOM      9  C   UNL     1       0.878  -5.757  -2.176  1.00  0.00     0.072 C 
ATOM     10  C   UNL     1       0.877  -6.116  -0.677  1.00  0.00     0.191 C 
BRANCH   6  11
ATOM     11  N   UNL     1       1.073  -2.424  -0.523  1.00  0.00    -0.332 N 
ATOM     12  H   UNL     1       0.621  -2.198   0.363  1.00  0.00     0.347 HD
ATOM     13  H   UNL     1       2.076  -2.595  -0.452  1.00  0.00     0.347 HD
BRANCH  11  14
ATOM     14  C   UNL     1       0.936  -1.263  -1.401  1.00  0.00     0.257 C 
ATOM     15  C   UNL     1       1.792  -0.120  -0.870  1.00  0.00     0.071 C 
ENDBRANCH  11  14
ENDBRANCH   6  11
BRANCH  10  16
ATOM     16  N   UNL     1       1.994  -6.981  -0.282  1.00  0.00    -0.332 N 
ATOM     17  C   UNL     1       1.888  -7.604   1.033  1.00  0.00     0.263 C 
ATOM     18  C   UNL     1       3.353  -6.610  -0.653  1.00  0.00     0.263 C 
ATOM     19  H   UNL     1       1.817  -7.726  -0.957  1.00  0.00     0.348 HD
ATOM     20  C   UNL     1       2.675  -6.927   2.160  1.00  0.00     0.068 C 
ATOM     21  C   UNL     1       4.162  -5.871   0.413  1.00  0.00     0.068 C 
ATOM     22  C   UNL     1       4.124  -6.509   1.817  1.00  0.00    -0.022 C 
ATOM     23  C   UNL     1       4.548  -5.420   2.842  1.00  0.00     0.012 C 
BRANCH  22  24
ATOM     24  C   UNL     1       5.168  -7.654   1.994  1.00  0.00     0.004 C 
ATOM     25  C   UNL     1       5.106  -8.878   1.097  1.00  0.00     0.004 C 
ENDBRANCH  22  24
ENDBRANCH  10  16
ENDBRANCH   4   6
ENDBRANCH   3   4
ENDBRANCH   2   3
ENDBRANCH   1   2
BRANCH   1  26
ATOM     26  O   UNL     1      -3.356  -2.615   0.908  1.00  0.00    -0.458 OA
BRANCH  26  27
ATOM     27  C   UNL     1      -2.392  -2.876   1.823  1.00  0.00     0.338 C 
ATOM     28  O   UNL     1      -2.070  -3.982   2.246  1.00  0.00    -0.246 OA
BRANCH  27  29
ATOM     29  C   UNL     1      -1.681  -1.640   2.197  1.00  0.00     0.060 A 
ATOM     30  C   UNL     1      -0.297  -1.717   2.386  1.00  0.00     0.016 A 
ATOM     31  C   UNL     1      -2.356  -0.436   2.425  1.00  0.00     0.016 A 
ATOM     32  C   UNL     1       0.416  -0.599   2.807  1.00  0.00     0.010 A 
ATOM     33  C   UNL     1      -1.643   0.681   2.874  1.00  0.00     0.010 A 
ATOM     34  C   UNL     1      -0.257   0.597   3.083  1.00  0.00    -0.014 A 
BRANCH  34  35
ATOM     35  C   UNL     1       0.483   1.698   3.738  1.00  0.00     0.031 A 
ATOM     36  C   UNL     1       0.652   1.663   5.228  1.00  0.00     0.074 A 
ATOM     37  C   UNL     1       1.011   2.703   3.018  1.00  0.00     0.049 A 
ATOM     38  N   UNL     1       1.339   2.461   6.002  1.00  0.00    -0.248 NA
ATOM     39  C   UNL     1      -0.047   0.581   5.940  1.00  0.00     0.031 C 
ATOM     40  C   UNL     1       0.894   2.857   1.571  1.00  0.00     0.029 A 
ATOM     41  N   UNL     1       1.741   3.794   3.418  1.00  0.00    -0.354 N 
ATOM     42  C   UNL     1       1.161   1.978   7.292  1.00  0.00     0.074 A 
ATOM     43  C   UNL     1       0.287   0.827   7.198  1.00  0.00     0.031 C 
ATOM     44  C   UNL     1       1.517   3.989   1.202  1.00  0.00     0.029 A 
ATOM     45  C   UNL     1       2.066   4.644   2.389  1.00  0.00     0.049 A 
ATOM     46  H   UNL     1       2.007   3.952   4.353  1.00  0.00     0.167 HD
ATOM     47  C   UNL     1       1.683   2.442   8.451  1.00  0.00     0.034 A 
ATOM     48  C   UNL     1       2.725   5.819   2.408  1.00  0.00     0.034 A 
ATOM     49  C   UNL     1       2.512   3.611   8.550  1.00  0.00     0.049 A 
ATOM     50  C   UNL     1       3.281   6.331   3.712  1.00  0.00     0.074 A 
ATOM     51  C   UNL     1       3.087   4.168   9.678  1.00  0.00     0.029 A 
ATOM     52  N   UNL     1       2.863   4.422   7.481  1.00  0.00    -0.354 N 
ATOM     53  N   UNL     1       3.228   5.786   4.904  1.00  0.00    -0.248 NA
ATOM     54  C   UNL     1       4.023   7.600   3.668  1.00  0.00     0.031 C 
ATOM     55  C   UNL     1       3.768   5.329   9.293  1.00  0.00     0.029 A 
ATOM     56  C   UNL     1       3.640   5.479   7.921  1.00  0.00     0.049 A 
ATOM     57  H   UNL     1       2.599   4.267   6.545  1.00  0.00     0.167 HD
ATOM     58  C   UNL     1       3.955   6.624   5.743  1.00  0.00     0.074 A 
ATOM     59  C   UNL     1       4.456   7.705   4.918  1.00  0.00     0.031 C 
ATOM     60  C   UNL     1       4.178   6.517   7.077  1.00  0.00     0.034 A 
BRANCH  47  61
ATOM     61  C   UNL     1       1.367   1.662   9.697  1.00  0.00     0.023 A 
ATOM     62  C   UNL     1       1.989   0.413   9.906  1.00  0.00     0.012 A 
ATOM     63  C   UNL     1       0.456   2.150  10.652  1.00  0.00     0.148 A 
ATOM     64  C   UNL     1       1.678  -0.355  11.027  1.00  0.00     0.002 A 
ATOM     65  C   UNL     1       0.180   1.395  11.785  1.00  0.00     0.091 A 
ATOM     66  F   UNL     1      -0.149   3.324  10.419  1.00  0.00    -0.205 F 
ATOM     67  C   UNL     1       0.780   0.138  11.969  1.00  0.00     0.022 A 
BRANCH  65  68
ATOM     68  S   UNL     1      -0.921   1.978  13.079  1.00  0.00     0.127 S 
ATOM     69  O   UNL     1      -2.139   1.222  12.794  1.00  0.00    -0.237 OA
ATOM     70  O   UNL     1      -0.219   1.567  14.295  1.00  0.00    -0.237 OA
ATOM     71  O   UNL     1      -1.014   3.420  12.897  1.00  0.00    -0.744 OA
ENDBRANCH  65  68
ENDBRANCH  47  61
BRANCH  48  72
ATOM     72  C   UNL     1       2.941   6.566   1.136  1.00  0.00     0.023 A 
ATOM     73  C   UNL     1       4.235   6.652   0.589  1.00  0.00     0.012 A 
ATOM     74  C   UNL     1       1.864   7.163   0.452  1.00  0.00     0.148 A 
ATOM     75  C   UNL     1       4.458   7.342  -0.603  1.00  0.00     0.002 A 
ATOM     76  C   UNL     1       2.084   7.803  -0.762  1.00  0.00     0.091 A 
ATOM     77  F   UNL     1       0.642   7.081   0.998  1.00  0.00    -0.205 F 
ATOM     78  C   UNL     1       3.383   7.908  -1.284  1.00  0.00     0.022 A 
BRANCH  76  79
ATOM     79  S   UNL     1       0.746   8.453  -1.769  1.00  0.00     0.127 S 
ATOM     80  O   UNL     1       0.989   9.892  -1.696  1.00  0.00    -0.237 OA
ATOM     81  O   UNL     1       1.029   7.846  -3.070  1.00  0.00    -0.237 OA
ATOM     82  O   UNL     1      -0.483   7.989  -1.141  1.00  0.00    -0.744 OA
ENDBRANCH  76  79
ENDBRANCH  48  72
BRANCH  60  83
ATOM     83  C   UNL     1       5.029   7.573   7.735  1.00  0.00     0.023 A 
ATOM     84  C   UNL     1       4.511   8.867   7.939  1.00  0.00     0.012 A 
ATOM     85  C   UNL     1       6.313   7.259   8.225  1.00  0.00     0.148 A 
ATOM     86  C   UNL     1       5.268   9.840   8.593  1.00  0.00     0.002 A 
ATOM     87  C   UNL     1       7.043   8.219   8.917  1.00  0.00     0.091 A 
ATOM     88  F   UNL     1       6.801   6.030   8.002  1.00  0.00    -0.205 F 
ATOM     89  C   UNL     1       6.527   9.513   9.092  1.00  0.00     0.022 A 
BRANCH  87  90
ATOM     90  S   UNL     1       8.628   7.846   9.676  1.00  0.00     0.127 S 
ATOM     91  O   UNL     1       9.564   8.420   8.712  1.00  0.00    -0.237 OA
ATOM     92  O   UNL     1       8.545   8.565  10.948  1.00  0.00    -0.237 OA
ATOM     93  O   UNL     1       8.669   6.396   9.810  1.00  0.00    -0.744 OA
ENDBRANCH  87  90
ENDBRANCH  60  83
ENDBRANCH  34  35
ENDBRANCH  27  29
ENDBRANCH  26  27
ENDBRANCH   1  26
TORSDOF 18
