REMARK SMILES CC[C@H](C)[NH+]1CCN(C(=O)CC(=O)OCCOC(=O)c2ccc(-c3c4nc(c(-c5cccc(S(=O)(=O)[O-])c5F)c5ccc([nH]5)c(-c5cccc(S(=O)(=O)[O-])c5F)c5nc(c(-c6cccc(S(=O)(=O)[O-])c6F)c6ccc3[nH]6)C=C5)C=C4)cc2)CC1
REMARK SMILES IDX 15 1 14 2 12 3 13 4 11 5 9 6 5 7 6 8 84 9 7 11 83 12 8 13
REMARK SMILES IDX 10 14 3 15 4 16 2 17 1 18 16 19 17 20 18 21 19 22 20 23
REMARK SMILES IDX 21 24 82 25 22 26 81 27 23 28 24 29 25 30 75 31 26 32 80 33
REMARK SMILES IDX 74 34 76 35 27 36 79 37 73 38 72 39 28 41 60 42 40 43 59 44
REMARK SMILES IDX 41 45 44 46 58 47 77 48 42 49 43 50 57 52 78 53 45 54 29 55
REMARK SMILES IDX 30 56 38 57 31 58 33 59 39 60 32 61 34 62 35 63 36 64 37 65
REMARK SMILES IDX 61 66 62 67 70 68 63 69 65 70 71 71 64 72 66 73 67 74 68 75
REMARK SMILES IDX 69 76 46 77 47 78 55 79 48 80 50 81 56 82 49 83 51 84 52 85
REMARK SMILES IDX 53 86 54 87
REMARK H PARENT 5 10 76 40 44 51
REMARK Flexibility Score: inf
ROOT
ATOM      1  C   UNL     1      -3.817   3.697  -0.152  1.00  0.00     0.274 C 
ENDROOT
BRANCH   1   2
ATOM      2  O   UNL     1      -3.747   2.763  -1.249  1.00  0.00    -0.462 OA
BRANCH   2   3
ATOM      3  C   UNL     1      -4.055   3.267  -2.471  1.00  0.00     0.315 C 
ATOM      4  O   UNL     1      -4.393   4.429  -2.679  1.00  0.00    -0.252 OA
BRANCH   3   5
ATOM      5  C   UNL     1      -3.878   2.300  -3.602  1.00  0.00     0.222 C 
BRANCH   5   6
ATOM      6  C   UNL     1      -3.673   0.859  -3.223  1.00  0.00     0.234 C 
ATOM      7  N   UNL     1       0.123  -1.217  -3.635  1.00  0.00    -0.330 N 
ATOM      8  C   UNL     1      -1.163  -1.909  -3.674  1.00  0.00     0.284 C 
ATOM      9  C   UNL     1      -0.016   0.093  -4.287  1.00  0.00     0.284 C 
ATOM     10  H   UNL     1       0.755  -1.806  -4.176  1.00  0.00     0.348 HD
ATOM     11  C   UNL     1      -2.320  -1.136  -3.041  1.00  0.00     0.181 C 
ATOM     12  C   UNL     1      -1.208   0.963  -3.815  1.00  0.00     0.181 C 
ATOM     13  N   UNL     1      -2.455   0.243  -3.507  1.00  0.00    -0.331 N 
ATOM     14  O   UNL     1      -4.606   0.238  -2.702  1.00  0.00    -0.274 OA
BRANCH   7  15
ATOM     15  C   UNL     1       0.932  -1.244  -2.398  1.00  0.00     0.180 C 
ATOM     16  C   UNL     1       0.778  -0.046  -1.453  1.00  0.00     0.075 C 
BRANCH  15  17
ATOM     17  C   UNL     1       0.918  -2.588  -1.617  1.00  0.00     0.061 C 
ATOM     18  C   UNL     1      -0.054  -2.681  -0.445  1.00  0.00     0.010 C 
ENDBRANCH  15  17
ENDBRANCH   7  15
ENDBRANCH   5   6
ENDBRANCH   3   5
ENDBRANCH   2   3
ENDBRANCH   1   2
BRANCH   1  19
ATOM     19  C   UNL     1      -2.414   4.075   0.311  1.00  0.00     0.275 C 
BRANCH  19  20
ATOM     20  O   UNL     1      -1.623   4.471  -0.822  1.00  0.00    -0.458 OA
BRANCH  20  21
ATOM     21  C   UNL     1      -0.467   3.785  -0.985  1.00  0.00     0.338 C 
ATOM     22  O   UNL     1      -0.008   2.935  -0.243  1.00  0.00    -0.246 OA
BRANCH  21  23
ATOM     23  C   UNL     1       0.208   4.201  -2.232  1.00  0.00     0.060 A 
ATOM     24  C   UNL     1      -0.503   4.433  -3.414  1.00  0.00     0.016 A 
ATOM     25  C   UNL     1       1.602   4.272  -2.228  1.00  0.00     0.016 A 
ATOM     26  C   UNL     1       0.187   4.691  -4.602  1.00  0.00     0.010 A 
ATOM     27  C   UNL     1       2.282   4.612  -3.397  1.00  0.00     0.010 A 
ATOM     28  C   UNL     1       1.586   4.811  -4.601  1.00  0.00    -0.014 A 
BRANCH  28  29
ATOM     29  C   UNL     1       2.344   5.210  -5.819  1.00  0.00     0.031 A 
ATOM     30  C   UNL     1       3.427   4.322  -6.374  1.00  0.00     0.074 A 
ATOM     31  C   UNL     1       2.140   6.429  -6.356  1.00  0.00     0.049 A 
ATOM     32  N   UNL     1       4.333   4.595  -7.277  1.00  0.00    -0.248 NA
ATOM     33  C   UNL     1       3.510   2.955  -5.835  1.00  0.00     0.031 C 
ATOM     34  C   UNL     1       1.143   7.399  -5.899  1.00  0.00     0.029 A 
ATOM     35  N   UNL     1       2.793   7.080  -7.375  1.00  0.00    -0.354 N 
ATOM     36  C   UNL     1       5.131   3.460  -7.372  1.00  0.00     0.074 A 
ATOM     37  C   UNL     1       4.593   2.489  -6.444  1.00  0.00     0.031 C 
ATOM     38  C   UNL     1       1.257   8.522  -6.622  1.00  0.00     0.029 A 
ATOM     39  C   UNL     1       2.375   8.379  -7.548  1.00  0.00     0.049 A 
ATOM     40  H   UNL     1       3.492   6.659  -7.926  1.00  0.00     0.167 HD
ATOM     41  C   UNL     1       6.205   3.244  -8.169  1.00  0.00     0.034 A 
ATOM     42  C   UNL     1       2.858   9.366  -8.328  1.00  0.00     0.034 A 
ATOM     43  C   UNL     1       6.705   4.187  -9.134  1.00  0.00     0.049 A 
ATOM     44  C   UNL     1       4.045   9.097  -9.207  1.00  0.00     0.074 A 
ATOM     45  C   UNL     1       7.745   4.026 -10.034  1.00  0.00     0.029 A 
ATOM     46  N   UNL     1       6.202   5.463  -9.332  1.00  0.00    -0.354 N 
ATOM     47  N   UNL     1       4.725   7.987  -9.353  1.00  0.00    -0.248 NA
ATOM     48  C   UNL     1       4.523  10.210 -10.039  1.00  0.00     0.031 C 
ATOM     49  C   UNL     1       7.873   5.206 -10.773  1.00  0.00     0.029 A 
ATOM     50  C   UNL     1       6.912   6.101 -10.335  1.00  0.00     0.049 A 
ATOM     51  H   UNL     1       5.451   5.857  -8.832  1.00  0.00     0.167 HD
ATOM     52  C   UNL     1       5.697   8.259 -10.307  1.00  0.00     0.074 A 
ATOM     53  C   UNL     1       5.505   9.634 -10.721  1.00  0.00     0.031 C 
ATOM     54  C   UNL     1       6.676   7.450 -10.780  1.00  0.00     0.034 A 
BRANCH  41  55
ATOM     55  C   UNL     1       6.896   1.911  -8.074  1.00  0.00     0.023 A 
ATOM     56  C   UNL     1       6.326   0.792  -8.712  1.00  0.00     0.012 A 
ATOM     57  C   UNL     1       8.146   1.783  -7.437  1.00  0.00     0.148 A 
ATOM     58  C   UNL     1       6.982  -0.438  -8.706  1.00  0.00     0.002 A 
ATOM     59  C   UNL     1       8.809   0.561  -7.462  1.00  0.00     0.091 A 
ATOM     60  F   UNL     1       8.659   2.852  -6.810  1.00  0.00    -0.205 F 
ATOM     61  C   UNL     1       8.227  -0.551  -8.092  1.00  0.00     0.022 A 
BRANCH  59  62
ATOM     62  S   UNL     1      10.447   0.349  -6.754  1.00  0.00     0.127 S 
ATOM     63  O   UNL     1      10.136  -0.274  -5.469  1.00  0.00    -0.237 OA
ATOM     64  O   UNL     1      11.097  -0.539  -7.720  1.00  0.00    -0.237 OA
ATOM     65  O   UNL     1      11.022   1.686  -6.688  1.00  0.00    -0.744 OA
ENDBRANCH  59  62
ENDBRANCH  41  55
BRANCH  42  66
ATOM     66  C   UNL     1       2.186  10.695  -8.323  1.00  0.00     0.023 A 
ATOM     67  C   UNL     1       1.421  11.080  -9.440  1.00  0.00     0.012 A 
ATOM     68  C   UNL     1       2.236  11.540  -7.198  1.00  0.00     0.148 A 
ATOM     69  C   UNL     1       0.724  12.288  -9.439  1.00  0.00     0.002 A 
ATOM     70  C   UNL     1       1.493  12.714  -7.181  1.00  0.00     0.091 A 
ATOM     71  F   UNL     1       2.991  11.169  -6.154  1.00  0.00    -0.205 F 
ATOM     72  C   UNL     1       0.746  13.097  -8.305  1.00  0.00     0.022 A 
BRANCH  70  73
ATOM     73  S   UNL     1       1.354  13.719  -5.698  1.00  0.00     0.127 S 
ATOM     74  O   UNL     1       2.340  14.766  -5.949  1.00  0.00    -0.237 OA
ATOM     75  O   UNL     1      -0.040  14.161  -5.749  1.00  0.00    -0.237 OA
ATOM     76  O   UNL     1       1.646  12.810  -4.597  1.00  0.00    -0.744 OA
ENDBRANCH  70  73
ENDBRANCH  42  66
BRANCH  54  77
ATOM     77  C   UNL     1       7.609   8.018 -11.813  1.00  0.00     0.023 A 
ATOM     78  C   UNL     1       8.639   8.888 -11.409  1.00  0.00     0.012 A 
ATOM     79  C   UNL     1       7.514   7.636 -13.165  1.00  0.00     0.148 A 
ATOM     80  C   UNL     1       9.551   9.386 -12.338  1.00  0.00     0.002 A 
ATOM     81  C   UNL     1       8.448   8.108 -14.081  1.00  0.00     0.091 A 
ATOM     82  F   UNL     1       6.511   6.825 -13.534  1.00  0.00    -0.205 F 
ATOM     83  C   UNL     1       9.463   8.988 -13.671  1.00  0.00     0.022 A 
BRANCH  81  84
ATOM     84  S   UNL     1       8.448   7.582 -15.799  1.00  0.00     0.127 S 
ATOM     85  O   UNL     1       7.817   8.721 -16.461  1.00  0.00    -0.237 OA
ATOM     86  O   UNL     1       9.876   7.426 -16.082  1.00  0.00    -0.237 OA
ATOM     87  O   UNL     1       7.693   6.336 -15.829  1.00  0.00    -0.744 OA
ENDBRANCH  81  84
ENDBRANCH  54  77
ENDBRANCH  28  29
ENDBRANCH  21  23
ENDBRANCH  20  21
ENDBRANCH  19  20
ENDBRANCH   1  19
TORSDOF 17
