REMARK SMILES C[C@H]1SCCC[C@@]1(C(=O)OCCOC(=O)c1ccc(-c2c3nc(c(-c4cccc(S(=O)(=O)[O-])c4F)c4ccc([nH]4)c(-c4cccc(S(=O)(=O)[O-])c4F)c4nc(c(-c5cccc(S(=O)(=O)[O-])c5F)c5ccc2[nH]5)C=C4)C=C3)cc1)[NH+]1CCCC1
REMARK SMILES IDX 12 1 11 2 10 3 8 4 9 5 7 6 1 7 2 8 3 9 4 10 6 11 5 12 79 13
REMARK SMILES IDX 80 14 83 15 81 17 82 18 13 19 14 20 15 21 16 22 17 23 78 24
REMARK SMILES IDX 18 25 77 26 19 27 20 28 21 29 71 30 22 31 76 32 70 33 72 34
REMARK SMILES IDX 23 35 75 36 69 37 68 38 24 40 56 41 36 42 55 43 37 44 40 45
REMARK SMILES IDX 54 46 73 47 38 48 39 49 53 51 74 52 41 53 25 54 26 55 34 56
REMARK SMILES IDX 27 57 29 58 35 59 28 60 30 61 31 62 32 63 33 64 57 65 58 66
REMARK SMILES IDX 66 67 59 68 61 69 67 70 60 71 62 72 63 73 64 74 65 75 42 76
REMARK SMILES IDX 43 77 51 78 44 79 46 80 52 81 45 82 47 83 48 84 49 85 50 86
REMARK H PARENT 79 16 72 39 40 50
REMARK Flexibility Score: inf
ROOT
ATOM      1  C   UNL     1       2.855  -4.118  -4.187  1.00  0.00     0.275 C 
ENDROOT
BRANCH   1   2
ATOM      2  C   UNL     1       3.518  -3.431  -2.997  1.00  0.00     0.274 C 
BRANCH   2   3
ATOM      3  O   UNL     1       2.701  -3.551  -1.813  1.00  0.00    -0.457 OA
BRANCH   3   4
ATOM      4  C   UNL     1       1.891  -2.473  -1.565  1.00  0.00     0.369 C 
ATOM      5  O   UNL     1       1.880  -1.480  -2.282  1.00  0.00    -0.245 OA
BRANCH   4   6
ATOM      6  C   UNL     1       1.030  -2.642  -0.252  1.00  0.00     0.207 C 
ATOM      7  C   UNL     1      -0.423  -0.484  -0.767  1.00  0.00     0.027 C 
ATOM      8  C   UNL     1       0.631  -1.147   0.140  1.00  0.00     0.117 C 
ATOM      9  S   UNL     1       0.079  -0.846   1.882  1.00  0.00    -0.152 SA
ATOM     10  C   UNL     1       1.365  -1.734   2.781  1.00  0.00     0.070 C 
ATOM     11  C   UNL     1       2.011  -3.198   0.829  1.00  0.00     0.083 C 
ATOM     12  C   UNL     1       1.534  -3.153   2.274  1.00  0.00     0.018 C 
BRANCH   6  13
ATOM     13  N   UNL     1      -0.112  -3.563  -0.547  1.00  0.00    -0.320 N 
ATOM     14  C   UNL     1      -1.278  -3.613   0.334  1.00  0.00     0.263 C 
ATOM     15  C   UNL     1       0.180  -4.925  -1.012  1.00  0.00     0.263 C 
ATOM     16  H   UNL     1      -0.384  -2.989  -1.346  1.00  0.00     0.349 HD
ATOM     17  C   UNL     1      -1.486  -5.081   0.665  1.00  0.00     0.067 C 
ATOM     18  C   UNL     1      -1.008  -5.776  -0.586  1.00  0.00     0.067 C 
ENDBRANCH   6  13
ENDBRANCH   4   6
ENDBRANCH   3   4
ENDBRANCH   2   3
ENDBRANCH   1   2
BRANCH   1  19
ATOM     19  O   UNL     1       1.532  -3.598  -4.372  1.00  0.00    -0.458 OA
BRANCH  19  20
ATOM     20  C   UNL     1       0.653  -4.457  -4.931  1.00  0.00     0.338 C 
ATOM     21  O   UNL     1       0.917  -5.575  -5.370  1.00  0.00    -0.246 OA
BRANCH  20  22
ATOM     22  C   UNL     1      -0.710  -3.887  -4.932  1.00  0.00     0.060 A 
ATOM     23  C   UNL     1      -1.167  -3.079  -3.885  1.00  0.00     0.016 A 
ATOM     24  C   UNL     1      -1.581  -4.245  -5.961  1.00  0.00     0.016 A 
ATOM     25  C   UNL     1      -2.505  -2.687  -3.829  1.00  0.00     0.010 A 
ATOM     26  C   UNL     1      -2.902  -3.792  -5.943  1.00  0.00     0.010 A 
ATOM     27  C   UNL     1      -3.385  -3.036  -4.862  1.00  0.00    -0.014 A 
BRANCH  27  28
ATOM     28  C   UNL     1      -4.819  -2.647  -4.825  1.00  0.00     0.031 A 
ATOM     29  C   UNL     1      -5.880  -3.712  -4.776  1.00  0.00     0.074 A 
ATOM     30  C   UNL     1      -5.171  -1.349  -4.902  1.00  0.00     0.049 A 
ATOM     31  N   UNL     1      -7.171  -3.604  -4.952  1.00  0.00    -0.248 NA
ATOM     32  C   UNL     1      -5.425  -5.086  -4.501  1.00  0.00     0.031 C 
ATOM     33  C   UNL     1      -4.242  -0.220  -4.934  1.00  0.00     0.029 A 
ATOM     34  N   UNL     1      -6.410  -0.765  -5.001  1.00  0.00    -0.354 N 
ATOM     35  C   UNL     1      -7.676  -4.896  -4.869  1.00  0.00     0.074 A 
ATOM     36  C   UNL     1      -6.553  -5.774  -4.617  1.00  0.00     0.031 C 
ATOM     37  C   UNL     1      -4.939   0.920  -5.060  1.00  0.00     0.029 A 
ATOM     38  C   UNL     1      -6.358   0.598  -5.179  1.00  0.00     0.049 A 
ATOM     39  H   UNL     1      -7.253  -1.272  -4.950  1.00  0.00     0.167 HD
ATOM     40  C   UNL     1      -8.960  -5.312  -4.981  1.00  0.00     0.034 A 
ATOM     41  C   UNL     1      -7.336   1.485  -5.452  1.00  0.00     0.034 A 
ATOM     42  C   UNL     1     -10.080  -4.431  -5.180  1.00  0.00     0.049 A 
ATOM     43  C   UNL     1      -8.751   0.995  -5.589  1.00  0.00     0.074 A 
ATOM     44  C   UNL     1     -11.422  -4.754  -5.281  1.00  0.00     0.029 A 
ATOM     45  N   UNL     1      -9.990  -3.053  -5.298  1.00  0.00    -0.354 N 
ATOM     46  N   UNL     1      -9.221  -0.222  -5.452  1.00  0.00    -0.248 NA
ATOM     47  C   UNL     1      -9.775   2.001  -5.905  1.00  0.00     0.031 C 
ATOM     48  C   UNL     1     -12.144  -3.569  -5.463  1.00  0.00     0.029 A 
ATOM     49  C   UNL     1     -11.251  -2.509  -5.471  1.00  0.00     0.049 A 
ATOM     50  H   UNL     1      -9.152  -2.537  -5.264  1.00  0.00     0.167 HD
ATOM     51  C   UNL     1     -10.594  -0.124  -5.643  1.00  0.00     0.074 A 
ATOM     52  C   UNL     1     -10.885   1.275  -5.880  1.00  0.00     0.031 C 
ATOM     53  C   UNL     1     -11.528  -1.107  -5.646  1.00  0.00     0.034 A 
BRANCH  40  54
ATOM     54  C   UNL     1      -9.230  -6.787  -4.856  1.00  0.00     0.023 A 
ATOM     55  C   UNL     1      -9.224  -7.385  -3.580  1.00  0.00     0.012 A 
ATOM     56  C   UNL     1      -9.541  -7.568  -5.986  1.00  0.00     0.148 A 
ATOM     57  C   UNL     1      -9.502  -8.743  -3.433  1.00  0.00     0.002 A 
ATOM     58  C   UNL     1      -9.849  -8.915  -5.827  1.00  0.00     0.091 A 
ATOM     59  F   UNL     1      -9.514  -6.987  -7.194  1.00  0.00    -0.205 F 
ATOM     60  C   UNL     1      -9.824  -9.505  -4.553  1.00  0.00     0.022 A 
BRANCH  58  61
ATOM     61  S   UNL     1     -10.337  -9.958  -7.207  1.00  0.00     0.127 S 
ATOM     62  O   UNL     1      -9.113 -10.720  -7.448  1.00  0.00    -0.237 OA
ATOM     63  O   UNL     1     -11.437 -10.737  -6.637  1.00  0.00    -0.237 OA
ATOM     64  O   UNL     1     -10.733  -9.047  -8.271  1.00  0.00    -0.744 OA
ENDBRANCH  58  61
ENDBRANCH  40  54
BRANCH  41  65
ATOM     65  C   UNL     1      -7.006   2.931  -5.590  1.00  0.00     0.023 A 
ATOM     66  C   UNL     1      -7.433   3.832  -4.596  1.00  0.00     0.012 A 
ATOM     67  C   UNL     1      -6.242   3.414  -6.670  1.00  0.00     0.148 A 
ATOM     68  C   UNL     1      -7.120   5.189  -4.684  1.00  0.00     0.002 A 
ATOM     69  C   UNL     1      -5.885   4.757  -6.722  1.00  0.00     0.091 A 
ATOM     70  F   UNL     1      -5.867   2.549  -7.624  1.00  0.00    -0.205 F 
ATOM     71  C   UNL     1      -6.334   5.649  -5.737  1.00  0.00     0.022 A 
BRANCH  69  72
ATOM     72  S   UNL     1      -4.762   5.391  -7.973  1.00  0.00     0.127 S 
ATOM     73  O   UNL     1      -5.685   6.008  -8.921  1.00  0.00    -0.237 OA
ATOM     74  O   UNL     1      -3.945   6.335  -7.207  1.00  0.00    -0.237 OA
ATOM     75  O   UNL     1      -4.029   4.228  -8.455  1.00  0.00    -0.744 OA
ENDBRANCH  69  72
ENDBRANCH  41  65
BRANCH  53  76
ATOM     76  C   UNL     1     -12.957  -0.706  -5.894  1.00  0.00     0.023 A 
ATOM     77  C   UNL     1     -13.370  -0.394  -7.204  1.00  0.00     0.012 A 
ATOM     78  C   UNL     1     -13.903  -0.711  -4.851  1.00  0.00     0.148 A 
ATOM     79  C   UNL     1     -14.699  -0.069  -7.468  1.00  0.00     0.002 A 
ATOM     80  C   UNL     1     -15.235  -0.424  -5.129  1.00  0.00     0.091 A 
ATOM     81  F   UNL     1     -13.485  -0.989  -3.607  1.00  0.00    -0.205 F 
ATOM     82  C   UNL     1     -15.633  -0.096  -6.435  1.00  0.00     0.022 A 
BRANCH  80  83
ATOM     83  S   UNL     1     -16.513  -0.520  -3.869  1.00  0.00     0.127 S 
ATOM     84  O   UNL     1     -16.699   0.887  -3.525  1.00  0.00    -0.237 OA
ATOM     85  O   UNL     1     -17.630  -1.123  -4.598  1.00  0.00    -0.237 OA
ATOM     86  O   UNL     1     -15.964  -1.362  -2.814  1.00  0.00    -0.744 OA
ENDBRANCH  80  83
ENDBRANCH  53  76
ENDBRANCH  27  28
ENDBRANCH  20  22
ENDBRANCH  19  20
ENDBRANCH   1  19
TORSDOF 15
