REMARK SMILES COc1cc2c(cc1OC)-c1c(c(C(=O)Nc3ccc(C(=O)OCCOC(=O)c4ccc(-c5c6nc(c(-c7cccc(S(=O)(=O)[O-])c7F)c7ccc([nH]7)c(-c7cccc(S(=O)(=O)[O-])c7F)c7nc(c(-c8cccc(S(=O)(=O)[O-])c8F)c8ccc5[nH]8)C=C7)C=C6)cc4)cc3)nn1-c1ccc(F)cc1)C2
REMARK SMILES IDX 24 1 23 2 21 3 22 4 20 5 17 6 18 7 93 8 19 9 92 10 16 11
REMARK SMILES IDX 14 12 15 13 13 15 3 16 4 17 8 18 5 19 7 20 6 21 103 22 11 23
REMARK SMILES IDX 12 24 95 25 94 26 2 27 1 28 9 29 10 30 96 31 97 32 102 33
REMARK SMILES IDX 98 34 101 35 99 36 100 37 25 38 26 39 27 40 28 41 29 42
REMARK SMILES IDX 30 43 91 44 31 45 90 46 32 47 33 48 34 49 84 50 35 51 89 52
REMARK SMILES IDX 83 53 85 54 36 55 88 56 82 57 81 58 37 60 69 61 49 62 68 63
REMARK SMILES IDX 50 64 53 65 67 66 86 67 51 68 52 69 66 71 87 72 54 73 38 74
REMARK SMILES IDX 39 75 47 76 40 77 42 78 48 79 41 80 43 81 44 82 45 83 46 84
REMARK SMILES IDX 70 85 71 86 79 87 72 88 74 89 80 90 73 91 75 92 76 93 77 94
REMARK SMILES IDX 78 95 55 96 56 97 64 98 57 99 59 100 65 101 58 102 60 103
REMARK SMILES IDX 61 104 62 105 63 106
REMARK H PARENT 16 14 85 59 53 70
REMARK Flexibility Score: inf
ROOT
ATOM      1  C   UNL     1      -4.995  -3.926  -2.340  1.00  0.00     0.275 C 
ENDROOT
BRANCH   1   2
ATOM      2  O   UNL     1      -4.398  -4.035  -3.658  1.00  0.00    -0.458 OA
BRANCH   2   3
ATOM      3  C   UNL     1      -4.778  -3.109  -4.583  1.00  0.00     0.338 C 
ATOM      4  O   UNL     1      -5.581  -2.209  -4.399  1.00  0.00    -0.246 OA
BRANCH   3   5
ATOM      5  C   UNL     1      -3.962  -3.240  -5.826  1.00  0.00     0.060 A 
ATOM      6  C   UNL     1      -2.093  -3.283  -7.935  1.00  0.00     0.041 A 
ATOM      7  C   UNL     1      -2.594  -2.073  -7.491  1.00  0.00     0.027 A 
ATOM      8  C   UNL     1      -2.658  -4.470  -7.448  1.00  0.00     0.027 A 
ATOM      9  C   UNL     1      -3.554  -2.073  -6.472  1.00  0.00     0.018 A 
ATOM     10  C   UNL     1      -3.551  -4.456  -6.361  1.00  0.00     0.018 A 
BRANCH   6  11
ATOM     11  N   UNL     1      -1.145  -3.360  -8.956  1.00  0.00    -0.321 N 
ATOM     12  C   UNL     1       0.044  -2.688  -9.183  1.00  0.00     0.276 C 
ATOM     13  O   UNL     1       0.436  -2.686 -10.355  1.00  0.00    -0.267 OA
ATOM     14  H   UNL     1      -1.364  -4.022  -9.650  1.00  0.00     0.170 HD
BRANCH  12  15
ATOM     15  C   UNL     1       0.907  -2.153  -8.089  1.00  0.00     0.155 A 
ATOM     16  C   UNL     1       1.792  -1.886  -2.139  1.00  0.00     0.161 A 
ATOM     17  C   UNL     1       1.146  -2.793  -3.019  1.00  0.00     0.055 A 
ATOM     18  C   UNL     1       2.675  -0.899  -2.622  1.00  0.00     0.161 A 
ATOM     19  C   UNL     1       1.240  -2.602  -4.391  1.00  0.00    -0.030 A 
ATOM     20  C   UNL     1       2.791  -0.727  -3.998  1.00  0.00     0.061 A 
ATOM     21  C   UNL     1       2.071  -1.565  -4.832  1.00  0.00     0.008 A 
ATOM     22  C   UNL     1       0.494  -3.311  -5.572  1.00  0.00     0.076 C 
ATOM     23  C   UNL     1       1.923  -1.548  -6.238  1.00  0.00     0.079 A 
ATOM     24  C   UNL     1       0.984  -2.432  -6.692  1.00  0.00     0.016 A 
ATOM     25  N   UNL     1       2.686  -1.193  -7.292  1.00  0.00    -0.232 N 
ATOM     26  N   UNL     1       1.962  -1.334  -8.429  1.00  0.00    -0.162 NA
BRANCH  16  27
ATOM     27  O   UNL     1       1.485  -2.010  -0.805  1.00  0.00    -0.493 OA
ATOM     28  C   UNL     1       0.667  -0.919  -0.357  1.00  0.00     0.278 C 
ENDBRANCH  16  27
BRANCH  18  29
ATOM     29  O   UNL     1       3.435  -0.012  -1.911  1.00  0.00    -0.493 OA
ATOM     30  C   UNL     1       3.786  -0.321  -0.571  1.00  0.00     0.278 C 
ENDBRANCH  18  29
BRANCH  25  31
ATOM     31  C   UNL     1       4.087  -0.981  -7.232  1.00  0.00     0.065 A 
ATOM     32  C   UNL     1       4.688   0.067  -7.923  1.00  0.00     0.031 A 
ATOM     33  C   UNL     1       4.847  -1.776  -6.343  1.00  0.00     0.031 A 
ATOM     34  C   UNL     1       6.025   0.379  -7.634  1.00  0.00     0.041 A 
ATOM     35  C   UNL     1       6.177  -1.472  -6.077  1.00  0.00     0.041 A 
ATOM     36  C   UNL     1       6.748  -0.379  -6.709  1.00  0.00     0.123 A 
ATOM     37  F   UNL     1       8.011  -0.044  -6.412  1.00  0.00    -0.207 F 
ENDBRANCH  25  31
ENDBRANCH  12  15
ENDBRANCH   6  11
ENDBRANCH   3   5
ENDBRANCH   2   3
ENDBRANCH   1   2
BRANCH   1  38
ATOM     38  C   UNL     1      -3.940  -3.758  -1.236  1.00  0.00     0.275 C 
BRANCH  38  39
ATOM     39  O   UNL     1      -3.414  -2.422  -1.276  1.00  0.00    -0.458 OA
BRANCH  39  40
ATOM     40  C   UNL     1      -2.361  -2.324  -2.123  1.00  0.00     0.338 C 
ATOM     41  O   UNL     1      -1.696  -3.255  -2.510  1.00  0.00    -0.246 OA
BRANCH  40  42
ATOM     42  C   UNL     1      -2.351  -0.988  -2.763  1.00  0.00     0.060 A 
ATOM     43  C   UNL     1      -3.071   0.123  -2.331  1.00  0.00     0.016 A 
ATOM     44  C   UNL     1      -1.742  -0.966  -4.009  1.00  0.00     0.016 A 
ATOM     45  C   UNL     1      -3.359   1.137  -3.251  1.00  0.00     0.010 A 
ATOM     46  C   UNL     1      -1.974   0.053  -4.897  1.00  0.00     0.010 A 
ATOM     47  C   UNL     1      -2.903   1.025  -4.568  1.00  0.00    -0.014 A 
BRANCH  47  48
ATOM     48  C   UNL     1      -3.278   1.926  -5.644  1.00  0.00     0.031 A 
ATOM     49  C   UNL     1      -2.251   2.940  -5.940  1.00  0.00     0.074 A 
ATOM     50  C   UNL     1      -4.349   1.843  -6.460  1.00  0.00     0.049 A 
ATOM     51  N   UNL     1      -2.138   4.048  -5.292  1.00  0.00    -0.248 NA
ATOM     52  C   UNL     1      -1.176   2.686  -6.904  1.00  0.00     0.031 C 
ATOM     53  C   UNL     1      -5.410   0.839  -6.565  1.00  0.00     0.029 A 
ATOM     54  N   UNL     1      -4.662   2.707  -7.465  1.00  0.00    -0.354 N 
ATOM     55  C   UNL     1      -1.153   4.757  -5.950  1.00  0.00     0.074 A 
ATOM     56  C   UNL     1      -0.444   3.796  -6.759  1.00  0.00     0.031 C 
ATOM     57  C   UNL     1      -6.119   1.037  -7.707  1.00  0.00     0.029 A 
ATOM     58  C   UNL     1      -5.711   2.307  -8.276  1.00  0.00     0.049 A 
ATOM     59  H   UNL     1      -4.178   3.553  -7.606  1.00  0.00     0.167 HD
ATOM     60  C   UNL     1      -1.180   6.116  -5.966  1.00  0.00     0.034 A 
ATOM     61  C   UNL     1      -6.268   3.040  -9.268  1.00  0.00     0.034 A 
ATOM     62  C   UNL     1      -2.266   6.637  -5.164  1.00  0.00     0.049 A 
ATOM     63  C   UNL     1      -6.101   4.455  -8.849  1.00  0.00     0.074 A 
ATOM     64  C   UNL     1      -2.664   6.515  -3.846  1.00  0.00     0.029 A 
ATOM     65  N   UNL     1      -3.379   7.069  -5.852  1.00  0.00    -0.354 N 
ATOM     66  N   UNL     1      -6.680   4.965  -7.794  1.00  0.00    -0.248 NA
ATOM     67  C   UNL     1      -4.987   5.222  -9.378  1.00  0.00     0.031 C 
ATOM     68  C   UNL     1      -4.088   6.420  -3.897  1.00  0.00     0.029 A 
ATOM     69  C   UNL     1      -4.480   6.535  -5.233  1.00  0.00     0.049 A 
ATOM     70  H   UNL     1      -3.383   7.653  -6.644  1.00  0.00     0.167 HD
ATOM     71  C   UNL     1      -5.741   5.843  -7.270  1.00  0.00     0.074 A 
ATOM     72  C   UNL     1      -4.783   6.054  -8.352  1.00  0.00     0.031 C 
ATOM     73  C   UNL     1      -5.675   6.099  -5.929  1.00  0.00     0.034 A 
BRANCH  60  74
ATOM     74  C   UNL     1      -0.479   6.995  -6.957  1.00  0.00     0.023 A 
ATOM     75  C   UNL     1      -0.331   8.354  -6.606  1.00  0.00     0.012 A 
ATOM     76  C   UNL     1      -0.172   6.627  -8.282  1.00  0.00     0.148 A 
ATOM     77  C   UNL     1       0.078   9.309  -7.538  1.00  0.00     0.002 A 
ATOM     78  C   UNL     1       0.311   7.567  -9.184  1.00  0.00     0.091 A 
ATOM     79  F   UNL     1      -0.476   5.401  -8.723  1.00  0.00    -0.205 F 
ATOM     80  C   UNL     1       0.414   8.913  -8.826  1.00  0.00     0.022 A 
BRANCH  78  81
ATOM     81  S   UNL     1       0.807   7.093 -10.843  1.00  0.00     0.127 S 
ATOM     82  O   UNL     1      -0.371   7.470 -11.617  1.00  0.00    -0.237 OA
ATOM     83  O   UNL     1       1.987   7.930 -11.059  1.00  0.00    -0.237 OA
ATOM     84  O   UNL     1       1.097   5.668 -10.754  1.00  0.00    -0.744 OA
ENDBRANCH  78  81
ENDBRANCH  60  74
BRANCH  61  85
ATOM     85  C   UNL     1      -6.822   2.655 -10.585  1.00  0.00     0.023 A 
ATOM     86  C   UNL     1      -7.587   3.594 -11.310  1.00  0.00     0.012 A 
ATOM     87  C   UNL     1      -6.351   1.513 -11.269  1.00  0.00     0.148 A 
ATOM     88  C   UNL     1      -7.816   3.440 -12.682  1.00  0.00     0.002 A 
ATOM     89  C   UNL     1      -6.585   1.362 -12.636  1.00  0.00     0.091 A 
ATOM     90  F   UNL     1      -5.592   0.630 -10.604  1.00  0.00    -0.205 F 
ATOM     91  C   UNL     1      -7.302   2.333 -13.348  1.00  0.00     0.022 A 
BRANCH  89  92
ATOM     92  S   UNL     1      -5.942  -0.035 -13.571  1.00  0.00     0.127 S 
ATOM     93  O   UNL     1      -7.072  -0.374 -14.438  1.00  0.00    -0.237 OA
ATOM     94  O   UNL     1      -4.801   0.560 -14.260  1.00  0.00    -0.237 OA
ATOM     95  O   UNL     1      -5.627  -1.056 -12.579  1.00  0.00    -0.744 OA
ENDBRANCH  89  92
ENDBRANCH  61  85
BRANCH  73  96
ATOM     96  C   UNL     1      -6.812   5.625  -5.053  1.00  0.00     0.023 A 
ATOM     97  C   UNL     1      -7.073   4.253  -4.855  1.00  0.00     0.012 A 
ATOM     98  C   UNL     1      -7.492   6.565  -4.259  1.00  0.00     0.148 A 
ATOM     99  C   UNL     1      -7.992   3.826  -3.892  1.00  0.00     0.002 A 
ATOM    100  C   UNL     1      -8.378   6.136  -3.276  1.00  0.00     0.091 A 
ATOM    101  F   UNL     1      -7.225   7.865  -4.452  1.00  0.00    -0.205 F 
ATOM    102  C   UNL     1      -8.634   4.767  -3.093  1.00  0.00     0.022 A 
BRANCH 100 103
ATOM    103  S   UNL     1      -9.159   7.277  -2.131  1.00  0.00     0.127 S 
ATOM    104  O   UNL     1     -10.567   7.179  -2.512  1.00  0.00    -0.237 OA
ATOM    105  O   UNL     1      -8.836   6.682  -0.833  1.00  0.00    -0.237 OA
ATOM    106  O   UNL     1      -8.542   8.576  -2.366  1.00  0.00    -0.744 OA
ENDBRANCH 100 103
ENDBRANCH  73  96
ENDBRANCH  47  48
ENDBRANCH  40  42
ENDBRANCH  39  40
ENDBRANCH  38  39
ENDBRANCH   1  38
TORSDOF 19
