REMARK SMILES C[C@H]([C@@H]1CCCO1)n1c(SCC(=O)OCCOC(=O)c2ccc(-c3c4nc(c(-c5cccc(S(=O)(=O)[O-])c5F)c5ccc([nH]5)c(-c5cccc(S(=O)(=O)[O-])c5F)c5nc(c(-c6cccc(S(=O)(=O)[O-])c6F)c6ccc3[nH]6)C=C5)C=C4)cc2)nc2cnccc21
REMARK SMILES IDX 15 1 14 2 12 3 13 4 11 5 10 6 9 7 8 8 89 9 83 10 84 11 88 12
REMARK SMILES IDX 85 13 87 14 86 15 2 16 1 17 3 18 4 19 7 20 5 21 6 22 16 23
REMARK SMILES IDX 17 24 18 25 19 26 20 27 21 28 82 29 22 30 81 31 23 32 24 33
REMARK SMILES IDX 25 34 75 35 26 36 80 37 74 38 76 39 27 40 79 41 73 42 72 43
REMARK SMILES IDX 28 45 60 46 40 47 59 48 41 49 44 50 58 51 77 52 42 53 43 54
REMARK SMILES IDX 57 56 78 57 45 58 29 59 30 60 38 61 31 62 33 63 39 64 32 65
REMARK SMILES IDX 34 66 35 67 36 68 37 69 61 70 62 71 70 72 63 73 65 74 71 75
REMARK SMILES IDX 64 76 66 77 67 78 68 79 69 80 46 81 47 82 55 83 48 84 50 85
REMARK SMILES IDX 56 86 49 87 51 88 52 89 53 90 54 91
REMARK H PARENT 76 44 44 55
REMARK Flexibility Score: inf
ROOT
ATOM      1  C   UNL     1       1.394   0.330  -4.979  1.00  0.00     0.274 C 
ENDROOT
BRANCH   1   2
ATOM      2  O   UNL     1       0.240  -0.420  -4.509  1.00  0.00    -0.461 OA
BRANCH   2   3
ATOM      3  C   UNL     1       0.473  -1.650  -3.962  1.00  0.00     0.316 C 
ATOM      4  O   UNL     1       1.559  -2.219  -4.035  1.00  0.00    -0.251 OA
BRANCH   3   5
ATOM      5  C   UNL     1      -0.683  -2.232  -3.146  1.00  0.00     0.200 C 
BRANCH   5   6
ATOM      6  S   UNL     1      -2.222  -1.321  -3.138  1.00  0.00    -0.076 SA
BRANCH   6   7
ATOM      7  C   UNL     1      -2.554  -0.278  -1.774  1.00  0.00     0.170 A 
ATOM      8  N   UNL     1      -1.740   0.507  -0.976  1.00  0.00    -0.313 N 
ATOM      9  C   UNL     1      -2.440   1.696  -0.749  1.00  0.00     0.072 A 
ATOM     10  N   UNL     1      -3.804   0.151  -1.677  1.00  0.00    -0.221 NA
ATOM     11  C   UNL     1      -3.744   1.396  -1.108  1.00  0.00     0.108 A 
ATOM     12  C   UNL     1      -2.082   2.963  -0.272  1.00  0.00     0.049 A 
ATOM     13  C   UNL     1      -4.737   2.365  -0.922  1.00  0.00     0.141 A 
ATOM     14  C   UNL     1      -3.126   3.874  -0.174  1.00  0.00     0.113 A 
ATOM     15  N   UNL     1      -4.419   3.608  -0.467  1.00  0.00    -0.262 NA
BRANCH   8  16
ATOM     16  C   UNL     1      -0.390   0.331  -0.456  1.00  0.00     0.116 C 
ATOM     17  C   UNL     1       0.596   0.091  -1.558  1.00  0.00     0.034 C 
BRANCH  16  18
ATOM     18  C   UNL     1      -0.215  -0.580   0.770  1.00  0.00     0.141 C 
ATOM     19  C   UNL     1      -0.064  -2.064   0.531  1.00  0.00     0.036 C 
ATOM     20  O   UNL     1      -1.266  -0.426   1.730  1.00  0.00    -0.376 OA
ATOM     21  C   UNL     1      -0.381  -2.644   1.882  1.00  0.00     0.031 C 
ATOM     22  C   UNL     1      -1.405  -1.674   2.436  1.00  0.00     0.160 C 
ENDBRANCH  16  18
ENDBRANCH   8  16
ENDBRANCH   6   7
ENDBRANCH   5   6
ENDBRANCH   3   5
ENDBRANCH   2   3
ENDBRANCH   1   2
BRANCH   1  23
ATOM     23  C   UNL     1       1.343   1.800  -4.489  1.00  0.00     0.275 C 
BRANCH  23  24
ATOM     24  O   UNL     1       2.459   2.041  -3.598  1.00  0.00    -0.458 OA
BRANCH  24  25
ATOM     25  C   UNL     1       2.328   2.992  -2.624  1.00  0.00     0.338 C 
ATOM     26  O   UNL     1       1.442   3.813  -2.525  1.00  0.00    -0.246 OA
BRANCH  25  27
ATOM     27  C   UNL     1       3.241   2.567  -1.517  1.00  0.00     0.060 A 
ATOM     28  C   UNL     1       4.451   1.929  -1.806  1.00  0.00     0.016 A 
ATOM     29  C   UNL     1       2.630   2.359  -0.283  1.00  0.00     0.016 A 
ATOM     30  C   UNL     1       4.846   0.826  -1.043  1.00  0.00     0.010 A 
ATOM     31  C   UNL     1       3.022   1.245   0.456  1.00  0.00     0.010 A 
ATOM     32  C   UNL     1       4.030   0.377  -0.004  1.00  0.00    -0.014 A 
BRANCH  32  33
ATOM     33  C   UNL     1       4.280  -0.894   0.706  1.00  0.00     0.031 A 
ATOM     34  C   UNL     1       4.382  -0.726   2.176  1.00  0.00     0.074 A 
ATOM     35  C   UNL     1       4.301  -2.177   0.267  1.00  0.00     0.049 A 
ATOM     36  N   UNL     1       5.410  -0.277   2.815  1.00  0.00    -0.248 NA
ATOM     37  C   UNL     1       3.175  -0.874   2.997  1.00  0.00     0.031 C 
ATOM     38  C   UNL     1       3.878  -2.776  -1.002  1.00  0.00     0.029 A 
ATOM     39  N   UNL     1       4.693  -3.277   0.988  1.00  0.00    -0.354 N 
ATOM     40  C   UNL     1       5.041  -0.313   4.150  1.00  0.00     0.074 A 
ATOM     41  C   UNL     1       3.603  -0.399   4.168  1.00  0.00     0.031 C 
ATOM     42  C   UNL     1       3.880  -4.135  -0.890  1.00  0.00     0.029 A 
ATOM     43  C   UNL     1       4.460  -4.514   0.389  1.00  0.00     0.049 A 
ATOM     44  H   UNL     1       5.114  -3.197   1.875  1.00  0.00     0.167 HD
ATOM     45  C   UNL     1       5.938  -0.557   5.143  1.00  0.00     0.034 A 
ATOM     46  C   UNL     1       4.743  -5.729   0.939  1.00  0.00     0.034 A 
ATOM     47  C   UNL     1       7.282  -0.673   4.640  1.00  0.00     0.049 A 
ATOM     48  C   UNL     1       5.819  -5.493   1.932  1.00  0.00     0.074 A 
ATOM     49  C   UNL     1       8.133   0.126   3.901  1.00  0.00     0.029 A 
ATOM     50  N   UNL     1       7.772  -1.953   4.516  1.00  0.00    -0.354 N 
ATOM     51  N   UNL     1       7.024  -5.112   1.617  1.00  0.00    -0.248 NA
ATOM     52  C   UNL     1       5.462  -5.361   3.333  1.00  0.00     0.031 C 
ATOM     53  C   UNL     1       8.777  -0.766   2.991  1.00  0.00     0.029 A 
ATOM     54  C   UNL     1       8.323  -2.057   3.266  1.00  0.00     0.049 A 
ATOM     55  H   UNL     1       7.735  -2.662   5.199  1.00  0.00     0.167 HD
ATOM     56  C   UNL     1       7.406  -4.289   2.663  1.00  0.00     0.074 A 
ATOM     57  C   UNL     1       6.463  -4.578   3.739  1.00  0.00     0.031 C 
ATOM     58  C   UNL     1       8.267  -3.253   2.454  1.00  0.00     0.034 A 
BRANCH  45  59
ATOM     59  C   UNL     1       5.575  -1.043   6.516  1.00  0.00     0.023 A 
ATOM     60  C   UNL     1       6.509  -0.829   7.549  1.00  0.00     0.012 A 
ATOM     61  C   UNL     1       4.464  -1.864   6.803  1.00  0.00     0.148 A 
ATOM     62  C   UNL     1       6.334  -1.395   8.815  1.00  0.00     0.002 A 
ATOM     63  C   UNL     1       4.245  -2.344   8.086  1.00  0.00     0.091 A 
ATOM     64  F   UNL     1       3.683  -2.298   5.806  1.00  0.00    -0.205 F 
ATOM     65  C   UNL     1       5.188  -2.131   9.093  1.00  0.00     0.022 A 
BRANCH  63  66
ATOM     66  S   UNL     1       2.747  -3.241   8.502  1.00  0.00     0.127 S 
ATOM     67  O   UNL     1       3.236  -4.615   8.557  1.00  0.00    -0.237 OA
ATOM     68  O   UNL     1       2.393  -2.654   9.794  1.00  0.00    -0.237 OA
ATOM     69  O   UNL     1       1.810  -2.931   7.429  1.00  0.00    -0.744 OA
ENDBRANCH  63  66
ENDBRANCH  45  59
BRANCH  46  70
ATOM     70  C   UNL     1       4.131  -7.085   0.858  1.00  0.00     0.023 A 
ATOM     71  C   UNL     1       4.857  -8.201   1.347  1.00  0.00     0.012 A 
ATOM     72  C   UNL     1       2.744  -7.239   0.671  1.00  0.00     0.148 A 
ATOM     73  C   UNL     1       4.216  -9.390   1.721  1.00  0.00     0.002 A 
ATOM     74  C   UNL     1       2.110  -8.429   1.041  1.00  0.00     0.091 A 
ATOM     75  F   UNL     1       2.037  -6.188   0.237  1.00  0.00    -0.205 F 
ATOM     76  C   UNL     1       2.838  -9.497   1.586  1.00  0.00     0.022 A 
BRANCH  74  77
ATOM     77  S   UNL     1       0.328  -8.638   0.921  1.00  0.00     0.127 S 
ATOM     78  O   UNL     1       0.211  -9.986   0.365  1.00  0.00    -0.237 OA
ATOM     79  O   UNL     1      -0.086  -8.512   2.316  1.00  0.00    -0.237 OA
ATOM     80  O   UNL     1      -0.127  -7.579   0.027  1.00  0.00    -0.744 OA
ENDBRANCH  74  77
ENDBRANCH  46  70
BRANCH  58  81
ATOM     81  C   UNL     1       9.017  -3.209   1.146  1.00  0.00     0.023 A 
ATOM     82  C   UNL     1       8.370  -3.006  -0.091  1.00  0.00     0.012 A 
ATOM     83  C   UNL     1      10.420  -3.193   1.193  1.00  0.00     0.148 A 
ATOM     84  C   UNL     1       9.110  -2.788  -1.257  1.00  0.00     0.002 A 
ATOM     85  C   UNL     1      11.151  -2.937   0.040  1.00  0.00     0.091 A 
ATOM     86  F   UNL     1      11.014  -3.390   2.380  1.00  0.00    -0.205 F 
ATOM     87  C   UNL     1      10.500  -2.737  -1.188  1.00  0.00     0.022 A 
BRANCH  85  88
ATOM     88  S   UNL     1      12.935  -2.752   0.070  1.00  0.00     0.127 S 
ATOM     89  O   UNL     1      13.373  -3.885  -0.743  1.00  0.00    -0.237 OA
ATOM     90  O   UNL     1      13.117  -1.442  -0.556  1.00  0.00    -0.237 OA
ATOM     91  O   UNL     1      13.327  -2.808   1.472  1.00  0.00    -0.744 OA
ENDBRANCH  85  88
ENDBRANCH  58  81
ENDBRANCH  32  33
ENDBRANCH  25  27
ENDBRANCH  24  25
ENDBRANCH  23  24
ENDBRANCH   1  23
TORSDOF 18
