REMARK SMILES Cc1ccccc1C[N@@H+]1[C@@H](C(=O)OCCOC(=O)c2ccc(-c3c4nc(c(-c5cccc(S(=O)(=O)[O-])c5F)c5ccc([nH]5)c(-c5cccc(S(=O)(=O)[O-])c5F)c5nc(c(-c6cccc(S(=O)(=O)[O-])c6F)c6ccc3[nH]6)C=C5)C=C4)cc2)C[C@H]2CCCC[C@@H]21
REMARK SMILES IDX 15 1 14 2 13 3 11 4 12 5 10 6 9 7 88 8 82 10 83 11 87 12
REMARK SMILES IDX 84 13 86 14 85 15 8 16 7 17 1 18 2 19 3 20 4 21 6 22 5 23
REMARK SMILES IDX 16 24 17 25 18 26 19 27 20 28 81 29 21 30 80 31 22 32 23 33
REMARK SMILES IDX 24 34 74 35 25 36 79 37 73 38 75 39 26 40 78 41 72 42 71 43
REMARK SMILES IDX 27 45 59 46 39 47 58 48 40 49 43 50 57 51 76 52 41 53 42 54
REMARK SMILES IDX 56 56 77 57 44 58 28 59 29 60 37 61 30 62 32 63 38 64 31 65
REMARK SMILES IDX 33 66 34 67 35 68 36 69 60 70 61 71 69 72 62 73 64 74 70 75
REMARK SMILES IDX 63 76 65 77 66 78 67 79 68 80 45 81 46 82 54 83 47 84 49 85
REMARK SMILES IDX 55 86 48 87 50 88 51 89 52 90 53 91
REMARK H PARENT 9 9 75 44 43 55
REMARK Flexibility Score: inf
ROOT
ATOM      1  C   UNL     1      -2.517   5.761  -5.270  1.00  0.00     0.275 C 
ENDROOT
BRANCH   1   2
ATOM      2  C   UNL     1      -1.025   6.001  -4.935  1.00  0.00     0.274 C 
BRANCH   2   3
ATOM      3  O   UNL     1      -0.558   5.188  -3.853  1.00  0.00    -0.458 OA
BRANCH   3   4
ATOM      4  C   UNL     1      -0.345   3.884  -4.134  1.00  0.00     0.365 C 
ATOM      5  O   UNL     1      -0.309   3.450  -5.282  1.00  0.00    -0.245 OA
BRANCH   4   6
ATOM      6  C   UNL     1      -0.349   3.034  -2.837  1.00  0.00     0.296 C 
ATOM      7  N   UNL     1       1.012   2.563  -2.470  1.00  0.00    -0.317 N 
ATOM      8  C   UNL     1       1.198   1.446  -3.390  1.00  0.00     0.188 C 
ATOM      9  H   UNL     1       1.747   3.262  -2.585  1.00  0.00     0.349 HD
ATOM     10  C   UNL     1      -1.191   1.800  -3.177  1.00  0.00     0.087 C 
ATOM     11  C   UNL     1      -0.147   0.712  -3.376  1.00  0.00     0.054 C 
ATOM     12  C   UNL     1       2.357   0.472  -3.313  1.00  0.00     0.065 C 
ATOM     13  C   UNL     1      -0.277  -0.131  -4.628  1.00  0.00     0.010 C 
ATOM     14  C   UNL     1       2.256  -0.511  -4.490  1.00  0.00     0.006 C 
ATOM     15  C   UNL     1       0.865  -1.152  -4.634  1.00  0.00     0.001 C 
BRANCH   7  16
ATOM     16  C   UNL     1       1.251   2.340  -1.012  1.00  0.00     0.300 C 
BRANCH  16  17
ATOM     17  C   UNL     1       0.573   1.170  -0.300  1.00  0.00     0.009 A 
ATOM     18  C   UNL     1       2.716  -0.207   0.147  1.00  0.00     0.045 C 
ATOM     19  C   UNL     1       1.222  -0.037   0.051  1.00  0.00    -0.042 A 
ATOM     20  C   UNL     1       0.446  -1.163   0.394  1.00  0.00     0.004 A 
ATOM     21  C   UNL     1      -0.936  -1.073   0.528  1.00  0.00     0.000 A 
ATOM     22  C   UNL     1      -0.797   1.274   0.005  1.00  0.00     0.010 A 
ATOM     23  C   UNL     1      -1.549   0.163   0.396  1.00  0.00     0.001 A 
ENDBRANCH  16  17
ENDBRANCH   7  16
ENDBRANCH   4   6
ENDBRANCH   3   4
ENDBRANCH   2   3
ENDBRANCH   1   2
BRANCH   1  24
ATOM     24  O   UNL     1      -3.579   5.903  -4.268  1.00  0.00    -0.458 OA
BRANCH  24  25
ATOM     25  C   UNL     1      -3.625   5.210  -3.086  1.00  0.00     0.338 C 
ATOM     26  O   UNL     1      -4.357   4.272  -2.877  1.00  0.00    -0.246 OA
BRANCH  25  27
ATOM     27  C   UNL     1      -2.759   5.838  -2.058  1.00  0.00     0.060 A 
ATOM     28  C   UNL     1      -2.311   5.147  -0.917  1.00  0.00     0.016 A 
ATOM     29  C   UNL     1      -2.185   7.041  -2.416  1.00  0.00     0.016 A 
ATOM     30  C   UNL     1      -1.127   5.557  -0.282  1.00  0.00     0.010 A 
ATOM     31  C   UNL     1      -0.916   7.279  -1.976  1.00  0.00     0.010 A 
ATOM     32  C   UNL     1      -0.386   6.576  -0.876  1.00  0.00    -0.014 A 
BRANCH  32  33
ATOM     33  C   UNL     1       0.710   7.329  -0.277  1.00  0.00     0.031 A 
ATOM     34  C   UNL     1       2.142   7.045  -0.395  1.00  0.00     0.074 A 
ATOM     35  C   UNL     1       0.279   8.582  -0.001  1.00  0.00     0.049 A 
ATOM     36  N   UNL     1       3.013   7.717   0.277  1.00  0.00    -0.248 NA
ATOM     37  C   UNL     1       2.738   6.046  -1.269  1.00  0.00     0.031 C 
ATOM     38  C   UNL     1       0.966   9.852   0.033  1.00  0.00     0.029 A 
ATOM     39  N   UNL     1      -1.050   8.919   0.265  1.00  0.00    -0.354 N 
ATOM     40  C   UNL     1       4.252   7.476  -0.273  1.00  0.00     0.074 A 
ATOM     41  C   UNL     1       4.043   6.343  -1.149  1.00  0.00     0.031 C 
ATOM     42  C   UNL     1       0.123  10.766   0.554  1.00  0.00     0.029 A 
ATOM     43  C   UNL     1      -1.056  10.058   1.045  1.00  0.00     0.049 A 
ATOM     44  H   UNL     1      -1.844   8.429  -0.049  1.00  0.00     0.167 HD
ATOM     45  C   UNL     1       5.255   8.372  -0.027  1.00  0.00     0.034 A 
ATOM     46  C   UNL     1      -1.534   9.960   2.321  1.00  0.00     0.034 A 
ATOM     47  C   UNL     1       4.747   9.508   0.780  1.00  0.00     0.049 A 
ATOM     48  C   UNL     1      -0.384  10.133   3.305  1.00  0.00     0.074 A 
ATOM     49  C   UNL     1       4.401  10.818   0.481  1.00  0.00     0.029 A 
ATOM     50  N   UNL     1       4.262   9.278   2.061  1.00  0.00    -0.354 N 
ATOM     51  N   UNL     1       0.835  10.477   2.981  1.00  0.00    -0.248 NA
ATOM     52  C   UNL     1      -0.503   9.815   4.721  1.00  0.00     0.031 C 
ATOM     53  C   UNL     1       3.674  11.356   1.587  1.00  0.00     0.029 A 
ATOM     54  C   UNL     1       3.602  10.389   2.574  1.00  0.00     0.049 A 
ATOM     55  H   UNL     1       4.372   8.429   2.547  1.00  0.00     0.167 HD
ATOM     56  C   UNL     1       1.681  10.237   4.030  1.00  0.00     0.074 A 
ATOM     57  C   UNL     1       0.782   9.846   5.107  1.00  0.00     0.031 C 
ATOM     58  C   UNL     1       3.049  10.302   3.925  1.00  0.00     0.034 A 
BRANCH  45  59
ATOM     59  C   UNL     1       6.633   8.418  -0.691  1.00  0.00     0.023 A 
ATOM     60  C   UNL     1       7.361   9.629  -0.577  1.00  0.00     0.012 A 
ATOM     61  C   UNL     1       7.279   7.388  -1.416  1.00  0.00     0.148 A 
ATOM     62  C   UNL     1       8.591   9.847  -1.209  1.00  0.00     0.002 A 
ATOM     63  C   UNL     1       8.495   7.615  -2.082  1.00  0.00     0.091 A 
ATOM     64  F   UNL     1       6.763   6.157  -1.421  1.00  0.00    -0.205 F 
ATOM     65  C   UNL     1       9.148   8.848  -1.985  1.00  0.00     0.022 A 
BRANCH  63  66
ATOM     66  S   UNL     1       9.292   6.386  -3.138  1.00  0.00     0.127 S 
ATOM     67  O   UNL     1       9.361   7.088  -4.422  1.00  0.00    -0.237 OA
ATOM     68  O   UNL     1      10.586   6.196  -2.485  1.00  0.00    -0.237 OA
ATOM     69  O   UNL     1       8.420   5.219  -3.139  1.00  0.00    -0.744 OA
ENDBRANCH  63  66
ENDBRANCH  45  59
BRANCH  46  70
ATOM     70  C   UNL     1      -2.672   8.948   2.434  1.00  0.00     0.023 A 
ATOM     71  C   UNL     1      -3.778   9.120   1.552  1.00  0.00     0.012 A 
ATOM     72  C   UNL     1      -2.511   7.675   3.019  1.00  0.00     0.148 A 
ATOM     73  C   UNL     1      -4.594   8.045   1.171  1.00  0.00     0.002 A 
ATOM     74  C   UNL     1      -3.343   6.612   2.648  1.00  0.00     0.091 A 
ATOM     75  F   UNL     1      -1.500   7.468   3.869  1.00  0.00    -0.205 F 
ATOM     76  C   UNL     1      -4.363   6.785   1.705  1.00  0.00     0.022 A 
BRANCH  74  77
ATOM     77  S   UNL     1      -3.013   4.948   3.254  1.00  0.00     0.127 S 
ATOM     78  O   UNL     1      -3.620   4.098   2.228  1.00  0.00    -0.237 OA
ATOM     79  O   UNL     1      -1.559   4.871   3.295  1.00  0.00    -0.237 OA
ATOM     80  O   UNL     1      -3.708   4.959   4.537  1.00  0.00    -0.744 OA
ENDBRANCH  74  77
ENDBRANCH  46  70
BRANCH  58  81
ATOM     81  C   UNL     1       4.005  10.199   5.108  1.00  0.00     0.023 A 
ATOM     82  C   UNL     1       3.571  10.400   6.431  1.00  0.00     0.012 A 
ATOM     83  C   UNL     1       5.401   9.999   4.940  1.00  0.00     0.148 A 
ATOM     84  C   UNL     1       4.418  10.233   7.531  1.00  0.00     0.002 A 
ATOM     85  C   UNL     1       6.251   9.850   6.031  1.00  0.00     0.091 A 
ATOM     86  F   UNL     1       5.946  10.033   3.719  1.00  0.00    -0.205 F 
ATOM     87  C   UNL     1       5.755   9.930   7.331  1.00  0.00     0.022 A 
BRANCH  85  88
ATOM     88  S   UNL     1       8.015   9.574   5.828  1.00  0.00     0.127 S 
ATOM     89  O   UNL     1       8.556  10.893   6.157  1.00  0.00    -0.237 OA
ATOM     90  O   UNL     1       8.278   8.539   6.829  1.00  0.00    -0.237 OA
ATOM     91  O   UNL     1       8.199   9.141   4.451  1.00  0.00    -0.744 OA
ENDBRANCH  85  88
ENDBRANCH  58  81
ENDBRANCH  32  33
ENDBRANCH  25  27
ENDBRANCH  24  25
ENDBRANCH   1  24
TORSDOF 16
