REMARK SMILES COc1ccc(-c2nn(-c3ccccc3)cc2/C=C2\SC(=S)N(CCC(=O)OCCOC(=O)c3ccc(-c4c5nc(c(-c6cccc(S(=O)(=O)[O-])c6F)c6ccc([nH]6)c(-c6cccc(S(=O)(=O)[O-])c6F)c6nc(c(-c7cccc(S(=O)(=O)[O-])c7F)c7ccc4[nH]7)C=C6)C=C5)cc3)C2=O)c(C)c1
REMARK SMILES IDX 29 1 28 2 26 3 27 4 25 5 24 6 23 7 18 8 19 9 20 10 97 11
REMARK SMILES IDX 21 12 98 13 22 14 17 15 7 16 8 17 9 18 16 19 6 20 3 21 4 22
REMARK SMILES IDX 101 23 5 24 99 25 100 26 2 27 1 28 10 29 11 30 15 31 12 32
REMARK SMILES IDX 14 33 13 34 30 35 31 36 32 37 33 38 34 39 35 40 96 41 36 42
REMARK SMILES IDX 95 43 37 44 38 45 39 46 89 47 40 48 94 49 88 50 90 51 41 52
REMARK SMILES IDX 93 53 87 54 86 55 42 57 74 58 54 59 73 60 55 61 58 62 72 63
REMARK SMILES IDX 91 64 56 65 57 66 71 68 92 69 59 70 43 71 44 72 52 73 45 74
REMARK SMILES IDX 47 75 53 76 46 77 48 78 49 79 50 80 51 81 75 82 76 83 84 84
REMARK SMILES IDX 77 85 79 86 85 87 78 88 80 89 81 90 82 91 83 92 60 93 61 94
REMARK SMILES IDX 69 95 62 96 64 97 70 98 63 99 65 100 66 101 67 102 68 103
REMARK H PARENT 90 56 58 67
REMARK Flexibility Score: inf
ROOT
ATOM      1  C   UNL     1       3.841   1.179  -7.688  1.00  0.00     0.274 C 
ENDROOT
BRANCH   1   2
ATOM      2  O   UNL     1       4.990   1.761  -7.046  1.00  0.00    -0.462 OA
BRANCH   2   3
ATOM      3  C   UNL     1       6.103   2.063  -7.754  1.00  0.00     0.307 C 
ATOM      4  O   UNL     1       6.213   1.964  -8.965  1.00  0.00    -0.252 OA
BRANCH   3   5
ATOM      5  C   UNL     1       7.199   2.583  -6.853  1.00  0.00     0.144 C 
BRANCH   5   6
ATOM      6  C   UNL     1       7.749   3.885  -7.440  1.00  0.00     0.139 C 
BRANCH   6   7
ATOM      7  N   UNL     1       6.871   4.969  -7.017  1.00  0.00    -0.292 N 
ATOM      8  C   UNL     1       3.503   4.791  -6.136  1.00  0.00     0.033 C 
ATOM      9  C   UNL     1       4.709   5.346  -6.343  1.00  0.00     0.081 C 
ATOM     10  S   UNL     1       5.588   6.481  -5.392  1.00  0.00    -0.054 SA
ATOM     11  C   UNL     1       5.563   4.918  -7.449  1.00  0.00     0.266 C 
ATOM     12  C   UNL     1       7.127   5.861  -5.998  1.00  0.00     0.148 C 
ATOM     13  O   UNL     1       5.136   4.558  -8.533  1.00  0.00    -0.268 OA
ATOM     14  S   UNL     1       8.603   6.301  -5.369  1.00  0.00    -0.052 S 
BRANCH   8  15
ATOM     15  C   UNL     1       2.555   5.373  -5.269  1.00  0.00     0.022 A 
ATOM     16  C   UNL     1       1.798   4.998  -4.130  1.00  0.00     0.100 A 
ATOM     17  N   UNL     1       1.182   6.093  -3.625  1.00  0.00    -0.167 NA
ATOM     18  N   UNL     1       1.397   7.064  -4.533  1.00  0.00    -0.240 N 
ATOM     19  C   UNL     1       2.131   6.634  -5.588  1.00  0.00     0.123 A 
BRANCH  16  20
ATOM     20  C   UNL     1       1.558   3.680  -3.523  1.00  0.00     0.006 A 
ATOM     21  C   UNL     1       1.031   1.261  -2.170  1.00  0.00     0.119 A 
ATOM     22  C   UNL     1       2.324   1.775  -2.200  1.00  0.00     0.047 A 
ATOM     23  C   UNL     1       0.012   1.910  -2.858  1.00  0.00     0.050 A 
ATOM     24  C   UNL     1       2.588   2.984  -2.869  1.00  0.00     0.014 A 
ATOM     25  C   UNL     1       0.258   3.116  -3.541  1.00  0.00    -0.038 A 
ATOM     26  C   UNL     1      -0.921   3.783  -4.198  1.00  0.00     0.045 C 
BRANCH  21  27
ATOM     27  O   UNL     1       0.711   0.089  -1.539  1.00  0.00    -0.497 OA
ATOM     28  C   UNL     1       0.919   0.175  -0.127  1.00  0.00     0.278 C 
ENDBRANCH  21  27
ENDBRANCH  16  20
BRANCH  18  29
ATOM     29  C   UNL     1       0.978   8.398  -4.405  1.00  0.00     0.065 A 
ATOM     30  C   UNL     1       1.121   9.055  -3.186  1.00  0.00     0.028 A 
ATOM     31  C   UNL     1       0.597   9.094  -5.566  1.00  0.00     0.028 A 
ATOM     32  C   UNL     1       0.932  10.437  -3.151  1.00  0.00     0.002 A 
ATOM     33  C   UNL     1       0.371  10.462  -5.511  1.00  0.00     0.002 A 
ATOM     34  C   UNL     1       0.558  11.135  -4.306  1.00  0.00     0.000 A 
ENDBRANCH  18  29
ENDBRANCH   8  15
ENDBRANCH   6   7
ENDBRANCH   5   6
ENDBRANCH   3   5
ENDBRANCH   2   3
ENDBRANCH   1   2
BRANCH   1  35
ATOM     35  C   UNL     1       3.945   0.442  -9.047  1.00  0.00     0.275 C 
BRANCH  35  36
ATOM     36  O   UNL     1       4.958  -0.534  -9.478  1.00  0.00    -0.458 OA
BRANCH  36  37
ATOM     37  C   UNL     1       6.212  -0.882  -9.045  1.00  0.00     0.338 C 
ATOM     38  O   UNL     1       7.093  -1.192  -9.796  1.00  0.00    -0.246 OA
BRANCH  37  39
ATOM     39  C   UNL     1       6.364  -0.975  -7.579  1.00  0.00     0.060 A 
ATOM     40  C   UNL     1       7.582  -0.769  -6.908  1.00  0.00     0.016 A 
ATOM     41  C   UNL     1       5.207  -1.186  -6.867  1.00  0.00     0.016 A 
ATOM     42  C   UNL     1       7.594  -0.686  -5.505  1.00  0.00     0.010 A 
ATOM     43  C   UNL     1       5.173  -0.789  -5.560  1.00  0.00     0.010 A 
ATOM     44  C   UNL     1       6.371  -0.677  -4.838  1.00  0.00    -0.014 A 
BRANCH  44  45
ATOM     45  C   UNL     1       6.144  -1.027  -3.437  1.00  0.00     0.031 A 
ATOM     46  C   UNL     1       6.244  -0.137  -2.286  1.00  0.00     0.074 A 
ATOM     47  C   UNL     1       5.465  -2.196  -3.334  1.00  0.00     0.049 A 
ATOM     48  N   UNL     1       6.315  -0.598  -1.085  1.00  0.00    -0.248 NA
ATOM     49  C   UNL     1       6.217   1.315  -2.358  1.00  0.00     0.031 C 
ATOM     50  C   UNL     1       4.570  -2.705  -2.319  1.00  0.00     0.029 A 
ATOM     51  N   UNL     1       5.467  -3.200  -4.306  1.00  0.00    -0.354 N 
ATOM     52  C   UNL     1       6.036   0.441  -0.232  1.00  0.00     0.074 A 
ATOM     53  C   UNL     1       6.095   1.631  -1.059  1.00  0.00     0.031 C 
ATOM     54  C   UNL     1       4.307  -3.998  -2.600  1.00  0.00     0.029 A 
ATOM     55  C   UNL     1       5.178  -4.404  -3.698  1.00  0.00     0.049 A 
ATOM     56  H   UNL     1       5.644  -3.070  -5.265  1.00  0.00     0.167 HD
ATOM     57  C   UNL     1       5.594   0.158   1.028  1.00  0.00     0.034 A 
ATOM     58  C   UNL     1       6.110  -5.399  -3.733  1.00  0.00     0.034 A 
ATOM     59  C   UNL     1       5.390  -1.299   1.201  1.00  0.00     0.049 A 
ATOM     60  C   UNL     1       6.636  -5.654  -2.332  1.00  0.00     0.074 A 
ATOM     61  C   UNL     1       4.257  -2.100   1.193  1.00  0.00     0.029 A 
ATOM     62  N   UNL     1       6.467  -2.176   1.112  1.00  0.00    -0.354 N 
ATOM     63  N   UNL     1       6.210  -5.068  -1.247  1.00  0.00    -0.248 NA
ATOM     64  C   UNL     1       7.791  -6.503  -2.087  1.00  0.00     0.031 C 
ATOM     65  C   UNL     1       4.662  -3.461   1.067  1.00  0.00     0.029 A 
ATOM     66  C   UNL     1       6.044  -3.502   1.029  1.00  0.00     0.049 A 
ATOM     67  H   UNL     1       7.410  -1.895   1.108  1.00  0.00     0.167 HD
ATOM     68  C   UNL     1       7.116  -5.255  -0.235  1.00  0.00     0.074 A 
ATOM     69  C   UNL     1       8.074  -6.187  -0.815  1.00  0.00     0.031 C 
ATOM     70  C   UNL     1       7.046  -4.572   0.956  1.00  0.00     0.034 A 
BRANCH  57  71
ATOM     71  C   UNL     1       5.026   1.192   1.991  1.00  0.00     0.023 A 
ATOM     72  C   UNL     1       4.098   0.746   2.960  1.00  0.00     0.012 A 
ATOM     73  C   UNL     1       5.334   2.574   2.021  1.00  0.00     0.148 A 
ATOM     74  C   UNL     1       3.432   1.616   3.830  1.00  0.00     0.002 A 
ATOM     75  C   UNL     1       4.631   3.455   2.855  1.00  0.00     0.091 A 
ATOM     76  F   UNL     1       6.358   3.037   1.293  1.00  0.00    -0.205 F 
ATOM     77  C   UNL     1       3.673   2.977   3.756  1.00  0.00     0.022 A 
BRANCH  75  78
ATOM     78  S   UNL     1       4.834   5.245   2.783  1.00  0.00     0.127 S 
ATOM     79  O   UNL     1       3.446   5.712   2.730  1.00  0.00    -0.237 OA
ATOM     80  O   UNL     1       5.521   5.538   4.038  1.00  0.00    -0.237 OA
ATOM     81  O   UNL     1       5.594   5.509   1.567  1.00  0.00    -0.744 OA
ENDBRANCH  75  78
ENDBRANCH  57  71
BRANCH  58  82
ATOM     82  C   UNL     1       6.978  -5.353  -4.983  1.00  0.00     0.023 A 
ATOM     83  C   UNL     1       6.325  -5.434  -6.243  1.00  0.00     0.012 A 
ATOM     84  C   UNL     1       8.284  -4.822  -4.961  1.00  0.00     0.148 A 
ATOM     85  C   UNL     1       6.907  -4.902  -7.403  1.00  0.00     0.002 A 
ATOM     86  C   UNL     1       8.858  -4.299  -6.123  1.00  0.00     0.091 A 
ATOM     87  F   UNL     1       8.935  -4.734  -3.795  1.00  0.00    -0.205 F 
ATOM     88  C   UNL     1       8.165  -4.312  -7.339  1.00  0.00     0.022 A 
BRANCH  86  89
ATOM     89  S   UNL     1      10.444  -3.453  -6.026  1.00  0.00     0.127 S 
ATOM     90  O   UNL     1      10.469  -2.644  -7.244  1.00  0.00    -0.237 OA
ATOM     91  O   UNL     1      10.342  -2.665  -4.803  1.00  0.00    -0.237 OA
ATOM     92  O   UNL     1      11.379  -4.573  -6.011  1.00  0.00    -0.744 OA
ENDBRANCH  86  89
ENDBRANCH  58  82
BRANCH  70  93
ATOM     93  C   UNL     1       7.961  -4.795   2.160  1.00  0.00     0.023 A 
ATOM     94  C   UNL     1       8.880  -5.856   2.237  1.00  0.00     0.012 A 
ATOM     95  C   UNL     1       7.886  -3.969   3.314  1.00  0.00     0.148 A 
ATOM     96  C   UNL     1       9.784  -5.998   3.295  1.00  0.00     0.002 A 
ATOM     97  C   UNL     1       8.784  -4.106   4.369  1.00  0.00     0.091 A 
ATOM     98  F   UNL     1       6.883  -3.094   3.451  1.00  0.00    -0.205 F 
ATOM     99  C   UNL     1       9.758  -5.102   4.348  1.00  0.00     0.022 A 
BRANCH  97 100
ATOM    100  S   UNL     1       8.733  -3.021   5.800  1.00  0.00     0.127 S 
ATOM    101  O   UNL     1       8.071  -3.871   6.788  1.00  0.00    -0.237 OA
ATOM    102  O   UNL     1      10.154  -2.782   6.054  1.00  0.00    -0.237 OA
ATOM    103  O   UNL     1       7.991  -1.841   5.378  1.00  0.00    -0.744 OA
ENDBRANCH  97 100
ENDBRANCH  70  93
ENDBRANCH  44  45
ENDBRANCH  37  39
ENDBRANCH  36  37
ENDBRANCH  35  36
ENDBRANCH   1  35
TORSDOF 20
