REMARK SMILES C[C@H]1[C@H](C(=O)OCCOC(=O)c2ccc(-c3c4nc(c(-c5cccc(S(=O)(=O)[O-])c5F)c5ccc([nH]5)c(-c5cccc(S(=O)(=O)[O-])c5F)c5nc(c(-c6cccc(S(=O)(=O)[O-])c6F)c6ccc3[nH]6)C=C5)C=C4)cc2)CCN1C(=O)COc1ccc(F)cc1Br
REMARK SMILES IDX 7 1 6 2 4 3 5 4 3 5 1 6 2 7 77 8 75 9 76 10 78 11 79 12
REMARK SMILES IDX 80 13 81 14 82 15 83 16 88 17 84 18 87 19 89 20 85 21 86 22
REMARK SMILES IDX 8 23 9 24 10 25 11 26 12 27 13 28 74 29 14 30 73 31 15 32
REMARK SMILES IDX 16 33 17 34 67 35 18 36 72 37 66 38 68 39 19 40 71 41 65 42
REMARK SMILES IDX 64 43 20 45 52 46 32 47 51 48 33 49 36 50 50 51 69 52 34 53
REMARK SMILES IDX 35 54 49 56 70 57 37 58 21 59 22 60 30 61 23 62 25 63 31 64
REMARK SMILES IDX 24 65 26 66 27 67 28 68 29 69 53 70 54 71 62 72 55 73 57 74
REMARK SMILES IDX 63 75 56 76 58 77 59 78 60 79 61 80 38 81 39 82 47 83 40 84
REMARK SMILES IDX 42 85 48 86 41 87 43 88 44 89 45 90 46 91
REMARK H PARENT 68 44 36 55
REMARK Flexibility Score: inf
ROOT
ATOM      1  C   UNL     1      -0.331   2.954   3.487  1.00  0.00     0.274 C 
ENDROOT
BRANCH   1   2
ATOM      2  O   UNL     1      -0.330   1.874   2.532  1.00  0.00    -0.462 OA
BRANCH   2   3
ATOM      3  C   UNL     1      -0.707   2.200   1.271  1.00  0.00     0.311 C 
ATOM      4  O   UNL     1      -1.100   3.309   0.926  1.00  0.00    -0.252 OA
BRANCH   3   5
ATOM      5  C   UNL     1      -0.688   1.034   0.313  1.00  0.00     0.123 C 
ATOM      6  C   UNL     1       1.522   0.085  -0.420  1.00  0.00     0.032 C 
ATOM      7  C   UNL     1       0.366  -0.071   0.571  1.00  0.00     0.096 C 
ATOM      8  N   UNL     1      -0.397  -1.325   0.403  1.00  0.00    -0.336 N 
ATOM      9  C   UNL     1      -2.042   0.334   0.353  1.00  0.00     0.039 C 
ATOM     10  C   UNL     1      -1.717  -1.055  -0.132  1.00  0.00     0.121 C 
BRANCH   8  11
ATOM     11  C   UNL     1      -0.122  -2.572   0.930  1.00  0.00     0.260 C 
ATOM     12  O   UNL     1      -1.030  -3.330   1.293  1.00  0.00    -0.271 OA
BRANCH  11  13
ATOM     13  C   UNL     1       1.329  -3.051   1.036  1.00  0.00     0.329 C 
BRANCH  13  14
ATOM     14  O   UNL     1       2.243  -2.631   0.050  1.00  0.00    -0.483 OA
BRANCH  14  15
ATOM     15  C   UNL     1       2.545  -3.385  -1.044  1.00  0.00     0.134 A 
ATOM     16  C   UNL     1       3.924  -3.365  -1.325  1.00  0.00     0.050 A 
ATOM     17  C   UNL     1       1.684  -3.982  -1.975  1.00  0.00     0.062 A 
ATOM     18  C   UNL     1       4.437  -3.917  -2.499  1.00  0.00     0.043 A 
ATOM     19  C   UNL     1       2.204  -4.525  -3.160  1.00  0.00     0.058 A 
ATOM     20  Br  UNL     1      -0.201  -4.071  -1.856  1.00  0.00    -0.047 Br
ATOM     21  C   UNL     1       3.566  -4.482  -3.413  1.00  0.00     0.124 A 
ATOM     22  F   UNL     1       4.037  -4.979  -4.563  1.00  0.00    -0.207 F 
ENDBRANCH  14  15
ENDBRANCH  13  14
ENDBRANCH  11  13
ENDBRANCH   8  11
ENDBRANCH   3   5
ENDBRANCH   2   3
ENDBRANCH   1   2
BRANCH   1  23
ATOM     23  C   UNL     1       1.066   3.554   3.671  1.00  0.00     0.275 C 
BRANCH  23  24
ATOM     24  O   UNL     1       1.514   4.251   2.496  1.00  0.00    -0.458 OA
BRANCH  24  25
ATOM     25  C   UNL     1       2.186   3.489   1.602  1.00  0.00     0.338 C 
ATOM     26  O   UNL     1       2.459   2.304   1.703  1.00  0.00    -0.246 OA
BRANCH  25  27
ATOM     27  C   UNL     1       2.454   4.269   0.387  1.00  0.00     0.060 A 
ATOM     28  C   UNL     1       1.780   3.928  -0.789  1.00  0.00     0.016 A 
ATOM     29  C   UNL     1       3.433   5.259   0.382  1.00  0.00     0.016 A 
ATOM     30  C   UNL     1       2.109   4.543  -1.991  1.00  0.00     0.010 A 
ATOM     31  C   UNL     1       3.741   5.901  -0.819  1.00  0.00     0.010 A 
ATOM     32  C   UNL     1       3.095   5.533  -2.014  1.00  0.00    -0.014 A 
BRANCH  32  33
ATOM     33  C   UNL     1       3.480   6.183  -3.286  1.00  0.00     0.031 A 
ATOM     34  C   UNL     1       4.838   5.920  -3.865  1.00  0.00     0.074 A 
ATOM     35  C   UNL     1       2.634   7.047  -3.876  1.00  0.00     0.049 A 
ATOM     36  N   UNL     1       5.453   6.539  -4.836  1.00  0.00    -0.248 NA
ATOM     37  C   UNL     1       5.611   4.820  -3.264  1.00  0.00     0.031 C 
ATOM     38  C   UNL     1       1.278   7.349  -3.415  1.00  0.00     0.029 A 
ATOM     39  N   UNL     1       2.808   7.861  -4.966  1.00  0.00    -0.354 N 
ATOM     40  C   UNL     1       6.707   5.949  -4.925  1.00  0.00     0.074 A 
ATOM     41  C   UNL     1       6.760   4.908  -3.921  1.00  0.00     0.031 C 
ATOM     42  C   UNL     1       0.756   8.309  -4.193  1.00  0.00     0.029 A 
ATOM     43  C   UNL     1       1.758   8.726  -5.168  1.00  0.00     0.049 A 
ATOM     44  H   UNL     1       3.603   7.829  -5.545  1.00  0.00     0.167 HD
ATOM     45  C   UNL     1       7.719   6.250  -5.772  1.00  0.00     0.034 A 
ATOM     46  C   UNL     1       1.640   9.771  -6.011  1.00  0.00     0.034 A 
ATOM     47  C   UNL     1       7.634   7.258  -6.792  1.00  0.00     0.049 A 
ATOM     48  C   UNL     1       2.786  10.095  -6.930  1.00  0.00     0.074 A 
ATOM     49  C   UNL     1       8.589   7.619  -7.726  1.00  0.00     0.029 A 
ATOM     50  N   UNL     1       6.529   8.065  -7.014  1.00  0.00    -0.354 N 
ATOM     51  N   UNL     1       3.942   9.488  -7.051  1.00  0.00    -0.248 NA
ATOM     52  C   UNL     1       2.608  11.234  -7.841  1.00  0.00     0.031 C 
ATOM     53  C   UNL     1       8.063   8.654  -8.506  1.00  0.00     0.029 A 
ATOM     54  C   UNL     1       6.776   8.925  -8.069  1.00  0.00     0.049 A 
ATOM     55  H   UNL     1       5.691   8.031  -6.498  1.00  0.00     0.167 HD
ATOM     56  C   UNL     1       4.613  10.144  -8.075  1.00  0.00     0.074 A 
ATOM     57  C   UNL     1       3.731  11.192  -8.547  1.00  0.00     0.031 C 
ATOM     58  C   UNL     1       5.853   9.912  -8.569  1.00  0.00     0.034 A 
BRANCH  45  59
ATOM     59  C   UNL     1       8.998   5.468  -5.644  1.00  0.00     0.023 A 
ATOM     60  C   UNL     1       9.058   4.146  -6.125  1.00  0.00     0.012 A 
ATOM     61  C   UNL     1      10.155   6.062  -5.103  1.00  0.00     0.148 A 
ATOM     62  C   UNL     1      10.245   3.417  -6.048  1.00  0.00     0.002 A 
ATOM     63  C   UNL     1      11.343   5.343  -5.064  1.00  0.00     0.091 A 
ATOM     64  F   UNL     1      10.069   7.312  -4.626  1.00  0.00    -0.205 F 
ATOM     65  C   UNL     1      11.388   4.019  -5.528  1.00  0.00     0.022 A 
BRANCH  63  66
ATOM     66  S   UNL     1      12.882   6.058  -4.474  1.00  0.00     0.127 S 
ATOM     67  O   UNL     1      13.021   5.421  -3.165  1.00  0.00    -0.237 OA
ATOM     68  O   UNL     1      13.843   5.600  -5.478  1.00  0.00    -0.237 OA
ATOM     69  O   UNL     1      12.671   7.498  -4.454  1.00  0.00    -0.744 OA
ENDBRANCH  63  66
ENDBRANCH  45  59
BRANCH  46  70
ATOM     70  C   UNL     1       0.381  10.568  -6.029  1.00  0.00     0.023 A 
ATOM     71  C   UNL     1      -0.477  10.474  -7.141  1.00  0.00     0.012 A 
ATOM     72  C   UNL     1       0.006  11.376  -4.937  1.00  0.00     0.148 A 
ATOM     73  C   UNL     1      -1.677  11.186  -7.174  1.00  0.00     0.002 A 
ATOM     74  C   UNL     1      -1.215  12.039  -4.954  1.00  0.00     0.091 A 
ATOM     75  F   UNL     1       0.846  11.469  -3.896  1.00  0.00    -0.205 F 
ATOM     76  C   UNL     1      -2.052  11.957  -6.077  1.00  0.00     0.022 A 
BRANCH  74  77
ATOM     77  S   UNL     1      -1.833  12.944  -3.529  1.00  0.00     0.127 S 
ATOM     78  O   UNL     1      -1.640  14.329  -3.948  1.00  0.00    -0.237 OA
ATOM     79  O   UNL     1      -3.229  12.507  -3.472  1.00  0.00    -0.237 OA
ATOM     80  O   UNL     1      -1.023  12.499  -2.404  1.00  0.00    -0.744 OA
ENDBRANCH  74  77
ENDBRANCH  46  70
BRANCH  58  81
ATOM     81  C   UNL     1       6.324  10.763  -9.716  1.00  0.00     0.023 A 
ATOM     82  C   UNL     1       6.767  12.077  -9.473  1.00  0.00     0.012 A 
ATOM     83  C   UNL     1       6.436  10.217 -11.010  1.00  0.00     0.148 A 
ATOM     84  C   UNL     1       7.305  12.842 -10.507  1.00  0.00     0.002 A 
ATOM     85  C   UNL     1       7.013  10.970 -12.025  1.00  0.00     0.091 A 
ATOM     86  F   UNL     1       5.991   8.970 -11.218  1.00  0.00    -0.205 F 
ATOM     87  C   UNL     1       7.441  12.285 -11.777  1.00  0.00     0.022 A 
BRANCH  85  88
ATOM     88  S   UNL     1       7.316  10.304 -13.665  1.00  0.00     0.127 S 
ATOM     89  O   UNL     1       6.338  11.035 -14.469  1.00  0.00    -0.237 OA
ATOM     90  O   UNL     1       8.708  10.685 -13.903  1.00  0.00    -0.237 OA
ATOM     91  O   UNL     1       7.091   8.868 -13.565  1.00  0.00    -0.744 OA
ENDBRANCH  85  88
ENDBRANCH  58  81
ENDBRANCH  32  33
ENDBRANCH  25  27
ENDBRANCH  24  25
ENDBRANCH  23  24
ENDBRANCH   1  23
TORSDOF 18
