REMARK SMILES COC(=O)c1ccc(C)c2c1[C@H]1C=CC[C@H]1[C@@H](c1ccc(C(=O)OCCOC(=O)c3ccc(-c4c5nc(c(-c6cccc(S(=O)(=O)[O-])c6F)c6ccc([nH]6)c(-c6cccc(S(=O)(=O)[O-])c6F)c6nc(c(-c7cccc(S(=O)(=O)[O-])c7F)c7ccc4[nH]7)C=C6)C=C5)cc3)cc1)N2
REMARK SMILES IDX 25 1 24 2 22 3 23 4 21 5 18 6 19 7 94 8 20 9 93 10 17 11
REMARK SMILES IDX 5 12 6 13 11 14 7 15 10 16 12 17 8 18 95 19 13 20 16 21 9 22
REMARK SMILES IDX 14 24 15 25 3 26 4 27 2 28 1 29 26 30 27 31 28 32 29 33
REMARK SMILES IDX 30 34 31 35 92 36 32 37 91 38 33 39 34 40 35 41 85 42 36 43
REMARK SMILES IDX 90 44 84 45 86 46 37 47 89 48 83 49 82 50 38 52 70 53 50 54
REMARK SMILES IDX 69 55 51 56 54 57 68 58 87 59 52 60 53 61 67 63 88 64 55 65
REMARK SMILES IDX 39 66 40 67 48 68 41 69 43 70 49 71 42 72 44 73 45 74 46 75
REMARK SMILES IDX 47 76 71 77 72 78 80 79 73 80 75 81 81 82 74 83 76 84 77 85
REMARK SMILES IDX 78 86 79 87 56 88 57 89 65 90 58 91 60 92 66 93 59 94 61 95
REMARK SMILES IDX 62 96 63 97 64 98
REMARK H PARENT 95 23 86 51 54 62
REMARK Flexibility Score: inf
ROOT
ATOM      1  C   UNL     1       6.444  -6.757  -3.684  1.00  0.00     0.275 C 
ENDROOT
BRANCH   1   2
ATOM      2  O   UNL     1       5.995  -5.776  -4.638  1.00  0.00    -0.458 OA
BRANCH   2   3
ATOM      3  C   UNL     1       4.763  -5.972  -5.169  1.00  0.00     0.338 C 
ATOM      4  O   UNL     1       4.045  -6.944  -5.004  1.00  0.00    -0.246 OA
BRANCH   3   5
ATOM      5  C   UNL     1       4.328  -4.747  -5.880  1.00  0.00     0.060 A 
ATOM      6  C   UNL     1       3.432  -2.217  -6.771  1.00  0.00    -0.025 A 
ATOM      7  C   UNL     1       2.531  -3.189  -6.302  1.00  0.00     0.007 A 
ATOM      8  C   UNL     1       4.771  -2.617  -6.937  1.00  0.00     0.007 A 
ATOM      9  C   UNL     1       2.967  -4.449  -5.890  1.00  0.00     0.016 A 
ATOM     10  C   UNL     1       5.227  -3.851  -6.458  1.00  0.00     0.016 A 
BRANCH   6  11
ATOM     11  C   UNL     1       3.016  -0.766  -7.062  1.00  0.00     0.114 C 
ATOM     12  C   UNL     1       0.371   0.157  -3.808  1.00  0.00     0.065 A 
ATOM     13  C   UNL     1      -0.961  -0.241  -3.862  1.00  0.00     0.016 A 
ATOM     14  C   UNL     1       1.237  -0.016  -4.913  1.00  0.00    -0.003 A 
ATOM     15  C   UNL     1      -1.457  -0.766  -5.050  1.00  0.00     0.006 A 
ATOM     16  C   UNL     1       0.725  -0.514  -6.131  1.00  0.00     0.042 A 
ATOM     17  C   UNL     1       2.682   0.393  -4.799  1.00  0.00     0.050 C 
ATOM     18  C   UNL     1      -0.643  -0.873  -6.198  1.00  0.00    -0.028 A 
ATOM     19  N   UNL     1       1.567  -0.657  -7.233  1.00  0.00    -0.377 N 
ATOM     20  C   UNL     1       3.556  -0.471  -3.925  1.00  0.00    -0.023 C 
ATOM     21  C   UNL     1       3.480   0.376  -6.113  1.00  0.00     0.031 C 
ATOM     22  C   UNL     1      -1.313  -1.412  -7.436  1.00  0.00     0.046 C 
ATOM     23  H   UNL     1       1.181  -0.685  -8.138  1.00  0.00     0.161 HD
ATOM     24  C   UNL     1       4.819  -0.483  -4.371  1.00  0.00    -0.030 C 
ATOM     25  C   UNL     1       4.938   0.320  -5.626  1.00  0.00     0.034 C 
BRANCH  12  26
ATOM     26  C   UNL     1       0.812   0.945  -2.644  1.00  0.00     0.338 C 
ATOM     27  O   UNL     1       0.775   2.164  -2.628  1.00  0.00    -0.246 OA
BRANCH  26  28
ATOM     28  O   UNL     1       1.360   0.128  -1.717  1.00  0.00    -0.465 OA
ATOM     29  C   UNL     1       2.050   0.844  -0.690  1.00  0.00     0.282 C 
ENDBRANCH  26  28
ENDBRANCH  12  26
ENDBRANCH   6  11
ENDBRANCH   3   5
ENDBRANCH   2   3
ENDBRANCH   1   2
BRANCH   1  30
ATOM     30  C   UNL     1       6.521  -6.146  -2.283  1.00  0.00     0.275 C 
BRANCH  30  31
ATOM     31  O   UNL     1       5.206  -5.904  -1.745  1.00  0.00    -0.458 OA
BRANCH  31  32
ATOM     32  C   UNL     1       4.775  -4.621  -1.808  1.00  0.00     0.338 C 
ATOM     33  O   UNL     1       5.383  -3.659  -2.245  1.00  0.00    -0.246 OA
BRANCH  32  34
ATOM     34  C   UNL     1       3.378  -4.555  -1.344  1.00  0.00     0.060 A 
ATOM     35  C   UNL     1       2.390  -4.284  -2.290  1.00  0.00     0.016 A 
ATOM     36  C   UNL     1       3.046  -4.675   0.006  1.00  0.00     0.016 A 
ATOM     37  C   UNL     1       1.062  -4.129  -1.898  1.00  0.00     0.010 A 
ATOM     38  C   UNL     1       1.711  -4.515   0.403  1.00  0.00     0.010 A 
ATOM     39  C   UNL     1       0.713  -4.223  -0.545  1.00  0.00    -0.014 A 
BRANCH  39  40
ATOM     40  C   UNL     1      -0.685  -3.943  -0.134  1.00  0.00     0.031 A 
ATOM     41  C   UNL     1      -1.052  -2.596   0.419  1.00  0.00     0.074 A 
ATOM     42  C   UNL     1      -1.644  -4.872  -0.299  1.00  0.00     0.049 A 
ATOM     43  N   UNL     1      -2.236  -2.104   0.677  1.00  0.00    -0.248 NA
ATOM     44  C   UNL     1       0.055  -1.672   0.696  1.00  0.00     0.031 C 
ATOM     45  C   UNL     1      -1.438  -6.217  -0.833  1.00  0.00     0.029 A 
ATOM     46  N   UNL     1      -2.985  -4.822  -0.014  1.00  0.00    -0.354 N 
ATOM     47  C   UNL     1      -2.018  -0.796   1.088  1.00  0.00     0.074 A 
ATOM     48  C   UNL     1      -0.590  -0.586   1.101  1.00  0.00     0.031 C 
ATOM     49  C   UNL     1      -2.609  -6.876  -0.811  1.00  0.00     0.029 A 
ATOM     50  C   UNL     1      -3.642  -6.004  -0.252  1.00  0.00     0.049 A 
ATOM     51  H   UNL     1      -3.434  -4.016   0.329  1.00  0.00     0.167 HD
ATOM     52  C   UNL     1      -2.925   0.158   1.398  1.00  0.00     0.034 A 
ATOM     53  C   UNL     1      -4.925  -6.349  -0.031  1.00  0.00     0.034 A 
ATOM     54  C   UNL     1      -4.338  -0.068   1.485  1.00  0.00     0.049 A 
ATOM     55  C   UNL     1      -5.889  -5.331   0.514  1.00  0.00     0.074 A 
ATOM     56  C   UNL     1      -5.333   0.837   1.809  1.00  0.00     0.029 A 
ATOM     57  N   UNL     1      -4.949  -1.296   1.308  1.00  0.00    -0.354 N 
ATOM     58  N   UNL     1      -5.697  -4.054   0.736  1.00  0.00    -0.248 NA
ATOM     59  C   UNL     1      -7.251  -5.794   0.823  1.00  0.00     0.031 C 
ATOM     60  C   UNL     1      -6.545   0.142   1.871  1.00  0.00     0.029 A 
ATOM     61  C   UNL     1      -6.303  -1.187   1.563  1.00  0.00     0.049 A 
ATOM     62  H   UNL     1      -4.489  -2.124   1.040  1.00  0.00     0.167 HD
ATOM     63  C   UNL     1      -6.916  -3.554   1.180  1.00  0.00     0.074 A 
ATOM     64  C   UNL     1      -7.844  -4.666   1.197  1.00  0.00     0.031 C 
ATOM     65  C   UNL     1      -7.231  -2.288   1.544  1.00  0.00     0.034 A 
BRANCH  52  66
ATOM     66  C   UNL     1      -2.421   1.552   1.627  1.00  0.00     0.023 A 
ATOM     67  C   UNL     1      -2.209   2.384   0.509  1.00  0.00     0.012 A 
ATOM     68  C   UNL     1      -2.239   2.065   2.923  1.00  0.00     0.148 A 
ATOM     69  C   UNL     1      -1.826   3.712   0.678  1.00  0.00     0.002 A 
ATOM     70  C   UNL     1      -1.869   3.395   3.085  1.00  0.00     0.091 A 
ATOM     71  F   UNL     1      -2.436   1.246   3.965  1.00  0.00    -0.205 F 
ATOM     72  C   UNL     1      -1.664   4.220   1.965  1.00  0.00     0.022 A 
BRANCH  70  73
ATOM     73  S   UNL     1      -1.635   4.151   4.697  1.00  0.00     0.127 S 
ATOM     74  O   UNL     1      -0.248   4.609   4.611  1.00  0.00    -0.237 OA
ATOM     75  O   UNL     1      -2.634   5.218   4.681  1.00  0.00    -0.237 OA
ATOM     76  O   UNL     1      -1.867   3.097   5.675  1.00  0.00    -0.744 OA
ENDBRANCH  70  73
ENDBRANCH  52  66
BRANCH  53  77
ATOM     77  C   UNL     1      -5.374  -7.729  -0.358  1.00  0.00     0.023 A 
ATOM     78  C   UNL     1      -6.170  -7.945  -1.497  1.00  0.00     0.012 A 
ATOM     79  C   UNL     1      -4.968  -8.828   0.425  1.00  0.00     0.148 A 
ATOM     80  C   UNL     1      -6.559  -9.237  -1.851  1.00  0.00     0.002 A 
ATOM     81  C   UNL     1      -5.328 -10.114   0.046  1.00  0.00     0.091 A 
ATOM     82  F   UNL     1      -4.222  -8.589   1.512  1.00  0.00    -0.205 F 
ATOM     83  C   UNL     1      -6.130 -10.321  -1.087  1.00  0.00     0.022 A 
BRANCH  81  84
ATOM     84  S   UNL     1      -4.750 -11.577   0.913  1.00  0.00     0.127 S 
ATOM     85  O   UNL     1      -5.998 -12.117   1.450  1.00  0.00    -0.237 OA
ATOM     86  O   UNL     1      -4.160 -12.357  -0.175  1.00  0.00    -0.237 OA
ATOM     87  O   UNL     1      -3.796 -11.101   1.905  1.00  0.00    -0.744 OA
ENDBRANCH  81  84
ENDBRANCH  53  77
BRANCH  65  88
ATOM     88  C   UNL     1      -8.635  -1.995   1.996  1.00  0.00     0.023 A 
ATOM     89  C   UNL     1      -9.016  -2.322   3.311  1.00  0.00     0.012 A 
ATOM     90  C   UNL     1      -9.512  -1.255   1.180  1.00  0.00     0.148 A 
ATOM     91  C   UNL     1     -10.252  -1.913   3.809  1.00  0.00     0.002 A 
ATOM     92  C   UNL     1     -10.726  -0.818   1.696  1.00  0.00     0.091 A 
ATOM     93  F   UNL     1      -9.127  -0.966  -0.072  1.00  0.00    -0.205 F 
ATOM     94  C   UNL     1     -11.099  -1.149   3.009  1.00  0.00     0.022 A 
BRANCH  92  95
ATOM     95  S   UNL     1     -11.840   0.249   0.773  1.00  0.00     0.127 S 
ATOM     96  O   UNL     1     -12.966  -0.646   0.518  1.00  0.00    -0.237 OA
ATOM     97  O   UNL     1     -12.114   1.317   1.736  1.00  0.00    -0.237 OA
ATOM     98  O   UNL     1     -11.103   0.674  -0.409  1.00  0.00    -0.744 OA
ENDBRANCH  92  95
ENDBRANCH  65  88
ENDBRANCH  39  40
ENDBRANCH  32  34
ENDBRANCH  31  32
ENDBRANCH  30  31
ENDBRANCH   1  30
TORSDOF 17
