REMARK SMILES NS(=O)(=O)c1ccc(/N=N/c2ccc(O)c(C(=O)OCCOC(=O)c3ccc(-c4c5nc(c(-c6cccc(S(=O)(=O)[O-])c6F)c6ccc([nH]6)c(-c6cccc(S(=O)(=O)[O-])c6F)c6nc(c(-c7cccc(S(=O)(=O)[O-])c7F)c7ccc4[nH]7)C=C6)C=C5)cc3)c2)cc1
REMARK SMILES IDX 20 1 19 2 17 3 18 4 16 5 11 6 12 7 88 8 13 9 14 10 10 11
REMARK SMILES IDX 9 12 8 13 5 14 6 15 90 16 7 17 89 18 2 19 3 20 4 21 1 22
REMARK SMILES IDX 15 25 21 27 22 28 23 29 24 30 25 31 26 32 87 33 27 34 86 35
REMARK SMILES IDX 28 36 29 37 30 38 80 39 31 40 85 41 79 42 81 43 32 44 84 45
REMARK SMILES IDX 78 46 77 47 33 49 65 50 45 51 64 52 46 53 49 54 63 55 82 56
REMARK SMILES IDX 47 57 48 58 62 60 83 61 50 62 34 63 35 64 43 65 36 66 38 67
REMARK SMILES IDX 44 68 37 69 39 70 40 71 41 72 42 73 66 74 67 75 75 76 68 77
REMARK SMILES IDX 70 78 76 79 69 80 71 81 72 82 73 83 74 84 51 85 52 86 60 87
REMARK SMILES IDX 53 88 55 89 61 90 54 91 56 92 57 93 58 94 59 95
REMARK H PARENT 1 23 1 24 15 26 81 48 49 59
REMARK Flexibility Score: inf
ROOT
ATOM      1  C   UNL     1       2.964 -11.520  -2.434  1.00  0.00     0.275 C 
ENDROOT
BRANCH   1   2
ATOM      2  O   UNL     1       3.161 -10.614  -1.332  1.00  0.00    -0.458 OA
BRANCH   2   3
ATOM      3  C   UNL     1       3.376 -11.182  -0.121  1.00  0.00     0.342 C 
ATOM      4  O   UNL     1       3.359 -12.377   0.134  1.00  0.00    -0.246 OA
BRANCH   3   5
ATOM      5  C   UNL     1       3.737 -10.171   0.900  1.00  0.00     0.104 A 
ATOM      6  C   UNL     1       3.888  -7.862   1.653  1.00  0.00     0.087 A 
ATOM      7  C   UNL     1       4.560  -8.288   2.804  1.00  0.00     0.034 A 
ATOM      8  C   UNL     1       3.506  -8.806   0.690  1.00  0.00     0.049 A 
ATOM      9  C   UNL     1       4.783  -9.646   3.029  1.00  0.00     0.049 A 
ATOM     10  C   UNL     1       4.348 -10.583   2.094  1.00  0.00     0.130 A 
BRANCH   6  11
ATOM     11  N   UNL     1       3.597  -6.497   1.477  1.00  0.00    -0.151 NA
ATOM     12  N   UNL     1       2.380  -6.316   1.699  1.00  0.00    -0.151 NA
BRANCH  12  13
ATOM     13  C   UNL     1       1.981  -4.971   1.586  1.00  0.00     0.086 A 
ATOM     14  C   UNL     1       0.991  -2.349   1.456  1.00  0.00     0.082 A 
ATOM     15  C   UNL     1       0.150  -3.420   1.151  1.00  0.00     0.024 A 
ATOM     16  C   UNL     1       2.319  -2.571   1.830  1.00  0.00     0.024 A 
ATOM     17  C   UNL     1       0.651  -4.723   1.218  1.00  0.00     0.031 A 
ATOM     18  C   UNL     1       2.808  -3.880   1.893  1.00  0.00     0.031 A 
BRANCH  14  19
ATOM     19  S   UNL     1       0.363  -0.697   1.433  1.00  0.00     0.238 S 
ATOM     20  O   UNL     1       0.933   0.039   2.536  1.00  0.00    -0.207 OA
ATOM     21  O   UNL     1      -1.058  -0.724   1.171  1.00  0.00    -0.207 OA
BRANCH  19  22
ATOM     22  N   UNL     1       1.065  -0.074   0.042  1.00  0.00    -0.225 NA
ATOM     23  H   UNL     1       0.773   0.895  -0.082  1.00  0.00     0.137 HD
ATOM     24  H   UNL     1       0.769  -0.625  -0.764  1.00  0.00     0.137 HD
ENDBRANCH  19  22
ENDBRANCH  14  19
ENDBRANCH  12  13
ENDBRANCH   6  11
BRANCH  10  25
ATOM     25  O   UNL     1       4.588 -11.892   2.410  1.00  0.00    -0.507 OA
ATOM     26  H   UNL     1       5.000 -12.110   3.222  1.00  0.00     0.293 HD
ENDBRANCH  10  25
ENDBRANCH   3   5
ENDBRANCH   2   3
ENDBRANCH   1   2
BRANCH   1  27
ATOM     27  C   UNL     1       4.219 -11.614  -3.306  1.00  0.00     0.275 C 
BRANCH  27  28
ATOM     28  O   UNL     1       5.298 -12.252  -2.598  1.00  0.00    -0.458 OA
BRANCH  28  29
ATOM     29  C   UNL     1       6.183 -11.409  -2.011  1.00  0.00     0.338 C 
ATOM     30  O   UNL     1       6.196 -10.191  -2.095  1.00  0.00    -0.246 OA
BRANCH  29  31
ATOM     31  C   UNL     1       7.044 -12.163  -1.078  1.00  0.00     0.060 A 
ATOM     32  C   UNL     1       7.170 -11.658   0.218  1.00  0.00     0.016 A 
ATOM     33  C   UNL     1       7.721 -13.328  -1.447  1.00  0.00     0.016 A 
ATOM     34  C   UNL     1       7.934 -12.333   1.165  1.00  0.00     0.010 A 
ATOM     35  C   UNL     1       8.519 -13.989  -0.503  1.00  0.00     0.010 A 
ATOM     36  C   UNL     1       8.627 -13.496   0.809  1.00  0.00    -0.014 A 
BRANCH  36  37
ATOM     37  C   UNL     1       9.505 -14.143   1.812  1.00  0.00     0.031 A 
ATOM     38  C   UNL     1      10.972 -13.823   1.833  1.00  0.00     0.074 A 
ATOM     39  C   UNL     1       8.986 -14.985   2.724  1.00  0.00     0.049 A 
ATOM     40  N   UNL     1      11.894 -14.238   2.662  1.00  0.00    -0.248 NA
ATOM     41  C   UNL     1      11.463 -12.912   0.788  1.00  0.00     0.031 C 
ATOM     42  C   UNL     1       7.578 -15.369   2.813  1.00  0.00     0.029 A 
ATOM     43  N   UNL     1       9.590 -15.678   3.743  1.00  0.00    -0.354 N 
ATOM     44  C   UNL     1      13.078 -13.652   2.234  1.00  0.00     0.074 A 
ATOM     45  C   UNL     1      12.759 -12.860   1.065  1.00  0.00     0.031 C 
ATOM     46  C   UNL     1       7.430 -16.252   3.816  1.00  0.00     0.029 A 
ATOM     47  C   UNL     1       8.732 -16.503   4.431  1.00  0.00     0.049 A 
ATOM     48  H   UNL     1      10.546 -15.594   3.961  1.00  0.00     0.167 HD
ATOM     49  C   UNL     1      14.316 -13.753   2.774  1.00  0.00     0.034 A 
ATOM     50  C   UNL     1       8.972 -17.370   5.436  1.00  0.00     0.034 A 
ATOM     51  C   UNL     1      14.633 -14.530   3.942  1.00  0.00     0.049 A 
ATOM     52  C   UNL     1      10.364 -17.479   6.001  1.00  0.00     0.074 A 
ATOM     53  C   UNL     1      15.852 -14.654   4.586  1.00  0.00     0.029 A 
ATOM     54  N   UNL     1      13.735 -15.329   4.632  1.00  0.00    -0.354 N 
ATOM     55  N   UNL     1      11.444 -16.811   5.676  1.00  0.00    -0.248 NA
ATOM     56  C   UNL     1      10.563 -18.437   7.100  1.00  0.00     0.031 C 
ATOM     57  C   UNL     1      15.697 -15.548   5.652  1.00  0.00     0.029 A 
ATOM     58  C   UNL     1      14.375 -15.963   5.685  1.00  0.00     0.049 A 
ATOM     59  H   UNL     1      12.782 -15.430   4.408  1.00  0.00     0.167 HD
ATOM     60  C   UNL     1      12.440 -17.244   6.546  1.00  0.00     0.074 A 
ATOM     61  C   UNL     1      11.827 -18.212   7.431  1.00  0.00     0.031 C 
ATOM     62  C   UNL     1      13.747 -16.886   6.595  1.00  0.00     0.034 A 
BRANCH  49  63
ATOM     63  C   UNL     1      15.425 -12.977   2.118  1.00  0.00     0.023 A 
ATOM     64  C   UNL     1      15.503 -11.583   2.308  1.00  0.00     0.012 A 
ATOM     65  C   UNL     1      16.420 -13.633   1.368  1.00  0.00     0.148 A 
ATOM     66  C   UNL     1      16.544 -10.848   1.741  1.00  0.00     0.002 A 
ATOM     67  C   UNL     1      17.474 -12.899   0.838  1.00  0.00     0.091 A 
ATOM     68  F   UNL     1      16.311 -14.956   1.180  1.00  0.00    -0.205 F 
ATOM     69  C   UNL     1      17.534 -11.507   1.016  1.00  0.00     0.022 A 
BRANCH  67  70
ATOM     70  S   UNL     1      18.832 -13.667  -0.054  1.00  0.00     0.127 S 
ATOM     71  O   UNL     1      18.559 -13.245  -1.427  1.00  0.00    -0.237 OA
ATOM     72  O   UNL     1      20.000 -13.032   0.557  1.00  0.00    -0.237 OA
ATOM     73  O   UNL     1      18.719 -15.097   0.197  1.00  0.00    -0.744 OA
ENDBRANCH  67  70
ENDBRANCH  49  63
BRANCH  50  74
ATOM     74  C   UNL     1       7.859 -18.187   5.997  1.00  0.00     0.023 A 
ATOM     75  C   UNL     1       7.404 -17.941   7.307  1.00  0.00     0.012 A 
ATOM     76  C   UNL     1       7.250 -19.206   5.239  1.00  0.00     0.148 A 
ATOM     77  C   UNL     1       6.385 -18.716   7.862  1.00  0.00     0.002 A 
ATOM     78  C   UNL     1       6.200 -19.939   5.779  1.00  0.00     0.091 A 
ATOM     79  F   UNL     1       7.714 -19.442   4.003  1.00  0.00    -0.205 F 
ATOM     80  C   UNL     1       5.777 -19.707   7.096  1.00  0.00     0.022 A 
BRANCH  78  81
ATOM     81  S   UNL     1       5.284 -21.150   4.819  1.00  0.00     0.127 S 
ATOM     82  O   UNL     1       5.771 -22.407   5.380  1.00  0.00    -0.237 OA
ATOM     83  O   UNL     1       3.898 -20.820   5.156  1.00  0.00    -0.237 OA
ATOM     84  O   UNL     1       5.637 -20.894   3.429  1.00  0.00    -0.744 OA
ENDBRANCH  78  81
ENDBRANCH  50  74
BRANCH  62  85
ATOM     85  C   UNL     1      14.609 -17.527   7.653  1.00  0.00     0.023 A 
ATOM     86  C   UNL     1      14.977 -18.882   7.526  1.00  0.00     0.012 A 
ATOM     87  C   UNL     1      15.109 -16.776   8.735  1.00  0.00     0.148 A 
ATOM     88  C   UNL     1      15.799 -19.487   8.477  1.00  0.00     0.002 A 
ATOM     89  C   UNL     1      15.966 -17.374   9.653  1.00  0.00     0.091 A 
ATOM     90  F   UNL     1      14.735 -15.494   8.853  1.00  0.00    -0.205 F 
ATOM     91  C   UNL     1      16.302 -18.732   9.533  1.00  0.00     0.022 A 
BRANCH  89  92
ATOM     92  S   UNL     1      16.734 -16.448  10.989  1.00  0.00     0.127 S 
ATOM     93  O   UNL     1      15.926 -16.853  12.137  1.00  0.00    -0.237 OA
ATOM     94  O   UNL     1      18.101 -16.973  10.990  1.00  0.00    -0.237 OA
ATOM     95  O   UNL     1      16.631 -15.045  10.608  1.00  0.00    -0.744 OA
ENDBRANCH  89  92
ENDBRANCH  62  85
ENDBRANCH  36  37
ENDBRANCH  29  31
ENDBRANCH  28  29
ENDBRANCH  27  28
ENDBRANCH   1  27
TORSDOF 19
