REMARK SMILES O=C(OCCOC(=O)[C@H]1CSCN1C(=O)c1occc1-c1ccccc1)c1ccc(-c2c3nc(c(-c4cccc(S(=O)(=O)[O-])c4F)c4ccc([nH]4)c(-c4cccc(S(=O)(=O)[O-])c4F)c4nc(c(-c5cccc(S(=O)(=O)[O-])c5F)c5ccc2[nH]5)C=C4)C=C3)cc1
REMARK SMILES IDX 4 1 3 2 2 3 1 4 27 5 28 6 89 7 29 8 88 9 30 10 31 11 32 12
REMARK SMILES IDX 82 13 33 14 87 15 81 16 83 17 34 18 86 19 80 20 79 21 35 23
REMARK SMILES IDX 67 24 47 25 66 26 48 27 51 28 65 29 84 30 49 31 50 32 64 34
REMARK SMILES IDX 85 35 52 36 36 37 37 38 45 39 38 40 40 41 46 42 39 43 41 44
REMARK SMILES IDX 42 45 43 46 44 47 68 48 69 49 77 50 70 51 72 52 78 53 71 54
REMARK SMILES IDX 73 55 74 56 75 57 76 58 53 59 54 60 62 61 55 62 57 63 63 64
REMARK SMILES IDX 56 65 58 66 59 67 60 68 61 69 5 70 6 71 7 72 8 73 9 74 10 75
REMARK SMILES IDX 13 76 11 77 12 78 14 79 15 80 16 81 17 82 20 83 18 84 19 85
REMARK SMILES IDX 21 86 22 87 26 88 23 89 25 90 24 91
REMARK H PARENT 83 22 51 33
REMARK Flexibility Score: inf
ROOT
ATOM      1  C   UNL     1       3.619  -1.307   1.506  1.00  0.00     0.275 C 
ENDROOT
BRANCH   1   2
ATOM      2  O   UNL     1       2.380  -0.566   1.475  1.00  0.00    -0.458 OA
BRANCH   2   3
ATOM      3  C   UNL     1       1.920   0.433   0.690  1.00  0.00     0.338 C 
ATOM      4  O   UNL     1       0.796   0.877   0.912  1.00  0.00    -0.246 OA
BRANCH   3   5
ATOM      5  C   UNL     1       2.643   1.008  -0.478  1.00  0.00     0.060 A 
ATOM      6  C   UNL     1       4.321   0.544  -1.008  1.00  0.00     0.016 A 
ATOM      7  C   UNL     1       1.698   2.201  -1.491  1.00  0.00     0.016 A 
ATOM      8  C   UNL     1       5.033   1.245  -2.545  1.00  0.00     0.010 A 
ATOM      9  C   UNL     1       2.444   2.922  -3.039  1.00  0.00     0.010 A 
ATOM     10  C   UNL     1       4.118   2.418  -3.552  1.00  0.00    -0.014 A 
BRANCH  10  11
ATOM     11  C   UNL     1       4.817   2.990  -4.751  1.00  0.00     0.031 A 
ATOM     12  C   UNL     1       5.743   4.161  -4.648  1.00  0.00     0.074 A 
ATOM     13  C   UNL     1       4.766   2.398  -5.958  1.00  0.00     0.049 A 
ATOM     14  N   UNL     1       6.086   5.013  -5.579  1.00  0.00    -0.248 NA
ATOM     15  C   UNL     1       6.373   4.411  -3.350  1.00  0.00     0.031 C 
ATOM     16  C   UNL     1       4.146   1.117  -6.209  1.00  0.00     0.029 A 
ATOM     17  N   UNL     1       5.262   2.761  -7.188  1.00  0.00    -0.354 N 
ATOM     18  C   UNL     1       6.782   6.018  -4.924  1.00  0.00     0.074 A 
ATOM     19  C   UNL     1       6.910   5.609  -3.544  1.00  0.00     0.031 C 
ATOM     20  C   UNL     1       4.256   0.793  -7.503  1.00  0.00     0.029 A 
ATOM     21  C   UNL     1       4.943   1.877  -8.195  1.00  0.00     0.049 A 
ATOM     22  H   UNL     1       5.795   3.576  -7.335  1.00  0.00     0.167 HD
ATOM     23  C   UNL     1       7.233   7.185  -5.439  1.00  0.00     0.034 A 
ATOM     24  C   UNL     1       5.165   1.928  -9.525  1.00  0.00     0.034 A 
ATOM     25  C   UNL     1       7.341   7.433  -6.853  1.00  0.00     0.049 A 
ATOM     26  C   UNL     1       5.926   3.096 -10.085  1.00  0.00     0.074 A 
ATOM     27  C   UNL     1       7.738   8.582  -7.514  1.00  0.00     0.029 A 
ATOM     28  N   UNL     1       7.165   6.457  -7.821  1.00  0.00    -0.354 N 
ATOM     29  N   UNL     1       6.360   4.162  -9.456  1.00  0.00    -0.248 NA
ATOM     30  C   UNL     1       6.265   3.066 -11.515  1.00  0.00     0.031 C 
ATOM     31  C   UNL     1       7.879   8.273  -8.875  1.00  0.00     0.029 A 
ATOM     32  C   UNL     1       7.539   6.942  -9.060  1.00  0.00     0.049 A 
ATOM     33  H   UNL     1       6.824   5.549  -7.651  1.00  0.00     0.167 HD
ATOM     34  C   UNL     1       7.020   4.929 -10.407  1.00  0.00     0.074 A 
ATOM     35  C   UNL     1       6.970   4.185 -11.650  1.00  0.00     0.031 C 
ATOM     36  C   UNL     1       7.572   6.159 -10.268  1.00  0.00     0.034 A 
BRANCH  23  37
ATOM     37  C   UNL     1       7.617   8.271  -4.475  1.00  0.00     0.023 A 
ATOM     38  C   UNL     1       8.827   8.220  -3.763  1.00  0.00     0.012 A 
ATOM     39  C   UNL     1       6.757   9.374  -4.291  1.00  0.00     0.148 A 
ATOM     40  C   UNL     1       9.158   9.232  -2.859  1.00  0.00     0.002 A 
ATOM     41  C   UNL     1       7.115  10.402  -3.426  1.00  0.00     0.091 A 
ATOM     42  F   UNL     1       5.585   9.399  -4.946  1.00  0.00    -0.205 F 
ATOM     43  C   UNL     1       8.310  10.329  -2.698  1.00  0.00     0.022 A 
BRANCH  41  44
ATOM     44  S   UNL     1       6.079  11.865  -3.280  1.00  0.00     0.127 S 
ATOM     45  O   UNL     1       5.072  11.435  -2.314  1.00  0.00    -0.237 OA
ATOM     46  O   UNL     1       7.008  12.879  -2.777  1.00  0.00    -0.237 OA
ATOM     47  O   UNL     1       5.607  12.116  -4.637  1.00  0.00    -0.744 OA
ENDBRANCH  41  44
ENDBRANCH  23  37
BRANCH  24  48
ATOM     48  C   UNL     1       4.720   0.786 -10.377  1.00  0.00     0.023 A 
ATOM     49  C   UNL     1       5.677  -0.110 -10.890  1.00  0.00     0.012 A 
ATOM     50  C   UNL     1       3.352   0.506 -10.569  1.00  0.00     0.148 A 
ATOM     51  C   UNL     1       5.282  -1.257 -11.581  1.00  0.00     0.002 A 
ATOM     52  C   UNL     1       2.965  -0.673 -11.199  1.00  0.00     0.091 A 
ATOM     53  F   UNL     1       2.449   1.378 -10.097  1.00  0.00    -0.205 F 
ATOM     54  C   UNL     1       3.928  -1.550 -11.717  1.00  0.00     0.022 A 
BRANCH  52  55
ATOM     55  S   UNL     1       1.245  -1.200 -11.231  1.00  0.00     0.127 S 
ATOM     56  O   UNL     1       0.814  -0.750 -12.551  1.00  0.00    -0.237 OA
ATOM     57  O   UNL     1       1.359  -2.652 -11.082  1.00  0.00    -0.237 OA
ATOM     58  O   UNL     1       0.630  -0.536 -10.088  1.00  0.00    -0.744 OA
ENDBRANCH  52  55
ENDBRANCH  24  48
BRANCH  36  59
ATOM     59  C   UNL     1       8.180   6.798 -11.483  1.00  0.00     0.023 A 
ATOM     60  C   UNL     1       7.336   7.483 -12.378  1.00  0.00     0.012 A 
ATOM     61  C   UNL     1       9.572   6.815 -11.683  1.00  0.00     0.148 A 
ATOM     62  C   UNL     1       7.871   8.180 -13.459  1.00  0.00     0.002 A 
ATOM     63  C   UNL     1      10.101   7.525 -12.756  1.00  0.00     0.091 A 
ATOM     64  F   UNL     1      10.351   6.135 -10.830  1.00  0.00    -0.205 F 
ATOM     65  C   UNL     1       9.252   8.210 -13.642  1.00  0.00     0.022 A 
BRANCH  63  66
ATOM     66  S   UNL     1      11.870   7.652 -13.048  1.00  0.00     0.127 S 
ATOM     67  O   UNL     1      12.055   6.727 -14.165  1.00  0.00    -0.237 OA
ATOM     68  O   UNL     1      12.034   9.064 -13.393  1.00  0.00    -0.237 OA
ATOM     69  O   UNL     1      12.508   7.261 -11.798  1.00  0.00    -0.744 OA
ENDBRANCH  63  66
ENDBRANCH  36  59
ENDBRANCH  10  11
ENDBRANCH   3   5
ENDBRANCH   2   3
ENDBRANCH   1   2
BRANCH   1  70
ATOM     70  C   UNL     1       3.619  -2.526   0.571  1.00  0.00     0.274 C 
BRANCH  70  71
ATOM     71  O   UNL     1       3.915  -2.154  -0.786  1.00  0.00    -0.461 OA
BRANCH  71  72
ATOM     72  C   UNL     1       2.846  -1.666  -1.490  1.00  0.00     0.329 C 
ATOM     73  O   UNL     1       1.686  -1.843  -1.149  1.00  0.00    -0.250 OA
BRANCH  72  74
ATOM     74  C   UNL     1       3.340  -0.743  -2.659  1.00  0.00     0.206 C 
ATOM     75  C   UNL     1       2.700  -1.399  -3.894  1.00  0.00     0.108 C 
ATOM     76  N   UNL     1       2.944   0.979  -2.534  1.00  0.00    -0.312 N 
ATOM     77  S   UNL     1       1.055  -0.753  -3.984  1.00  0.00    -0.138 SA
ATOM     78  C   UNL     1       1.581   0.916  -3.597  1.00  0.00     0.191 C 
BRANCH  76  79
ATOM     79  C   UNL     1       3.712   2.501  -1.478  1.00  0.00     0.291 C 
ATOM     80  O   UNL     1       4.703   2.527  -0.685  1.00  0.00    -0.265 OA
BRANCH  79  81
ATOM     81  C   UNL     1       3.303   4.134  -1.309  1.00  0.00     0.199 A 
ATOM     82  O   UNL     1       4.115   4.989  -2.027  1.00  0.00    -0.459 OA
ATOM     83  C   UNL     1       2.519   4.935  -0.463  1.00  0.00     0.033 A 
ATOM     84  C   UNL     1       3.839   6.267  -1.697  1.00  0.00     0.196 A 
ATOM     85  C   UNL     1       2.863   6.296  -0.742  1.00  0.00     0.051 A 
BRANCH  83  86
ATOM     86  C   UNL     1       1.482   4.542   0.466  1.00  0.00    -0.014 A 
ATOM     87  C   UNL     1       0.159   4.923   0.183  1.00  0.00     0.009 A 
ATOM     88  C   UNL     1       1.767   3.872   1.654  1.00  0.00     0.009 A 
ATOM     89  C   UNL     1      -0.876   4.594   1.056  1.00  0.00     0.001 A 
ATOM     90  C   UNL     1       0.727   3.550   2.532  1.00  0.00     0.001 A 
ATOM     91  C   UNL     1      -0.591   3.901   2.229  1.00  0.00     0.000 A 
ENDBRANCH  83  86
ENDBRANCH  79  81
ENDBRANCH  76  79
ENDBRANCH  72  74
ENDBRANCH  71  72
ENDBRANCH  70  71
ENDBRANCH   1  70
TORSDOF 17
