REMARK SMILES C/C(=N/OCc1ccccc1Nc1c(Cl)cccc1Cl)C(=O)OCCOC(=O)c1ccc(-c2c3nc(c(-c4cccc(S(=O)(=O)[O-])c4F)c4ccc([nH]4)c(-c4cccc(S(=O)(=O)[O-])c4F)c4nc(c(-c5cccc(S(=O)(=O)[O-])c5F)c5ccc2[nH]5)C=C4)C=C3)cc1
REMARK SMILES IDX 24 1 23 2 21 3 22 4 2 5 1 6 3 7 4 8 5 9 6 10 7 11 11 12 8 13
REMARK SMILES IDX 10 14 9 15 12 16 13 18 14 19 19 20 15 21 16 22 18 23 20 24
REMARK SMILES IDX 17 25 25 26 26 27 27 28 28 29 29 30 30 31 91 32 31 33 90 34
REMARK SMILES IDX 32 35 33 36 34 37 84 38 35 39 89 40 83 41 85 42 36 43 88 44
REMARK SMILES IDX 82 45 81 46 37 48 69 49 49 50 68 51 50 52 53 53 67 54 86 55
REMARK SMILES IDX 51 56 52 57 66 59 87 60 54 61 38 62 39 63 47 64 40 65 42 66
REMARK SMILES IDX 48 67 41 68 43 69 44 70 45 71 46 72 70 73 71 74 79 75 72 76
REMARK SMILES IDX 74 77 80 78 73 79 75 80 76 81 77 82 78 83 55 84 56 85 64 86
REMARK SMILES IDX 57 87 59 88 65 89 58 90 60 91 61 92 62 93 63 94
REMARK H PARENT 12 17 85 47 53 58
REMARK Flexibility Score: inf
ROOT
ATOM      1  C   UNL     1       0.910   3.034  -3.663  1.00  0.00     0.275 C 
ENDROOT
BRANCH   1   2
ATOM      2  O   UNL     1       0.249   1.942  -2.997  1.00  0.00    -0.458 OA
BRANCH   2   3
ATOM      3  C   UNL     1       1.021   1.018  -2.393  1.00  0.00     0.355 C 
ATOM      4  O   UNL     1       2.235   0.957  -2.385  1.00  0.00    -0.245 OA
BRANCH   3   5
ATOM      5  C   UNL     1       0.171   0.054  -1.566  1.00  0.00     0.161 C 
ATOM      6  C   UNL     1       0.640  -0.265  -0.176  1.00  0.00     0.079 C 
ATOM      7  N   UNL     1      -0.887  -0.564  -1.995  1.00  0.00    -0.084 NA
BRANCH   7   8
ATOM      8  O   UNL     1      -1.039  -0.410  -3.374  1.00  0.00    -0.390 OA
BRANCH   8   9
ATOM      9  C   UNL     1      -1.721  -1.562  -3.881  1.00  0.00     0.302 C 
BRANCH   9  10
ATOM     10  C   UNL     1      -0.778  -2.707  -4.222  1.00  0.00     0.016 A 
ATOM     11  C   UNL     1       0.319  -3.004  -3.384  1.00  0.00     0.009 A 
ATOM     12  C   UNL     1      -1.033  -3.560  -5.313  1.00  0.00     0.045 A 
ATOM     13  C   UNL     1       1.161  -4.087  -3.622  1.00  0.00     0.001 A 
ATOM     14  C   UNL     1      -0.175  -4.655  -5.533  1.00  0.00     0.026 A 
ATOM     15  C   UNL     1       0.914  -4.915  -4.702  1.00  0.00     0.002 A 
BRANCH  12  16
ATOM     16  N   UNL     1      -2.155  -3.339  -6.142  1.00  0.00    -0.353 N 
ATOM     17  H   UNL     1      -2.574  -2.453  -6.051  1.00  0.00     0.167 HD
BRANCH  16  18
ATOM     18  C   UNL     1      -2.769  -4.197  -7.083  1.00  0.00     0.076 A 
ATOM     19  C   UNL     1      -2.912  -3.751  -8.414  1.00  0.00     0.066 A 
ATOM     20  C   UNL     1      -3.173  -5.514  -6.790  1.00  0.00     0.066 A 
ATOM     21  Cl  UNL     1      -2.478  -2.131  -8.854  1.00  0.00    -0.082 Cl
ATOM     22  C   UNL     1      -3.396  -4.592  -9.418  1.00  0.00     0.023 A 
ATOM     23  C   UNL     1      -3.655  -6.357  -7.800  1.00  0.00     0.023 A 
ATOM     24  Cl  UNL     1      -3.196  -6.143  -5.176  1.00  0.00    -0.082 Cl
ATOM     25  C   UNL     1      -3.754  -5.901  -9.112  1.00  0.00     0.003 A 
ENDBRANCH  16  18
ENDBRANCH  12  16
ENDBRANCH   9  10
ENDBRANCH   8   9
ENDBRANCH   7   8
ENDBRANCH   3   5
ENDBRANCH   2   3
ENDBRANCH   1   2
BRANCH   1  26
ATOM     26  C   UNL     1       0.481   4.353  -3.019  1.00  0.00     0.275 C 
BRANCH  26  27
ATOM     27  O   UNL     1       1.077   4.484  -1.715  1.00  0.00    -0.458 OA
BRANCH  27  28
ATOM     28  C   UNL     1       0.340   3.979  -0.703  1.00  0.00     0.338 C 
ATOM     29  O   UNL     1      -0.783   3.503  -0.761  1.00  0.00    -0.246 OA
BRANCH  28  30
ATOM     30  C   UNL     1       1.151   3.914   0.513  1.00  0.00     0.060 A 
ATOM     31  C   UNL     1       1.813   2.720   0.778  1.00  0.00     0.016 A 
ATOM     32  C   UNL     1       1.128   4.934   1.457  1.00  0.00     0.016 A 
ATOM     33  C   UNL     1       2.338   2.475   2.039  1.00  0.00     0.010 A 
ATOM     34  C   UNL     1       1.766   4.733   2.685  1.00  0.00     0.010 A 
ATOM     35  C   UNL     1       2.339   3.487   3.006  1.00  0.00    -0.014 A 
BRANCH  35  36
ATOM     36  C   UNL     1       2.934   3.233   4.346  1.00  0.00     0.031 A 
ATOM     37  C   UNL     1       2.104   3.402   5.590  1.00  0.00     0.074 A 
ATOM     38  C   UNL     1       4.228   2.865   4.444  1.00  0.00     0.049 A 
ATOM     39  N   UNL     1       2.481   3.385   6.842  1.00  0.00    -0.248 NA
ATOM     40  C   UNL     1       0.662   3.636   5.404  1.00  0.00     0.031 C 
ATOM     41  C   UNL     1       5.136   2.648   3.314  1.00  0.00     0.029 A 
ATOM     42  N   UNL     1       5.010   2.621   5.545  1.00  0.00    -0.354 N 
ATOM     43  C   UNL     1       1.345   3.678   7.587  1.00  0.00     0.074 A 
ATOM     44  C   UNL     1       0.261   3.861   6.647  1.00  0.00     0.031 C 
ATOM     45  C   UNL     1       6.343   2.295   3.777  1.00  0.00     0.029 A 
ATOM     46  C   UNL     1       6.321   2.342   5.233  1.00  0.00     0.049 A 
ATOM     47  H   UNL     1       4.667   2.643   6.467  1.00  0.00     0.167 HD
ATOM     48  C   UNL     1       1.217   3.778   8.932  1.00  0.00     0.034 A 
ATOM     49  C   UNL     1       7.400   2.191   6.024  1.00  0.00     0.034 A 
ATOM     50  C   UNL     1       2.288   3.534   9.862  1.00  0.00     0.049 A 
ATOM     51  C   UNL     1       7.231   2.312   7.511  1.00  0.00     0.074 A 
ATOM     52  C   UNL     1       2.251   3.563  11.245  1.00  0.00     0.029 A 
ATOM     53  N   UNL     1       3.590   3.213   9.505  1.00  0.00    -0.354 N 
ATOM     54  N   UNL     1       6.139   2.534   8.200  1.00  0.00    -0.248 NA
ATOM     55  C   UNL     1       8.439   2.145   8.330  1.00  0.00     0.031 C 
ATOM     56  C   UNL     1       3.535   3.283  11.723  1.00  0.00     0.029 A 
ATOM     57  C   UNL     1       4.366   3.049  10.639  1.00  0.00     0.049 A 
ATOM     58  H   UNL     1       3.913   3.115   8.580  1.00  0.00     0.167 HD
ATOM     59  C   UNL     1       6.520   2.506   9.536  1.00  0.00     0.074 A 
ATOM     60  C   UNL     1       7.941   2.220   9.557  1.00  0.00     0.031 C 
ATOM     61  C   UNL     1       5.768   2.715  10.643  1.00  0.00     0.034 A 
BRANCH  48  62
ATOM     62  C   UNL     1      -0.133   4.158   9.485  1.00  0.00     0.023 A 
ATOM     63  C   UNL     1      -1.194   3.231   9.456  1.00  0.00     0.012 A 
ATOM     64  C   UNL     1      -0.334   5.418  10.084  1.00  0.00     0.148 A 
ATOM     65  C   UNL     1      -2.443   3.565   9.980  1.00  0.00     0.002 A 
ATOM     66  C   UNL     1      -1.568   5.726  10.646  1.00  0.00     0.091 A 
ATOM     67  F   UNL     1       0.680   6.295  10.086  1.00  0.00    -0.205 F 
ATOM     68  C   UNL     1      -2.627   4.806  10.584  1.00  0.00     0.022 A 
BRANCH  66  69
ATOM     69  S   UNL     1      -1.879   7.267  11.516  1.00  0.00     0.127 S 
ATOM     70  O   UNL     1      -2.763   7.961  10.580  1.00  0.00    -0.237 OA
ATOM     71  O   UNL     1      -2.532   6.804  12.741  1.00  0.00    -0.237 OA
ATOM     72  O   UNL     1      -0.576   7.884  11.720  1.00  0.00    -0.744 OA
ENDBRANCH  66  69
ENDBRANCH  48  62
BRANCH  49  73
ATOM     73  C   UNL     1       8.731   1.902   5.417  1.00  0.00     0.023 A 
ATOM     74  C   UNL     1       9.324   0.641   5.615  1.00  0.00     0.012 A 
ATOM     75  C   UNL     1       9.390   2.852   4.612  1.00  0.00     0.148 A 
ATOM     76  C   UNL     1      10.561   0.340   5.044  1.00  0.00     0.002 A 
ATOM     77  C   UNL     1      10.592   2.524   3.995  1.00  0.00     0.091 A 
ATOM     78  F   UNL     1       8.818   4.053   4.447  1.00  0.00    -0.205 F 
ATOM     79  C   UNL     1      11.188   1.276   4.224  1.00  0.00     0.022 A 
BRANCH  77  80
ATOM     80  S   UNL     1      11.394   3.613   2.813  1.00  0.00     0.127 S 
ATOM     81  O   UNL     1      12.564   4.060   3.564  1.00  0.00    -0.237 OA
ATOM     82  O   UNL     1      11.684   2.698   1.708  1.00  0.00    -0.237 OA
ATOM     83  O   UNL     1      10.412   4.642   2.497  1.00  0.00    -0.744 OA
ENDBRANCH  77  80
ENDBRANCH  49  73
BRANCH  61  84
ATOM     84  C   UNL     1       6.454   2.601  11.978  1.00  0.00     0.023 A 
ATOM     85  C   UNL     1       7.344   3.609  12.399  1.00  0.00     0.012 A 
ATOM     86  C   UNL     1       6.166   1.526  12.842  1.00  0.00     0.148 A 
ATOM     87  C   UNL     1       7.963   3.531  13.645  1.00  0.00     0.002 A 
ATOM     88  C   UNL     1       6.748   1.482  14.103  1.00  0.00     0.091 A 
ATOM     89  F   UNL     1       5.332   0.567  12.414  1.00  0.00    -0.205 F 
ATOM     90  C   UNL     1       7.656   2.476  14.501  1.00  0.00     0.022 A 
BRANCH  88  91
ATOM     91  S   UNL     1       6.338   0.214  15.307  1.00  0.00     0.127 S 
ATOM     92  O   UNL     1       7.556  -0.593  15.317  1.00  0.00    -0.237 OA
ATOM     93  O   UNL     1       6.116   1.000  16.521  1.00  0.00    -0.237 OA
ATOM     94  O   UNL     1       5.149  -0.456  14.796  1.00  0.00    -0.744 OA
ENDBRANCH  88  91
ENDBRANCH  61  84
ENDBRANCH  35  36
ENDBRANCH  28  30
ENDBRANCH  27  28
ENDBRANCH  26  27
ENDBRANCH   1  26
TORSDOF 19
