REMARK SMILES CC1=C(C)C[C@@H](C(=O)NNC(=O)c2ccccc2C)[C@@H](C(=O)OCCOC(=O)c2ccc(-c3c4nc(c(-c5cccc(S(=O)(=O)[O-])c5F)c5ccc([nH]5)c(-c5cccc(S(=O)(=O)[O-])c5F)c5nc(c(-c6cccc(S(=O)(=O)[O-])c6F)c6ccc3[nH]6)C=C5)C=C4)cc2)C1
REMARK SMILES IDX 24 1 23 2 21 3 22 4 20 5 1 6 2 7 3 8 92 9 4 10 5 11 6 12
REMARK SMILES IDX 7 13 8 14 9 15 10 17 11 18 12 20 13 21 14 22 18 23 15 24
REMARK SMILES IDX 17 25 19 26 16 27 25 28 26 29 27 30 28 31 29 32 30 33 91 34
REMARK SMILES IDX 31 35 90 36 32 37 33 38 34 39 84 40 35 41 89 42 83 43 85 44
REMARK SMILES IDX 36 45 88 46 82 47 81 48 37 50 69 51 49 52 68 53 50 54 53 55
REMARK SMILES IDX 67 56 86 57 51 58 52 59 66 61 87 62 54 63 38 64 39 65 47 66
REMARK SMILES IDX 40 67 42 68 48 69 41 70 43 71 44 72 45 73 46 74 70 75 71 76
REMARK SMILES IDX 79 77 72 78 74 79 80 80 73 81 75 82 76 83 77 84 78 85 55 86
REMARK SMILES IDX 56 87 64 88 57 89 59 90 65 91 58 92 60 93 61 94 62 95 63 96
REMARK H PARENT 9 16 10 19 85 49 53 60
REMARK Flexibility Score: inf
ROOT
ATOM      1  C   UNL     1      -0.959   4.853  -4.650  1.00  0.00     0.274 C 
ENDROOT
BRANCH   1   2
ATOM      2  O   UNL     1      -0.427   3.622  -4.121  1.00  0.00    -0.462 OA
BRANCH   2   3
ATOM      3  C   UNL     1       0.027   2.700  -4.990  1.00  0.00     0.310 C 
ATOM      4  O   UNL     1       0.019   2.874  -6.206  1.00  0.00    -0.252 OA
BRANCH   3   5
ATOM      5  C   UNL     1       0.542   1.399  -4.349  1.00  0.00     0.116 C 
ATOM      6  C   UNL     1       1.841   0.129  -0.827  1.00  0.00     0.039 C 
ATOM      7  C   UNL     1       1.237   0.070  -2.219  1.00  0.00    -0.073 C 
ATOM      8  C   UNL     1       0.774  -1.076  -2.770  1.00  0.00    -0.074 C 
ATOM      9  C   UNL     1       1.126   1.426  -2.919  1.00  0.00     0.046 C 
ATOM     10  C   UNL     1       0.715  -2.422  -2.086  1.00  0.00     0.039 C 
ATOM     11  C   UNL     1       0.190  -1.110  -4.155  1.00  0.00     0.045 C 
ATOM     12  C   UNL     1      -0.391   0.202  -4.646  1.00  0.00     0.099 C 
BRANCH  12  13
ATOM     13  C   UNL     1      -1.908   0.409  -4.494  1.00  0.00     0.242 C 
ATOM     14  O   UNL     1      -2.467   1.073  -5.379  1.00  0.00    -0.273 OA
ATOM     15  N   UNL     1      -2.712  -0.063  -3.487  1.00  0.00    -0.267 N 
ATOM     16  H   UNL     1      -3.646   0.246  -3.488  1.00  0.00     0.191 HD
BRANCH  15  17
ATOM     17  N   UNL     1      -2.345  -0.934  -2.466  1.00  0.00    -0.263 N 
ATOM     18  C   UNL     1      -3.158  -1.800  -1.736  1.00  0.00     0.269 C 
ATOM     19  H   UNL     1      -1.389  -0.939  -2.229  1.00  0.00     0.191 HD
ATOM     20  O   UNL     1      -2.666  -2.672  -1.018  1.00  0.00    -0.267 OA
BRANCH  18  21
ATOM     21  C   UNL     1      -4.639  -1.667  -1.668  1.00  0.00     0.044 A 
ATOM     22  C   UNL     1      -5.194  -1.604  -0.368  1.00  0.00     0.014 A 
ATOM     23  C   UNL     1      -5.500  -1.684  -2.769  1.00  0.00    -0.038 A 
ATOM     24  C   UNL     1      -6.566  -1.442  -0.165  1.00  0.00     0.001 A 
ATOM     25  C   UNL     1      -6.883  -1.515  -2.551  1.00  0.00     0.004 A 
ATOM     26  C   UNL     1      -5.021  -1.921  -4.167  1.00  0.00     0.045 C 
ATOM     27  C   UNL     1      -7.412  -1.384  -1.263  1.00  0.00     0.000 A 
ENDBRANCH  18  21
ENDBRANCH  15  17
ENDBRANCH  12  13
ENDBRANCH   3   5
ENDBRANCH   2   3
ENDBRANCH   1   2
BRANCH   1  28
ATOM     28  C   UNL     1      -2.288   4.788  -5.446  1.00  0.00     0.275 C 
BRANCH  28  29
ATOM     29  O   UNL     1      -3.352   3.827  -5.180  1.00  0.00    -0.458 OA
BRANCH  29  30
ATOM     30  C   UNL     1      -3.770   3.274  -4.018  1.00  0.00     0.338 C 
ATOM     31  O   UNL     1      -4.626   2.423  -3.906  1.00  0.00    -0.246 OA
BRANCH  30  32
ATOM     32  C   UNL     1      -3.118   3.809  -2.844  1.00  0.00     0.060 A 
ATOM     33  C   UNL     1      -2.186   3.007  -2.177  1.00  0.00     0.016 A 
ATOM     34  C   UNL     1      -3.376   5.129  -2.501  1.00  0.00     0.016 A 
ATOM     35  C   UNL     1      -1.471   3.518  -1.129  1.00  0.00     0.010 A 
ATOM     36  C   UNL     1      -2.631   5.660  -1.487  1.00  0.00     0.010 A 
ATOM     37  C   UNL     1      -1.753   4.818  -0.779  1.00  0.00    -0.014 A 
BRANCH  37  38
ATOM     38  C   UNL     1      -1.376   5.281   0.527  1.00  0.00     0.031 A 
ATOM     39  C   UNL     1       0.031   5.627   0.744  1.00  0.00     0.074 A 
ATOM     40  C   UNL     1      -2.490   5.420   1.282  1.00  0.00     0.049 A 
ATOM     41  N   UNL     1       0.647   5.477   1.863  1.00  0.00    -0.248 NA
ATOM     42  C   UNL     1       0.943   6.016  -0.345  1.00  0.00     0.031 C 
ATOM     43  C   UNL     1      -2.831   6.345   2.332  1.00  0.00     0.029 A 
ATOM     44  N   UNL     1      -3.636   4.606   1.175  1.00  0.00    -0.354 N 
ATOM     45  C   UNL     1       1.777   6.262   1.743  1.00  0.00     0.074 A 
ATOM     46  C   UNL     1       2.061   6.307   0.333  1.00  0.00     0.031 C 
ATOM     47  C   UNL     1      -3.971   5.930   2.924  1.00  0.00     0.029 A 
ATOM     48  C   UNL     1      -4.309   4.612   2.395  1.00  0.00     0.049 A 
ATOM     49  H   UNL     1      -3.915   4.114   0.369  1.00  0.00     0.167 HD
ATOM     50  C   UNL     1       2.053   7.124   2.763  1.00  0.00     0.034 A 
ATOM     51  C   UNL     1      -4.540   3.473   3.125  1.00  0.00     0.034 A 
ATOM     52  C   UNL     1       1.016   6.981   3.802  1.00  0.00     0.049 A 
ATOM     53  C   UNL     1      -3.661   3.494   4.361  1.00  0.00     0.074 A 
ATOM     54  C   UNL     1      -0.136   7.717   4.037  1.00  0.00     0.029 A 
ATOM     55  N   UNL     1       0.865   5.785   4.490  1.00  0.00    -0.354 N 
ATOM     56  N   UNL     1      -2.665   4.315   4.509  1.00  0.00    -0.248 NA
ATOM     57  C   UNL     1      -3.759   2.526   5.449  1.00  0.00     0.031 C 
ATOM     58  C   UNL     1      -0.992   6.944   4.859  1.00  0.00     0.029 A 
ATOM     59  C   UNL     1      -0.380   5.728   5.099  1.00  0.00     0.049 A 
ATOM     60  H   UNL     1       1.546   5.076   4.539  1.00  0.00     0.167 HD
ATOM     61  C   UNL     1      -1.932   3.954   5.597  1.00  0.00     0.074 A 
ATOM     62  C   UNL     1      -2.681   2.854   6.181  1.00  0.00     0.031 C 
ATOM     63  C   UNL     1      -0.749   4.564   5.891  1.00  0.00     0.034 A 
BRANCH  50  64
ATOM     64  C   UNL     1       2.913   8.377   2.674  1.00  0.00     0.023 A 
ATOM     65  C   UNL     1       2.650   9.378   3.641  1.00  0.00     0.012 A 
ATOM     66  C   UNL     1       3.933   8.674   1.739  1.00  0.00     0.148 A 
ATOM     67  C   UNL     1       3.272  10.625   3.641  1.00  0.00     0.002 A 
ATOM     68  C   UNL     1       4.555   9.933   1.731  1.00  0.00     0.091 A 
ATOM     69  F   UNL     1       4.344   7.734   0.882  1.00  0.00    -0.205 F 
ATOM     70  C   UNL     1       4.216  10.911   2.674  1.00  0.00     0.022 A 
BRANCH  68  71
ATOM     71  S   UNL     1       5.809  10.416   0.529  1.00  0.00     0.127 S 
ATOM     72  O   UNL     1       5.241  11.646  -0.029  1.00  0.00    -0.237 OA
ATOM     73  O   UNL     1       6.986  10.622   1.370  1.00  0.00    -0.237 OA
ATOM     74  O   UNL     1       5.908   9.318  -0.424  1.00  0.00    -0.744 OA
ENDBRANCH  68  71
ENDBRANCH  50  64
BRANCH  51  75
ATOM     75  C   UNL     1      -4.663   2.218   2.299  1.00  0.00     0.023 A 
ATOM     76  C   UNL     1      -5.555   2.248   1.200  1.00  0.00     0.012 A 
ATOM     77  C   UNL     1      -3.543   1.379   2.247  1.00  0.00     0.148 A 
ATOM     78  C   UNL     1      -5.139   1.743  -0.028  1.00  0.00     0.002 A 
ATOM     79  C   UNL     1      -3.103   0.939   1.022  1.00  0.00     0.091 A 
ATOM     80  F   UNL     1      -2.834   1.121   3.351  1.00  0.00    -0.205 F 
ATOM     81  C   UNL     1      -3.873   1.172  -0.121  1.00  0.00     0.022 A 
BRANCH  79  82
ATOM     82  S   UNL     1      -1.429   0.324   0.922  1.00  0.00     0.127 S 
ATOM     83  O   UNL     1      -1.513  -0.952   1.617  1.00  0.00    -0.237 OA
ATOM     84  O   UNL     1      -1.217   0.238  -0.520  1.00  0.00    -0.237 OA
ATOM     85  O   UNL     1      -0.651   1.375   1.561  1.00  0.00    -0.744 OA
ENDBRANCH  79  82
ENDBRANCH  51  75
BRANCH  63  86
ATOM     86  C   UNL     1       0.164   4.155   7.006  1.00  0.00     0.023 A 
ATOM     87  C   UNL     1       0.277   2.828   7.447  1.00  0.00     0.012 A 
ATOM     88  C   UNL     1       1.049   5.111   7.561  1.00  0.00     0.148 A 
ATOM     89  C   UNL     1       1.161   2.483   8.471  1.00  0.00     0.002 A 
ATOM     90  C   UNL     1       2.021   4.733   8.470  1.00  0.00     0.091 A 
ATOM     91  F   UNL     1       0.939   6.406   7.228  1.00  0.00    -0.205 F 
ATOM     92  C   UNL     1       2.050   3.431   8.967  1.00  0.00     0.022 A 
BRANCH  90  93
ATOM     93  S   UNL     1       3.343   5.870   8.893  1.00  0.00     0.127 S 
ATOM     94  O   UNL     1       2.799   6.546  10.067  1.00  0.00    -0.237 OA
ATOM     95  O   UNL     1       4.459   4.964   9.171  1.00  0.00    -0.237 OA
ATOM     96  O   UNL     1       3.529   6.692   7.704  1.00  0.00    -0.744 OA
ENDBRANCH  90  93
ENDBRANCH  63  86
ENDBRANCH  37  38
ENDBRANCH  30  32
ENDBRANCH  29  30
ENDBRANCH  28  29
ENDBRANCH   1  28
TORSDOF 17
