REMARK SMILES Cc1cc(NS(=O)(=O)c2ccc3c(c2)[C@H]2[C@H]4CC[C@H](C4)[C@@H]2[C@H](c2cccc(C(=O)OCCOC(=O)c4ccc(-c5c6nc(c(-c7cccc(S(=O)(=O)[O-])c7F)c7ccc([nH]7)c(-c7cccc(S(=O)(=O)[O-])c7F)c7nc(c(-c8cccc(S(=O)(=O)[O-])c8F)c8ccc5[nH]8)C=C7)C=C6)cc4)c2)N3)no1
REMARK SMILES IDX 31 1 30 2 28 3 29 4 27 5 23 6 24 7 99 8 25 9 26 10 22 11
REMARK SMILES IDX 9 12 10 13 14 14 11 15 13 16 12 17 15 18 100 19 16 20 21 21
REMARK SMILES IDX 17 23 20 24 19 25 18 26 6 27 7 28 8 29 5 30 4 32 1 33 2 34
REMARK SMILES IDX 3 35 102 36 101 37 32 38 33 39 34 40 35 41 36 42 37 43 98 44
REMARK SMILES IDX 38 45 97 46 39 47 40 48 41 49 91 50 42 51 96 52 90 53 92 54
REMARK SMILES IDX 43 55 95 56 89 57 88 58 44 60 76 61 56 62 75 63 57 64 60 65
REMARK SMILES IDX 74 66 93 67 58 68 59 69 73 71 94 72 61 73 45 74 46 75 54 76
REMARK SMILES IDX 47 77 49 78 55 79 48 80 50 81 51 82 52 83 53 84 77 85 78 86
REMARK SMILES IDX 86 87 79 88 81 89 87 90 80 91 82 92 83 93 84 94 85 95 62 96
REMARK SMILES IDX 63 97 71 98 64 99 66 100 72 101 65 102 67 103 68 104 69 105
REMARK SMILES IDX 70 106
REMARK H PARENT 100 22 5 31 92 59 60 70
REMARK Flexibility Score: inf
ROOT
ATOM      1  C   UNL     1      -3.216   6.155   5.826  1.00  0.00     0.275 C 
ENDROOT
BRANCH   1   2
ATOM      2  O   UNL     1      -2.842   6.345   4.447  1.00  0.00    -0.458 OA
BRANCH   2   3
ATOM      3  C   UNL     1      -2.333   7.564   4.132  1.00  0.00     0.338 C 
ATOM      4  O   UNL     1      -2.183   8.497   4.894  1.00  0.00    -0.246 OA
BRANCH   3   5
ATOM      5  C   UNL     1      -1.887   7.600   2.711  1.00  0.00     0.060 A 
ATOM      6  C   UNL     1      -1.912   6.774   0.414  1.00  0.00    -0.025 A 
ATOM      7  C   UNL     1      -0.926   7.726   0.095  1.00  0.00     0.006 A 
ATOM      8  C   UNL     1      -2.373   6.712   1.743  1.00  0.00     0.021 A 
ATOM      9  C   UNL     1      -0.432   8.605   1.056  1.00  0.00     0.001 A 
ATOM     10  C   UNL     1      -0.937   8.565   2.350  1.00  0.00     0.016 A 
BRANCH   6  11
ATOM     11  C   UNL     1      -2.446   5.873  -0.687  1.00  0.00     0.113 C 
ATOM     12  C   UNL     1      -3.882   0.989   0.087  1.00  0.00     0.088 A 
ATOM     13  C   UNL     1      -5.058   1.749  -0.002  1.00  0.00     0.024 A 
ATOM     14  C   UNL     1      -2.653   1.636   0.152  1.00  0.00     0.028 A 
ATOM     15  C   UNL     1      -4.998   3.149  -0.069  1.00  0.00     0.027 A 
ATOM     16  C   UNL     1      -2.592   3.020  -0.013  1.00  0.00    -0.020 A 
ATOM     17  C   UNL     1      -3.767   3.806  -0.093  1.00  0.00     0.038 A 
ATOM     18  C   UNL     1      -1.290   3.750  -0.122  1.00  0.00     0.030 C 
ATOM     19  N   UNL     1      -3.700   5.184  -0.300  1.00  0.00    -0.378 N 
ATOM     20  C   UNL     1       0.071   3.150  -0.525  1.00  0.00    -0.003 C 
ATOM     21  C   UNL     1      -1.488   4.809  -1.222  1.00  0.00     0.027 C 
ATOM     22  H   UNL     1      -4.517   5.720  -0.183  1.00  0.00     0.161 HD
ATOM     23  C   UNL     1       0.100   2.648  -1.985  1.00  0.00     0.004 C 
ATOM     24  C   UNL     1       0.856   4.471  -0.643  1.00  0.00     0.008 C 
ATOM     25  C   UNL     1      -0.052   5.035  -1.744  1.00  0.00    -0.005 C 
ATOM     26  C   UNL     1       0.177   3.944  -2.816  1.00  0.00     0.004 C 
BRANCH  12  27
ATOM     27  S   UNL     1      -4.048  -0.785   0.035  1.00  0.00     0.263 S 
ATOM     28  O   UNL     1      -4.374  -1.160  -1.324  1.00  0.00    -0.201 OA
ATOM     29  O   UNL     1      -4.950  -1.123   1.122  1.00  0.00    -0.201 OA
BRANCH  27  30
ATOM     30  N   UNL     1      -2.604  -1.487   0.484  1.00  0.00    -0.261 N 
ATOM     31  H   UNL     1      -2.623  -2.077   1.272  1.00  0.00     0.182 HD
BRANCH  30  32
ATOM     32  C   UNL     1      -1.381  -1.322  -0.141  1.00  0.00     0.183 A 
ATOM     33  C   UNL     1       2.217  -0.676  -0.161  1.00  0.00     0.091 C 
ATOM     34  C   UNL     1       0.783  -0.984  -0.313  1.00  0.00     0.135 A 
ATOM     35  C   UNL     1      -0.150  -1.582   0.497  1.00  0.00     0.096 A 
ATOM     36  O   UNL     1       0.170  -0.551  -1.447  1.00  0.00    -0.360 OA
ATOM     37  N   UNL     1      -1.194  -0.779  -1.345  1.00  0.00    -0.061 NA
ENDBRANCH  30  32
ENDBRANCH  27  30
ENDBRANCH  12  27
ENDBRANCH   6  11
ENDBRANCH   3   5
ENDBRANCH   2   3
ENDBRANCH   1   2
BRANCH   1  38
ATOM     38  C   UNL     1      -2.199   5.280   6.560  1.00  0.00     0.275 C 
BRANCH  38  39
ATOM     39  O   UNL     1      -0.959   5.985   6.751  1.00  0.00    -0.458 OA
BRANCH  39  40
ATOM     40  C   UNL     1       0.044   5.641   5.910  1.00  0.00     0.338 C 
ATOM     41  O   UNL     1       0.038   4.761   5.066  1.00  0.00    -0.246 OA
BRANCH  40  42
ATOM     42  C   UNL     1       1.149   6.596   6.082  1.00  0.00     0.060 A 
ATOM     43  C   UNL     1       2.098   6.447   7.090  1.00  0.00     0.016 A 
ATOM     44  C   UNL     1       1.266   7.625   5.150  1.00  0.00     0.016 A 
ATOM     45  C   UNL     1       3.157   7.362   7.167  1.00  0.00     0.010 A 
ATOM     46  C   UNL     1       2.334   8.517   5.208  1.00  0.00     0.010 A 
ATOM     47  C   UNL     1       3.289   8.402   6.223  1.00  0.00    -0.014 A 
BRANCH  47  48
ATOM     48  C   UNL     1       4.458   9.323   6.249  1.00  0.00     0.031 A 
ATOM     49  C   UNL     1       4.288  10.803   6.475  1.00  0.00     0.074 A 
ATOM     50  C   UNL     1       5.686   8.825   6.000  1.00  0.00     0.049 A 
ATOM     51  N   UNL     1       5.210  11.728   6.570  1.00  0.00    -0.248 NA
ATOM     52  C   UNL     1       2.914  11.320   6.582  1.00  0.00     0.031 C 
ATOM     53  C   UNL     1       5.973   7.434   5.642  1.00  0.00     0.029 A 
ATOM     54  N   UNL     1       6.919   9.427   6.007  1.00  0.00    -0.354 N 
ATOM     55  C   UNL     1       4.533  12.932   6.721  1.00  0.00     0.074 A 
ATOM     56  C   UNL     1       3.120  12.628   6.672  1.00  0.00     0.031 C 
ATOM     57  C   UNL     1       7.299   7.278   5.516  1.00  0.00     0.029 A 
ATOM     58  C   UNL     1       7.957   8.557   5.764  1.00  0.00     0.049 A 
ATOM     59  H   UNL     1       7.049  10.389   6.170  1.00  0.00     0.167 HD
ATOM     60  C   UNL     1       5.040  14.172   6.923  1.00  0.00     0.034 A 
ATOM     61  C   UNL     1       9.289   8.756   5.768  1.00  0.00     0.034 A 
ATOM     62  C   UNL     1       6.444  14.462   7.038  1.00  0.00     0.049 A 
ATOM     63  C   UNL     1       9.831  10.118   6.093  1.00  0.00     0.074 A 
ATOM     64  C   UNL     1       7.048  15.670   7.343  1.00  0.00     0.029 A 
ATOM     65  N   UNL     1       7.461  13.538   6.865  1.00  0.00    -0.354 N 
ATOM     66  N   UNL     1       9.172  11.214   6.380  1.00  0.00    -0.248 NA
ATOM     67  C   UNL     1      11.293  10.268   6.126  1.00  0.00     0.031 C 
ATOM     68  C   UNL     1       8.432  15.475   7.356  1.00  0.00     0.029 A 
ATOM     69  C   UNL     1       8.688  14.145   7.065  1.00  0.00     0.049 A 
ATOM     70  H   UNL     1       7.330  12.590   6.634  1.00  0.00     0.167 HD
ATOM     71  C   UNL     1      10.136  12.178   6.646  1.00  0.00     0.074 A 
ATOM     72  C   UNL     1      11.426  11.535   6.502  1.00  0.00     0.031 C 
ATOM     73  C   UNL     1       9.963  13.483   6.965  1.00  0.00     0.034 A 
BRANCH  60  74
ATOM     74  C   UNL     1       4.075  15.307   7.137  1.00  0.00     0.023 A 
ATOM     75  C   UNL     1       3.426  15.420   8.383  1.00  0.00     0.012 A 
ATOM     76  C   UNL     1       3.894  16.313   6.167  1.00  0.00     0.148 A 
ATOM     77  C   UNL     1       2.597  16.506   8.656  1.00  0.00     0.002 A 
ATOM     78  C   UNL     1       3.090  17.410   6.459  1.00  0.00     0.091 A 
ATOM     79  F   UNL     1       4.518  16.183   4.988  1.00  0.00    -0.205 F 
ATOM     80  C   UNL     1       2.438  17.505   7.700  1.00  0.00     0.022 A 
BRANCH  78  81
ATOM     81  S   UNL     1       2.861  18.785   5.325  1.00  0.00     0.127 S 
ATOM     82  O   UNL     1       1.436  18.677   5.014  1.00  0.00    -0.237 OA
ATOM     83  O   UNL     1       3.217  19.933   6.159  1.00  0.00    -0.237 OA
ATOM     84  O   UNL     1       3.759  18.539   4.205  1.00  0.00    -0.744 OA
ENDBRANCH  78  81
ENDBRANCH  60  74
BRANCH  61  85
ATOM     85  C   UNL     1      10.192   7.589   5.575  1.00  0.00     0.023 A 
ATOM     86  C   UNL     1      10.815   7.018   6.702  1.00  0.00     0.012 A 
ATOM     87  C   UNL     1      10.357   6.987   4.314  1.00  0.00     0.148 A 
ATOM     88  C   UNL     1      11.592   5.867   6.576  1.00  0.00     0.002 A 
ATOM     89  C   UNL     1      11.099   5.817   4.202  1.00  0.00     0.091 A 
ATOM     90  F   UNL     1       9.751   7.551   3.260  1.00  0.00    -0.205 F 
ATOM     91  C   UNL     1      11.724   5.261   5.329  1.00  0.00     0.022 A 
BRANCH  89  92
ATOM     92  S   UNL     1      11.236   4.898   2.664  1.00  0.00     0.127 S 
ATOM     93  O   UNL     1      12.669   4.986   2.391  1.00  0.00    -0.237 OA
ATOM     94  O   UNL     1      10.765   3.572   3.066  1.00  0.00    -0.237 OA
ATOM     95  O   UNL     1      10.375   5.585   1.712  1.00  0.00    -0.744 OA
ENDBRANCH  89  92
ENDBRANCH  61  85
BRANCH  73  96
ATOM     96  C   UNL     1      11.186  14.326   7.194  1.00  0.00     0.023 A 
ATOM     97  C   UNL     1      11.893  14.828   6.085  1.00  0.00     0.012 A 
ATOM     98  C   UNL     1      11.548  14.731   8.493  1.00  0.00     0.148 A 
ATOM     99  C   UNL     1      12.948  15.720   6.265  1.00  0.00     0.002 A 
ATOM    100  C   UNL     1      12.580  15.646   8.664  1.00  0.00     0.091 A 
ATOM    101  F   UNL     1      10.862  14.232   9.531  1.00  0.00    -0.205 F 
ATOM    102  C   UNL     1      13.283  16.138   7.552  1.00  0.00     0.022 A 
BRANCH 100 103
ATOM    103  S   UNL     1      13.037  16.303  10.272  1.00  0.00     0.127 S 
ATOM    104  O   UNL     1      14.380  15.751  10.448  1.00  0.00    -0.237 OA
ATOM    105  O   UNL     1      12.997  17.746  10.038  1.00  0.00    -0.237 OA
ATOM    106  O   UNL     1      12.038  15.810  11.210  1.00  0.00    -0.744 OA
ENDBRANCH 100 103
ENDBRANCH  73  96
ENDBRANCH  47  48
ENDBRANCH  40  42
ENDBRANCH  39  40
ENDBRANCH  38  39
ENDBRANCH   1  38
TORSDOF 18
