REMARK SMILES C[N@@H+](CCCCC(=O)OCCOC(=O)c1ccc(-c2c3nc(c(-c4cccc(S(=O)(=O)[O-])c4F)c4ccc([nH]4)c(-c4cccc(S(=O)(=O)[O-])c4F)c4nc(c(-c5cccc(S(=O)(=O)[O-])c5F)c5ccc2[nH]5)C=C4)C=C3)cc1)CC(C)(C)O
REMARK SMILES IDX 7 1 8 2 6 3 5 4 4 5 3 6 2 7 1 8 78 10 79 11 80 12 81 13
REMARK SMILES IDX 82 14 9 16 10 17 11 18 12 19 13 20 14 21 15 22 16 23 77 24
REMARK SMILES IDX 17 25 76 26 18 27 19 28 20 29 70 30 21 31 75 32 69 33 71 34
REMARK SMILES IDX 22 35 74 36 68 37 67 38 23 40 55 41 35 42 54 43 36 44 39 45
REMARK SMILES IDX 53 46 72 47 37 48 38 49 52 51 73 52 40 53 24 54 25 55 33 56
REMARK SMILES IDX 26 57 28 58 34 59 27 60 29 61 30 62 31 63 32 64 56 65 57 66
REMARK SMILES IDX 65 67 58 68 60 69 66 70 59 71 61 72 62 73 63 74 64 75 41 76
REMARK SMILES IDX 42 77 50 78 43 79 45 80 51 81 44 82 46 83 47 84 48 85 49 86
REMARK H PARENT 2 9 82 15 71 39 39 50
REMARK Flexibility Score: inf
ROOT
ATOM      1  C   UNL     1      -3.693  -3.907  -1.078  1.00  0.00     0.305 C 
ATOM      2  O   UNL     1      -4.149  -4.976  -1.458  1.00  0.00    -0.252 OA
ENDROOT
BRANCH   1   3
ATOM      3  C   UNL     1      -2.218  -3.620  -0.981  1.00  0.00     0.123 C 
BRANCH   3   4
ATOM      4  C   UNL     1      -1.850  -2.250  -1.561  1.00  0.00     0.017 C 
BRANCH   4   5
ATOM      5  C   UNL     1      -1.712  -1.129  -0.524  1.00  0.00     0.062 C 
BRANCH   5   6
ATOM      6  C   UNL     1      -0.586  -1.302   0.507  1.00  0.00     0.262 C 
BRANCH   6   7
ATOM      7  N   UNL     1       0.791  -0.931   0.165  1.00  0.00    -0.335 N 
ATOM      8  C   UNL     1       1.058   0.485   0.308  1.00  0.00     0.332 C 
ATOM      9  H   UNL     1       1.343  -1.371   0.901  1.00  0.00     0.347 HD
BRANCH   7  10
ATOM     10  C   UNL     1       1.387  -1.589  -1.007  1.00  0.00     0.296 C 
BRANCH  10  11
ATOM     11  C   UNL     1       1.435  -0.916  -2.430  1.00  0.00     0.108 C 
ATOM     12  C   UNL     1       2.543   0.134  -2.557  1.00  0.00     0.048 C 
ATOM     13  C   UNL     1       1.674  -2.007  -3.489  1.00  0.00     0.048 C 
BRANCH  11  14
ATOM     14  O   UNL     1       0.198  -0.270  -2.741  1.00  0.00    -0.385 OA
ATOM     15  H   UNL     1       0.023   0.424  -2.086  1.00  0.00     0.211 HD
ENDBRANCH  11  14
ENDBRANCH  10  11
ENDBRANCH   7  10
ENDBRANCH   6   7
ENDBRANCH   5   6
ENDBRANCH   4   5
ENDBRANCH   3   4
ENDBRANCH   1   3
BRANCH   1  16
ATOM     16  O   UNL     1      -4.424  -2.825  -0.700  1.00  0.00    -0.462 OA
BRANCH  16  17
ATOM     17  C   UNL     1      -5.766  -2.786  -1.214  1.00  0.00     0.274 C 
BRANCH  17  18
ATOM     18  C   UNL     1      -5.745  -2.067  -2.564  1.00  0.00     0.275 C 
BRANCH  18  19
ATOM     19  O   UNL     1      -5.018  -2.868  -3.512  1.00  0.00    -0.458 OA
BRANCH  19  20
ATOM     20  C   UNL     1      -4.425  -2.192  -4.523  1.00  0.00     0.338 C 
ATOM     21  O   UNL     1      -4.456  -0.993  -4.728  1.00  0.00    -0.246 OA
BRANCH  20  22
ATOM     22  C   UNL     1      -3.763  -3.167  -5.410  1.00  0.00     0.060 A 
ATOM     23  C   UNL     1      -2.701  -3.955  -4.952  1.00  0.00     0.016 A 
ATOM     24  C   UNL     1      -4.216  -3.287  -6.722  1.00  0.00     0.016 A 
ATOM     25  C   UNL     1      -2.096  -4.877  -5.812  1.00  0.00     0.010 A 
ATOM     26  C   UNL     1      -3.642  -4.242  -7.563  1.00  0.00     0.010 A 
ATOM     27  C   UNL     1      -2.579  -5.048  -7.117  1.00  0.00    -0.014 A 
BRANCH  27  28
ATOM     28  C   UNL     1      -2.040  -6.099  -8.023  1.00  0.00     0.031 A 
ATOM     29  C   UNL     1      -1.372  -5.716  -9.314  1.00  0.00     0.074 A 
ATOM     30  C   UNL     1      -2.273  -7.398  -7.745  1.00  0.00     0.049 A 
ATOM     31  N   UNL     1      -1.043  -6.471 -10.330  1.00  0.00    -0.248 NA
ATOM     32  C   UNL     1      -1.041  -4.292  -9.493  1.00  0.00     0.031 C 
ATOM     33  C   UNL     1      -2.931  -7.900  -6.537  1.00  0.00     0.029 A 
ATOM     34  N   UNL     1      -2.038  -8.530  -8.489  1.00  0.00    -0.354 N 
ATOM     35  C   UNL     1      -0.528  -5.612 -11.293  1.00  0.00     0.074 A 
ATOM     36  C   UNL     1      -0.566  -4.278 -10.733  1.00  0.00     0.031 C 
ATOM     37  C   UNL     1      -3.086  -9.229  -6.640  1.00  0.00     0.029 A 
ATOM     38  C   UNL     1      -2.592  -9.666  -7.942  1.00  0.00     0.049 A 
ATOM     39  H   UNL     1      -1.524  -8.529  -9.329  1.00  0.00     0.167 HD
ATOM     40  C   UNL     1      -0.067  -5.911 -12.531  1.00  0.00     0.034 A 
ATOM     41  C   UNL     1      -2.744 -10.906  -8.450  1.00  0.00     0.034 A 
ATOM     42  C   UNL     1       0.015  -7.244 -13.065  1.00  0.00     0.049 A 
ATOM     43  C   UNL     1      -2.226 -11.203  -9.831  1.00  0.00     0.074 A 
ATOM     44  C   UNL     1       0.567  -7.654 -14.267  1.00  0.00     0.029 A 
ATOM     45  N   UNL     1      -0.484  -8.379 -12.447  1.00  0.00    -0.354 N 
ATOM     46  N   UNL     1      -1.605 -10.409 -10.669  1.00  0.00    -0.248 NA
ATOM     47  C   UNL     1      -2.416 -12.573 -10.333  1.00  0.00     0.031 C 
ATOM     48  C   UNL     1       0.372  -9.033 -14.390  1.00  0.00     0.029 A 
ATOM     49  C   UNL     1      -0.280  -9.485 -13.255  1.00  0.00     0.049 A 
ATOM     50  H   UNL     1      -0.920  -8.396 -11.564  1.00  0.00     0.167 HD
ATOM     51  C   UNL     1      -1.312 -11.186 -11.784  1.00  0.00     0.074 A 
ATOM     52  C   UNL     1      -1.795 -12.522 -11.504  1.00  0.00     0.031 C 
ATOM     53  C   UNL     1      -0.717 -10.821 -12.945  1.00  0.00     0.034 A 
BRANCH  40  54
ATOM     54  C   UNL     1       0.413  -4.785 -13.407  1.00  0.00     0.023 A 
ATOM     55  C   UNL     1       1.671  -4.200 -13.168  1.00  0.00     0.012 A 
ATOM     56  C   UNL     1      -0.334  -4.389 -14.535  1.00  0.00     0.148 A 
ATOM     57  C   UNL     1       2.175  -3.228 -14.031  1.00  0.00     0.002 A 
ATOM     58  C   UNL     1       0.191  -3.447 -15.411  1.00  0.00     0.091 A 
ATOM     59  F   UNL     1      -1.536  -4.948 -14.732  1.00  0.00    -0.205 F 
ATOM     60  C   UNL     1       1.442  -2.861 -15.157  1.00  0.00     0.022 A 
BRANCH  58  61
ATOM     61  S   UNL     1      -0.639  -2.962 -16.929  1.00  0.00     0.127 S 
ATOM     62  O   UNL     1      -0.984  -1.570 -16.643  1.00  0.00    -0.237 OA
ATOM     63  O   UNL     1       0.419  -3.135 -17.925  1.00  0.00    -0.237 OA
ATOM     64  O   UNL     1      -1.772  -3.864 -17.077  1.00  0.00    -0.744 OA
ENDBRANCH  58  61
ENDBRANCH  40  54
BRANCH  41  65
ATOM     65  C   UNL     1      -3.430 -11.963  -7.652  1.00  0.00     0.023 A 
ATOM     66  C   UNL     1      -2.690 -13.061  -7.175  1.00  0.00     0.012 A 
ATOM     67  C   UNL     1      -4.806 -11.884  -7.362  1.00  0.00     0.148 A 
ATOM     68  C   UNL     1      -3.315 -14.078  -6.451  1.00  0.00     0.002 A 
ATOM     69  C   UNL     1      -5.410 -12.870  -6.590  1.00  0.00     0.091 A 
ATOM     70  F   UNL     1      -5.502 -10.845  -7.846  1.00  0.00    -0.205 F 
ATOM     71  C   UNL     1      -4.670 -13.977  -6.148  1.00  0.00     0.022 A 
BRANCH  69  72
ATOM     72  S   UNL     1      -7.118 -12.742  -6.046  1.00  0.00     0.127 S 
ATOM     73  O   UNL     1      -7.793 -13.657  -6.961  1.00  0.00    -0.237 OA
ATOM     74  O   UNL     1      -7.036 -13.205  -4.660  1.00  0.00    -0.237 OA
ATOM     75  O   UNL     1      -7.460 -11.332  -6.183  1.00  0.00    -0.744 OA
ENDBRANCH  69  72
ENDBRANCH  41  65
BRANCH  53  76
ATOM     76  C   UNL     1      -0.531 -11.878 -14.002  1.00  0.00     0.023 A 
ATOM     77  C   UNL     1      -1.644 -12.325 -14.740  1.00  0.00     0.012 A 
ATOM     78  C   UNL     1       0.752 -12.364 -14.319  1.00  0.00     0.148 A 
ATOM     79  C   UNL     1      -1.487 -13.260 -15.762  1.00  0.00     0.002 A 
ATOM     80  C   UNL     1       0.908 -13.260 -15.370  1.00  0.00     0.091 A 
ATOM     81  F   UNL     1       1.795 -11.937 -13.593  1.00  0.00    -0.205 F 
ATOM     82  C   UNL     1      -0.211 -13.717 -16.086  1.00  0.00     0.022 A 
BRANCH  80  83
ATOM     83  S   UNL     1       2.519 -13.834 -15.920  1.00  0.00     0.127 S 
ATOM     84  O   UNL     1       2.496 -15.234 -15.502  1.00  0.00    -0.237 OA
ATOM     85  O   UNL     1       2.445 -13.627 -17.367  1.00  0.00    -0.237 OA
ATOM     86  O   UNL     1       3.498 -12.997 -15.239  1.00  0.00    -0.744 OA
ENDBRANCH  80  83
ENDBRANCH  53  76
ENDBRANCH  27  28
ENDBRANCH  20  22
ENDBRANCH  19  20
ENDBRANCH  18  19
ENDBRANCH  17  18
ENDBRANCH  16  17
ENDBRANCH   1  16
TORSDOF 21
