REMARK SMILES O=C(OCCOC(=O)[C@]1(CCc2cccnc2)CCC[NH2+]C1)c1ccc(-c2c3nc(c(-c4cccc(S(=O)(=O)[O-])c4F)c4ccc([nH]4)c(-c4cccc(S(=O)(=O)[O-])c4F)c4nc(c(-c5cccc(S(=O)(=O)[O-])c5F)c5ccc2[nH]5)C=C4)C=C3)cc1
REMARK SMILES IDX 4 1 3 2 2 3 1 4 23 5 24 6 85 7 25 8 84 9 26 10 27 11 28 12
REMARK SMILES IDX 78 13 29 14 83 15 77 16 79 17 30 18 82 19 76 20 75 21 31 23
REMARK SMILES IDX 63 24 43 25 62 26 44 27 47 28 61 29 80 30 45 31 46 32 60 34
REMARK SMILES IDX 81 35 48 36 32 37 33 38 41 39 34 40 36 41 42 42 35 43 37 44
REMARK SMILES IDX 38 45 39 46 40 47 64 48 65 49 73 50 66 51 68 52 74 53 67 54
REMARK SMILES IDX 69 55 70 56 71 57 72 58 49 59 50 60 58 61 51 62 53 63 59 64
REMARK SMILES IDX 52 65 54 66 55 67 56 68 57 69 5 70 6 71 7 72 8 73 9 74 18 75
REMARK SMILES IDX 22 76 19 77 21 78 20 79 10 82 11 83 12 84 13 85 17 86 14 87
REMARK SMILES IDX 16 88 15 89
REMARK H PARENT 79 22 47 33 21 80 21 81
REMARK Flexibility Score: inf
ROOT
ATOM      1  C   UNL     1       4.178   1.289  -1.637  1.00  0.00     0.275 C 
ENDROOT
BRANCH   1   2
ATOM      2  O   UNL     1       3.535   0.100  -2.147  1.00  0.00    -0.458 OA
BRANCH   2   3
ATOM      3  C   UNL     1       3.161  -0.949  -1.388  1.00  0.00     0.338 C 
ATOM      4  O   UNL     1       2.350  -1.779  -1.780  1.00  0.00    -0.246 OA
BRANCH   3   5
ATOM      5  C   UNL     1       3.663  -1.060  -0.016  1.00  0.00     0.060 A 
ATOM      6  C   UNL     1       5.310  -1.247   0.448  1.00  0.00     0.016 A 
ATOM      7  C   UNL     1       2.451  -1.260   1.225  1.00  0.00     0.016 A 
ATOM      8  C   UNL     1       5.806  -1.558   2.088  1.00  0.00     0.010 A 
ATOM      9  C   UNL     1       2.982  -1.575   3.080  1.00  0.00     0.010 A 
ATOM     10  C   UNL     1       4.712  -1.774   3.435  1.00  0.00    -0.014 A 
BRANCH  10  11
ATOM     11  C   UNL     1       5.332  -2.256   4.703  1.00  0.00     0.031 A 
ATOM     12  C   UNL     1       5.882  -3.656   4.786  1.00  0.00     0.074 A 
ATOM     13  C   UNL     1       5.634  -1.391   5.686  1.00  0.00     0.049 A 
ATOM     14  N   UNL     1       6.902  -4.104   5.472  1.00  0.00    -0.248 NA
ATOM     15  C   UNL     1       5.247  -4.679   3.947  1.00  0.00     0.031 C 
ATOM     16  C   UNL     1       5.184  -0.013   5.737  1.00  0.00     0.029 A 
ATOM     17  N   UNL     1       6.392  -1.530   6.820  1.00  0.00    -0.354 N 
ATOM     18  C   UNL     1       7.094  -5.416   5.051  1.00  0.00     0.074 A 
ATOM     19  C   UNL     1       6.087  -5.698   4.056  1.00  0.00     0.031 C 
ATOM     20  C   UNL     1       5.652   0.580   6.844  1.00  0.00     0.029 A 
ATOM     21  C   UNL     1       6.436  -0.393   7.595  1.00  0.00     0.049 A 
ATOM     22  H   UNL     1       6.861  -2.362   7.057  1.00  0.00     0.167 HD
ATOM     23  C   UNL     1       7.995  -6.327   5.484  1.00  0.00     0.034 A 
ATOM     24  C   UNL     1       7.027  -0.168   8.784  1.00  0.00     0.034 A 
ATOM     25  C   UNL     1       8.787  -6.141   6.667  1.00  0.00     0.049 A 
ATOM     26  C   UNL     1       7.905  -1.248   9.350  1.00  0.00     0.074 A 
ATOM     27  C   UNL     1       9.635  -7.038   7.290  1.00  0.00     0.029 A 
ATOM     28  N   UNL     1       8.745  -5.006   7.464  1.00  0.00    -0.354 N 
ATOM     29  N   UNL     1       8.212  -2.412   8.828  1.00  0.00    -0.248 NA
ATOM     30  C   UNL     1       8.558  -0.973  10.636  1.00  0.00     0.031 C 
ATOM     31  C   UNL     1      10.056  -6.466   8.496  1.00  0.00     0.029 A 
ATOM     32  C   UNL     1       9.519  -5.190   8.594  1.00  0.00     0.049 A 
ATOM     33  H   UNL     1       8.238  -4.188   7.254  1.00  0.00     0.167 HD
ATOM     34  C   UNL     1       9.111  -3.001   9.707  1.00  0.00     0.074 A 
ATOM     35  C   UNL     1       9.319  -2.050  10.782  1.00  0.00     0.031 C 
ATOM     36  C   UNL     1       9.707  -4.217   9.639  1.00  0.00     0.034 A 
BRANCH  23  37
ATOM     37  C   UNL     1       8.113  -7.611   4.706  1.00  0.00     0.023 A 
ATOM     38  C   UNL     1       8.783  -7.596   3.464  1.00  0.00     0.012 A 
ATOM     39  C   UNL     1       7.587  -8.824   5.189  1.00  0.00     0.148 A 
ATOM     40  C   UNL     1       8.914  -8.762   2.709  1.00  0.00     0.002 A 
ATOM     41  C   UNL     1       7.742  -9.988   4.442  1.00  0.00     0.091 A 
ATOM     42  F   UNL     1       6.932  -8.813   6.358  1.00  0.00    -0.205 F 
ATOM     43  C   UNL     1       8.399  -9.958   3.200  1.00  0.00     0.022 A 
BRANCH  41  44
ATOM     44  S   UNL     1       7.139 -11.589   4.992  1.00  0.00     0.127 S 
ATOM     45  O   UNL     1       6.151 -11.902   3.960  1.00  0.00    -0.237 OA
ATOM     46  O   UNL     1       8.352 -12.404   4.941  1.00  0.00    -0.237 OA
ATOM     47  O   UNL     1       6.593 -11.379   6.325  1.00  0.00    -0.744 OA
ENDBRANCH  41  44
ENDBRANCH  23  37
BRANCH  24  48
ATOM     48  C   UNL     1       6.795   1.123   9.496  1.00  0.00     0.023 A 
ATOM     49  C   UNL     1       7.845   2.036   9.705  1.00  0.00     0.012 A 
ATOM     50  C   UNL     1       5.499   1.464   9.937  1.00  0.00     0.148 A 
ATOM     51  C   UNL     1       7.612   3.252  10.356  1.00  0.00     0.002 A 
ATOM     52  C   UNL     1       5.261   2.701  10.526  1.00  0.00     0.091 A 
ATOM     53  F   UNL     1       4.512   0.573   9.762  1.00  0.00    -0.205 F 
ATOM     54  C   UNL     1       6.319   3.591  10.752  1.00  0.00     0.022 A 
BRANCH  52  55
ATOM     55  S   UNL     1       3.598   3.258  10.914  1.00  0.00     0.127 S 
ATOM     56  O   UNL     1       3.539   3.049  12.357  1.00  0.00    -0.237 OA
ATOM     57  O   UNL     1       3.636   4.660  10.494  1.00  0.00    -0.237 OA
ATOM     58  O   UNL     1       2.715   2.424  10.108  1.00  0.00    -0.744 OA
ENDBRANCH  52  55
ENDBRANCH  24  48
BRANCH  36  59
ATOM     59  C   UNL     1      10.645  -4.580  10.756  1.00  0.00     0.023 A 
ATOM     60  C   UNL     1      10.137  -4.879  12.035  1.00  0.00     0.012 A 
ATOM     61  C   UNL     1      12.028  -4.679  10.515  1.00  0.00     0.148 A 
ATOM     62  C   UNL     1      11.000  -5.231  13.071  1.00  0.00     0.002 A 
ATOM     63  C   UNL     1      12.875  -5.084  11.536  1.00  0.00     0.091 A 
ATOM     64  F   UNL     1      12.489  -4.368   9.294  1.00  0.00    -0.205 F 
ATOM     65  C   UNL     1      12.366  -5.345  12.819  1.00  0.00     0.022 A 
BRANCH  63  66
ATOM     66  S   UNL     1      14.629  -5.355  11.268  1.00  0.00     0.127 S 
ATOM     67  O   UNL     1      15.213  -4.181  11.914  1.00  0.00    -0.237 OA
ATOM     68  O   UNL     1      14.858  -6.618  11.971  1.00  0.00    -0.237 OA
ATOM     69  O   UNL     1      14.805  -5.429   9.824  1.00  0.00    -0.744 OA
ENDBRANCH  63  66
ENDBRANCH  36  59
ENDBRANCH  10  11
ENDBRANCH   3   5
ENDBRANCH   2   3
ENDBRANCH   1   2
BRANCH   1  70
ATOM     70  C   UNL     1       3.208   2.201  -0.871  1.00  0.00     0.274 C 
BRANCH  70  71
ATOM     71  O   UNL     1       3.092   1.726   0.480  1.00  0.00    -0.461 OA
BRANCH  71  72
ATOM     72  C   UNL     1       1.914   1.380   1.063  1.00  0.00     0.317 C 
ATOM     73  O   UNL     1       0.811   1.636   0.607  1.00  0.00    -0.251 OA
BRANCH  72  74
ATOM     74  C   UNL     1       2.213   0.547   2.366  1.00  0.00     0.117 C 
ATOM     75  C   UNL     1       3.924  -0.322   2.010  1.00  0.00     0.030 C 
ATOM     76  C   UNL     1       0.777  -0.634   2.669  1.00  0.00     0.279 C 
ATOM     77  C   UNL     1       3.818  -2.485   1.618  1.00  0.00     0.063 C 
ATOM     78  N   UNL     1       0.748  -2.352   2.547  1.00  0.00    -0.345 N 
ATOM     79  C   UNL     1       2.084  -3.278   2.008  1.00  0.00     0.260 C 
ATOM     80  H   UNL     1       0.529  -2.695   3.482  1.00  0.00     0.346 HD
ATOM     81  H   UNL     1       0.087  -2.488   1.782  1.00  0.00     0.346 HD
BRANCH  74  82
ATOM     82  C   UNL     1       2.087   1.539   3.561  1.00  0.00     0.029 C 
BRANCH  82  83
ATOM     83  C   UNL     1       3.111   2.622   3.903  1.00  0.00     0.038 C 
BRANCH  83  84
ATOM     84  C   UNL     1       3.616   3.519   2.821  1.00  0.00    -0.030 A 
ATOM     85  C   UNL     1       2.856   4.572   2.311  1.00  0.00     0.007 A 
ATOM     86  C   UNL     1       4.908   3.354   2.325  1.00  0.00     0.114 A 
ATOM     87  C   UNL     1       3.407   5.404   1.342  1.00  0.00     0.020 A 
ATOM     88  N   UNL     1       5.460   4.131   1.367  1.00  0.00    -0.264 NA
ATOM     89  C   UNL     1       4.700   5.147   0.911  1.00  0.00     0.111 A 
ENDBRANCH  83  84
ENDBRANCH  82  83
ENDBRANCH  74  82
ENDBRANCH  72  74
ENDBRANCH  71  72
ENDBRANCH  70  71
ENDBRANCH   1  70
TORSDOF 17
