REMARK SMILES Cc1c(C(=O)OCCOC(=O)c2ccc(-c3c4nc(c(-c5cccc(S(=O)(=O)[O-])c5F)c5ccc([nH]5)c(-c5cccc(S(=O)(=O)[O-])c5F)c5nc(c(-c6cccc(S(=O)(=O)[O-])c6F)c6ccc3[nH]6)C=C5)C=C4)cc2)sc2ncnc(NCc3cn4c(n3)SCC4)c12
REMARK SMILES IDX 7 1 6 2 4 3 5 4 3 5 1 6 2 7 91 8 75 9 76 10 80 11 77 12
REMARK SMILES IDX 79 13 78 14 81 15 82 17 83 18 84 19 87 20 85 21 86 22 90 23
REMARK SMILES IDX 88 24 89 25 8 26 9 27 10 28 11 29 12 30 13 31 74 32 14 33
REMARK SMILES IDX 73 34 15 35 16 36 17 37 67 38 18 39 72 40 66 41 68 42 19 43
REMARK SMILES IDX 71 44 65 45 64 46 20 48 52 49 32 50 51 51 33 52 36 53 50 54
REMARK SMILES IDX 69 55 34 56 35 57 49 59 70 60 37 61 21 62 22 63 30 64 23 65
REMARK SMILES IDX 25 66 31 67 24 68 26 69 27 70 28 71 29 72 53 73 54 74 62 75
REMARK SMILES IDX 55 76 57 77 63 78 56 79 58 80 59 81 60 82 61 83 38 84 39 85
REMARK SMILES IDX 47 86 40 87 42 88 48 89 41 90 43 91 44 92 45 93 46 94
REMARK H PARENT 81 16 68 47 36 58
REMARK Flexibility Score: inf
ROOT
ATOM      1  C   UNL     1      -2.437   0.415   4.351  1.00  0.00     0.275 C 
ENDROOT
BRANCH   1   2
ATOM      2  O   UNL     1      -1.838  -0.717   3.699  1.00  0.00    -0.458 OA
BRANCH   2   3
ATOM      3  C   UNL     1      -1.694  -0.601   2.349  1.00  0.00     0.348 C 
ATOM      4  O   UNL     1      -2.208   0.294   1.678  1.00  0.00    -0.245 OA
BRANCH   3   5
ATOM      5  C   UNL     1      -0.808  -1.616   1.806  1.00  0.00     0.118 A 
ATOM      6  C   UNL     1       0.464  -0.077   0.286  1.00  0.00     0.047 C 
ATOM      7  C   UNL     1       0.127  -1.442   0.787  1.00  0.00    -0.012 A 
ATOM      8  C   UNL     1       0.704  -2.710   0.342  1.00  0.00     0.058 A 
ATOM      9  S   UNL     1      -0.826  -3.207   2.393  1.00  0.00    -0.108 S 
ATOM     10  C   UNL     1       0.288  -3.717   1.214  1.00  0.00     0.129 A 
ATOM     11  C   UNL     1       1.549  -3.156  -0.714  1.00  0.00     0.138 A 
ATOM     12  N   UNL     1       0.636  -5.014   1.202  1.00  0.00    -0.225 NA
ATOM     13  N   UNL     1       1.909  -4.468  -0.734  1.00  0.00    -0.219 NA
ATOM     14  C   UNL     1       1.472  -5.299   0.213  1.00  0.00     0.225 A 
BRANCH  11  15
ATOM     15  N   UNL     1       2.037  -2.522  -1.826  1.00  0.00    -0.364 N 
ATOM     16  H   UNL     1       2.334  -3.134  -2.537  1.00  0.00     0.162 HD
BRANCH  15  17
ATOM     17  C   UNL     1       2.197  -1.127  -2.149  1.00  0.00     0.172 C 
BRANCH  17  18
ATOM     18  C   UNL     1       3.377  -0.417  -1.557  1.00  0.00     0.079 A 
ATOM     19  C   UNL     1       3.968   0.770  -1.974  1.00  0.00     0.113 A 
ATOM     20  N   UNL     1       4.124  -1.014  -0.549  1.00  0.00    -0.226 NA
ATOM     21  N   UNL     1       5.124   0.825  -1.267  1.00  0.00    -0.325 N 
ATOM     22  C   UNL     1       5.169  -0.246  -0.430  1.00  0.00     0.168 A 
ATOM     23  C   UNL     1       6.385   1.501  -1.513  1.00  0.00     0.135 C 
ATOM     24  S   UNL     1       6.759  -0.570   0.149  1.00  0.00    -0.086 SA
ATOM     25  C   UNL     1       7.457   0.449  -1.214  1.00  0.00     0.100 C 
ENDBRANCH  17  18
ENDBRANCH  15  17
ENDBRANCH  11  15
ENDBRANCH   3   5
ENDBRANCH   2   3
ENDBRANCH   1   2
BRANCH   1  26
ATOM     26  C   UNL     1      -1.380   1.342   4.941  1.00  0.00     0.275 C 
BRANCH  26  27
ATOM     27  O   UNL     1      -0.675   2.098   3.952  1.00  0.00    -0.458 OA
BRANCH  27  28
ATOM     28  C   UNL     1       0.503   1.545   3.584  1.00  0.00     0.338 C 
ATOM     29  O   UNL     1       0.783   0.359   3.610  1.00  0.00    -0.246 OA
BRANCH  28  30
ATOM     30  C   UNL     1       1.506   2.590   3.337  1.00  0.00     0.060 A 
ATOM     31  C   UNL     1       2.713   2.190   2.762  1.00  0.00     0.016 A 
ATOM     32  C   UNL     1       1.345   3.879   3.872  1.00  0.00     0.016 A 
ATOM     33  C   UNL     1       3.795   3.043   2.838  1.00  0.00     0.010 A 
ATOM     34  C   UNL     1       2.429   4.737   3.934  1.00  0.00     0.010 A 
ATOM     35  C   UNL     1       3.663   4.294   3.466  1.00  0.00    -0.014 A 
BRANCH  35  36
ATOM     36  C   UNL     1       4.823   5.176   3.428  1.00  0.00     0.031 A 
ATOM     37  C   UNL     1       5.214   5.474   2.028  1.00  0.00     0.074 A 
ATOM     38  C   UNL     1       5.440   5.705   4.507  1.00  0.00     0.049 A 
ATOM     39  N   UNL     1       6.198   4.955   1.369  1.00  0.00    -0.248 NA
ATOM     40  C   UNL     1       4.273   6.233   1.186  1.00  0.00     0.031 C 
ATOM     41  C   UNL     1       4.950   5.708   5.889  1.00  0.00     0.029 A 
ATOM     42  N   UNL     1       6.583   6.453   4.592  1.00  0.00    -0.354 N 
ATOM     43  C   UNL     1       6.183   5.608   0.141  1.00  0.00     0.074 A 
ATOM     44  C   UNL     1       4.862   6.148  -0.009  1.00  0.00     0.031 C 
ATOM     45  C   UNL     1       5.631   6.634   6.603  1.00  0.00     0.029 A 
ATOM     46  C   UNL     1       6.703   7.169   5.783  1.00  0.00     0.049 A 
ATOM     47  H   UNL     1       7.259   6.483   3.877  1.00  0.00     0.167 HD
ATOM     48  C   UNL     1       7.364   5.976  -0.428  1.00  0.00     0.034 A 
ATOM     49  C   UNL     1       7.585   8.167   6.048  1.00  0.00     0.034 A 
ATOM     50  C   UNL     1       8.463   5.286   0.195  1.00  0.00     0.049 A 
ATOM     51  C   UNL     1       8.732   8.000   5.133  1.00  0.00     0.074 A 
ATOM     52  C   UNL     1       9.068   4.052   0.150  1.00  0.00     0.029 A 
ATOM     53  N   UNL     1       8.883   5.907   1.338  1.00  0.00    -0.354 N 
ATOM     54  N   UNL     1       9.565   7.000   5.205  1.00  0.00    -0.248 NA
ATOM     55  C   UNL     1       8.791   8.795   3.910  1.00  0.00     0.031 C 
ATOM     56  C   UNL     1       9.817   3.929   1.357  1.00  0.00     0.029 A 
ATOM     57  C   UNL     1       9.707   5.114   2.076  1.00  0.00     0.049 A 
ATOM     58  H   UNL     1       8.620   6.820   1.597  1.00  0.00     0.167 HD
ATOM     59  C   UNL     1       9.904   6.775   3.887  1.00  0.00     0.074 A 
ATOM     60  C   UNL     1       9.563   7.997   3.171  1.00  0.00     0.031 C 
ATOM     61  C   UNL     1      10.069   5.510   3.417  1.00  0.00     0.034 A 
BRANCH  48  62
ATOM     62  C   UNL     1       7.628   7.318  -1.100  1.00  0.00     0.023 A 
ATOM     63  C   UNL     1       8.932   7.521  -1.612  1.00  0.00     0.012 A 
ATOM     64  C   UNL     1       6.813   8.467  -0.982  1.00  0.00     0.148 A 
ATOM     65  C   UNL     1       9.413   8.796  -1.934  1.00  0.00     0.002 A 
ATOM     66  C   UNL     1       7.269   9.723  -1.369  1.00  0.00     0.091 A 
ATOM     67  F   UNL     1       5.629   8.394  -0.377  1.00  0.00    -0.205 F 
ATOM     68  C   UNL     1       8.579   9.898  -1.817  1.00  0.00     0.022 A 
BRANCH  66  69
ATOM     69  S   UNL     1       6.220  11.181  -1.272  1.00  0.00     0.127 S 
ATOM     70  O   UNL     1       6.896  11.957  -0.238  1.00  0.00    -0.237 OA
ATOM     71  O   UNL     1       6.338  11.712  -2.630  1.00  0.00    -0.237 OA
ATOM     72  O   UNL     1       4.890  10.690  -0.935  1.00  0.00    -0.744 OA
ENDBRANCH  66  69
ENDBRANCH  48  62
BRANCH  49  73
ATOM     73  C   UNL     1       7.445   9.410   6.851  1.00  0.00     0.023 A 
ATOM     74  C   UNL     1       8.602  10.141   7.203  1.00  0.00     0.012 A 
ATOM     75  C   UNL     1       6.195  10.055   6.963  1.00  0.00     0.148 A 
ATOM     76  C   UNL     1       8.524  11.487   7.580  1.00  0.00     0.002 A 
ATOM     77  C   UNL     1       6.123  11.396   7.331  1.00  0.00     0.091 A 
ATOM     78  F   UNL     1       5.091   9.381   6.616  1.00  0.00    -0.205 F 
ATOM     79  C   UNL     1       7.287  12.120   7.624  1.00  0.00     0.022 A 
BRANCH  77  80
ATOM     80  S   UNL     1       4.569  12.301   7.360  1.00  0.00     0.127 S 
ATOM     81  O   UNL     1       4.599  12.907   8.691  1.00  0.00    -0.237 OA
ATOM     82  O   UNL     1       4.747  13.240   6.256  1.00  0.00    -0.237 OA
ATOM     83  O   UNL     1       3.524  11.303   7.178  1.00  0.00    -0.744 OA
ENDBRANCH  77  80
ENDBRANCH  49  73
BRANCH  61  84
ATOM     84  C   UNL     1      10.528   4.445   4.353  1.00  0.00     0.023 A 
ATOM     85  C   UNL     1       9.724   3.880   5.357  1.00  0.00     0.012 A 
ATOM     86  C   UNL     1      11.785   3.887   4.072  1.00  0.00     0.148 A 
ATOM     87  C   UNL     1      10.171   2.753   6.056  1.00  0.00     0.002 A 
ATOM     88  C   UNL     1      12.195   2.736   4.719  1.00  0.00     0.091 A 
ATOM     89  F   UNL     1      12.540   4.476   3.131  1.00  0.00    -0.205 F 
ATOM     90  C   UNL     1      11.394   2.167   5.720  1.00  0.00     0.022 A 
BRANCH  88  91
ATOM     91  S   UNL     1      13.673   1.866   4.199  1.00  0.00     0.127 S 
ATOM     92  O   UNL     1      14.589   2.131   5.306  1.00  0.00    -0.237 OA
ATOM     93  O   UNL     1      13.202   0.483   4.107  1.00  0.00    -0.237 OA
ATOM     94  O   UNL     1      14.053   2.449   2.918  1.00  0.00    -0.744 OA
ENDBRANCH  88  91
ENDBRANCH  61  84
ENDBRANCH  35  36
ENDBRANCH  28  30
ENDBRANCH  27  28
ENDBRANCH  26  27
ENDBRANCH   1  26
TORSDOF 17
