REMARK SMILES CSCc1ccc(C(=O)N[C@](C)(C(=O)OCCOC(=O)c2ccc(-c3c4nc(c(-c5cccc(S(=O)(=O)[O-])c5F)c5ccc([nH]5)c(-c5cccc(S(=O)(=O)[O-])c5F)c5nc(c(-c6cccc(S(=O)(=O)[O-])c6F)c6ccc3[nH]6)C=C5)C=C4)cc2)C(F)(F)F)o1
REMARK SMILES IDX 16 1 15 2 13 3 14 4 11 5 12 6 10 7 8 8 9 9 7 11 4 12 5 13
REMARK SMILES IDX 88 14 6 15 3 16 2 17 1 18 84 19 85 20 86 21 87 22 17 23
REMARK SMILES IDX 18 24 19 25 20 26 21 27 22 28 83 29 23 30 82 31 24 32 25 33
REMARK SMILES IDX 26 34 76 35 27 36 81 37 75 38 77 39 28 40 80 41 74 42 73 43
REMARK SMILES IDX 29 45 61 46 41 47 60 48 42 49 45 50 59 51 78 52 43 53 44 54
REMARK SMILES IDX 58 56 79 57 46 58 30 59 31 60 39 61 32 62 34 63 40 64 33 65
REMARK SMILES IDX 35 66 36 67 37 68 38 69 62 70 63 71 71 72 64 73 66 74 72 75
REMARK SMILES IDX 65 76 67 77 68 78 69 79 70 80 47 81 48 82 56 83 49 84 51 85
REMARK SMILES IDX 57 86 50 87 52 88 53 89 54 90 55 91
REMARK H PARENT 10 10 77 44 45 55
REMARK Flexibility Score: inf
ROOT
ATOM      1  C   UNL     1      -3.376  -4.197   6.827  1.00  0.00     0.274 C 
ENDROOT
BRANCH   1   2
ATOM      2  O   UNL     1      -2.395  -3.209   7.233  1.00  0.00    -0.460 OA
BRANCH   2   3
ATOM      3  C   UNL     1      -1.328  -3.084   6.387  1.00  0.00     0.341 C 
ATOM      4  O   UNL     1      -1.341  -3.611   5.298  1.00  0.00    -0.249 OA
BRANCH   3   5
ATOM      5  C   UNL     1      -0.085  -2.409   7.009  1.00  0.00     0.231 C 
ATOM      6  C   UNL     1      -0.464  -1.753   8.367  1.00  0.00     0.058 C 
BRANCH   5   7
ATOM      7  N   UNL     1       0.976  -3.449   7.279  1.00  0.00    -0.326 N 
ATOM      8  C   UNL     1       1.723  -4.358   6.551  1.00  0.00     0.288 C 
ATOM      9  O   UNL     1       2.615  -4.881   7.230  1.00  0.00    -0.266 OA
ATOM     10  H   UNL     1       1.198  -3.493   8.238  1.00  0.00     0.165 HD
BRANCH   8  11
ATOM     11  C   UNL     1       1.472  -4.755   5.174  1.00  0.00     0.191 A 
ATOM     12  C   UNL     1       1.509  -6.234   3.498  1.00  0.00     0.114 A 
ATOM     13  C   UNL     1       0.762  -5.168   3.073  1.00  0.00     0.047 A 
ATOM     14  O   UNL     1       1.923  -6.011   4.786  1.00  0.00    -0.455 OA
ATOM     15  C   UNL     1       0.881  -4.185   4.067  1.00  0.00     0.056 A 
BRANCH  12  16
ATOM     16  C   UNL     1       1.902  -7.510   2.845  1.00  0.00     0.144 C 
BRANCH  16  17
ATOM     17  S   UNL     1       2.458  -7.264   1.121  1.00  0.00    -0.157 SA
ATOM     18  C   UNL     1       0.854  -7.194   0.262  1.00  0.00     0.085 C 
ENDBRANCH  16  17
ENDBRANCH  12  16
ENDBRANCH   8  11
ENDBRANCH   5   7
BRANCH   5  19
ATOM     19  C   UNL     1       0.410  -1.228   6.152  1.00  0.00     0.422 C 
ATOM     20  F   UNL     1      -0.584  -0.357   5.867  1.00  0.00    -0.168 F 
ATOM     21  F   UNL     1       1.349  -0.519   6.840  1.00  0.00    -0.168 F 
ATOM     22  F   UNL     1       0.996  -1.569   4.995  1.00  0.00    -0.168 F 
ENDBRANCH   5  19
ENDBRANCH   3   5
ENDBRANCH   2   3
ENDBRANCH   1   2
BRANCH   1  23
ATOM     23  C   UNL     1      -4.512  -3.658   5.942  1.00  0.00     0.275 C 
BRANCH  23  24
ATOM     24  O   UNL     1      -4.108  -3.387   4.585  1.00  0.00    -0.458 OA
BRANCH  24  25
ATOM     25  C   UNL     1      -3.655  -2.129   4.369  1.00  0.00     0.338 C 
ATOM     26  O   UNL     1      -3.603  -1.233   5.201  1.00  0.00    -0.246 OA
BRANCH  25  27
ATOM     27  C   UNL     1      -3.018  -2.015   3.039  1.00  0.00     0.060 A 
ATOM     28  C   UNL     1      -1.697  -1.558   3.019  1.00  0.00     0.016 A 
ATOM     29  C   UNL     1      -3.677  -2.272   1.839  1.00  0.00     0.016 A 
ATOM     30  C   UNL     1      -1.010  -1.372   1.828  1.00  0.00     0.010 A 
ATOM     31  C   UNL     1      -2.999  -2.052   0.628  1.00  0.00     0.010 A 
ATOM     32  C   UNL     1      -1.665  -1.595   0.619  1.00  0.00    -0.014 A 
BRANCH  32  33
ATOM     33  C   UNL     1      -0.980  -1.239  -0.643  1.00  0.00     0.031 A 
ATOM     34  C   UNL     1      -1.313   0.057  -1.315  1.00  0.00     0.074 A 
ATOM     35  C   UNL     1      -0.029  -2.037  -1.163  1.00  0.00     0.049 A 
ATOM     36  N   UNL     1      -0.920   0.508  -2.476  1.00  0.00    -0.248 NA
ATOM     37  C   UNL     1      -2.179   0.981  -0.566  1.00  0.00     0.031 C 
ATOM     38  C   UNL     1       0.486  -3.249  -0.535  1.00  0.00     0.029 A 
ATOM     39  N   UNL     1       0.649  -1.961  -2.353  1.00  0.00    -0.354 N 
ATOM     40  C   UNL     1      -1.501   1.760  -2.608  1.00  0.00     0.074 A 
ATOM     41  C   UNL     1      -2.280   1.997  -1.411  1.00  0.00     0.031 C 
ATOM     42  C   UNL     1       1.339  -3.851  -1.379  1.00  0.00     0.029 A 
ATOM     43  C   UNL     1       1.386  -3.091  -2.622  1.00  0.00     0.049 A 
ATOM     44  H   UNL     1       0.612  -1.181  -2.952  1.00  0.00     0.167 HD
ATOM     45  C   UNL     1      -1.380   2.639  -3.629  1.00  0.00     0.034 A 
ATOM     46  C   UNL     1       1.976  -3.498  -3.762  1.00  0.00     0.034 A 
ATOM     47  C   UNL     1      -0.597   2.399  -4.810  1.00  0.00     0.049 A 
ATOM     48  C   UNL     1       1.964  -2.580  -4.952  1.00  0.00     0.074 A 
ATOM     49  C   UNL     1      -0.402   3.232  -5.897  1.00  0.00     0.029 A 
ATOM     50  N   UNL     1       0.109   1.233  -5.066  1.00  0.00    -0.354 N 
ATOM     51  N   UNL     1       1.454  -1.376  -5.054  1.00  0.00    -0.248 NA
ATOM     52  C   UNL     1       2.637  -3.053  -6.169  1.00  0.00     0.031 C 
ATOM     53  C   UNL     1       0.398   2.556  -6.825  1.00  0.00     0.029 A 
ATOM     54  C   UNL     1       0.723   1.313  -6.304  1.00  0.00     0.049 A 
ATOM     55  H   UNL     1       0.164   0.462  -4.457  1.00  0.00     0.167 HD
ATOM     56  C   UNL     1       1.797  -0.923  -6.322  1.00  0.00     0.074 A 
ATOM     57  C   UNL     1       2.548  -1.988  -6.956  1.00  0.00     0.031 C 
ATOM     58  C   UNL     1       1.517   0.270  -6.902  1.00  0.00     0.034 A 
BRANCH  45  59
ATOM     59  C   UNL     1      -2.117   3.942  -3.506  1.00  0.00     0.023 A 
ATOM     60  C   UNL     1      -1.627   4.946  -2.646  1.00  0.00     0.012 A 
ATOM     61  C   UNL     1      -3.279   4.183  -4.263  1.00  0.00     0.148 A 
ATOM     62  C   UNL     1      -2.300   6.160  -2.521  1.00  0.00     0.002 A 
ATOM     63  C   UNL     1      -3.923   5.409  -4.161  1.00  0.00     0.091 A 
ATOM     64  F   UNL     1      -3.741   3.202  -5.053  1.00  0.00    -0.205 F 
ATOM     65  C   UNL     1      -3.441   6.395  -3.284  1.00  0.00     0.022 A 
BRANCH  63  66
ATOM     66  S   UNL     1      -5.367   5.824  -5.144  1.00  0.00     0.127 S 
ATOM     67  O   UNL     1      -6.425   5.810  -4.135  1.00  0.00    -0.237 OA
ATOM     68  O   UNL     1      -5.023   7.154  -5.649  1.00  0.00    -0.237 OA
ATOM     69  O   UNL     1      -5.465   4.794  -6.169  1.00  0.00    -0.744 OA
ENDBRANCH  63  66
ENDBRANCH  45  59
BRANCH  46  70
ATOM     70  C   UNL     1       2.597  -4.850  -3.831  1.00  0.00     0.023 A 
ATOM     71  C   UNL     1       3.994  -4.981  -3.920  1.00  0.00     0.012 A 
ATOM     72  C   UNL     1       1.798  -6.012  -3.789  1.00  0.00     0.148 A 
ATOM     73  C   UNL     1       4.583  -6.246  -3.987  1.00  0.00     0.002 A 
ATOM     74  C   UNL     1       2.393  -7.268  -3.814  1.00  0.00     0.091 A 
ATOM     75  F   UNL     1       0.467  -5.866  -3.721  1.00  0.00    -0.205 F 
ATOM     76  C   UNL     1       3.786  -7.387  -3.923  1.00  0.00     0.022 A 
BRANCH  74  77
ATOM     77  S   UNL     1       1.437  -8.781  -3.648  1.00  0.00     0.127 S 
ATOM     78  O   UNL     1       1.428  -9.283  -5.019  1.00  0.00    -0.237 OA
ATOM     79  O   UNL     1       2.247  -9.561  -2.712  1.00  0.00    -0.237 OA
ATOM     80  O   UNL     1       0.144  -8.370  -3.113  1.00  0.00    -0.744 OA
ENDBRANCH  74  77
ENDBRANCH  46  70
BRANCH  58  81
ATOM     81  C   UNL     1       2.076   0.527  -8.276  1.00  0.00     0.023 A 
ATOM     82  C   UNL     1       1.502  -0.099  -9.398  1.00  0.00     0.012 A 
ATOM     83  C   UNL     1       3.116   1.460  -8.457  1.00  0.00     0.148 A 
ATOM     84  C   UNL     1       1.971   0.183 -10.681  1.00  0.00     0.002 A 
ATOM     85  C   UNL     1       3.546   1.772  -9.741  1.00  0.00     0.091 A 
ATOM     86  F   UNL     1       3.661   2.029  -7.372  1.00  0.00    -0.205 F 
ATOM     87  C   UNL     1       2.982   1.126 -10.853  1.00  0.00     0.022 A 
BRANCH  85  88
ATOM     88  S   UNL     1       4.772   3.044 -10.064  1.00  0.00     0.127 S 
ATOM     89  O   UNL     1       5.923   2.248 -10.488  1.00  0.00    -0.237 OA
ATOM     90  O   UNL     1       4.139   3.819 -11.131  1.00  0.00    -0.237 OA
ATOM     91  O   UNL     1       4.942   3.767  -8.811  1.00  0.00    -0.744 OA
ENDBRANCH  85  88
ENDBRANCH  58  81
ENDBRANCH  32  33
ENDBRANCH  25  27
ENDBRANCH  24  25
ENDBRANCH  23  24
ENDBRANCH   1  23
TORSDOF 19
