REMARK SMILES O=C(C[C@@H]([NH2+]Cc1ccccc1)C(=O)OCCOC(=O)c1ccc(-c2c3nc(c(-c4cccc(S(=O)(=O)[O-])c4F)c4ccc([nH]4)c(-c4cccc(S(=O)(=O)[O-])c4F)c4nc(c(-c5cccc(S(=O)(=O)[O-])c5F)c5ccc2[nH]5)C=C4)C=C3)cc1)Nc1cccc(Cl)c1Cl
REMARK SMILES IDX 16 1 15 2 13 3 14 4 4 5 3 6 2 7 1 8 84 9 85 11 86 12 91 13
REMARK SMILES IDX 87 14 89 15 92 16 88 17 90 18 5 19 6 22 7 23 8 24 12 25 9 26
REMARK SMILES IDX 11 27 10 28 17 29 18 30 19 31 20 32 21 33 22 34 83 35 23 36
REMARK SMILES IDX 82 37 24 38 25 39 26 40 76 41 27 42 81 43 75 44 77 45 28 46
REMARK SMILES IDX 80 47 74 48 73 49 29 51 61 52 41 53 60 54 42 55 45 56 59 57
REMARK SMILES IDX 78 58 43 59 44 60 58 62 79 63 46 64 30 65 31 66 39 67 32 68
REMARK SMILES IDX 34 69 40 70 33 71 35 72 36 73 37 74 38 75 62 76 63 77 71 78
REMARK SMILES IDX 64 79 66 80 72 81 65 82 67 83 68 84 69 85 70 86 47 87 48 88
REMARK SMILES IDX 56 89 49 90 51 91 57 92 50 93 52 94 53 95 54 96 55 97
REMARK H PARENT 84 10 5 20 5 21 77 50 45 61
REMARK Flexibility Score: inf
ROOT
ATOM      1  C   UNL     1       5.919   4.121   1.392  1.00  0.00     0.274 C 
ENDROOT
BRANCH   1   2
ATOM      2  O   UNL     1       5.306   2.886   0.970  1.00  0.00    -0.458 OA
BRANCH   2   3
ATOM      3  C   UNL     1       5.143   1.960   1.956  1.00  0.00     0.365 C 
ATOM      4  O   UNL     1       5.555   2.127   3.099  1.00  0.00    -0.245 OA
BRANCH   3   5
ATOM      5  C   UNL     1       4.391   0.689   1.504  1.00  0.00     0.303 C 
BRANCH   5   6
ATOM      6  C   UNL     1       3.662   0.909   0.168  1.00  0.00     0.177 C 
BRANCH   6   7
ATOM      7  C   UNL     1       2.588  -0.130  -0.057  1.00  0.00     0.231 C 
ATOM      8  O   UNL     1       1.436   0.035   0.330  1.00  0.00    -0.274 OA
ATOM      9  N   UNL     1       3.082  -1.293  -0.626  1.00  0.00    -0.325 N 
ATOM     10  H   UNL     1       4.049  -1.348  -0.800  1.00  0.00     0.169 HD
BRANCH   9  11
ATOM     11  C   UNL     1       2.283  -2.406  -0.971  1.00  0.00     0.061 A 
ATOM     12  C   UNL     1       2.761  -3.655  -0.549  1.00  0.00     0.028 A 
ATOM     13  C   UNL     1       1.096  -2.333  -1.731  1.00  0.00     0.083 A 
ATOM     14  C   UNL     1       2.039  -4.818  -0.808  1.00  0.00     0.004 A 
ATOM     15  C   UNL     1       0.386  -3.516  -2.004  1.00  0.00     0.061 A 
ATOM     16  Cl  UNL     1       0.622  -0.850  -2.506  1.00  0.00    -0.080 Cl
ATOM     17  C   UNL     1       0.851  -4.748  -1.530  1.00  0.00     0.022 A 
ATOM     18  Cl  UNL     1      -1.051  -3.545  -2.971  1.00  0.00    -0.083 Cl
ENDBRANCH   9  11
ENDBRANCH   6   7
ENDBRANCH   5   6
BRANCH   5  19
ATOM     19  N   UNL     1       5.268  -0.525   1.409  1.00  0.00    -0.330 N 
ATOM     20  H   UNL     1       5.899  -0.400   0.617  1.00  0.00     0.347 HD
ATOM     21  H   UNL     1       4.643  -1.324   1.301  1.00  0.00     0.347 HD
BRANCH  19  22
ATOM     22  C   UNL     1       6.084  -0.793   2.609  1.00  0.00     0.298 C 
BRANCH  22  23
ATOM     23  C   UNL     1       5.280  -1.279   3.791  1.00  0.00     0.006 A 
ATOM     24  C   UNL     1       5.006  -0.428   4.869  1.00  0.00     0.009 A 
ATOM     25  C   UNL     1       4.787  -2.593   3.832  1.00  0.00     0.009 A 
ATOM     26  C   UNL     1       4.248  -0.871   5.952  1.00  0.00     0.001 A 
ATOM     27  C   UNL     1       4.029  -3.035   4.920  1.00  0.00     0.001 A 
ATOM     28  C   UNL     1       3.754  -2.170   5.977  1.00  0.00     0.000 A 
ENDBRANCH  22  23
ENDBRANCH  19  22
ENDBRANCH   5  19
ENDBRANCH   3   5
ENDBRANCH   2   3
ENDBRANCH   1   2
BRANCH   1  29
ATOM     29  C   UNL     1       4.892   5.185   1.806  1.00  0.00     0.275 C 
BRANCH  29  30
ATOM     30  O   UNL     1       4.105   4.800   2.949  1.00  0.00    -0.458 OA
BRANCH  30  31
ATOM     31  C   UNL     1       2.946   4.161   2.650  1.00  0.00     0.338 C 
ATOM     32  O   UNL     1       2.536   3.908   1.529  1.00  0.00    -0.246 OA
BRANCH  31  33
ATOM     33  C   UNL     1       2.279   3.666   3.871  1.00  0.00     0.060 A 
ATOM     34  C   UNL     1       1.783   2.357   3.853  1.00  0.00     0.016 A 
ATOM     35  C   UNL     1       2.067   4.481   4.986  1.00  0.00     0.016 A 
ATOM     36  C   UNL     1       1.087   1.854   4.950  1.00  0.00     0.010 A 
ATOM     37  C   UNL     1       1.337   3.986   6.075  1.00  0.00     0.010 A 
ATOM     38  C   UNL     1       0.834   2.674   6.056  1.00  0.00    -0.014 A 
BRANCH  38  39
ATOM     39  C   UNL     1      -0.038   2.167   7.141  1.00  0.00     0.031 A 
ATOM     40  C   UNL     1      -1.516   2.419   7.080  1.00  0.00     0.074 A 
ATOM     41  C   UNL     1       0.486   1.449   8.151  1.00  0.00     0.049 A 
ATOM     42  N   UNL     1      -2.454   2.028   7.903  1.00  0.00    -0.248 NA
ATOM     43  C   UNL     1      -2.002   3.221   5.946  1.00  0.00     0.031 C 
ATOM     44  C   UNL     1       1.906   1.149   8.312  1.00  0.00     0.029 A 
ATOM     45  N   UNL     1      -0.110   0.844   9.227  1.00  0.00    -0.354 N 
ATOM     46  C   UNL     1      -3.638   2.554   7.402  1.00  0.00     0.074 A 
ATOM     47  C   UNL     1      -3.301   3.292   6.203  1.00  0.00     0.031 C 
ATOM     48  C   UNL     1       2.073   0.401   9.416  1.00  0.00     0.029 A 
ATOM     49  C   UNL     1       0.776   0.199  10.058  1.00  0.00     0.049 A 
ATOM     50  H   UNL     1      -1.081   0.870   9.390  1.00  0.00     0.167 HD
ATOM     51  C   UNL     1      -4.893   2.428   7.895  1.00  0.00     0.034 A 
ATOM     52  C   UNL     1       0.562  -0.469  11.209  1.00  0.00     0.034 A 
ATOM     53  C   UNL     1      -5.226   1.690   9.083  1.00  0.00     0.049 A 
ATOM     54  C   UNL     1      -0.846  -0.592  11.732  1.00  0.00     0.074 A 
ATOM     55  C   UNL     1      -6.469   1.505   9.663  1.00  0.00     0.029 A 
ATOM     56  N   UNL     1      -4.310   1.017   9.878  1.00  0.00    -0.354 N 
ATOM     57  N   UNL     1      -1.967  -0.172  11.195  1.00  0.00    -0.248 NA
ATOM     58  C   UNL     1      -1.022  -1.300  13.009  1.00  0.00     0.031 C 
ATOM     59  C   UNL     1      -6.303   0.731  10.816  1.00  0.00     0.029 A 
ATOM     60  C   UNL     1      -4.958   0.418  10.945  1.00  0.00     0.049 A 
ATOM     61  H   UNL     1      -3.341   0.973   9.709  1.00  0.00     0.167 HD
ATOM     62  C   UNL     1      -2.980  -0.584  12.054  1.00  0.00     0.074 A 
ATOM     63  C   UNL     1      -2.343  -1.315  13.130  1.00  0.00     0.031 C 
ATOM     64  C   UNL     1      -4.315  -0.357  11.974  1.00  0.00     0.034 A 
BRANCH  51  65
ATOM     65  C   UNL     1      -6.007   3.093   7.132  1.00  0.00     0.023 A 
ATOM     66  C   UNL     1      -6.467   2.515   5.932  1.00  0.00     0.012 A 
ATOM     67  C   UNL     1      -6.627   4.258   7.622  1.00  0.00     0.148 A 
ATOM     68  C   UNL     1      -7.511   3.101   5.218  1.00  0.00     0.002 A 
ATOM     69  C   UNL     1      -7.691   4.816   6.924  1.00  0.00     0.091 A 
ATOM     70  F   UNL     1      -6.157   4.806   8.752  1.00  0.00    -0.205 F 
ATOM     71  C   UNL     1      -8.129   4.244   5.718  1.00  0.00     0.022 A 
BRANCH  69  72
ATOM     72  S   UNL     1      -8.592   6.252   7.521  1.00  0.00     0.127 S 
ATOM     73  O   UNL     1      -8.135   7.292   6.601  1.00  0.00    -0.237 OA
ATOM     74  O   UNL     1      -9.985   5.843   7.334  1.00  0.00    -0.237 OA
ATOM     75  O   UNL     1      -8.194   6.425   8.910  1.00  0.00    -0.744 OA
ENDBRANCH  69  72
ENDBRANCH  51  65
BRANCH  52  76
ATOM     76  C   UNL     1       1.700  -1.112  11.928  1.00  0.00     0.023 A 
ATOM     77  C   UNL     1       1.764  -2.518  12.005  1.00  0.00     0.012 A 
ATOM     78  C   UNL     1       2.719  -0.347  12.526  1.00  0.00     0.148 A 
ATOM     79  C   UNL     1       2.806  -3.147  12.689  1.00  0.00     0.002 A 
ATOM     80  C   UNL     1       3.784  -0.982  13.155  1.00  0.00     0.091 A 
ATOM     81  F   UNL     1       2.630   0.989  12.470  1.00  0.00    -0.205 F 
ATOM     82  C   UNL     1       3.821  -2.381  13.253  1.00  0.00     0.022 A 
BRANCH  80  83
ATOM     83  S   UNL     1       5.197  -0.067  13.785  1.00  0.00     0.127 S 
ATOM     84  O   UNL     1       4.925  -0.045  15.220  1.00  0.00    -0.237 OA
ATOM     85  O   UNL     1       6.319  -0.917  13.384  1.00  0.00    -0.237 OA
ATOM     86  O   UNL     1       5.154   1.220  13.105  1.00  0.00    -0.744 OA
ENDBRANCH  80  83
ENDBRANCH  52  76
BRANCH  64  87
ATOM     87  C   UNL     1      -5.185  -0.923  13.066  1.00  0.00     0.023 A 
ATOM     88  C   UNL     1      -5.181  -0.323  14.341  1.00  0.00     0.012 A 
ATOM     89  C   UNL     1      -6.058  -1.999  12.810  1.00  0.00     0.148 A 
ATOM     90  C   UNL     1      -6.011  -0.804  15.353  1.00  0.00     0.002 A 
ATOM     91  C   UNL     1      -6.914  -2.444  13.811  1.00  0.00     0.091 A 
ATOM     92  F   UNL     1      -6.032  -2.571  11.598  1.00  0.00    -0.205 F 
ATOM     93  C   UNL     1      -6.886  -1.855  15.085  1.00  0.00     0.022 A 
BRANCH  91  94
ATOM     94  S   UNL     1      -8.133  -3.732  13.522  1.00  0.00     0.127 S 
ATOM     95  O   UNL     1      -7.497  -4.891  14.146  1.00  0.00    -0.237 OA
ATOM     96  O   UNL     1      -9.305  -3.222  14.236  1.00  0.00    -0.237 OA
ATOM     97  O   UNL     1      -8.297  -3.805  12.076  1.00  0.00    -0.744 OA
ENDBRANCH  91  94
ENDBRANCH  64  87
ENDBRANCH  38  39
ENDBRANCH  31  33
ENDBRANCH  30  31
ENDBRANCH  29  30
ENDBRANCH   1  29
TORSDOF 20
