REMARK SMILES CC[C@H](C)N1C(=O)c2ccccc2[C@@H](C(=O)OCCOC(=O)c2ccc(-c3c4nc(c(-c5cccc(S(=O)(=O)[O-])c5F)c5ccc([nH]5)c(-c5cccc(S(=O)(=O)[O-])c5F)c5nc(c(-c6cccc(S(=O)(=O)[O-])c6F)c6ccc3[nH]6)C=C5)C=C4)cc2)C12CCCCC2
REMARK SMILES IDX 19 1 18 2 17 3 15 4 16 5 14 6 5 7 6 8 86 9 7 10 8 11 87 12
REMARK SMILES IDX 91 13 9 14 13 15 88 16 90 17 10 18 12 19 89 20 11 21 3 22
REMARK SMILES IDX 4 23 2 24 1 25 20 26 21 27 22 28 23 29 24 30 85 31 25 32
REMARK SMILES IDX 84 33 26 34 27 35 28 36 78 37 29 38 83 39 77 40 79 41 30 42
REMARK SMILES IDX 82 43 76 44 75 45 31 47 63 48 43 49 62 50 44 51 47 52 61 53
REMARK SMILES IDX 80 54 45 55 46 56 60 58 81 59 48 60 32 61 33 62 41 63 34 64
REMARK SMILES IDX 36 65 42 66 35 67 37 68 38 69 39 70 40 71 64 72 65 73 73 74
REMARK SMILES IDX 66 75 68 76 74 77 67 78 69 79 70 80 71 81 72 82 49 83 50 84
REMARK SMILES IDX 58 85 51 86 53 87 59 88 52 89 54 90 55 91 56 92 57 93
REMARK H PARENT 79 46 47 57
REMARK Flexibility Score: inf
ROOT
ATOM      1  C   UNL     1       0.247  -2.692   8.590  1.00  0.00     0.275 C 
ENDROOT
BRANCH   1   2
ATOM      2  C   UNL     1      -0.254  -1.245   8.680  1.00  0.00     0.274 C 
BRANCH   2   3
ATOM      3  O   UNL     1      -0.254  -0.548   7.413  1.00  0.00    -0.462 OA
BRANCH   3   4
ATOM      4  C   UNL     1       0.911   0.044   7.064  1.00  0.00     0.315 C 
ATOM      5  O   UNL     1       1.915  -0.007   7.770  1.00  0.00    -0.251 OA
BRANCH   4   6
ATOM      6  C   UNL     1       0.848   0.950   5.817  1.00  0.00     0.156 C 
ATOM      7  N   UNL     1      -0.020   1.583   3.521  1.00  0.00    -0.329 N 
ATOM      8  C   UNL     1      -0.653   2.737   4.020  1.00  0.00     0.254 C 
ATOM      9  C   UNL     1       0.130   0.398   4.497  1.00  0.00     0.061 C 
ATOM     10  O   UNL     1      -1.414   3.453   3.377  1.00  0.00    -0.269 OA
ATOM     11  C   UNL     1      -0.294   3.166   5.399  1.00  0.00     0.044 A 
ATOM     12  C   UNL     1      -1.322  -0.105   4.761  1.00  0.00     0.030 C 
ATOM     13  C   UNL     1       1.052  -0.745   3.955  1.00  0.00     0.030 C 
ATOM     14  C   UNL     1      -0.609   4.478   5.796  1.00  0.00     0.014 A 
ATOM     15  C   UNL     1       0.464   2.356   6.238  1.00  0.00    -0.019 A 
ATOM     16  C   UNL     1      -1.506  -1.610   4.913  1.00  0.00     0.002 C 
ATOM     17  C   UNL     1       0.466  -2.023   3.352  1.00  0.00     0.002 C 
ATOM     18  C   UNL     1      -0.146   4.995   7.008  1.00  0.00     0.001 A 
ATOM     19  C   UNL     1       0.960   2.909   7.442  1.00  0.00     0.005 A 
ATOM     20  C   UNL     1      -0.953  -2.394   3.743  1.00  0.00     0.000 C 
ATOM     21  C   UNL     1       0.651   4.211   7.827  1.00  0.00     0.000 A 
BRANCH   7  22
ATOM     22  C   UNL     1       0.293   1.491   2.047  1.00  0.00     0.082 C 
ATOM     23  C   UNL     1      -0.440   0.362   1.318  1.00  0.00     0.031 C 
BRANCH  22  24
ATOM     24  C   UNL     1       0.145   2.819   1.245  1.00  0.00     0.021 C 
ATOM     25  C   UNL     1       0.672   2.773  -0.188  1.00  0.00     0.006 C 
ENDBRANCH  22  24
ENDBRANCH   7  22
ENDBRANCH   4   6
ENDBRANCH   3   4
ENDBRANCH   2   3
ENDBRANCH   1   2
BRANCH   1  26
ATOM     26  O   UNL     1       1.651  -2.758   8.273  1.00  0.00    -0.458 OA
BRANCH  26  27
ATOM     27  C   UNL     1       1.939  -3.059   6.989  1.00  0.00     0.338 C 
ATOM     28  O   UNL     1       1.137  -3.357   6.111  1.00  0.00    -0.246 OA
BRANCH  27  29
ATOM     29  C   UNL     1       3.378  -2.927   6.730  1.00  0.00     0.060 A 
ATOM     30  C   UNL     1       4.212  -4.032   6.886  1.00  0.00     0.016 A 
ATOM     31  C   UNL     1       3.886  -1.726   6.225  1.00  0.00     0.016 A 
ATOM     32  C   UNL     1       5.569  -3.904   6.585  1.00  0.00     0.010 A 
ATOM     33  C   UNL     1       5.226  -1.608   5.890  1.00  0.00     0.010 A 
ATOM     34  C   UNL     1       6.082  -2.686   6.107  1.00  0.00    -0.014 A 
BRANCH  34  35
ATOM     35  C   UNL     1       7.529  -2.508   5.889  1.00  0.00     0.031 A 
ATOM     36  C   UNL     1       8.331  -1.713   6.877  1.00  0.00     0.074 A 
ATOM     37  C   UNL     1       8.105  -3.032   4.793  1.00  0.00     0.049 A 
ATOM     38  N   UNL     1       9.627  -1.581   6.959  1.00  0.00    -0.248 NA
ATOM     39  C   UNL     1       7.584  -0.955   7.898  1.00  0.00     0.031 C 
ATOM     40  C   UNL     1       7.395  -3.713   3.709  1.00  0.00     0.029 A 
ATOM     41  N   UNL     1       9.420  -3.073   4.414  1.00  0.00    -0.354 N 
ATOM     42  C   UNL     1       9.851  -0.734   8.036  1.00  0.00     0.074 A 
ATOM     43  C   UNL     1       8.560  -0.339   8.550  1.00  0.00     0.031 C 
ATOM     44  C   UNL     1       8.290  -4.137   2.801  1.00  0.00     0.029 A 
ATOM     45  C   UNL     1       9.632  -3.771   3.250  1.00  0.00     0.049 A 
ATOM     46  H   UNL     1      10.144  -2.644   4.925  1.00  0.00     0.167 HD
ATOM     47  C   UNL     1      11.032  -0.361   8.576  1.00  0.00     0.034 A 
ATOM     48  C   UNL     1      10.784  -4.117   2.645  1.00  0.00     0.034 A 
ATOM     49  C   UNL     1      12.304  -0.804   8.084  1.00  0.00     0.049 A 
ATOM     50  C   UNL     1      12.086  -3.759   3.307  1.00  0.00     0.074 A 
ATOM     51  C   UNL     1      13.559  -0.580   8.619  1.00  0.00     0.029 A 
ATOM     52  N   UNL     1      12.480  -1.561   6.937  1.00  0.00    -0.354 N 
ATOM     53  N   UNL     1      12.286  -3.125   4.437  1.00  0.00    -0.248 NA
ATOM     54  C   UNL     1      13.319  -4.199   2.638  1.00  0.00     0.031 C 
ATOM     55  C   UNL     1      14.497  -1.204   7.791  1.00  0.00     0.029 A 
ATOM     56  C   UNL     1      13.824  -1.814   6.743  1.00  0.00     0.049 A 
ATOM     57  H   UNL     1      11.755  -1.873   6.348  1.00  0.00     0.167 HD
ATOM     58  C   UNL     1      13.661  -3.110   4.629  1.00  0.00     0.074 A 
ATOM     59  C   UNL     1      14.248  -3.810   3.504  1.00  0.00     0.031 C 
ATOM     60  C   UNL     1      14.375  -2.555   5.639  1.00  0.00     0.034 A 
BRANCH  47  61
ATOM     61  C   UNL     1      11.001   0.481   9.819  1.00  0.00     0.023 A 
ATOM     62  C   UNL     1      10.710  -0.141  11.050  1.00  0.00     0.012 A 
ATOM     63  C   UNL     1      11.331   1.848   9.789  1.00  0.00     0.148 A 
ATOM     64  C   UNL     1      10.735   0.589  12.236  1.00  0.00     0.002 A 
ATOM     65  C   UNL     1      11.380   2.564  10.980  1.00  0.00     0.091 A 
ATOM     66  F   UNL     1      11.588   2.418   8.604  1.00  0.00    -0.205 F 
ATOM     67  C   UNL     1      11.079   1.938  12.202  1.00  0.00     0.022 A 
BRANCH  65  68
ATOM     68  S   UNL     1      11.854   4.294  11.060  1.00  0.00     0.127 S 
ATOM     69  O   UNL     1      10.627   4.913  11.560  1.00  0.00    -0.237 OA
ATOM     70  O   UNL     1      12.957   4.264  12.021  1.00  0.00    -0.237 OA
ATOM     71  O   UNL     1      12.229   4.675   9.706  1.00  0.00    -0.744 OA
ENDBRANCH  65  68
ENDBRANCH  47  61
BRANCH  48  72
ATOM     72  C   UNL     1      10.739  -4.970   1.428  1.00  0.00     0.023 A 
ATOM     73  C   UNL     1      11.011  -6.346   1.552  1.00  0.00     0.012 A 
ATOM     74  C   UNL     1      10.355  -4.451   0.178  1.00  0.00     0.148 A 
ATOM     75  C   UNL     1      10.910  -7.192   0.448  1.00  0.00     0.002 A 
ATOM     76  C   UNL     1      10.224  -5.305  -0.912  1.00  0.00     0.091 A 
ATOM     77  F   UNL     1      10.104  -3.137   0.088  1.00  0.00    -0.205 F 
ATOM     78  C   UNL     1      10.509  -6.674  -0.780  1.00  0.00     0.022 A 
BRANCH  76  79
ATOM     79  S   UNL     1       9.620  -4.753  -2.511  1.00  0.00     0.127 S 
ATOM     80  O   UNL     1      10.803  -4.924  -3.351  1.00  0.00    -0.237 OA
ATOM     81  O   UNL     1       8.539  -5.705  -2.768  1.00  0.00    -0.237 OA
ATOM     82  O   UNL     1       9.182  -3.378  -2.315  1.00  0.00    -0.744 OA
ENDBRANCH  76  79
ENDBRANCH  48  72
BRANCH  60  83
ATOM     83  C   UNL     1      15.872  -2.667   5.590  1.00  0.00     0.023 A 
ATOM     84  C   UNL     1      16.596  -1.772   4.779  1.00  0.00     0.012 A 
ATOM     85  C   UNL     1      16.558  -3.542   6.453  1.00  0.00     0.148 A 
ATOM     86  C   UNL     1      17.988  -1.748   4.828  1.00  0.00     0.002 A 
ATOM     87  C   UNL     1      17.944  -3.489   6.520  1.00  0.00     0.091 A 
ATOM     88  F   UNL     1      15.840  -4.388   7.207  1.00  0.00    -0.205 F 
ATOM     89  C   UNL     1      18.660  -2.595   5.707  1.00  0.00     0.022 A 
BRANCH  87  90
ATOM     90  S   UNL     1      18.894  -4.479   7.679  1.00  0.00     0.127 S 
ATOM     91  O   UNL     1      19.587  -5.403   6.782  1.00  0.00    -0.237 OA
ATOM     92  O   UNL     1      19.755  -3.478   8.309  1.00  0.00    -0.237 OA
ATOM     93  O   UNL     1      17.924  -5.094   8.575  1.00  0.00    -0.744 OA
ENDBRANCH  87  90
ENDBRANCH  60  83
ENDBRANCH  34  35
ENDBRANCH  27  29
ENDBRANCH  26  27
ENDBRANCH   1  26
TORSDOF 16
