REMARK SMILES C[C@@H]1CCc2nc(NC(=O)[C@H]3CC=CC[C@@H]3C(=O)OCCOC(=O)c3ccc(-c4c5nc(c(-c6cccc(S(=O)(=O)[O-])c6F)c6ccc([nH]6)c(-c6cccc(S(=O)(=O)[O-])c6F)c6nc(c(-c7cccc(S(=O)(=O)[O-])c7F)c7ccc4[nH]7)C=C6)C=C5)cc3)sc2C1
REMARK SMILES IDX 21 1 20 2 19 3 17 4 18 5 16 6 11 7 12 8 13 9 15 10 14 11
REMARK SMILES IDX 9 12 8 13 10 15 7 16 1 17 2 18 3 19 90 20 4 21 89 22 5 23
REMARK SMILES IDX 88 24 6 25 22 26 23 27 24 28 25 29 26 30 87 31 27 32 86 33
REMARK SMILES IDX 28 34 29 35 30 36 80 37 31 38 85 39 79 40 81 41 32 42 84 43
REMARK SMILES IDX 78 44 77 45 33 47 65 48 45 49 64 50 46 51 49 52 63 53 82 54
REMARK SMILES IDX 47 55 48 56 62 58 83 59 50 60 34 61 35 62 43 63 36 64 38 65
REMARK SMILES IDX 44 66 37 67 39 68 40 69 41 70 42 71 66 72 67 73 75 74 68 75
REMARK SMILES IDX 70 76 76 77 69 78 71 79 72 80 73 81 74 82 51 83 52 84 60 85
REMARK SMILES IDX 53 86 55 87 61 88 54 89 56 90 57 91 58 92 59 93
REMARK H PARENT 8 14 81 46 49 57
REMARK Flexibility Score: inf
ROOT
ATOM      1  C   UNL     1       2.200   5.750   0.268  1.00  0.00     0.275 C 
ENDROOT
BRANCH   1   2
ATOM      2  C   UNL     1       1.472   7.097   0.314  1.00  0.00     0.274 C 
BRANCH   2   3
ATOM      3  O   UNL     1       0.038   6.960   0.342  1.00  0.00    -0.462 OA
BRANCH   3   4
ATOM      4  C   UNL     1      -0.625   6.629  -0.803  1.00  0.00     0.310 C 
ATOM      5  O   UNL     1      -0.400   7.150  -1.891  1.00  0.00    -0.252 OA
BRANCH   4   6
ATOM      6  C   UNL     1      -1.623   5.477  -0.564  1.00  0.00     0.116 C 
ATOM      7  C   UNL     1      -3.109   5.809  -0.692  1.00  0.00     0.097 C 
ATOM      8  C   UNL     1      -3.549   6.777   0.418  1.00  0.00     0.041 C 
ATOM      9  C   UNL     1      -3.137   6.288   1.771  1.00  0.00    -0.030 C 
ATOM     10  C   UNL     1      -1.314   4.883   0.804  1.00  0.00     0.043 C 
ATOM     11  C   UNL     1      -2.146   5.405   1.935  1.00  0.00    -0.030 C 
BRANCH   7  12
ATOM     12  C   UNL     1      -4.213   4.716  -0.918  1.00  0.00     0.230 C 
ATOM     13  N   UNL     1      -4.181   3.360  -0.869  1.00  0.00    -0.302 N 
ATOM     14  H   UNL     1      -4.867   2.974  -1.460  1.00  0.00     0.172 HD
ATOM     15  O   UNL     1      -5.308   5.158  -1.329  1.00  0.00    -0.274 OA
BRANCH  13  16
ATOM     16  C   UNL     1      -3.473   2.373  -0.238  1.00  0.00     0.189 A 
ATOM     17  C   UNL     1       1.036  -0.155   0.060  1.00  0.00     0.008 C 
ATOM     18  C   UNL     1       0.129  -0.243   1.298  1.00  0.00    -0.009 C 
ATOM     19  C   UNL     1      -0.974  -1.305   1.070  1.00  0.00     0.010 C 
ATOM     20  C   UNL     1      -0.503   1.123   1.701  1.00  0.00     0.052 C 
ATOM     21  C   UNL     1      -1.941  -0.921  -0.084  1.00  0.00     0.058 C 
ATOM     22  C   UNL     1      -1.832   1.308   1.045  1.00  0.00     0.030 A 
ATOM     23  C   UNL     1      -2.403   0.486   0.098  1.00  0.00     0.057 A 
ATOM     24  S   UNL     1      -3.076   2.431   1.435  1.00  0.00    -0.101 S 
ATOM     25  N   UNL     1      -3.352   1.133  -0.689  1.00  0.00    -0.225 NA
ENDBRANCH  13  16
ENDBRANCH   7  12
ENDBRANCH   4   6
ENDBRANCH   3   4
ENDBRANCH   2   3
ENDBRANCH   1   2
BRANCH   1  26
ATOM     26  O   UNL     1       2.296   5.251  -1.069  1.00  0.00    -0.458 OA
BRANCH  26  27
ATOM     27  C   UNL     1       1.573   4.138  -1.311  1.00  0.00     0.338 C 
ATOM     28  O   UNL     1       0.618   3.727  -0.677  1.00  0.00    -0.246 OA
BRANCH  27  29
ATOM     29  C   UNL     1       2.212   3.278  -2.292  1.00  0.00     0.060 A 
ATOM     30  C   UNL     1       1.424   2.265  -2.848  1.00  0.00     0.016 A 
ATOM     31  C   UNL     1       3.607   3.279  -2.381  1.00  0.00     0.016 A 
ATOM     32  C   UNL     1       2.053   1.176  -3.404  1.00  0.00     0.010 A 
ATOM     33  C   UNL     1       4.234   2.189  -2.941  1.00  0.00     0.010 A 
ATOM     34  C   UNL     1       3.452   1.129  -3.400  1.00  0.00    -0.014 A 
BRANCH  34  35
ATOM     35  C   UNL     1       4.074  -0.002  -4.056  1.00  0.00     0.031 A 
ATOM     36  C   UNL     1       3.830  -0.022  -5.519  1.00  0.00     0.074 A 
ATOM     37  C   UNL     1       4.894  -0.863  -3.430  1.00  0.00     0.049 A 
ATOM     38  N   UNL     1       3.192  -0.913  -6.202  1.00  0.00    -0.248 NA
ATOM     39  C   UNL     1       4.197   1.182  -6.282  1.00  0.00     0.031 C 
ATOM     40  C   UNL     1       5.434  -0.761  -2.072  1.00  0.00     0.029 A 
ATOM     41  N   UNL     1       5.545  -1.939  -3.949  1.00  0.00    -0.354 N 
ATOM     42  C   UNL     1       3.286  -0.489  -7.524  1.00  0.00     0.074 A 
ATOM     43  C   UNL     1       3.728   0.879  -7.491  1.00  0.00     0.031 C 
ATOM     44  C   UNL     1       6.514  -1.567  -1.972  1.00  0.00     0.029 A 
ATOM     45  C   UNL     1       6.654  -2.323  -3.205  1.00  0.00     0.049 A 
ATOM     46  H   UNL     1       5.259  -2.400  -4.771  1.00  0.00     0.167 HD
ATOM     47  C   UNL     1       3.256  -1.376  -8.554  1.00  0.00     0.034 A 
ATOM     48  C   UNL     1       7.660  -3.125  -3.628  1.00  0.00     0.034 A 
ATOM     49  C   UNL     1       2.697  -2.641  -8.157  1.00  0.00     0.049 A 
ATOM     50  C   UNL     1       7.162  -3.891  -4.795  1.00  0.00     0.074 A 
ATOM     51  C   UNL     1       1.496  -3.055  -7.619  1.00  0.00     0.029 A 
ATOM     52  N   UNL     1       3.576  -3.678  -7.966  1.00  0.00    -0.354 N 
ATOM     53  N   UNL     1       6.240  -4.809  -4.718  1.00  0.00    -0.248 NA
ATOM     54  C   UNL     1       7.415  -3.369  -6.128  1.00  0.00     0.031 C 
ATOM     55  C   UNL     1       1.834  -4.120  -6.734  1.00  0.00     0.029 A 
ATOM     56  C   UNL     1       3.214  -4.321  -6.814  1.00  0.00     0.049 A 
ATOM     57  H   UNL     1       4.330  -3.916  -8.553  1.00  0.00     0.167 HD
ATOM     58  C   UNL     1       5.497  -4.649  -5.880  1.00  0.00     0.074 A 
ATOM     59  C   UNL     1       6.343  -3.850  -6.762  1.00  0.00     0.031 C 
ATOM     60  C   UNL     1       4.159  -4.927  -5.901  1.00  0.00     0.034 A 
BRANCH  47  61
ATOM     61  C   UNL     1       4.084  -1.228  -9.807  1.00  0.00     0.023 A 
ATOM     62  C   UNL     1       3.828  -2.129 -10.863  1.00  0.00     0.012 A 
ATOM     63  C   UNL     1       5.266  -0.455  -9.896  1.00  0.00     0.148 A 
ATOM     64  C   UNL     1       4.726  -2.287 -11.924  1.00  0.00     0.002 A 
ATOM     65  C   UNL     1       6.107  -0.549 -10.996  1.00  0.00     0.091 A 
ATOM     66  F   UNL     1       5.672   0.277  -8.855  1.00  0.00    -0.205 F 
ATOM     67  C   UNL     1       5.862  -1.489 -11.998  1.00  0.00     0.022 A 
BRANCH  65  68
ATOM     68  S   UNL     1       7.551   0.508 -11.158  1.00  0.00     0.127 S 
ATOM     69  O   UNL     1       8.627  -0.408 -10.793  1.00  0.00    -0.237 OA
ATOM     70  O   UNL     1       7.499   0.874 -12.573  1.00  0.00    -0.237 OA
ATOM     71  O   UNL     1       7.315   1.623 -10.248  1.00  0.00    -0.744 OA
ENDBRANCH  65  68
ENDBRANCH  47  61
BRANCH  48  72
ATOM     72  C   UNL     1       9.096  -3.105  -3.271  1.00  0.00     0.023 A 
ATOM     73  C   UNL     1       9.885  -4.244  -3.525  1.00  0.00     0.012 A 
ATOM     74  C   UNL     1       9.752  -1.897  -2.948  1.00  0.00     0.148 A 
ATOM     75  C   UNL     1      11.282  -4.173  -3.498  1.00  0.00     0.002 A 
ATOM     76  C   UNL     1      11.141  -1.834  -2.911  1.00  0.00     0.091 A 
ATOM     77  F   UNL     1       9.021  -0.788  -2.771  1.00  0.00    -0.205 F 
ATOM     78  C   UNL     1      11.910  -2.967  -3.200  1.00  0.00     0.022 A 
BRANCH  76  79
ATOM     79  S   UNL     1      12.018  -0.305  -2.552  1.00  0.00     0.127 S 
ATOM     80  O   UNL     1      13.017  -0.750  -1.579  1.00  0.00    -0.237 OA
ATOM     81  O   UNL     1      12.554   0.051  -3.862  1.00  0.00    -0.237 OA
ATOM     82  O   UNL     1      11.019   0.605  -2.005  1.00  0.00    -0.744 OA
ENDBRANCH  76  79
ENDBRANCH  48  72
BRANCH  60  83
ATOM     83  C   UNL     1       3.574  -5.683  -4.733  1.00  0.00     0.023 A 
ATOM     84  C   UNL     1       3.610  -5.178  -3.416  1.00  0.00     0.012 A 
ATOM     85  C   UNL     1       2.837  -6.851  -4.990  1.00  0.00     0.148 A 
ATOM     86  C   UNL     1       2.959  -5.843  -2.374  1.00  0.00     0.002 A 
ATOM     87  C   UNL     1       2.149  -7.483  -3.960  1.00  0.00     0.091 A 
ATOM     88  F   UNL     1       2.802  -7.318  -6.247  1.00  0.00    -0.205 F 
ATOM     89  C   UNL     1       2.218  -6.989  -2.648  1.00  0.00     0.022 A 
BRANCH  87  90
ATOM     90  S   UNL     1       1.075  -8.885  -4.273  1.00  0.00     0.127 S 
ATOM     91  O   UNL     1       1.894 -10.006  -3.819  1.00  0.00    -0.237 OA
ATOM     92  O   UNL     1      -0.083  -8.592  -3.426  1.00  0.00    -0.237 OA
ATOM     93  O   UNL     1       0.786  -8.852  -5.702  1.00  0.00    -0.744 OA
ENDBRANCH  87  90
ENDBRANCH  60  83
ENDBRANCH  34  35
ENDBRANCH  27  29
ENDBRANCH  26  27
ENDBRANCH   1  26
TORSDOF 16
