REMARK SMILES CC(=O)N[C@H](CSCC(=O)Nc1ccc2c(c1)N1CC[NH+]=C1S2)C(=O)OCCOC(=O)c1ccc(-c2c3nc(c(-c4cccc(S(=O)(=O)[O-])c4F)c4ccc([nH]4)c(-c4cccc(S(=O)(=O)[O-])c4F)c4nc(c(-c5cccc(S(=O)(=O)[O-])c5F)c5ccc2[nH]5)C=C4)C=C3)cc1
REMARK SMILES IDX 27 1 26 2 24 3 25 4 5 5 4 6 1 7 2 8 3 9 6 11 7 12 8 13 9 14
REMARK SMILES IDX 10 15 11 16 12 18 13 19 17 20 14 21 16 22 15 23 18 24 23 25
REMARK SMILES IDX 19 26 22 27 20 28 21 29 28 31 29 32 30 33 31 34 32 35 33 36
REMARK SMILES IDX 94 37 34 38 93 39 35 40 36 41 37 42 87 43 38 44 92 45 86 46
REMARK SMILES IDX 88 47 39 48 91 49 85 50 84 51 40 53 72 54 52 55 71 56 53 57
REMARK SMILES IDX 56 58 70 59 89 60 54 61 55 62 69 64 90 65 57 66 41 67 42 68
REMARK SMILES IDX 50 69 43 70 45 71 51 72 44 73 46 74 47 75 48 76 49 77 73 78
REMARK SMILES IDX 74 79 82 80 75 81 77 82 83 83 76 84 78 85 79 86 80 87 81 88
REMARK SMILES IDX 58 89 59 90 67 91 60 92 62 93 68 94 61 95 63 96 64 97 65 98
REMARK SMILES IDX 66 99
REMARK H PARENT 4 10 11 17 21 30 88 52 56 63
REMARK Flexibility Score: inf
ROOT
ATOM      1  C   UNL     1      -0.466   5.359   2.557  1.00  0.00     0.274 C 
ENDROOT
BRANCH   1   2
ATOM      2  O   UNL     1       0.317   4.624   1.597  1.00  0.00    -0.461 OA
BRANCH   2   3
ATOM      3  C   UNL     1       1.474   4.062   2.050  1.00  0.00     0.329 C 
ATOM      4  O   UNL     1       1.907   4.197   3.189  1.00  0.00    -0.250 OA
BRANCH   3   5
ATOM      5  C   UNL     1       2.248   3.343   0.933  1.00  0.00     0.202 C 
BRANCH   5   6
ATOM      6  N   UNL     1       3.478   4.021   0.503  1.00  0.00    -0.342 N 
ATOM      7  C   UNL     1       2.606   6.328   0.352  1.00  0.00     0.114 C 
ATOM      8  C   UNL     1       3.679   5.308   0.106  1.00  0.00     0.217 C 
ATOM      9  O   UNL     1       4.759   5.631  -0.386  1.00  0.00    -0.275 OA
ATOM     10  H   UNL     1       4.284   3.455   0.500  1.00  0.00     0.164 HD
ENDBRANCH   5   6
BRANCH   5  11
ATOM     11  C   UNL     1       1.376   2.827  -0.220  1.00  0.00     0.107 C 
BRANCH  11  12
ATOM     12  S   UNL     1       1.652   1.034  -0.535  1.00  0.00    -0.149 SA
BRANCH  12  13
ATOM     13  C   UNL     1       3.010   1.027  -1.726  1.00  0.00     0.169 C 
BRANCH  13  14
ATOM     14  C   UNL     1       2.974   2.167  -2.719  1.00  0.00     0.234 C 
ATOM     15  O   UNL     1       3.660   3.177  -2.530  1.00  0.00    -0.274 OA
ATOM     16  N   UNL     1       2.273   2.092  -3.889  1.00  0.00    -0.325 N 
ATOM     17  H   UNL     1       2.375   2.867  -4.487  1.00  0.00     0.169 HD
BRANCH  16  18
ATOM     18  C   UNL     1       1.433   1.080  -4.365  1.00  0.00     0.045 A 
ATOM     19  C   UNL     1       0.398   0.509  -3.607  1.00  0.00     0.027 A 
ATOM     20  C   UNL     1       1.673   0.639  -5.667  1.00  0.00     0.079 A 
ATOM     21  C   UNL     1      -0.331  -0.586  -4.080  1.00  0.00     0.022 A 
ATOM     22  C   UNL     1       0.996  -0.476  -6.121  1.00  0.00     0.144 A 
ATOM     23  C   UNL     1       0.000  -1.083  -5.322  1.00  0.00     0.067 A 
ATOM     24  N   UNL     1       1.247  -1.176  -7.267  1.00  0.00    -0.216 N 
ATOM     25  S   UNL     1      -0.616  -2.572  -6.126  1.00  0.00     0.002 SA
ATOM     26  C   UNL     1       2.172  -1.033  -8.339  1.00  0.00     0.289 C 
ATOM     27  C   UNL     1       0.601  -2.370  -7.364  1.00  0.00     0.316 C 
ATOM     28  C   UNL     1       2.197  -2.496  -8.841  1.00  0.00     0.280 C 
ATOM     29  N   UNL     1       0.978  -3.203  -8.291  1.00  0.00    -0.264 N 
ATOM     30  H   UNL     1       0.577  -4.060  -8.561  1.00  0.00     0.305 HD
ENDBRANCH  16  18
ENDBRANCH  13  14
ENDBRANCH  12  13
ENDBRANCH  11  12
ENDBRANCH   5  11
ENDBRANCH   3   5
ENDBRANCH   2   3
ENDBRANCH   1   2
BRANCH   1  31
ATOM     31  C   UNL     1      -1.710   4.577   2.979  1.00  0.00     0.275 C 
BRANCH  31  32
ATOM     32  O   UNL     1      -1.357   3.350   3.639  1.00  0.00    -0.458 OA
BRANCH  32  33
ATOM     33  C   UNL     1      -1.245   2.277   2.817  1.00  0.00     0.338 C 
ATOM     34  O   UNL     1      -1.470   2.244   1.622  1.00  0.00    -0.246 OA
BRANCH  33  35
ATOM     35  C   UNL     1      -0.625   1.168   3.559  1.00  0.00     0.060 A 
ATOM     36  C   UNL     1      -1.210   0.652   4.712  1.00  0.00     0.016 A 
ATOM     37  C   UNL     1       0.547   0.608   3.048  1.00  0.00     0.016 A 
ATOM     38  C   UNL     1      -0.603  -0.433   5.348  1.00  0.00     0.010 A 
ATOM     39  C   UNL     1       1.146  -0.480   3.671  1.00  0.00     0.010 A 
ATOM     40  C   UNL     1       0.572  -1.011   4.827  1.00  0.00    -0.014 A 
BRANCH  40  41
ATOM     41  C   UNL     1       1.118  -2.244   5.433  1.00  0.00     0.031 A 
ATOM     42  C   UNL     1       2.404  -2.238   6.202  1.00  0.00     0.074 A 
ATOM     43  C   UNL     1       0.423  -3.387   5.271  1.00  0.00     0.049 A 
ATOM     44  N   UNL     1       2.907  -3.186   6.947  1.00  0.00    -0.248 NA
ATOM     45  C   UNL     1       3.241  -1.030   6.122  1.00  0.00     0.031 C 
ATOM     46  C   UNL     1      -0.776  -3.526   4.440  1.00  0.00     0.029 A 
ATOM     47  N   UNL     1       0.608  -4.635   5.803  1.00  0.00    -0.354 N 
ATOM     48  C   UNL     1       4.111  -2.693   7.430  1.00  0.00     0.074 A 
ATOM     49  C   UNL     1       4.287  -1.374   6.864  1.00  0.00     0.031 C 
ATOM     50  C   UNL     1      -1.253  -4.773   4.565  1.00  0.00     0.029 A 
ATOM     51  C   UNL     1      -0.390  -5.522   5.474  1.00  0.00     0.049 A 
ATOM     52  H   UNL     1       1.379  -4.874   6.366  1.00  0.00     0.167 HD
ATOM     53  C   UNL     1       4.967  -3.280   8.297  1.00  0.00     0.034 A 
ATOM     54  C   UNL     1      -0.606  -6.786   5.885  1.00  0.00     0.034 A 
ATOM     55  C   UNL     1       4.760  -4.581   8.871  1.00  0.00     0.049 A 
ATOM     56  C   UNL     1       0.330  -7.395   6.887  1.00  0.00     0.074 A 
ATOM     57  C   UNL     1       5.523  -5.226   9.828  1.00  0.00     0.029 A 
ATOM     58  N   UNL     1       3.725  -5.439   8.535  1.00  0.00    -0.354 N 
ATOM     59  N   UNL     1       1.369  -6.849   7.471  1.00  0.00    -0.248 NA
ATOM     60  C   UNL     1       0.056  -8.775   7.310  1.00  0.00     0.031 C 
ATOM     61  C   UNL     1       4.958  -6.481  10.059  1.00  0.00     0.029 A 
ATOM     62  C   UNL     1       3.835  -6.612   9.258  1.00  0.00     0.049 A 
ATOM     63  H   UNL     1       3.017  -5.242   7.880  1.00  0.00     0.167 HD
ATOM     64  C   UNL     1       1.865  -7.811   8.341  1.00  0.00     0.074 A 
ATOM     65  C   UNL     1       1.004  -8.970   8.220  1.00  0.00     0.031 C 
ATOM     66  C   UNL     1       2.944  -7.739   9.155  1.00  0.00     0.034 A 
BRANCH  53  67
ATOM     67  C   UNL     1       6.165  -2.501   8.764  1.00  0.00     0.023 A 
ATOM     68  C   UNL     1       5.985  -1.502   9.741  1.00  0.00     0.012 A 
ATOM     69  C   UNL     1       7.468  -2.848   8.356  1.00  0.00     0.148 A 
ATOM     70  C   UNL     1       7.084  -0.856  10.306  1.00  0.00     0.002 A 
ATOM     71  C   UNL     1       8.560  -2.219   8.944  1.00  0.00     0.091 A 
ATOM     72  F   UNL     1       7.612  -3.800   7.423  1.00  0.00    -0.205 F 
ATOM     73  C   UNL     1       8.369  -1.223   9.917  1.00  0.00     0.022 A 
BRANCH  71  74
ATOM     74  S   UNL     1      10.261  -2.651   8.557  1.00  0.00     0.127 S 
ATOM     75  O   UNL     1      10.757  -1.401   7.981  1.00  0.00    -0.237 OA
ATOM     76  O   UNL     1      10.803  -2.971   9.877  1.00  0.00    -0.237 OA
ATOM     77  O   UNL     1      10.194  -3.772   7.630  1.00  0.00    -0.744 OA
ENDBRANCH  71  74
ENDBRANCH  53  67
BRANCH  54  78
ATOM     78  C   UNL     1      -1.823  -7.499   5.416  1.00  0.00     0.023 A 
ATOM     79  C   UNL     1      -2.921  -7.634   6.287  1.00  0.00     0.012 A 
ATOM     80  C   UNL     1      -1.933  -7.952   4.088  1.00  0.00     0.148 A 
ATOM     81  C   UNL     1      -4.109  -8.214   5.844  1.00  0.00     0.002 A 
ATOM     82  C   UNL     1      -3.132  -8.495   3.642  1.00  0.00     0.091 A 
ATOM     83  F   UNL     1      -0.874  -7.806   3.281  1.00  0.00    -0.205 F 
ATOM     84  C   UNL     1      -4.218  -8.634   4.520  1.00  0.00     0.022 A 
BRANCH  82  85
ATOM     85  S   UNL     1      -3.403  -8.971   1.932  1.00  0.00     0.127 S 
ATOM     86  O   UNL     1      -3.597 -10.414   2.052  1.00  0.00    -0.237 OA
ATOM     87  O   UNL     1      -4.609  -8.212   1.599  1.00  0.00    -0.237 OA
ATOM     88  O   UNL     1      -2.207  -8.557   1.211  1.00  0.00    -0.744 OA
ENDBRANCH  82  85
ENDBRANCH  54  78
BRANCH  66  89
ATOM     89  C   UNL     1       3.287  -8.935   9.996  1.00  0.00     0.023 A 
ATOM     90  C   UNL     1       4.006  -9.996   9.414  1.00  0.00     0.012 A 
ATOM     91  C   UNL     1       3.067  -8.916  11.387  1.00  0.00     0.148 A 
ATOM     92  C   UNL     1       4.513 -11.021  10.210  1.00  0.00     0.002 A 
ATOM     93  C   UNL     1       3.604  -9.924  12.178  1.00  0.00     0.091 A 
ATOM     94  F   UNL     1       2.381  -7.890  11.910  1.00  0.00    -0.205 F 
ATOM     95  C   UNL     1       4.326 -10.977  11.591  1.00  0.00     0.022 A 
BRANCH  93  96
ATOM     96  S   UNL     1       3.486  -9.918  13.970  1.00  0.00     0.127 S 
ATOM     97  O   UNL     1       2.758 -11.161  14.224  1.00  0.00    -0.237 OA
ATOM     98  O   UNL     1       4.893  -9.943  14.369  1.00  0.00    -0.237 OA
ATOM     99  O   UNL     1       2.767  -8.703  14.326  1.00  0.00    -0.744 OA
ENDBRANCH  93  96
ENDBRANCH  66  89
ENDBRANCH  40  41
ENDBRANCH  33  35
ENDBRANCH  32  33
ENDBRANCH  31  32
ENDBRANCH   1  31
TORSDOF 20
