REMARK SMILES COc1ccc2c(c1)c(CC(=O)OCCOC(=O)c1ccc(-c3c4nc(c(-c5cccc(S(=O)(=O)[O-])c5F)c5ccc([nH]5)c(-c5cccc(S(=O)(=O)[O-])c5F)c5nc(c(-c6cccc(S(=O)(=O)[O-])c6F)c6ccc3[nH]6)C=C5)C=C4)cc1)c(C(F)(F)F)n2C(=O)c1ccc(Cl)cc1
REMARK SMILES IDX 14 1 13 2 11 3 12 4 10 5 9 6 3 7 4 8 8 9 5 10 7 11 6 12
REMARK SMILES IDX 87 13 82 14 2 15 1 16 88 17 89 18 90 19 91 20 96 21 92 22
REMARK SMILES IDX 95 23 93 24 94 25 83 26 84 27 85 28 86 29 15 30 16 31 17 32
REMARK SMILES IDX 18 33 19 34 20 35 81 36 21 37 80 38 22 39 23 40 24 41 74 42
REMARK SMILES IDX 25 43 79 44 73 45 75 46 26 47 78 48 72 49 71 50 27 52 59 53
REMARK SMILES IDX 39 54 58 55 40 56 43 57 57 58 76 59 41 60 42 61 56 63 77 64
REMARK SMILES IDX 44 65 28 66 29 67 37 68 30 69 32 70 38 71 31 72 33 73 34 74
REMARK SMILES IDX 35 75 36 76 60 77 61 78 69 79 62 80 64 81 70 82 63 83 65 84
REMARK SMILES IDX 66 85 67 86 68 87 45 88 46 89 54 90 47 91 49 92 55 93 48 94
REMARK SMILES IDX 50 95 51 96 52 97 53 98
REMARK H PARENT 75 51 43 62
REMARK Flexibility Score: inf
ROOT
ATOM      1  C   UNL     1      -1.930  -6.610  -2.211  1.00  0.00     0.274 C 
ENDROOT
BRANCH   1   2
ATOM      2  O   UNL     1      -1.329  -5.642  -3.097  1.00  0.00    -0.462 OA
BRANCH   2   3
ATOM      3  C   UNL     1      -2.192  -5.056  -3.962  1.00  0.00     0.310 C 
ATOM      4  O   UNL     1      -3.392  -5.314  -4.009  1.00  0.00    -0.252 OA
BRANCH   3   5
ATOM      5  C   UNL     1      -1.560  -4.142  -4.967  1.00  0.00     0.161 C 
BRANCH   5   6
ATOM      6  C   UNL     1      -0.124  -3.688  -4.857  1.00  0.00     0.002 A 
ATOM      7  C   UNL     1       1.169  -1.683  -1.801  1.00  0.00     0.119 A 
ATOM      8  C   UNL     1       2.380  -1.331  -2.357  1.00  0.00     0.048 A 
ATOM      9  C   UNL     1       0.316  -2.547  -2.507  1.00  0.00     0.057 A 
ATOM     10  C   UNL     1       2.724  -1.794  -3.628  1.00  0.00     0.031 A 
ATOM     11  C   UNL     1       0.591  -2.979  -3.829  1.00  0.00     0.008 A 
ATOM     12  C   UNL     1       1.840  -2.625  -4.358  1.00  0.00     0.057 A 
ATOM     13  N   UNL     1       1.980  -3.305  -5.577  1.00  0.00    -0.271 N 
ATOM     14  C   UNL     1       0.720  -3.717  -5.968  1.00  0.00     0.135 A 
BRANCH   7  15
ATOM     15  O   UNL     1       0.751  -1.277  -0.561  1.00  0.00    -0.497 OA
ATOM     16  C   UNL     1       1.151   0.038  -0.172  1.00  0.00     0.278 C 
ENDBRANCH   7  15
BRANCH  13  17
ATOM     17  C   UNL     1       3.195  -3.595  -6.243  1.00  0.00     0.262 C 
ATOM     18  O   UNL     1       3.189  -4.397  -7.170  1.00  0.00    -0.268 OA
BRANCH  17  19
ATOM     19  C   UNL     1       4.505  -3.110  -5.803  1.00  0.00     0.040 A 
ATOM     20  C   UNL     1       5.115  -3.733  -4.709  1.00  0.00     0.015 A 
ATOM     21  C   UNL     1       5.063  -1.982  -6.409  1.00  0.00     0.015 A 
ATOM     22  C   UNL     1       6.277  -3.180  -4.176  1.00  0.00     0.021 A 
ATOM     23  C   UNL     1       6.233  -1.441  -5.875  1.00  0.00     0.021 A 
ATOM     24  C   UNL     1       6.826  -2.034  -4.756  1.00  0.00     0.041 A 
ATOM     25  Cl  UNL     1       8.232  -1.328  -4.060  1.00  0.00    -0.084 Cl
ENDBRANCH  17  19
ENDBRANCH  13  17
BRANCH  14  26
ATOM     26  C   UNL     1       0.379  -4.151  -7.361  1.00  0.00     0.432 C 
ATOM     27  F   UNL     1       0.316  -5.504  -7.434  1.00  0.00    -0.165 F 
ATOM     28  F   UNL     1      -0.857  -3.693  -7.697  1.00  0.00    -0.165 F 
ATOM     29  F   UNL     1       1.209  -3.700  -8.323  1.00  0.00    -0.165 F 
ENDBRANCH  14  26
ENDBRANCH   5   6
ENDBRANCH   3   5
ENDBRANCH   2   3
ENDBRANCH   1   2
BRANCH   1  30
ATOM     30  C   UNL     1      -2.148  -6.001  -0.824  1.00  0.00     0.275 C 
BRANCH  30  31
ATOM     31  O   UNL     1      -3.228  -5.057  -0.894  1.00  0.00    -0.458 OA
BRANCH  31  32
ATOM     32  C   UNL     1      -2.929  -3.747  -0.701  1.00  0.00     0.338 C 
ATOM     33  O   UNL     1      -1.968  -3.293  -0.107  1.00  0.00    -0.246 OA
BRANCH  32  34
ATOM     34  C   UNL     1      -3.795  -3.005  -1.638  1.00  0.00     0.060 A 
ATOM     35  C   UNL     1      -5.145  -3.336  -1.752  1.00  0.00     0.016 A 
ATOM     36  C   UNL     1      -3.180  -2.190  -2.593  1.00  0.00     0.016 A 
ATOM     37  C   UNL     1      -5.814  -3.016  -2.924  1.00  0.00     0.010 A 
ATOM     38  C   UNL     1      -3.830  -1.921  -3.781  1.00  0.00     0.010 A 
ATOM     39  C   UNL     1      -5.115  -2.407  -3.975  1.00  0.00    -0.014 A 
BRANCH  39  40
ATOM     40  C   UNL     1      -5.819  -2.020  -5.180  1.00  0.00     0.031 A 
ATOM     41  C   UNL     1      -6.516  -0.732  -4.994  1.00  0.00     0.074 A 
ATOM     42  C   UNL     1      -5.811  -2.618  -6.385  1.00  0.00     0.049 A 
ATOM     43  N   UNL     1      -7.738  -0.584  -4.612  1.00  0.00    -0.248 NA
ATOM     44  C   UNL     1      -5.727   0.505  -5.020  1.00  0.00     0.031 C 
ATOM     45  C   UNL     1      -4.967  -3.690  -6.910  1.00  0.00     0.029 A 
ATOM     46  N   UNL     1      -6.593  -2.297  -7.452  1.00  0.00    -0.354 N 
ATOM     47  C   UNL     1      -7.942   0.785  -4.579  1.00  0.00     0.074 A 
ATOM     48  C   UNL     1      -6.637   1.394  -4.619  1.00  0.00     0.031 C 
ATOM     49  C   UNL     1      -5.165  -3.804  -8.249  1.00  0.00     0.029 A 
ATOM     50  C   UNL     1      -6.265  -2.938  -8.639  1.00  0.00     0.049 A 
ATOM     51  H   UNL     1      -7.338  -1.657  -7.386  1.00  0.00     0.167 HD
ATOM     52  C   UNL     1      -9.178   1.313  -4.775  1.00  0.00     0.034 A 
ATOM     53  C   UNL     1      -6.878  -2.740  -9.833  1.00  0.00     0.034 A 
ATOM     54  C   UNL     1     -10.209   0.308  -4.707  1.00  0.00     0.049 A 
ATOM     55  C   UNL     1      -8.237  -2.227  -9.521  1.00  0.00     0.074 A 
ATOM     56  C   UNL     1     -10.618  -0.601  -3.750  1.00  0.00     0.029 A 
ATOM     57  N   UNL     1     -10.695  -0.162  -5.905  1.00  0.00    -0.354 N 
ATOM     58  N   UNL     1      -9.158  -2.930  -8.923  1.00  0.00    -0.248 NA
ATOM     59  C   UNL     1      -8.453  -0.789  -9.529  1.00  0.00     0.031 C 
ATOM     60  C   UNL     1     -10.907  -1.795  -4.476  1.00  0.00     0.029 A 
ATOM     61  C   UNL     1     -10.705  -1.532  -5.833  1.00  0.00     0.049 A 
ATOM     62  H   UNL     1     -10.983   0.383  -6.672  1.00  0.00     0.167 HD
ATOM     63  C   UNL     1      -9.825  -2.019  -8.115  1.00  0.00     0.074 A 
ATOM     64  C   UNL     1      -9.421  -0.706  -8.612  1.00  0.00     0.031 C 
ATOM     65  C   UNL     1     -10.422  -2.408  -6.951  1.00  0.00     0.034 A 
BRANCH  52  66
ATOM     66  C   UNL     1      -9.419   2.669  -5.370  1.00  0.00     0.023 A 
ATOM     67  C   UNL     1     -10.708   3.223  -5.237  1.00  0.00     0.012 A 
ATOM     68  C   UNL     1      -8.521   3.316  -6.249  1.00  0.00     0.148 A 
ATOM     69  C   UNL     1     -11.086   4.361  -5.954  1.00  0.00     0.002 A 
ATOM     70  C   UNL     1      -8.872   4.495  -6.891  1.00  0.00     0.091 A 
ATOM     71  F   UNL     1      -7.369   2.725  -6.583  1.00  0.00    -0.205 F 
ATOM     72  C   UNL     1     -10.163   5.009  -6.767  1.00  0.00     0.022 A 
BRANCH  70  73
ATOM     73  S   UNL     1      -7.689   5.387  -7.905  1.00  0.00     0.127 S 
ATOM     74  O   UNL     1      -8.109   5.005  -9.249  1.00  0.00    -0.237 OA
ATOM     75  O   UNL     1      -7.963   6.777  -7.538  1.00  0.00    -0.237 OA
ATOM     76  O   UNL     1      -6.380   4.909  -7.474  1.00  0.00    -0.744 OA
ENDBRANCH  70  73
ENDBRANCH  52  66
BRANCH  53  77
ATOM     77  C   UNL     1      -6.380  -2.776 -11.230  1.00  0.00     0.023 A 
ATOM     78  C   UNL     1      -7.313  -2.822 -12.291  1.00  0.00     0.012 A 
ATOM     79  C   UNL     1      -5.045  -2.437 -11.538  1.00  0.00     0.148 A 
ATOM     80  C   UNL     1      -6.948  -2.477 -13.598  1.00  0.00     0.002 A 
ATOM     81  C   UNL     1      -4.685  -2.098 -12.843  1.00  0.00     0.091 A 
ATOM     82  F   UNL     1      -4.157  -2.349 -10.539  1.00  0.00    -0.205 F 
ATOM     83  C   UNL     1      -5.638  -2.100 -13.871  1.00  0.00     0.022 A 
BRANCH  81  84
ATOM     84  S   UNL     1      -3.020  -1.576 -13.280  1.00  0.00     0.127 S 
ATOM     85  O   UNL     1      -2.763  -2.359 -14.491  1.00  0.00    -0.237 OA
ATOM     86  O   UNL     1      -3.200  -0.145 -13.507  1.00  0.00    -0.237 OA
ATOM     87  O   UNL     1      -2.182  -1.937 -12.145  1.00  0.00    -0.744 OA
ENDBRANCH  81  84
ENDBRANCH  53  77
BRANCH  65  88
ATOM     88  C   UNL     1     -10.552  -3.888  -6.680  1.00  0.00     0.023 A 
ATOM     89  C   UNL     1      -9.426  -4.704  -6.438  1.00  0.00     0.012 A 
ATOM     90  C   UNL     1     -11.835  -4.418  -6.462  1.00  0.00     0.148 A 
ATOM     91  C   UNL     1      -9.578  -6.020  -5.989  1.00  0.00     0.002 A 
ATOM     92  C   UNL     1     -11.982  -5.713  -5.978  1.00  0.00     0.091 A 
ATOM     93  F   UNL     1     -12.892  -3.623  -6.688  1.00  0.00    -0.205 F 
ATOM     94  C   UNL     1     -10.855  -6.519  -5.744  1.00  0.00     0.022 A 
BRANCH  92  95
ATOM     95  S   UNL     1     -13.584  -6.386  -5.530  1.00  0.00     0.127 S 
ATOM     96  O   UNL     1     -13.746  -7.467  -6.502  1.00  0.00    -0.237 OA
ATOM     97  O   UNL     1     -13.360  -6.830  -4.154  1.00  0.00    -0.237 OA
ATOM     98  O   UNL     1     -14.537  -5.291  -5.660  1.00  0.00    -0.744 OA
ENDBRANCH  92  95
ENDBRANCH  65  88
ENDBRANCH  39  40
ENDBRANCH  32  34
ENDBRANCH  31  32
ENDBRANCH  30  31
ENDBRANCH   1  30
TORSDOF 19
