REMARK SMILES CC(C)[C@@H](NC(=O)/C(=C\c1ccccc1F)NC(=O)c1ccccc1)C(=O)OCCOC(=O)c1ccc(-c2c3nc(c(-c4cccc(S(=O)(=O)[O-])c4F)c4ccc([nH]4)c(-c4cccc(S(=O)(=O)[O-])c4F)c4nc(c(-c5cccc(S(=O)(=O)[O-])c5F)c5ccc2[nH]5)C=C4)C=C3)cc1
REMARK SMILES IDX 29 1 28 2 26 3 27 4 4 5 2 6 1 7 3 8 5 9 6 10 7 12 8 13 9 14
REMARK SMILES IDX 17 15 18 16 19 18 20 19 21 20 25 21 22 22 24 23 23 24 10 25
REMARK SMILES IDX 11 26 15 27 12 28 14 29 16 30 13 31 30 32 31 33 32 34 33 35
REMARK SMILES IDX 34 36 35 37 96 38 36 39 95 40 37 41 38 42 39 43 89 44 40 45
REMARK SMILES IDX 94 46 88 47 90 48 41 49 93 50 87 51 86 52 42 54 74 55 54 56
REMARK SMILES IDX 73 57 55 58 58 59 72 60 91 61 56 62 57 63 71 65 92 66 59 67
REMARK SMILES IDX 43 68 44 69 52 70 45 71 47 72 53 73 46 74 48 75 49 76 50 77
REMARK SMILES IDX 51 78 75 79 76 80 84 81 77 82 79 83 85 84 78 85 80 86 81 87
REMARK SMILES IDX 82 88 83 89 60 90 61 91 69 92 62 93 64 94 70 95 63 96 65 97
REMARK SMILES IDX 66 98 67 99 68 100
REMARK H PARENT 5 11 17 17 90 53 58 64
REMARK Flexibility Score: inf
ROOT
ATOM      1  C   UNL     1      -1.053  -0.338  -5.354  1.00  0.00     0.274 C 
ENDROOT
BRANCH   1   2
ATOM      2  O   UNL     1      -0.366  -0.173  -4.096  1.00  0.00    -0.461 OA
BRANCH   2   3
ATOM      3  C   UNL     1      -0.211   1.109  -3.632  1.00  0.00     0.329 C 
ATOM      4  O   UNL     1      -0.381   2.120  -4.299  1.00  0.00    -0.250 OA
BRANCH   3   5
ATOM      5  C   UNL     1       0.126   1.074  -2.120  1.00  0.00     0.195 C 
BRANCH   5   6
ATOM      6  C   UNL     1       1.624   1.208  -1.777  1.00  0.00     0.017 C 
ATOM      7  C   UNL     1       1.841   1.115  -0.252  1.00  0.00     0.010 C 
ATOM      8  C   UNL     1       2.433   0.078  -2.429  1.00  0.00     0.010 C 
ENDBRANCH   5   6
BRANCH   5   9
ATOM      9  N   UNL     1      -0.718   1.959  -1.311  1.00  0.00    -0.337 N 
ATOM     10  C   UNL     1      -2.024   1.746  -0.952  1.00  0.00     0.268 C 
ATOM     11  H   UNL     1      -0.304   2.793  -0.993  1.00  0.00     0.164 HD
ATOM     12  O   UNL     1      -2.475   2.255   0.069  1.00  0.00    -0.268 OA
BRANCH  10  13
ATOM     13  C   UNL     1      -2.892   0.977  -1.892  1.00  0.00     0.107 C 
ATOM     14  C   UNL     1      -2.887  -0.372  -1.858  1.00  0.00     0.043 C 
BRANCH  13  15
ATOM     15  N   UNL     1      -3.651   1.632  -2.852  1.00  0.00    -0.317 N 
ATOM     16  C   UNL     1      -3.923   2.963  -3.104  1.00  0.00     0.255 C 
ATOM     17  H   UNL     1      -4.088   1.019  -3.486  1.00  0.00     0.170 HD
ATOM     18  O   UNL     1      -4.578   3.273  -4.100  1.00  0.00    -0.269 OA
BRANCH  16  19
ATOM     19  C   UNL     1      -3.540   4.032  -2.171  1.00  0.00     0.040 A 
ATOM     20  C   UNL     1      -4.507   4.516  -1.284  1.00  0.00     0.014 A 
ATOM     21  C   UNL     1      -2.249   4.566  -2.178  1.00  0.00     0.014 A 
ATOM     22  C   UNL     1      -4.151   5.472  -0.333  1.00  0.00     0.001 A 
ATOM     23  C   UNL     1      -1.891   5.501  -1.204  1.00  0.00     0.001 A 
ATOM     24  C   UNL     1      -2.838   5.942  -0.276  1.00  0.00     0.000 A 
ENDBRANCH  16  19
ENDBRANCH  13  15
BRANCH  14  25
ATOM     25  C   UNL     1      -2.061  -1.249  -1.001  1.00  0.00     0.012 A 
ATOM     26  C   UNL     1      -1.055  -2.030  -1.601  1.00  0.00     0.011 A 
ATOM     27  C   UNL     1      -2.207  -1.341   0.380  1.00  0.00     0.130 A 
ATOM     28  C   UNL     1      -0.199  -2.839  -0.856  1.00  0.00     0.001 A 
ATOM     29  C   UNL     1      -1.365  -2.159   1.137  1.00  0.00     0.040 A 
ATOM     30  F   UNL     1      -3.170  -0.650   1.004  1.00  0.00    -0.206 F 
ATOM     31  C   UNL     1      -0.355  -2.903   0.521  1.00  0.00     0.003 A 
ENDBRANCH  14  25
ENDBRANCH  10  13
ENDBRANCH   5   9
ENDBRANCH   3   5
ENDBRANCH   2   3
ENDBRANCH   1   2
BRANCH   1  32
ATOM     32  C   UNL     1      -1.160  -1.834  -5.719  1.00  0.00     0.275 C 
BRANCH  32  33
ATOM     33  O   UNL     1      -1.936  -2.587  -4.753  1.00  0.00    -0.458 OA
BRANCH  33  34
ATOM     34  C   UNL     1      -1.965  -3.938  -4.987  1.00  0.00     0.338 C 
ATOM     35  O   UNL     1      -1.556  -4.472  -6.008  1.00  0.00    -0.246 OA
BRANCH  34  36
ATOM     36  C   UNL     1      -2.383  -4.715  -3.774  1.00  0.00     0.060 A 
ATOM     37  C   UNL     1      -3.003  -4.113  -2.687  1.00  0.00     0.016 A 
ATOM     38  C   UNL     1      -2.048  -6.068  -3.661  1.00  0.00     0.016 A 
ATOM     39  C   UNL     1      -3.077  -4.769  -1.446  1.00  0.00     0.010 A 
ATOM     40  C   UNL     1      -2.253  -6.764  -2.450  1.00  0.00     0.010 A 
ATOM     41  C   UNL     1      -2.706  -6.112  -1.289  1.00  0.00    -0.014 A 
BRANCH  41  42
ATOM     42  C   UNL     1      -2.760  -6.826   0.044  1.00  0.00     0.031 A 
ATOM     43  C   UNL     1      -1.616  -7.724   0.490  1.00  0.00     0.074 A 
ATOM     44  C   UNL     1      -3.816  -6.724   0.885  1.00  0.00     0.049 A 
ATOM     45  N   UNL     1      -1.601  -8.660   1.409  1.00  0.00    -0.248 NA
ATOM     46  C   UNL     1      -0.324  -7.558  -0.197  1.00  0.00     0.031 C 
ATOM     47  C   UNL     1      -4.990  -5.876   0.689  1.00  0.00     0.029 A 
ATOM     48  N   UNL     1      -4.082  -7.366   2.081  1.00  0.00    -0.354 N 
ATOM     49  C   UNL     1      -0.350  -9.267   1.328  1.00  0.00     0.074 A 
ATOM     50  C   UNL     1       0.383  -8.568   0.294  1.00  0.00     0.031 C 
ATOM     51  C   UNL     1      -5.824  -6.017   1.728  1.00  0.00     0.029 A 
ATOM     52  C   UNL     1      -5.322  -7.067   2.605  1.00  0.00     0.049 A 
ATOM     53  H   UNL     1      -3.446  -7.978   2.517  1.00  0.00     0.167 HD
ATOM     54  C   UNL     1       0.148 -10.306   2.045  1.00  0.00     0.034 A 
ATOM     55  C   UNL     1      -6.031  -7.609   3.618  1.00  0.00     0.034 A 
ATOM     56  C   UNL     1      -0.516 -10.924   3.164  1.00  0.00     0.049 A 
ATOM     57  C   UNL     1      -5.474  -8.767   4.396  1.00  0.00     0.074 A 
ATOM     58  C   UNL     1      -0.051 -11.946   3.977  1.00  0.00     0.029 A 
ATOM     59  N   UNL     1      -1.762 -10.568   3.651  1.00  0.00    -0.354 N 
ATOM     60  N   UNL     1      -4.305  -9.345   4.284  1.00  0.00    -0.248 NA
ATOM     61  C   UNL     1      -6.335  -9.355   5.435  1.00  0.00     0.031 C 
ATOM     62  C   UNL     1      -1.021 -12.217   4.945  1.00  0.00     0.029 A 
ATOM     63  C   UNL     1      -2.082 -11.351   4.748  1.00  0.00     0.049 A 
ATOM     64  H   UNL     1      -2.336  -9.863   3.273  1.00  0.00     0.167 HD
ATOM     65  C   UNL     1      -4.285 -10.355   5.241  1.00  0.00     0.074 A 
ATOM     66  C   UNL     1      -5.548 -10.295   5.944  1.00  0.00     0.031 C 
ATOM     67  C   UNL     1      -3.312 -11.263   5.490  1.00  0.00     0.034 A 
BRANCH  54  68
ATOM     68  C   UNL     1       1.505 -10.855   1.678  1.00  0.00     0.023 A 
ATOM     69  C   UNL     1       2.671 -10.162   2.053  1.00  0.00     0.012 A 
ATOM     70  C   UNL     1       1.619 -12.132   1.086  1.00  0.00     0.148 A 
ATOM     71  C   UNL     1       3.930 -10.721   1.828  1.00  0.00     0.002 A 
ATOM     72  C   UNL     1       2.875 -12.700   0.905  1.00  0.00     0.091 A 
ATOM     73  F   UNL     1       0.497 -12.772   0.727  1.00  0.00    -0.205 F 
ATOM     74  C   UNL     1       4.032 -11.993   1.268  1.00  0.00     0.022 A 
BRANCH  72  75
ATOM     75  S   UNL     1       3.104 -14.371   0.281  1.00  0.00     0.127 S 
ATOM     76  O   UNL     1       3.648 -14.114  -1.052  1.00  0.00    -0.237 OA
ATOM     77  O   UNL     1       4.065 -14.928   1.234  1.00  0.00    -0.237 OA
ATOM     78  O   UNL     1       1.789 -14.995   0.310  1.00  0.00    -0.744 OA
ENDBRANCH  72  75
ENDBRANCH  54  68
BRANCH  55  79
ATOM     79  C   UNL     1      -7.385  -7.060   3.933  1.00  0.00     0.023 A 
ATOM     80  C   UNL     1      -7.580  -6.342   5.127  1.00  0.00     0.012 A 
ATOM     81  C   UNL     1      -8.449  -7.168   3.015  1.00  0.00     0.148 A 
ATOM     82  C   UNL     1      -8.808  -5.735   5.397  1.00  0.00     0.002 A 
ATOM     83  C   UNL     1      -9.642  -6.497   3.253  1.00  0.00     0.091 A 
ATOM     84  F   UNL     1      -8.256  -7.889   1.901  1.00  0.00    -0.205 F 
ATOM     85  C   UNL     1      -9.830  -5.792   4.451  1.00  0.00     0.022 A 
BRANCH  83  86
ATOM     86  S   UNL     1     -10.929  -6.365   2.007  1.00  0.00     0.127 S 
ATOM     87  O   UNL     1     -11.968  -7.232   2.555  1.00  0.00    -0.237 OA
ATOM     88  O   UNL     1     -11.237  -4.935   2.040  1.00  0.00    -0.237 OA
ATOM     89  O   UNL     1     -10.317  -6.814   0.763  1.00  0.00    -0.744 OA
ENDBRANCH  83  86
ENDBRANCH  55  79
BRANCH  67  90
ATOM     90  C   UNL     1      -3.536 -12.274   6.583  1.00  0.00     0.023 A 
ATOM     91  C   UNL     1      -4.381 -13.375   6.345  1.00  0.00     0.012 A 
ATOM     92  C   UNL     1      -2.811 -12.206   7.790  1.00  0.00     0.148 A 
ATOM     93  C   UNL     1      -4.511 -14.388   7.295  1.00  0.00     0.002 A 
ATOM     94  C   UNL     1      -2.914 -13.239   8.715  1.00  0.00     0.091 A 
ATOM     95  F   UNL     1      -2.021 -11.143   8.000  1.00  0.00    -0.205 F 
ATOM     96  C   UNL     1      -3.768 -14.327   8.472  1.00  0.00     0.022 A 
BRANCH  94  97
ATOM     97  S   UNL     1      -1.931 -13.297  10.219  1.00  0.00     0.127 S 
ATOM     98  O   UNL     1      -2.957 -13.150  11.251  1.00  0.00    -0.237 OA
ATOM     99  O   UNL     1      -1.329 -14.628  10.143  1.00  0.00    -0.237 OA
ATOM    100  O   UNL     1      -0.984 -12.194  10.127  1.00  0.00    -0.744 OA
ENDBRANCH  94  97
ENDBRANCH  67  90
ENDBRANCH  41  42
ENDBRANCH  34  36
ENDBRANCH  33  34
ENDBRANCH  32  33
ENDBRANCH   1  32
TORSDOF 20
