REMARK SMILES C[C@H](O)C[C@@]1(C(=O)OCCOC(=O)c2ccc(-c3c4nc(c(-c5cccc(S(=O)(=O)[O-])c5F)c5ccc([nH]5)c(-c5cccc(S(=O)(=O)[O-])c5F)c5nc(c(-c6cccc(S(=O)(=O)[O-])c6F)c6ccc3[nH]6)C=C5)C=C4)cc2)CCN(C(=O)OC(C)(C)C)C1
REMARK SMILES IDX 9 1 8 2 6 3 7 4 5 5 77 6 87 7 78 8 79 9 4 10 2 11 1 12 3 13
REMARK SMILES IDX 80 15 81 16 82 17 83 18 84 19 85 20 86 21 10 22 11 23 12 24
REMARK SMILES IDX 13 25 14 26 15 27 76 28 16 29 75 30 17 31 18 32 19 33 69 34
REMARK SMILES IDX 20 35 74 36 68 37 70 38 21 39 73 40 67 41 66 42 22 44 54 45
REMARK SMILES IDX 34 46 53 47 35 48 38 49 52 50 71 51 36 52 37 53 51 55 72 56
REMARK SMILES IDX 39 57 23 58 24 59 32 60 25 61 27 62 33 63 26 64 28 65 29 66
REMARK SMILES IDX 30 67 31 68 55 69 56 70 64 71 57 72 59 73 65 74 58 75 60 76
REMARK SMILES IDX 61 77 62 78 63 79 40 80 41 81 49 82 42 83 44 84 50 85 43 86
REMARK SMILES IDX 45 87 46 88 47 89 48 90
REMARK H PARENT 3 14 70 43 38 54
REMARK Flexibility Score: inf
ROOT
ATOM      1  C   UNL     1       0.527   1.843  -1.056  1.00  0.00     0.274 C 
ENDROOT
BRANCH   1   2
ATOM      2  O   UNL     1      -0.171   0.821  -0.308  1.00  0.00    -0.462 OA
BRANCH   2   3
ATOM      3  C   UNL     1      -0.798   1.243   0.824  1.00  0.00     0.314 C 
ATOM      4  O   UNL     1      -0.811   2.416   1.179  1.00  0.00    -0.252 OA
BRANCH   3   5
ATOM      5  C   UNL     1      -1.436   0.106   1.642  1.00  0.00     0.090 C 
ATOM      6  C   UNL     1      -0.524  -1.155   1.624  1.00  0.00     0.042 C 
ATOM      7  C   UNL     1      -2.744  -0.409   1.026  1.00  0.00     0.142 C 
ATOM      8  C   UNL     1      -1.081  -2.039   0.508  1.00  0.00     0.124 C 
ATOM      9  N   UNL     1      -2.488  -1.739   0.525  1.00  0.00    -0.307 N 
BRANCH   5  10
ATOM     10  C   UNL     1      -1.620   0.612   3.116  1.00  0.00     0.052 C 
BRANCH  10  11
ATOM     11  C   UNL     1      -2.685   1.710   3.359  1.00  0.00     0.112 C 
ATOM     12  C   UNL     1      -2.642   2.252   4.783  1.00  0.00     0.038 C 
BRANCH  11  13
ATOM     13  O   UNL     1      -3.991   1.204   3.120  1.00  0.00    -0.393 OA
ATOM     14  H   UNL     1      -4.179   0.486   3.745  1.00  0.00     0.210 HD
ENDBRANCH  11  13
ENDBRANCH  10  11
ENDBRANCH   5  10
BRANCH   9  15
ATOM     15  C   UNL     1      -3.542  -2.522   0.115  1.00  0.00     0.410 C 
ATOM     16  O   UNL     1      -4.702  -2.147   0.175  1.00  0.00    -0.224 OA
BRANCH  15  17
ATOM     17  O   UNL     1      -3.153  -3.757  -0.301  1.00  0.00    -0.444 OA
BRANCH  17  18
ATOM     18  C   UNL     1      -4.176  -4.733  -0.641  1.00  0.00     0.106 C 
ATOM     19  C   UNL     1      -5.058  -5.065   0.573  1.00  0.00     0.056 C 
ATOM     20  C   UNL     1      -5.015  -4.292  -1.849  1.00  0.00     0.056 C 
ATOM     21  C   UNL     1      -3.401  -6.000  -1.030  1.00  0.00     0.056 C 
ENDBRANCH  17  18
ENDBRANCH  15  17
ENDBRANCH   9  15
ENDBRANCH   3   5
ENDBRANCH   2   3
ENDBRANCH   1   2
BRANCH   1  22
ATOM     22  C   UNL     1      -0.240   2.262  -2.309  1.00  0.00     0.275 C 
BRANCH  22  23
ATOM     23  O   UNL     1      -1.477   2.905  -1.964  1.00  0.00    -0.458 OA
BRANCH  23  24
ATOM     24  C   UNL     1      -2.557   2.092  -1.976  1.00  0.00     0.338 C 
ATOM     25  O   UNL     1      -2.589   0.913  -2.285  1.00  0.00    -0.246 OA
BRANCH  24  26
ATOM     26  C   UNL     1      -3.717   2.822  -1.452  1.00  0.00     0.060 A 
ATOM     27  C   UNL     1      -4.008   2.726  -0.091  1.00  0.00     0.016 A 
ATOM     28  C   UNL     1      -4.576   3.497  -2.312  1.00  0.00     0.016 A 
ATOM     29  C   UNL     1      -5.192   3.238   0.419  1.00  0.00     0.010 A 
ATOM     30  C   UNL     1      -5.739   4.066  -1.791  1.00  0.00     0.010 A 
ATOM     31  C   UNL     1      -6.066   3.916  -0.428  1.00  0.00    -0.014 A 
BRANCH  31  32
ATOM     32  C   UNL     1      -7.354   4.433   0.080  1.00  0.00     0.031 A 
ATOM     33  C   UNL     1      -8.627   3.826  -0.425  1.00  0.00     0.074 A 
ATOM     34  C   UNL     1      -7.374   5.472   0.934  1.00  0.00     0.049 A 
ATOM     35  N   UNL     1      -9.846   4.285  -0.349  1.00  0.00    -0.248 NA
ATOM     36  C   UNL     1      -8.505   2.535  -1.123  1.00  0.00     0.031 C 
ATOM     37  C   UNL     1      -6.197   6.092   1.544  1.00  0.00     0.029 A 
ATOM     38  N   UNL     1      -8.426   6.221   1.396  1.00  0.00    -0.354 N 
ATOM     39  C   UNL     1     -10.630   3.378  -1.050  1.00  0.00     0.074 A 
ATOM     40  C   UNL     1      -9.752   2.332  -1.527  1.00  0.00     0.031 C 
ATOM     41  C   UNL     1      -6.587   7.156   2.263  1.00  0.00     0.029 A 
ATOM     42  C   UNL     1      -8.027   7.330   2.104  1.00  0.00     0.049 A 
ATOM     43  H   UNL     1      -9.370   5.989   1.237  1.00  0.00     0.167 HD
ATOM     44  C   UNL     1     -11.963   3.426  -1.277  1.00  0.00     0.034 A 
ATOM     45  C   UNL     1      -8.734   8.399   2.517  1.00  0.00     0.034 A 
ATOM     46  C   UNL     1     -12.820   4.459  -0.760  1.00  0.00     0.049 A 
ATOM     47  C   UNL     1     -10.207   8.453   2.215  1.00  0.00     0.074 A 
ATOM     48  C   UNL     1     -14.188   4.595  -0.908  1.00  0.00     0.029 A 
ATOM     49  N   UNL     1     -12.388   5.533   0.003  1.00  0.00    -0.354 N 
ATOM     50  N   UNL     1     -10.952   7.579   1.582  1.00  0.00    -0.248 NA
ATOM     51  C   UNL     1     -10.944   9.629   2.699  1.00  0.00     0.031 C 
ATOM     52  C   UNL     1     -14.579   5.769  -0.257  1.00  0.00     0.029 A 
ATOM     53  C   UNL     1     -13.461   6.341   0.331  1.00  0.00     0.049 A 
ATOM     54  H   UNL     1     -11.455   5.696   0.272  1.00  0.00     0.167 HD
ATOM     55  C   UNL     1     -12.250   8.072   1.635  1.00  0.00     0.074 A 
ATOM     56  C   UNL     1     -12.191   9.323   2.364  1.00  0.00     0.031 C 
ATOM     57  C   UNL     1     -13.387   7.542   1.123  1.00  0.00     0.034 A 
BRANCH  44  58
ATOM     58  C   UNL     1     -12.572   2.343  -2.124  1.00  0.00     0.023 A 
ATOM     59  C   UNL     1     -12.709   1.037  -1.613  1.00  0.00     0.012 A 
ATOM     60  C   UNL     1     -13.055   2.634  -3.416  1.00  0.00     0.148 A 
ATOM     61  C   UNL     1     -13.287   0.030  -2.386  1.00  0.00     0.002 A 
ATOM     62  C   UNL     1     -13.672   1.638  -4.162  1.00  0.00     0.091 A 
ATOM     63  F   UNL     1     -12.894   3.877  -3.893  1.00  0.00    -0.205 F 
ATOM     64  C   UNL     1     -13.777   0.333  -3.654  1.00  0.00     0.022 A 
BRANCH  62  65
ATOM     65  S   UNL     1     -14.406   1.949  -5.771  1.00  0.00     0.127 S 
ATOM     66  O   UNL     1     -13.491   1.233  -6.659  1.00  0.00    -0.237 OA
ATOM     67  O   UNL     1     -15.726   1.332  -5.631  1.00  0.00    -0.237 OA
ATOM     68  O   UNL     1     -14.428   3.396  -5.933  1.00  0.00    -0.744 OA
ENDBRANCH  62  65
ENDBRANCH  44  58
BRANCH  45  69
ATOM     69  C   UNL     1      -8.057   9.502   3.257  1.00  0.00     0.023 A 
ATOM     70  C   UNL     1      -8.357   9.705   4.617  1.00  0.00     0.012 A 
ATOM     71  C   UNL     1      -7.106  10.334   2.631  1.00  0.00     0.148 A 
ATOM     72  C   UNL     1      -7.748  10.736   5.333  1.00  0.00     0.002 A 
ATOM     73  C   UNL     1      -6.462  11.323   3.364  1.00  0.00     0.091 A 
ATOM     74  F   UNL     1      -6.842  10.132   1.332  1.00  0.00    -0.205 F 
ATOM     75  C   UNL     1      -6.795  11.538   4.710  1.00  0.00     0.022 A 
BRANCH  73  76
ATOM     76  S   UNL     1      -5.134  12.323   2.683  1.00  0.00     0.127 S 
ATOM     77  O   UNL     1      -5.759  13.641   2.611  1.00  0.00    -0.237 OA
ATOM     78  O   UNL     1      -4.099  12.188   3.709  1.00  0.00    -0.237 OA
ATOM     79  O   UNL     1      -4.796  11.714   1.404  1.00  0.00    -0.744 OA
ENDBRANCH  73  76
ENDBRANCH  45  69
BRANCH  57  80
ATOM     80  C   UNL     1     -14.684   8.255   1.397  1.00  0.00     0.023 A 
ATOM     81  C   UNL     1     -15.002   9.439   0.705  1.00  0.00     0.012 A 
ATOM     82  C   UNL     1     -15.638   7.673   2.256  1.00  0.00     0.148 A 
ATOM     83  C   UNL     1     -16.246  10.044   0.879  1.00  0.00     0.002 A 
ATOM     84  C   UNL     1     -16.893   8.252   2.384  1.00  0.00     0.091 A 
ATOM     85  F   UNL     1     -15.304   6.555   2.916  1.00  0.00    -0.205 F 
ATOM     86  C   UNL     1     -17.195   9.444   1.705  1.00  0.00     0.022 A 
BRANCH  84  87
ATOM     87  S   UNL     1     -18.212   7.495   3.339  1.00  0.00     0.127 S 
ATOM     88  O   UNL     1     -18.354   8.436   4.449  1.00  0.00    -0.237 OA
ATOM     89  O   UNL     1     -19.323   7.500   2.388  1.00  0.00    -0.237 OA
ATOM     90  O   UNL     1     -17.735   6.168   3.708  1.00  0.00    -0.744 OA
ENDBRANCH  84  87
ENDBRANCH  57  80
ENDBRANCH  31  32
ENDBRANCH  24  26
ENDBRANCH  23  24
ENDBRANCH  22  23
ENDBRANCH   1  22
TORSDOF 20
