REMARK SMILES CCCCCCNC(=O)Oc1cccc(-c2ccc([C@@H](C)C(=O)OCCOC(=O)c3ccc(-c4c5nc(c(-c6cccc(S(=O)(=O)[O-])c6F)c6ccc([nH]6)c(-c6cccc(S(=O)(=O)[O-])c6F)c6nc(c(-c7cccc(S(=O)(=O)[O-])c7F)c7ccc4[nH]7)C=C6)C=C5)cc3)cc2[N+](=O)[O-])c1
REMARK SMILES IDX 20 1 21 2 19 3 16 4 17 5 94 6 18 7 93 8 15 9 11 10 12 11
REMARK SMILES IDX 98 12 13 13 14 14 10 15 8 16 7 17 9 19 6 20 5 21 4 22 3 23
REMARK SMILES IDX 2 24 1 25 95 26 96 27 97 28 22 29 23 30 24 31 25 32 26 33
REMARK SMILES IDX 27 34 28 35 29 36 30 37 31 38 92 39 32 40 91 41 33 42 34 43
REMARK SMILES IDX 35 44 85 45 36 46 90 47 84 48 86 49 37 50 89 51 83 52 82 53
REMARK SMILES IDX 38 55 70 56 50 57 69 58 51 59 54 60 68 61 87 62 52 63 53 64
REMARK SMILES IDX 67 66 88 67 55 68 39 69 40 70 48 71 41 72 43 73 49 74 42 75
REMARK SMILES IDX 44 76 45 77 46 78 47 79 71 80 72 81 80 82 73 83 75 84 81 85
REMARK SMILES IDX 74 86 76 87 77 88 78 89 79 90 56 91 57 92 65 93 58 94 60 95
REMARK SMILES IDX 66 96 59 97 61 98 62 99 63 100 64 101
REMARK H PARENT 7 18 86 54 54 65
REMARK Flexibility Score: inf
ROOT
ATOM      1  C   UNL     1      -5.402   0.916  13.887  1.00  0.00     0.126 C 
ATOM      2  C   UNL     1      -6.781   0.713  14.513  1.00  0.00     0.025 C 
ENDROOT
BRANCH   1   3
ATOM      3  C   UNL     1      -5.263   0.181  12.561  1.00  0.00    -0.027 A 
ATOM      4  C   UNL     1      -5.107  -1.158  10.028  1.00  0.00     0.060 A 
ATOM      5  C   UNL     1      -5.310  -1.861  11.231  1.00  0.00     0.016 A 
ATOM      6  C   UNL     1      -4.952   0.236  10.141  1.00  0.00     0.277 A 
ATOM      7  C   UNL     1      -5.400  -1.209  12.467  1.00  0.00     0.006 A 
ATOM      8  C   UNL     1      -5.021   0.900  11.381  1.00  0.00     0.091 A 
BRANCH   4   9
ATOM      9  C   UNL     1      -5.134  -1.909   8.758  1.00  0.00    -0.008 A 
ATOM     10  C   UNL     1      -4.185  -2.569   6.628  1.00  0.00     0.133 A 
ATOM     11  C   UNL     1      -5.317  -3.322   6.321  1.00  0.00     0.047 A 
ATOM     12  C   UNL     1      -4.078  -1.869   7.833  1.00  0.00     0.056 A 
ATOM     13  C   UNL     1      -6.360  -3.388   7.236  1.00  0.00     0.004 A 
ATOM     14  C   UNL     1      -6.270  -2.682   8.437  1.00  0.00     0.009 A 
BRANCH  10  15
ATOM     15  O   UNL     1      -3.241  -2.428   5.596  1.00  0.00    -0.410 OA
BRANCH  15  16
ATOM     16  C   UNL     1      -1.895  -2.620   5.863  1.00  0.00     0.412 C 
ATOM     17  N   UNL     1      -1.099  -2.353   4.782  1.00  0.00    -0.321 N 
ATOM     18  H   UNL     1      -0.129  -2.465   4.909  1.00  0.00     0.167 HD
ATOM     19  O   UNL     1      -1.423  -3.011   6.923  1.00  0.00    -0.224 OA
BRANCH  17  20
ATOM     20  C   UNL     1      -1.537  -1.922   3.468  1.00  0.00     0.119 C 
BRANCH  20  21
ATOM     21  C   UNL     1      -0.940  -0.574   3.066  1.00  0.00     0.021 C 
BRANCH  21  22
ATOM     22  C   UNL     1       0.587  -0.560   2.922  1.00  0.00     0.002 C 
BRANCH  22  23
ATOM     23  C   UNL     1       1.167  -1.558   1.914  1.00  0.00    -0.000 C 
BRANCH  23  24
ATOM     24  C   UNL     1       0.669  -1.407   0.475  1.00  0.00    -0.003 C 
ATOM     25  C   UNL     1       1.042  -0.073  -0.154  1.00  0.00     0.004 C 
ENDBRANCH  23  24
ENDBRANCH  22  23
ENDBRANCH  21  22
ENDBRANCH  20  21
ENDBRANCH  17  20
ENDBRANCH  15  16
ENDBRANCH  10  15
ENDBRANCH   4   9
BRANCH   6  26
ATOM     26  N   UNL     1      -4.794   1.076   8.962  1.00  0.00     0.063 N 
ATOM     27  O   UNL     1      -3.841   1.868   8.956  1.00  0.00    -0.258 OA
ATOM     28  O   UNL     1      -5.654   0.986   8.074  1.00  0.00    -0.258 OA
ENDBRANCH   6  26
ENDBRANCH   1   3
BRANCH   1  29
ATOM     29  C   UNL     1      -4.321   0.656  14.929  1.00  0.00     0.313 C 
ATOM     30  O   UNL     1      -4.039   1.482  15.792  1.00  0.00    -0.252 OA
BRANCH  29  31
ATOM     31  O   UNL     1      -3.753  -0.574  14.838  1.00  0.00    -0.462 OA
BRANCH  31  32
ATOM     32  C   UNL     1      -2.651  -0.848  15.725  1.00  0.00     0.274 C 
BRANCH  32  33
ATOM     33  C   UNL     1      -1.312  -0.734  14.992  1.00  0.00     0.275 C 
BRANCH  33  34
ATOM     34  O   UNL     1      -1.004   0.632  14.665  1.00  0.00    -0.458 OA
BRANCH  34  35
ATOM     35  C   UNL     1      -1.416   1.035  13.441  1.00  0.00     0.338 C 
ATOM     36  O   UNL     1      -1.982   0.365  12.595  1.00  0.00    -0.246 OA
BRANCH  35  37
ATOM     37  C   UNL     1      -1.196   2.481  13.299  1.00  0.00     0.060 A 
ATOM     38  C   UNL     1      -2.314   3.311  13.173  1.00  0.00     0.016 A 
ATOM     39  C   UNL     1       0.093   3.002  13.200  1.00  0.00     0.016 A 
ATOM     40  C   UNL     1      -2.150   4.669  12.922  1.00  0.00     0.010 A 
ATOM     41  C   UNL     1       0.257   4.368  12.957  1.00  0.00     0.010 A 
ATOM     42  C   UNL     1      -0.863   5.204  12.797  1.00  0.00    -0.014 A 
BRANCH  42  43
ATOM     43  C   UNL     1      -0.679   6.630  12.437  1.00  0.00     0.031 A 
ATOM     44  C   UNL     1      -0.201   6.986  11.058  1.00  0.00     0.074 A 
ATOM     45  C   UNL     1      -0.913   7.590  13.351  1.00  0.00     0.049 A 
ATOM     46  N   UNL     1       0.160   8.150  10.586  1.00  0.00    -0.248 NA
ATOM     47  C   UNL     1      -0.111   5.885  10.084  1.00  0.00     0.031 C 
ATOM     48  C   UNL     1      -1.397   7.360  14.712  1.00  0.00     0.029 A 
ATOM     49  N   UNL     1      -0.744   8.949  13.280  1.00  0.00    -0.354 N 
ATOM     50  C   UNL     1       0.563   7.917   9.277  1.00  0.00     0.074 A 
ATOM     51  C   UNL     1       0.399   6.501   9.027  1.00  0.00     0.031 C 
ATOM     52  C   UNL     1      -1.460   8.536  15.358  1.00  0.00     0.029 A 
ATOM     53  C   UNL     1      -0.984   9.593  14.471  1.00  0.00     0.049 A 
ATOM     54  H   UNL     1      -0.477   9.418  12.456  1.00  0.00     0.167 HD
ATOM     55  C   UNL     1       1.016   8.808   8.363  1.00  0.00     0.034 A 
ATOM     56  C   UNL     1      -0.807  10.884  14.815  1.00  0.00     0.034 A 
ATOM     57  C   UNL     1       1.133  10.220   8.606  1.00  0.00     0.049 A 
ATOM     58  C   UNL     1      -0.299  11.851  13.778  1.00  0.00     0.074 A 
ATOM     59  C   UNL     1       1.563  11.210   7.740  1.00  0.00     0.029 A 
ATOM     60  N   UNL     1       0.807  10.845   9.800  1.00  0.00    -0.354 N 
ATOM     61  N   UNL     1       0.010  11.629  12.523  1.00  0.00    -0.248 NA
ATOM     62  C   UNL     1      -0.141  13.253  14.195  1.00  0.00     0.031 C 
ATOM     63  C   UNL     1       1.500  12.435   8.412  1.00  0.00     0.029 A 
ATOM     64  C   UNL     1       1.019  12.208   9.692  1.00  0.00     0.049 A 
ATOM     65  H   UNL     1       0.474  10.387  10.605  1.00  0.00     0.167 HD
ATOM     66  C   UNL     1       0.361  12.864  11.991  1.00  0.00     0.074 A 
ATOM     67  C   UNL     1       0.211  13.835  13.056  1.00  0.00     0.031 C 
ATOM     68  C   UNL     1       0.788  13.167  10.741  1.00  0.00     0.034 A 
BRANCH  55  69
ATOM     69  C   UNL     1       1.385   8.290   6.999  1.00  0.00     0.023 A 
ATOM     70  C   UNL     1       0.365   7.951   6.088  1.00  0.00     0.012 A 
ATOM     71  C   UNL     1       2.732   8.206   6.594  1.00  0.00     0.148 A 
ATOM     72  C   UNL     1       0.680   7.517   4.801  1.00  0.00     0.002 A 
ATOM     73  C   UNL     1       3.037   7.807   5.298  1.00  0.00     0.091 A 
ATOM     74  F   UNL     1       3.687   8.513   7.484  1.00  0.00    -0.205 F 
ATOM     75  C   UNL     1       2.013   7.455   4.403  1.00  0.00     0.022 A 
BRANCH  73  76
ATOM     76  S   UNL     1       4.718   7.761   4.667  1.00  0.00     0.127 S 
ATOM     77  O   UNL     1       4.953   6.322   4.554  1.00  0.00    -0.237 OA
ATOM     78  O   UNL     1       4.588   8.459   3.387  1.00  0.00    -0.237 OA
ATOM     79  O   UNL     1       5.537   8.452   5.653  1.00  0.00    -0.744 OA
ENDBRANCH  73  76
ENDBRANCH  55  69
BRANCH  56  80
ATOM     80  C   UNL     1      -1.144  11.344  16.192  1.00  0.00     0.023 A 
ATOM     81  C   UNL     1      -2.248  12.197  16.384  1.00  0.00     0.012 A 
ATOM     82  C   UNL     1      -0.393  10.932  17.310  1.00  0.00     0.148 A 
ATOM     83  C   UNL     1      -2.580  12.653  17.660  1.00  0.00     0.002 A 
ATOM     84  C   UNL     1      -0.762  11.347  18.584  1.00  0.00     0.091 A 
ATOM     85  F   UNL     1       0.670  10.140  17.108  1.00  0.00    -0.205 F 
ATOM     86  C   UNL     1      -1.845  12.220  18.761  1.00  0.00     0.022 A 
BRANCH  84  87
ATOM     87  S   UNL     1       0.056  10.725  20.058  1.00  0.00     0.127 S 
ATOM     88  O   UNL     1       0.962  11.822  20.386  1.00  0.00    -0.237 OA
ATOM     89  O   UNL     1      -1.063  10.553  20.986  1.00  0.00    -0.237 OA
ATOM     90  O   UNL     1       0.683   9.475  19.648  1.00  0.00    -0.744 OA
ENDBRANCH  84  87
ENDBRANCH  56  80
BRANCH  68  91
ATOM     91  C   UNL     1       1.077  14.611  10.430  1.00  0.00     0.023 A 
ATOM     92  C   UNL     1       2.260  15.204  10.911  1.00  0.00     0.012 A 
ATOM     93  C   UNL     1       0.224  15.348   9.586  1.00  0.00     0.148 A 
ATOM     94  C   UNL     1       2.578  16.519  10.575  1.00  0.00     0.002 A 
ATOM     95  C   UNL     1       0.569  16.643   9.220  1.00  0.00     0.091 A 
ATOM     96  F   UNL     1      -0.908  14.770   9.156  1.00  0.00    -0.205 F 
ATOM     97  C   UNL     1       1.741  17.233   9.720  1.00  0.00     0.022 A 
BRANCH  95  98
ATOM     98  S   UNL     1      -0.405  17.602   8.054  1.00  0.00     0.127 S 
ATOM     99  O   UNL     1      -1.085  18.547   8.938  1.00  0.00    -0.237 OA
ATOM    100  O   UNL     1       0.625  18.197   7.201  1.00  0.00    -0.237 OA
ATOM    101  O   UNL     1      -1.268  16.645   7.374  1.00  0.00    -0.744 OA
ENDBRANCH  95  98
ENDBRANCH  68  91
ENDBRANCH  42  43
ENDBRANCH  35  37
ENDBRANCH  34  35
ENDBRANCH  33  34
ENDBRANCH  32  33
ENDBRANCH  31  32
ENDBRANCH  29  31
ENDBRANCH   1  29
TORSDOF 24
