REMARK SMILES Cc1ccc(S(=O)(=O)N2CCCC2)cc1C(=O)N[C@H](CC1=c2ccccc2=NC1)C(=O)OCCOC(=O)c1ccc(-c2c3nc(c(-c4cccc(S(=O)(=O)[O-])c4F)c4ccc([nH]4)c(-c4cccc(S(=O)(=O)[O-])c4F)c4nc(c(-c5cccc(S(=O)(=O)[O-])c5F)c5ccc2[nH]5)C=C4)C=C3)cc1
REMARK SMILES IDX 33 1 32 2 30 3 31 4 19 5 18 6 16 7 17 8 15 10 1 11 2 12 3 13
REMARK SMILES IDX 4 14 14 15 5 16 6 17 7 18 8 19 9 20 10 21 13 22 11 23 12 24
REMARK SMILES IDX 20 25 21 26 22 27 29 28 23 29 27 30 28 31 24 32 26 33 25 34
REMARK SMILES IDX 34 35 35 36 36 37 37 38 38 39 39 40 100 41 40 42 99 43 41 44
REMARK SMILES IDX 42 45 43 46 93 47 44 48 98 49 92 50 94 51 45 52 97 53 91 54
REMARK SMILES IDX 90 55 46 57 78 58 58 59 77 60 59 61 62 62 76 63 95 64 60 65
REMARK SMILES IDX 61 66 75 68 96 69 63 70 47 71 48 72 56 73 49 74 51 75 57 76
REMARK SMILES IDX 50 77 52 78 53 79 54 80 55 81 79 82 80 83 88 84 81 85 83 86
REMARK SMILES IDX 89 87 82 88 84 89 85 90 86 91 87 92 64 93 65 94 73 95 66 96
REMARK SMILES IDX 68 97 74 98 67 99 69 100 70 101 71 102 72 103
REMARK H PARENT 18 9 94 56 62 67
REMARK Flexibility Score: inf
ROOT
ATOM      1  C   UNL     1       5.710   2.753   3.349  1.00  0.00     0.274 C 
ENDROOT
BRANCH   1   2
ATOM      2  O   UNL     1       4.340   1.679   2.336  1.00  0.00    -0.461 OA
BRANCH   2   3
ATOM      3  C   UNL     1       3.402   1.011   1.551  1.00  0.00     0.329 C 
ATOM      4  O   UNL     1       2.886   0.015   2.071  1.00  0.00    -0.250 OA
BRANCH   3   5
ATOM      5  C   UNL     1       2.854   1.508   0.126  1.00  0.00     0.196 C 
BRANCH   5   6
ATOM      6  N   UNL     1       3.454   2.251  -1.100  1.00  0.00    -0.338 N 
ATOM      7  C   UNL     1       3.741   3.394  -1.807  1.00  0.00     0.252 C 
ATOM      8  O   UNL     1       4.084   3.176  -2.978  1.00  0.00    -0.269 OA
ATOM      9  H   UNL     1       3.816   1.528  -1.661  1.00  0.00     0.164 HD
BRANCH   7  10
ATOM     10  C   UNL     1       3.805   4.848  -1.411  1.00  0.00     0.044 A 
ATOM     11  C   UNL     1       1.840   4.881   0.151  1.00  0.00     0.045 C 
ATOM     12  C   UNL     1       3.081   5.474  -0.396  1.00  0.00    -0.038 A 
ATOM     13  C   UNL     1       3.362   6.798  -0.008  1.00  0.00     0.005 A 
ATOM     14  C   UNL     1       4.184   7.596  -0.780  1.00  0.00     0.022 A 
ATOM     15  C   UNL     1       4.595   5.705  -2.232  1.00  0.00     0.035 A 
ATOM     16  C   UNL     1       4.704   7.080  -1.964  1.00  0.00     0.083 A 
BRANCH  16  17
ATOM     17  S   UNL     1       5.208   8.316  -3.152  1.00  0.00     0.243 S 
ATOM     18  O   UNL     1       3.997   8.679  -3.862  1.00  0.00    -0.207 OA
ATOM     19  O   UNL     1       5.939   9.317  -2.398  1.00  0.00    -0.207 OA
BRANCH  17  20
ATOM     20  N   UNL     1       6.260   7.644  -4.234  1.00  0.00    -0.198 NA
ATOM     21  C   UNL     1       5.826   6.758  -5.325  1.00  0.00     0.102 C 
ATOM     22  C   UNL     1       7.658   7.372  -3.868  1.00  0.00     0.102 C 
ATOM     23  C   UNL     1       6.941   5.729  -5.432  1.00  0.00     0.018 C 
ATOM     24  C   UNL     1       8.169   6.516  -5.013  1.00  0.00     0.018 C 
ENDBRANCH  17  20
ENDBRANCH  16  17
ENDBRANCH   7  10
ENDBRANCH   5   6
BRANCH   5  25
ATOM     25  C   UNL     1       1.263   1.577   0.110  1.00  0.00     0.070 C 
BRANCH  25  26
ATOM     26  C   UNL     1       0.515   1.736   1.416  1.00  0.00    -0.037 C 
ATOM     27  C   UNL     1       0.080   0.768   2.220  1.00  0.00     0.001 A 
ATOM     28  C   UNL     1       0.159   3.056   2.026  1.00  0.00     0.174 C 
ATOM     29  C   UNL     1       0.070  -0.652   2.174  1.00  0.00     0.010 A 
ATOM     30  C   UNL     1      -0.323   1.488   3.434  1.00  0.00     0.065 A 
ATOM     31  N   UNL     1      -0.411   2.781   3.364  1.00  0.00    -0.280 NA
ATOM     32  C   UNL     1      -0.156  -1.342   3.302  1.00  0.00     0.001 A 
ATOM     33  C   UNL     1      -0.525   0.672   4.649  1.00  0.00     0.028 A 
ATOM     34  C   UNL     1      -0.397  -0.663   4.562  1.00  0.00     0.002 A 
ENDBRANCH  25  26
ENDBRANCH   5  25
ENDBRANCH   3   5
ENDBRANCH   2   3
ENDBRANCH   1   2
BRANCH   1  35
ATOM     35  C   UNL     1       5.400   3.958   4.439  1.00  0.00     0.275 C 
BRANCH  35  36
ATOM     36  O   UNL     1       4.341   3.839   5.414  1.00  0.00    -0.458 OA
BRANCH  36  37
ATOM     37  C   UNL     1       3.186   3.252   5.026  1.00  0.00     0.338 C 
ATOM     38  O   UNL     1       2.204   3.065   5.712  1.00  0.00    -0.246 OA
BRANCH  37  39
ATOM     39  C   UNL     1       3.523   2.586   3.796  1.00  0.00     0.060 A 
ATOM     40  C   UNL     1       3.950   3.538   2.307  1.00  0.00     0.016 A 
ATOM     41  C   UNL     1       4.409   1.094   4.199  1.00  0.00     0.016 A 
ATOM     42  C   UNL     1       5.231   2.909   1.176  1.00  0.00     0.010 A 
ATOM     43  C   UNL     1       5.660   0.493   3.100  1.00  0.00     0.010 A 
ATOM     44  C   UNL     1       6.087   1.355   1.562  1.00  0.00    -0.014 A 
BRANCH  44  45
ATOM     45  C   UNL     1       7.179   0.712   0.786  1.00  0.00     0.031 A 
ATOM     46  C   UNL     1       7.805   1.073  -0.517  1.00  0.00     0.074 A 
ATOM     47  C   UNL     1       7.672  -0.442   1.293  1.00  0.00     0.049 A 
ATOM     48  N   UNL     1       8.628   0.269  -1.124  1.00  0.00    -0.248 NA
ATOM     49  C   UNL     1       7.544   2.270  -1.302  1.00  0.00     0.031 C 
ATOM     50  C   UNL     1       9.070  -0.831   1.398  1.00  0.00     0.029 A 
ATOM     51  N   UNL     1       6.982  -1.498   1.861  1.00  0.00    -0.354 N 
ATOM     52  C   UNL     1       9.201   0.927  -2.183  1.00  0.00     0.074 A 
ATOM     53  C   UNL     1       8.407   2.124  -2.319  1.00  0.00     0.031 C 
ATOM     54  C   UNL     1       9.147  -2.041   1.974  1.00  0.00     0.029 A 
ATOM     55  C   UNL     1       7.805  -2.575   2.145  1.00  0.00     0.049 A 
ATOM     56  H   UNL     1       6.015  -1.486   2.043  1.00  0.00     0.167 HD
ATOM     57  C   UNL     1      10.373   0.458  -2.703  1.00  0.00     0.034 A 
ATOM     58  C   UNL     1       7.415  -3.877   2.203  1.00  0.00     0.034 A 
ATOM     59  C   UNL     1      10.767  -0.837  -2.104  1.00  0.00     0.049 A 
ATOM     60  C   UNL     1       8.152  -4.653   1.139  1.00  0.00     0.074 A 
ATOM     61  C   UNL     1      11.634  -1.167  -1.074  1.00  0.00     0.029 A 
ATOM     62  N   UNL     1      10.085  -2.010  -2.415  1.00  0.00    -0.354 N 
ATOM     63  N   UNL     1       9.163  -4.193   0.461  1.00  0.00    -0.248 NA
ATOM     64  C   UNL     1       7.628  -5.906   0.605  1.00  0.00     0.031 C 
ATOM     65  C   UNL     1      11.485  -2.548  -0.781  1.00  0.00     0.029 A 
ATOM     66  C   UNL     1      10.538  -3.079  -1.639  1.00  0.00     0.049 A 
ATOM     67  H   UNL     1       9.376  -2.077  -3.095  1.00  0.00     0.167 HD
ATOM     68  C   UNL     1       9.206  -4.856  -0.739  1.00  0.00     0.074 A 
ATOM     69  C   UNL     1       8.228  -5.922  -0.591  1.00  0.00     0.031 C 
ATOM     70  C   UNL     1       9.949  -4.413  -1.802  1.00  0.00     0.034 A 
BRANCH  57  71
ATOM     71  C   UNL     1      11.374   1.322  -3.481  1.00  0.00     0.023 A 
ATOM     72  C   UNL     1      12.738   0.947  -3.396  1.00  0.00     0.012 A 
ATOM     73  C   UNL     1      11.120   2.510  -4.206  1.00  0.00     0.148 A 
ATOM     74  C   UNL     1      13.783   1.744  -3.876  1.00  0.00     0.002 A 
ATOM     75  C   UNL     1      12.168   3.326  -4.665  1.00  0.00     0.091 A 
ATOM     76  F   UNL     1       9.865   2.871  -4.487  1.00  0.00    -0.205 F 
ATOM     77  C   UNL     1      13.501   2.952  -4.487  1.00  0.00     0.022 A 
BRANCH  75  78
ATOM     78  S   UNL     1      11.843   4.904  -5.473  1.00  0.00     0.127 S 
ATOM     79  O   UNL     1      11.721   5.814  -4.334  1.00  0.00    -0.237 OA
ATOM     80  O   UNL     1      13.038   5.121  -6.291  1.00  0.00    -0.237 OA
ATOM     81  O   UNL     1      10.626   4.695  -6.247  1.00  0.00    -0.744 OA
ENDBRANCH  75  78
ENDBRANCH  57  71
BRANCH  58  82
ATOM     82  C   UNL     1       5.951  -4.036   2.477  1.00  0.00     0.023 A 
ATOM     83  C   UNL     1       5.456  -3.648   3.743  1.00  0.00     0.012 A 
ATOM     84  C   UNL     1       5.079  -4.051   1.383  1.00  0.00     0.148 A 
ATOM     85  C   UNL     1       4.159  -3.136   3.864  1.00  0.00     0.002 A 
ATOM     86  C   UNL     1       3.846  -3.436   1.487  1.00  0.00     0.091 A 
ATOM     87  F   UNL     1       5.531  -4.439   0.187  1.00  0.00    -0.205 F 
ATOM     88  C   UNL     1       3.371  -2.983   2.722  1.00  0.00     0.022 A 
BRANCH  86  89
ATOM     89  S   UNL     1       3.142  -2.842  -0.054  1.00  0.00     0.127 S 
ATOM     90  O   UNL     1       1.757  -2.546   0.290  1.00  0.00    -0.237 OA
ATOM     91  O   UNL     1       3.988  -1.678  -0.312  1.00  0.00    -0.237 OA
ATOM     92  O   UNL     1       3.284  -3.967  -0.970  1.00  0.00    -0.744 OA
ENDBRANCH  86  89
ENDBRANCH  58  82
BRANCH  70  93
ATOM     93  C   UNL     1      10.152  -5.218  -3.079  1.00  0.00     0.023 A 
ATOM     94  C   UNL     1       9.787  -6.578  -3.176  1.00  0.00     0.012 A 
ATOM     95  C   UNL     1      10.828  -4.686  -4.204  1.00  0.00     0.148 A 
ATOM     96  C   UNL     1       9.911  -7.320  -4.352  1.00  0.00     0.002 A 
ATOM     97  C   UNL     1      11.015  -5.446  -5.358  1.00  0.00     0.091 A 
ATOM     98  F   UNL     1      11.361  -3.461  -4.141  1.00  0.00    -0.205 F 
ATOM     99  C   UNL     1      10.516  -6.747  -5.452  1.00  0.00     0.022 A 
BRANCH  97 100
ATOM    100  S   UNL     1      11.973  -4.854  -6.758  1.00  0.00     0.127 S 
ATOM    101  O   UNL     1      13.180  -5.673  -6.647  1.00  0.00    -0.237 OA
ATOM    102  O   UNL     1      11.106  -5.198  -7.886  1.00  0.00    -0.237 OA
ATOM    103  O   UNL     1      12.163  -3.428  -6.547  1.00  0.00    -0.744 OA
ENDBRANCH  97 100
ENDBRANCH  70  93
ENDBRANCH  44  45
ENDBRANCH  37  39
ENDBRANCH  36  37
ENDBRANCH  35  36
ENDBRANCH   1  35
TORSDOF 20
