REMARK SMILES O=C(OCCOC(=O)c1ccc2c(c1)[C@@H](C1CCOCC1)C(=O)N2)c1ccc(-c2c3nc(c(-c4cccc(S(=O)(=O)[O-])c4F)c4ccc([nH]4)c(-c4cccc(S(=O)(=O)[O-])c4F)c4nc(c(-c5cccc(S(=O)(=O)[O-])c5F)c5ccc2[nH]5)C=C4)C=C3)cc1
REMARK SMILES IDX 4 1 3 2 2 3 1 4 25 5 26 6 87 7 27 8 86 9 28 10 29 11 30 12
REMARK SMILES IDX 80 13 31 14 85 15 79 16 81 17 32 18 84 19 78 20 77 21 33 23
REMARK SMILES IDX 65 24 45 25 64 26 46 27 49 28 63 29 82 30 47 31 48 32 62 34
REMARK SMILES IDX 83 35 50 36 34 37 35 38 43 39 36 40 38 41 44 42 37 43 39 44
REMARK SMILES IDX 40 45 41 46 42 47 66 48 67 49 75 50 68 51 70 52 76 53 69 54
REMARK SMILES IDX 71 55 72 56 73 57 74 58 51 59 52 60 60 61 53 62 55 63 61 64
REMARK SMILES IDX 54 65 56 66 57 67 58 68 59 69 5 70 6 71 7 72 8 73 9 74 10 75
REMARK SMILES IDX 14 76 11 77 13 78 12 79 15 80 24 81 22 82 23 84 16 85 17 86
REMARK SMILES IDX 21 87 18 88 20 89 19 90
REMARK H PARENT 81 22 49 33 24 83
REMARK Flexibility Score: inf
ROOT
ATOM      1  C   UNL     1       4.169  -1.433   0.585  1.00  0.00     0.275 C 
ENDROOT
BRANCH   1   2
ATOM      2  O   UNL     1       3.394  -0.335   1.082  1.00  0.00    -0.458 OA
BRANCH   2   3
ATOM      3  C   UNL     1       3.390   0.945   0.645  1.00  0.00     0.338 C 
ATOM      4  O   UNL     1       2.677   1.771   1.212  1.00  0.00    -0.246 OA
BRANCH   3   5
ATOM      5  C   UNL     1       4.098   1.365  -0.601  1.00  0.00     0.060 A 
ATOM      6  C   UNL     1       5.366   0.962  -1.044  1.00  0.00     0.016 A 
ATOM      7  C   UNL     1       3.382   2.251  -1.400  1.00  0.00     0.016 A 
ATOM      8  C   UNL     1       5.880   1.397  -2.283  1.00  0.00     0.010 A 
ATOM      9  C   UNL     1       3.847   2.591  -2.664  1.00  0.00     0.010 A 
ATOM     10  C   UNL     1       5.120   2.234  -3.091  1.00  0.00    -0.014 A 
BRANCH  10  11
ATOM     11  C   UNL     1       5.623   3.008  -4.248  1.00  0.00     0.031 A 
ATOM     12  C   UNL     1       5.958   4.459  -4.008  1.00  0.00     0.074 A 
ATOM     13  C   UNL     1       5.503   2.538  -5.503  1.00  0.00     0.049 A 
ATOM     14  N   UNL     1       6.304   5.382  -4.863  1.00  0.00    -0.248 NA
ATOM     15  C   UNL     1       5.853   4.941  -2.616  1.00  0.00     0.031 C 
ATOM     16  C   UNL     1       5.054   1.196  -5.862  1.00  0.00     0.029 A 
ATOM     17  N   UNL     1       5.657   3.175  -6.709  1.00  0.00    -0.354 N 
ATOM     18  C   UNL     1       6.481   6.539  -4.113  1.00  0.00     0.074 A 
ATOM     19  C   UNL     1       6.110   6.231  -2.752  1.00  0.00     0.031 C 
ATOM     20  C   UNL     1       4.870   1.139  -7.194  1.00  0.00     0.029 A 
ATOM     21  C   UNL     1       5.213   2.433  -7.778  1.00  0.00     0.049 A 
ATOM     22  H   UNL     1       6.046   4.075  -6.799  1.00  0.00     0.167 HD
ATOM     23  C   UNL     1       6.969   7.737  -4.511  1.00  0.00     0.034 A 
ATOM     24  C   UNL     1       5.089   2.768  -9.078  1.00  0.00     0.034 A 
ATOM     25  C   UNL     1       7.298   8.027  -5.876  1.00  0.00     0.049 A 
ATOM     26  C   UNL     1       5.616   4.103  -9.531  1.00  0.00     0.074 A 
ATOM     27  C   UNL     1       7.933   9.136  -6.399  1.00  0.00     0.029 A 
ATOM     28  N   UNL     1       6.968   7.206  -6.944  1.00  0.00    -0.354 N 
ATOM     29  N   UNL     1       6.065   5.096  -8.802  1.00  0.00    -0.248 NA
ATOM     30  C   UNL     1       5.707   4.333 -10.980  1.00  0.00     0.031 C 
ATOM     31  C   UNL     1       7.949   9.003  -7.793  1.00  0.00     0.029 A 
ATOM     32  C   UNL     1       7.366   7.789  -8.130  1.00  0.00     0.049 A 
ATOM     33  H   UNL     1       6.515   6.335  -6.868  1.00  0.00     0.167 HD
ATOM     34  C   UNL     1       6.565   6.034  -9.697  1.00  0.00     0.074 A 
ATOM     35  C   UNL     1       6.337   5.502 -11.026  1.00  0.00     0.031 C 
ATOM     36  C   UNL     1       7.180   7.215  -9.439  1.00  0.00     0.034 A 
BRANCH  23  37
ATOM     37  C   UNL     1       7.231   8.766  -3.442  1.00  0.00     0.023 A 
ATOM     38  C   UNL     1       8.216   8.507  -2.463  1.00  0.00     0.012 A 
ATOM     39  C   UNL     1       6.524   9.981  -3.397  1.00  0.00     0.148 A 
ATOM     40  C   UNL     1       8.444   9.402  -1.420  1.00  0.00     0.002 A 
ATOM     41  C   UNL     1       6.793  10.894  -2.383  1.00  0.00     0.091 A 
ATOM     42  F   UNL     1       5.583  10.211  -4.324  1.00  0.00    -0.205 F 
ATOM     43  C   UNL     1       7.736  10.598  -1.383  1.00  0.00     0.022 A 
BRANCH  41  44
ATOM     44  S   UNL     1       6.005  12.505  -2.293  1.00  0.00     0.127 S 
ATOM     45  O   UNL     1       5.110  12.333  -1.150  1.00  0.00    -0.237 OA
ATOM     46  O   UNL     1       7.144  13.390  -2.045  1.00  0.00    -0.237 OA
ATOM     47  O   UNL     1       5.354  12.705  -3.580  1.00  0.00    -0.744 OA
ENDBRANCH  41  44
ENDBRANCH  23  37
BRANCH  24  48
ATOM     48  C   UNL     1       4.531   1.780 -10.041  1.00  0.00     0.023 A 
ATOM     49  C   UNL     1       5.397   1.063 -10.888  1.00  0.00     0.012 A 
ATOM     50  C   UNL     1       3.151   1.499 -10.068  1.00  0.00     0.148 A 
ATOM     51  C   UNL     1       4.896   0.100 -11.766  1.00  0.00     0.002 A 
ATOM     52  C   UNL     1       2.663   0.515 -10.922  1.00  0.00     0.091 A 
ATOM     53  F   UNL     1       2.350   2.178  -9.233  1.00  0.00    -0.205 F 
ATOM     54  C   UNL     1       3.532  -0.178 -11.780  1.00  0.00     0.022 A 
BRANCH  52  55
ATOM     55  S   UNL     1       0.939   0.010 -10.934  1.00  0.00     0.127 S 
ATOM     56  O   UNL     1       0.536   0.353 -12.296  1.00  0.00    -0.237 OA
ATOM     57  O   UNL     1       1.050  -1.423 -10.665  1.00  0.00    -0.237 OA
ATOM     58  O   UNL     1       0.300   0.779  -9.875  1.00  0.00    -0.744 OA
ENDBRANCH  52  55
ENDBRANCH  24  48
BRANCH  36  59
ATOM     59  C   UNL     1       7.739   7.994 -10.597  1.00  0.00     0.023 A 
ATOM     60  C   UNL     1       6.885   8.718 -11.448  1.00  0.00     0.012 A 
ATOM     61  C   UNL     1       9.137   8.119 -10.739  1.00  0.00     0.148 A 
ATOM     62  C   UNL     1       7.416   9.551 -12.433  1.00  0.00     0.002 A 
ATOM     63  C   UNL     1       9.657   8.993 -11.683  1.00  0.00     0.091 A 
ATOM     64  F   UNL     1       9.927   7.402  -9.926  1.00  0.00    -0.205 F 
ATOM     65  C   UNL     1       8.799   9.703 -12.538  1.00  0.00     0.022 A 
BRANCH  63  66
ATOM     66  S   UNL     1      11.415   9.338 -11.809  1.00  0.00     0.127 S 
ATOM     67  O   UNL     1      11.735   8.775 -13.120  1.00  0.00    -0.237 OA
ATOM     68  O   UNL     1      11.447  10.799 -11.748  1.00  0.00    -0.237 OA
ATOM     69  O   UNL     1      12.043   8.668 -10.679  1.00  0.00    -0.744 OA
ENDBRANCH  63  66
ENDBRANCH  36  59
ENDBRANCH  10  11
ENDBRANCH   3   5
ENDBRANCH   2   3
ENDBRANCH   1   2
BRANCH   1  70
ATOM     70  C   UNL     1       3.631  -2.115  -0.676  1.00  0.00     0.275 C 
BRANCH  70  71
ATOM     71  O   UNL     1       3.157  -1.222  -1.698  1.00  0.00    -0.458 OA
BRANCH  71  72
ATOM     72  C   UNL     1       1.811  -0.985  -1.718  1.00  0.00     0.338 C 
ATOM     73  O   UNL     1       0.992  -1.422  -0.941  1.00  0.00    -0.246 OA
BRANCH  72  74
ATOM     74  C   UNL     1       1.503  -0.022  -2.814  1.00  0.00     0.060 A 
ATOM     75  C   UNL     1       1.986  -0.284  -4.111  1.00  0.00     0.018 A 
ATOM     76  C   UNL     1       0.776   1.163  -2.534  1.00  0.00     0.022 A 
ATOM     77  C   UNL     1       1.770   0.637  -5.135  1.00  0.00     0.027 A 
ATOM     78  C   UNL     1       0.667   2.131  -3.533  1.00  0.00    -0.011 A 
ATOM     79  C   UNL     1       1.141   1.826  -4.813  1.00  0.00     0.045 A 
ATOM     80  C   UNL     1       0.009   3.506  -3.573  1.00  0.00     0.114 C 
ATOM     81  N   UNL     1       0.877   2.864  -5.686  1.00  0.00    -0.325 N 
ATOM     82  C   UNL     1       0.206   3.901  -5.062  1.00  0.00     0.232 C 
ATOM     83  H   UNL     1       1.135   2.865  -6.636  1.00  0.00     0.169 HD
ATOM     84  O   UNL     1      -0.189   4.919  -5.604  1.00  0.00    -0.274 OA
BRANCH  80  85
ATOM     85  C   UNL     1       0.396   4.661  -2.581  1.00  0.00     0.010 C 
ATOM     86  C   UNL     1      -0.749   5.704  -2.546  1.00  0.00     0.033 C 
ATOM     87  C   UNL     1       1.706   5.438  -2.849  1.00  0.00     0.033 C 
ATOM     88  C   UNL     1      -0.441   6.886  -1.635  1.00  0.00     0.160 C 
ATOM     89  C   UNL     1       1.881   6.658  -1.942  1.00  0.00     0.160 C 
ATOM     90  O   UNL     1       0.763   7.527  -2.026  1.00  0.00    -0.381 OA
ENDBRANCH  80  85
ENDBRANCH  72  74
ENDBRANCH  71  72
ENDBRANCH  70  71
ENDBRANCH   1  70
TORSDOF 15
