REMARK SMILES COc1ccc(-c2ccc(/C=C3\SC(=S)N([C@H](Cc4ccccc4)C(=O)OCCOC(=O)c4ccc(-c5c6nc(c(-c7cccc(S(=O)(=O)[O-])c7F)c7ccc([nH]7)c(-c7cccc(S(=O)(=O)[O-])c7F)c7nc(c(-c8cccc(S(=O)(=O)[O-])c8F)c8ccc5[nH]8)C=C7)C=C6)cc4)C3=O)o2)cc1
REMARK SMILES IDX 28 1 27 2 25 3 26 4 17 5 16 6 11 7 12 8 13 9 96 10 14 11
REMARK SMILES IDX 97 12 15 13 10 14 7 15 8 16 98 17 9 18 6 19 3 20 4 21 100 22
REMARK SMILES IDX 5 23 99 24 2 25 1 26 18 27 19 28 20 29 24 30 21 31 23 32
REMARK SMILES IDX 22 33 29 34 30 35 31 36 32 37 33 38 34 39 95 40 35 41 94 42
REMARK SMILES IDX 36 43 37 44 38 45 88 46 39 47 93 48 87 49 89 50 40 51 92 52
REMARK SMILES IDX 86 53 85 54 41 56 73 57 53 58 72 59 54 60 57 61 71 62 90 63
REMARK SMILES IDX 55 64 56 65 70 67 91 68 58 69 42 70 43 71 51 72 44 73 46 74
REMARK SMILES IDX 52 75 45 76 47 77 48 78 49 79 50 80 74 81 75 82 83 83 76 84
REMARK SMILES IDX 78 85 84 86 77 87 79 88 80 89 81 90 82 91 59 92 60 93 68 94
REMARK SMILES IDX 61 95 63 96 69 97 62 98 64 99 65 100 66 101 67 102
REMARK H PARENT 89 55 57 66
REMARK Flexibility Score: inf
ROOT
ATOM      1  C   UNL     1       4.792  10.205 -10.509  1.00  0.00     0.274 C 
ENDROOT
BRANCH   1   2
ATOM      2  O   UNL     1       3.631   9.354 -10.567  1.00  0.00    -0.461 OA
BRANCH   2   3
ATOM      3  C   UNL     1       2.434   9.944 -10.814  1.00  0.00     0.329 C 
ATOM      4  O   UNL     1       2.278  11.158 -10.862  1.00  0.00    -0.250 OA
BRANCH   3   5
ATOM      5  C   UNL     1       1.319   8.903 -11.090  1.00  0.00     0.206 C 
BRANCH   5   6
ATOM      6  N   UNL     1       0.006   9.598 -11.009  1.00  0.00    -0.278 N 
ATOM      7  C   UNL     1      -2.522  10.421  -8.704  1.00  0.00     0.068 C 
ATOM      8  C   UNL     1      -1.871  10.366  -9.869  1.00  0.00     0.084 C 
ATOM      9  S   UNL     1      -1.809  11.435 -11.201  1.00  0.00    -0.054 SA
ATOM     10  C   UNL     1      -0.988   9.222 -10.147  1.00  0.00     0.267 C 
ATOM     11  C   UNL     1      -0.426  10.569 -11.898  1.00  0.00     0.149 C 
ATOM     12  O   UNL     1      -1.301   8.084  -9.828  1.00  0.00    -0.268 OA
ATOM     13  S   UNL     1       0.158  10.914 -13.422  1.00  0.00    -0.052 S 
BRANCH   7  14
ATOM     14  C   UNL     1      -3.487  11.403  -8.382  1.00  0.00     0.128 A 
ATOM     15  C   UNL     1      -4.589  12.909  -7.190  1.00  0.00     0.134 A 
ATOM     16  C   UNL     1      -5.357  12.673  -8.305  1.00  0.00     0.051 A 
ATOM     17  O   UNL     1      -3.464  12.144  -7.220  1.00  0.00    -0.457 OA
ATOM     18  C   UNL     1      -4.648  11.727  -9.072  1.00  0.00     0.051 A 
BRANCH  15  19
ATOM     19  C   UNL     1      -4.785  13.745  -6.024  1.00  0.00     0.017 A 
ATOM     20  C   UNL     1      -5.333  15.457  -3.866  1.00  0.00     0.118 A 
ATOM     21  C   UNL     1      -4.302  15.753  -4.761  1.00  0.00     0.047 A 
ATOM     22  C   UNL     1      -6.094  14.303  -4.053  1.00  0.00     0.047 A 
ATOM     23  C   UNL     1      -4.016  14.895  -5.827  1.00  0.00     0.016 A 
ATOM     24  C   UNL     1      -5.821  13.453  -5.129  1.00  0.00     0.016 A 
BRANCH  20  25
ATOM     25  O   UNL     1      -5.542  16.384  -2.882  1.00  0.00    -0.497 OA
ATOM     26  C   UNL     1      -6.107  15.879  -1.677  1.00  0.00     0.278 C 
ENDBRANCH  20  25
ENDBRANCH  15  19
ENDBRANCH   7  14
ENDBRANCH   5   6
BRANCH   5  27
ATOM     27  C   UNL     1       1.528   7.617 -10.239  1.00  0.00     0.073 C 
BRANCH  27  28
ATOM     28  C   UNL     1       1.226   7.664  -8.751  1.00  0.00    -0.045 A 
ATOM     29  C   UNL     1       0.513   6.589  -8.191  1.00  0.00     0.004 A 
ATOM     30  C   UNL     1       1.544   8.752  -7.930  1.00  0.00     0.004 A 
ATOM     31  C   UNL     1       0.027   6.654  -6.886  1.00  0.00     0.000 A 
ATOM     32  C   UNL     1       1.065   8.811  -6.619  1.00  0.00     0.000 A 
ATOM     33  C   UNL     1       0.289   7.774  -6.106  1.00  0.00     0.000 A 
ENDBRANCH  27  28
ENDBRANCH   5  27
ENDBRANCH   3   5
ENDBRANCH   2   3
ENDBRANCH   1   2
BRANCH   1  34
ATOM     34  C   UNL     1       5.965   9.491 -11.182  1.00  0.00     0.275 C 
BRANCH  34  35
ATOM     35  O   UNL     1       5.665   9.226 -12.566  1.00  0.00    -0.458 OA
BRANCH  35  36
ATOM     36  C   UNL     1       5.054   8.045 -12.802  1.00  0.00     0.338 C 
ATOM     37  O   UNL     1       4.776   7.169 -11.988  1.00  0.00    -0.246 OA
BRANCH  36  38
ATOM     38  C   UNL     1       4.614   7.989 -14.196  1.00  0.00     0.060 A 
ATOM     39  C   UNL     1       3.265   8.213 -14.470  1.00  0.00     0.016 A 
ATOM     40  C   UNL     1       5.494   7.626 -15.211  1.00  0.00     0.016 A 
ATOM     41  C   UNL     1       2.769   8.040 -15.754  1.00  0.00     0.010 A 
ATOM     42  C   UNL     1       5.005   7.494 -16.512  1.00  0.00     0.010 A 
ATOM     43  C   UNL     1       3.639   7.685 -16.789  1.00  0.00    -0.014 A 
BRANCH  43  44
ATOM     44  C   UNL     1       3.126   7.524 -18.168  1.00  0.00     0.031 A 
ATOM     45  C   UNL     1       3.135   6.171 -18.816  1.00  0.00     0.074 A 
ATOM     46  C   UNL     1       2.697   8.606 -18.843  1.00  0.00     0.049 A 
ATOM     47  N   UNL     1       2.891   5.852 -20.059  1.00  0.00    -0.248 NA
ATOM     48  C   UNL     1       3.470   5.025 -17.954  1.00  0.00     0.031 C 
ATOM     49  C   UNL     1       2.615   9.964 -18.299  1.00  0.00     0.029 A 
ATOM     50  N   UNL     1       2.276   8.741 -20.141  1.00  0.00    -0.354 N 
ATOM     51  C   UNL     1       3.100   4.482 -20.146  1.00  0.00     0.074 A 
ATOM     52  C   UNL     1       3.476   4.025 -18.826  1.00  0.00     0.031 C 
ATOM     53  C   UNL     1       2.188  10.796 -19.260  1.00  0.00     0.029 A 
ATOM     54  C   UNL     1       2.025  10.045 -20.499  1.00  0.00     0.049 A 
ATOM     55  H   UNL     1       2.164   7.980 -20.755  1.00  0.00     0.167 HD
ATOM     56  C   UNL     1       2.981   3.682 -21.231  1.00  0.00     0.034 A 
ATOM     57  C   UNL     1       1.741  10.580 -21.702  1.00  0.00     0.034 A 
ATOM     58  C   UNL     1       2.553   4.141 -22.524  1.00  0.00     0.049 A 
ATOM     59  C   UNL     1       1.653   9.673 -22.896  1.00  0.00     0.074 A 
ATOM     60  C   UNL     1       2.330   3.400 -23.671  1.00  0.00     0.029 A 
ATOM     61  N   UNL     1       2.287   5.464 -22.845  1.00  0.00    -0.354 N 
ATOM     62  N   UNL     1       1.766   8.367 -22.948  1.00  0.00    -0.248 NA
ATOM     63  C   UNL     1       1.392  10.308 -24.195  1.00  0.00     0.031 C 
ATOM     64  C   UNL     1       1.948   4.279 -24.690  1.00  0.00     0.029 A 
ATOM     65  C   UNL     1       1.923   5.566 -24.176  1.00  0.00     0.049 A 
ATOM     66  H   UNL     1       2.348   6.220 -22.217  1.00  0.00     0.167 HD
ATOM     67  C   UNL     1       1.571   8.021 -24.279  1.00  0.00     0.074 A 
ATOM     68  C   UNL     1       1.310   9.254 -24.996  1.00  0.00     0.031 C 
ATOM     69  C   UNL     1       1.623   6.797 -24.860  1.00  0.00     0.034 A 
BRANCH  56  70
ATOM     70  C   UNL     1       3.300   2.222 -21.063  1.00  0.00     0.023 A 
ATOM     71  C   UNL     1       2.373   1.374 -20.426  1.00  0.00     0.012 A 
ATOM     72  C   UNL     1       4.491   1.680 -21.584  1.00  0.00     0.148 A 
ATOM     73  C   UNL     1       2.637   0.011 -20.289  1.00  0.00     0.002 A 
ATOM     74  C   UNL     1       4.733   0.315 -21.473  1.00  0.00     0.091 A 
ATOM     75  F   UNL     1       5.373   2.509 -22.160  1.00  0.00    -0.205 F 
ATOM     76  C   UNL     1       3.811  -0.519 -20.821  1.00  0.00     0.022 A 
BRANCH  74  77
ATOM     77  S   UNL     1       6.188  -0.463 -22.182  1.00  0.00     0.127 S 
ATOM     78  O   UNL     1       7.014  -0.682 -20.995  1.00  0.00    -0.237 OA
ATOM     79  O   UNL     1       5.634  -1.683 -22.771  1.00  0.00    -0.237 OA
ATOM     80  O   UNL     1       6.715   0.488 -23.150  1.00  0.00    -0.744 OA
ENDBRANCH  74  77
ENDBRANCH  56  70
BRANCH  57  81
ATOM     81  C   UNL     1       1.507  12.046 -21.822  1.00  0.00     0.023 A 
ATOM     82  C   UNL     1       0.206  12.513 -22.088  1.00  0.00     0.012 A 
ATOM     83  C   UNL     1       2.545  12.978 -21.625  1.00  0.00     0.148 A 
ATOM     84  C   UNL     1      -0.055  13.881 -22.169  1.00  0.00     0.002 A 
ATOM     85  C   UNL     1       2.268  14.340 -21.654  1.00  0.00     0.091 A 
ATOM     86  F   UNL     1       3.782  12.514 -21.397  1.00  0.00    -0.205 F 
ATOM     87  C   UNL     1       0.972  14.794 -21.938  1.00  0.00     0.022 A 
BRANCH  85  88
ATOM     88  S   UNL     1       3.506  15.576 -21.240  1.00  0.00     0.127 S 
ATOM     89  O   UNL     1       3.857  16.101 -22.557  1.00  0.00    -0.237 OA
ATOM     90  O   UNL     1       2.749  16.497 -20.392  1.00  0.00    -0.237 OA
ATOM     91  O   UNL     1       4.559  14.851 -20.541  1.00  0.00    -0.744 OA
ENDBRANCH  85  88
ENDBRANCH  57  81
BRANCH  69  92
ATOM     92  C   UNL     1       1.386   6.723 -26.343  1.00  0.00     0.023 A 
ATOM     93  C   UNL     1       2.410   7.119 -27.226  1.00  0.00     0.012 A 
ATOM     94  C   UNL     1       0.192   6.184 -26.860  1.00  0.00     0.148 A 
ATOM     95  C   UNL     1       2.242   6.996 -28.604  1.00  0.00     0.002 A 
ATOM     96  C   UNL     1       0.048   6.025 -28.233  1.00  0.00     0.091 A 
ATOM     97  F   UNL     1      -0.776   5.833 -26.000  1.00  0.00    -0.205 F 
ATOM     98  C   UNL     1       1.068   6.438 -29.106  1.00  0.00     0.022 A 
BRANCH  96  99
ATOM     99  S   UNL     1      -1.390   5.235 -28.965  1.00  0.00     0.127 S 
ATOM    100  O   UNL     1      -2.082   6.374 -29.565  1.00  0.00    -0.237 OA
ATOM    101  O   UNL     1      -0.783   4.314 -29.926  1.00  0.00    -0.237 OA
ATOM    102  O   UNL     1      -2.091   4.584 -27.866  1.00  0.00    -0.744 OA
ENDBRANCH  96  99
ENDBRANCH  69  92
ENDBRANCH  43  44
ENDBRANCH  36  38
ENDBRANCH  35  36
ENDBRANCH  34  35
ENDBRANCH   1  34
TORSDOF 20
