REMARK SMILES C[C@@H]1[C@@H](C(=O)OCCOC(=O)c2ccc(-c3c4nc(c(-c5cccc(S(=O)(=O)[O-])c5F)c5ccc([nH]5)c(-c5cccc(S(=O)(=O)[O-])c5F)c5nc(c(-c6cccc(S(=O)(=O)[O-])c6F)c6ccc3[nH]6)C=C5)C=C4)cc2)CCN1C(=O)[C@@H]1C[C@@H]2CCCC[C@@H]2[NH2+]1
REMARK SMILES IDX 8 1 7 2 6 3 4 4 5 5 3 6 1 7 2 8 77 9 75 10 76 11 78 12 79 13
REMARK SMILES IDX 80 14 81 15 88 16 82 17 87 18 83 21 86 22 84 23 85 24 9 25
REMARK SMILES IDX 10 26 11 27 12 28 13 29 74 30 14 31 73 32 15 33 16 34 17 35
REMARK SMILES IDX 67 36 18 37 72 38 66 39 68 40 19 41 71 42 65 43 64 44 20 46
REMARK SMILES IDX 52 47 32 48 51 49 33 50 36 51 50 52 69 53 34 54 35 55 49 57
REMARK SMILES IDX 70 58 37 59 21 60 22 61 30 62 23 63 25 64 31 65 24 66 26 67
REMARK SMILES IDX 27 68 28 69 29 70 53 71 54 72 62 73 55 74 57 75 63 76 56 77
REMARK SMILES IDX 58 78 59 79 60 80 61 81 38 82 39 83 47 84 40 85 42 86 48 87
REMARK SMILES IDX 41 88 43 89 44 90 45 91 46 92
REMARK H PARENT 88 19 88 20 68 45 36 56
REMARK Flexibility Score: inf
ROOT
ATOM      1  C   UNL     1      -1.163   3.003  -4.168  1.00  0.00     0.275 C 
ENDROOT
BRANCH   1   2
ATOM      2  C   UNL     1      -2.032   1.980  -3.427  1.00  0.00     0.274 C 
BRANCH   2   3
ATOM      3  O   UNL     1      -1.704   1.904  -2.026  1.00  0.00    -0.462 OA
BRANCH   3   4
ATOM      4  C   UNL     1      -0.869   0.893  -1.650  1.00  0.00     0.311 C 
ATOM      5  O   UNL     1      -0.387   0.070  -2.414  1.00  0.00    -0.252 OA
BRANCH   4   6
ATOM      6  C   UNL     1      -0.584   0.977  -0.158  1.00  0.00     0.123 C 
ATOM      7  C   UNL     1       1.117   0.312   1.570  1.00  0.00     0.032 C 
ATOM      8  C   UNL     1       0.330  -0.165   0.342  1.00  0.00     0.096 C 
ATOM      9  N   UNL     1      -0.592  -1.274   0.641  1.00  0.00    -0.334 N 
ATOM     10  C   UNL     1      -1.849   0.747   0.661  1.00  0.00     0.039 C 
ATOM     11  C   UNL     1      -1.960  -0.771   0.682  1.00  0.00     0.121 C 
BRANCH   9  12
ATOM     12  C   UNL     1      -0.418  -2.643   0.447  1.00  0.00     0.281 C 
ATOM     13  O   UNL     1      -1.415  -3.333   0.173  1.00  0.00    -0.268 OA
BRANCH  12  14
ATOM     14  C   UNL     1       0.936  -3.388   0.721  1.00  0.00     0.273 C 
ATOM     15  C   UNL     1       2.261  -2.713   0.469  1.00  0.00     0.085 C 
ATOM     16  N   UNL     1       1.018  -4.662  -0.098  1.00  0.00    -0.333 N 
ATOM     17  C   UNL     1       2.641  -3.152  -0.921  1.00  0.00     0.054 C 
ATOM     18  C   UNL     1       2.287  -4.630  -0.871  1.00  0.00     0.186 C 
ATOM     19  H   UNL     1       0.225  -4.715  -0.737  1.00  0.00     0.347 HD
ATOM     20  H   UNL     1       0.997  -5.479   0.513  1.00  0.00     0.347 HD
ATOM     21  C   UNL     1       1.844  -2.493  -2.049  1.00  0.00     0.010 C 
ATOM     22  C   UNL     1       2.231  -5.267  -2.272  1.00  0.00     0.065 C 
ATOM     23  C   UNL     1       2.382  -2.981  -3.379  1.00  0.00     0.001 C 
ATOM     24  C   UNL     1       2.944  -4.403  -3.316  1.00  0.00     0.006 C 
ENDBRANCH  12  14
ENDBRANCH   9  12
ENDBRANCH   4   6
ENDBRANCH   3   4
ENDBRANCH   2   3
ENDBRANCH   1   2
BRANCH   1  25
ATOM     25  O   UNL     1       0.177   2.523  -4.386  1.00  0.00    -0.458 OA
BRANCH  25  26
ATOM     26  C   UNL     1       1.059   2.788  -3.392  1.00  0.00     0.338 C 
ATOM     27  O   UNL     1       0.841   3.421  -2.373  1.00  0.00    -0.246 OA
BRANCH  26  28
ATOM     28  C   UNL     1       2.320   2.054  -3.630  1.00  0.00     0.060 A 
ATOM     29  C   UNL     1       2.845   1.318  -2.564  1.00  0.00     0.016 A 
ATOM     30  C   UNL     1       2.999   2.103  -4.851  1.00  0.00     0.016 A 
ATOM     31  C   UNL     1       4.035   0.609  -2.723  1.00  0.00     0.010 A 
ATOM     32  C   UNL     1       4.210   1.413  -5.000  1.00  0.00     0.010 A 
ATOM     33  C   UNL     1       4.734   0.659  -3.938  1.00  0.00    -0.014 A 
BRANCH  33  34
ATOM     34  C   UNL     1       6.048  -0.026  -4.032  1.00  0.00     0.031 A 
ATOM     35  C   UNL     1       7.273   0.669  -3.530  1.00  0.00     0.074 A 
ATOM     36  C   UNL     1       6.147  -1.277  -4.519  1.00  0.00     0.049 A 
ATOM     37  N   UNL     1       8.489   0.208  -3.422  1.00  0.00    -0.248 NA
ATOM     38  C   UNL     1       7.122   2.085  -3.159  1.00  0.00     0.031 C 
ATOM     39  C   UNL     1       5.061  -2.004  -5.155  1.00  0.00     0.029 A 
ATOM     40  N   UNL     1       7.183  -2.181  -4.503  1.00  0.00    -0.354 N 
ATOM     41  C   UNL     1       9.273   1.301  -3.085  1.00  0.00     0.074 A 
ATOM     42  C   UNL     1       8.380   2.429  -2.921  1.00  0.00     0.031 C 
ATOM     43  C   UNL     1       5.421  -3.289  -5.305  1.00  0.00     0.029 A 
ATOM     44  C   UNL     1       6.791  -3.462  -4.843  1.00  0.00     0.049 A 
ATOM     45  H   UNL     1       8.109  -1.941  -4.272  1.00  0.00     0.167 HD
ATOM     46  C   UNL     1      10.621   1.363  -2.985  1.00  0.00     0.034 A 
ATOM     47  C   UNL     1       7.458  -4.632  -4.753  1.00  0.00     0.034 A 
ATOM     48  C   UNL     1      11.495   0.234  -3.160  1.00  0.00     0.049 A 
ATOM     49  C   UNL     1       8.926  -4.579  -4.420  1.00  0.00     0.074 A 
ATOM     50  C   UNL     1      12.878   0.201  -3.118  1.00  0.00     0.029 A 
ATOM     51  N   UNL     1      11.073  -1.062  -3.414  1.00  0.00    -0.354 N 
ATOM     52  N   UNL     1       9.651  -3.552  -4.048  1.00  0.00    -0.248 NA
ATOM     53  C   UNL     1       9.683  -5.834  -4.548  1.00  0.00     0.031 C 
ATOM     54  C   UNL     1      13.292  -1.113  -3.362  1.00  0.00     0.029 A 
ATOM     55  C   UNL     1      12.166  -1.905  -3.520  1.00  0.00     0.049 A 
ATOM     56  H   UNL     1      10.134  -1.342  -3.507  1.00  0.00     0.167 HD
ATOM     57  C   UNL     1      10.953  -4.023  -3.950  1.00  0.00     0.074 A 
ATOM     58  C   UNL     1      10.904  -5.449  -4.202  1.00  0.00     0.031 C 
ATOM     59  C   UNL     1      12.097  -3.326  -3.742  1.00  0.00     0.034 A 
BRANCH  46  60
ATOM     60  C   UNL     1      11.229   2.714  -2.735  1.00  0.00     0.023 A 
ATOM     61  C   UNL     1      11.131   3.312  -1.464  1.00  0.00     0.012 A 
ATOM     62  C   UNL     1      11.919   3.382  -3.766  1.00  0.00     0.148 A 
ATOM     63  C   UNL     1      11.683   4.571  -1.232  1.00  0.00     0.002 A 
ATOM     64  C   UNL     1      12.507   4.614  -3.514  1.00  0.00     0.091 A 
ATOM     65  F   UNL     1      11.975   2.807  -4.976  1.00  0.00    -0.205 F 
ATOM     66  C   UNL     1      12.379   5.216  -2.252  1.00  0.00     0.022 A 
BRANCH  64  67
ATOM     67  S   UNL     1      13.485   5.489  -4.740  1.00  0.00     0.127 S 
ATOM     68  O   UNL     1      12.635   6.644  -5.026  1.00  0.00    -0.237 OA
ATOM     69  O   UNL     1      14.704   5.799  -3.992  1.00  0.00    -0.237 OA
ATOM     70  O   UNL     1      13.669   4.562  -5.847  1.00  0.00    -0.744 OA
ENDBRANCH  64  67
ENDBRANCH  46  60
BRANCH  47  71
ATOM     71  C   UNL     1       6.769  -5.952  -4.918  1.00  0.00     0.023 A 
ATOM     72  C   UNL     1       6.786  -6.866  -3.841  1.00  0.00     0.012 A 
ATOM     73  C   UNL     1       6.099  -6.324  -6.096  1.00  0.00     0.148 A 
ATOM     74  C   UNL     1       6.182  -8.122  -3.946  1.00  0.00     0.002 A 
ATOM     75  C   UNL     1       5.419  -7.537  -6.161  1.00  0.00     0.091 A 
ATOM     76  F   UNL     1       6.140  -5.494  -7.149  1.00  0.00    -0.205 F 
ATOM     77  C   UNL     1       5.479  -8.450  -5.100  1.00  0.00     0.022 A 
BRANCH  75  78
ATOM     78  S   UNL     1       4.332  -7.913  -7.542  1.00  0.00     0.127 S 
ATOM     79  O   UNL     1       5.208  -8.686  -8.417  1.00  0.00    -0.237 OA
ATOM     80  O   UNL     1       3.264  -8.684  -6.903  1.00  0.00    -0.237 OA
ATOM     81  O   UNL     1       3.906  -6.610  -8.038  1.00  0.00    -0.744 OA
ENDBRANCH  75  78
ENDBRANCH  47  71
BRANCH  59  82
ATOM     82  C   UNL     1      13.393  -4.089  -3.809  1.00  0.00     0.023 A 
ATOM     83  C   UNL     1      13.867  -4.543  -5.057  1.00  0.00     0.012 A 
ATOM     84  C   UNL     1      14.173  -4.290  -2.656  1.00  0.00     0.148 A 
ATOM     85  C   UNL     1      15.086  -5.213  -5.152  1.00  0.00     0.002 A 
ATOM     86  C   UNL     1      15.409  -4.917  -2.765  1.00  0.00     0.091 A 
ATOM     87  F   UNL     1      13.694  -3.866  -1.478  1.00  0.00    -0.205 F 
ATOM     88  C   UNL     1      15.861  -5.389  -4.008  1.00  0.00     0.022 A 
BRANCH  86  89
ATOM     89  S   UNL     1      16.516  -5.110  -1.364  1.00  0.00     0.127 S 
ATOM     90  O   UNL     1      16.449  -6.551  -1.129  1.00  0.00    -0.237 OA
ATOM     91  O   UNL     1      17.789  -4.638  -1.909  1.00  0.00    -0.237 OA
ATOM     92  O   UNL     1      15.968  -4.278  -0.301  1.00  0.00    -0.744 OA
ENDBRANCH  86  89
ENDBRANCH  59  82
ENDBRANCH  33  34
ENDBRANCH  26  28
ENDBRANCH  25  26
ENDBRANCH   1  25
TORSDOF 16
