REMARK SMILES Cc1cccc(-c2cc(C(=O)OCCOC(=O)c3ccc(-c4c5nc(c(-c6cccc(S(=O)(=O)[O-])c6F)c6ccc([nH]6)c(-c6cccc(S(=O)(=O)[O-])c6F)c6nc(c(-c7cccc(S(=O)(=O)[O-])c7F)c7ccc4[nH]7)C=C6)C=C5)cc3)ccn2)c1
REMARK SMILES IDX 14 1 13 2 12 3 10 4 11 5 9 6 7 7 8 8 83 9 82 10 81 11 6 12
REMARK SMILES IDX 1 13 2 14 3 15 84 16 4 17 5 18 15 19 16 20 17 21 18 22 19 23
REMARK SMILES IDX 80 24 20 25 79 26 21 27 22 28 23 29 73 30 24 31 78 32 72 33
REMARK SMILES IDX 74 34 25 35 77 36 71 37 70 38 26 40 58 41 38 42 57 43 39 44
REMARK SMILES IDX 42 45 56 46 75 47 40 48 41 49 55 51 76 52 43 53 27 54 28 55
REMARK SMILES IDX 36 56 29 57 31 58 37 59 30 60 32 61 33 62 34 63 35 64 59 65
REMARK SMILES IDX 60 66 68 67 61 68 63 69 69 70 62 71 64 72 65 73 66 74 67 75
REMARK SMILES IDX 44 76 45 77 53 78 46 79 48 80 54 81 47 82 49 83 50 84 51 85
REMARK SMILES IDX 52 86
REMARK H PARENT 74 39 42 50
REMARK Flexibility Score: inf
ROOT
ATOM      1  C   UNL     1      -3.144   5.396  -5.814  1.00  0.00     0.275 C 
ENDROOT
BRANCH   1   2
ATOM      2  C   UNL     1      -1.953   4.663  -5.163  1.00  0.00     0.275 C 
BRANCH   2   3
ATOM      3  O   UNL     1      -2.057   4.196  -3.820  1.00  0.00    -0.458 OA
BRANCH   3   4
ATOM      4  C   UNL     1      -3.143   3.475  -3.473  1.00  0.00     0.338 C 
ATOM      5  O   UNL     1      -4.091   3.190  -4.169  1.00  0.00    -0.246 OA
BRANCH   4   6
ATOM      6  C   UNL     1      -2.975   3.071  -2.065  1.00  0.00     0.063 A 
ATOM      7  C   UNL     1      -1.849   1.764  -0.427  1.00  0.00     0.071 A 
ATOM      8  C   UNL     1      -1.883   2.286  -1.712  1.00  0.00     0.044 A 
ATOM      9  N   UNL     1      -2.785   2.067   0.505  1.00  0.00    -0.256 NA
ATOM     10  C   UNL     1      -3.771   2.926   0.158  1.00  0.00     0.112 A 
ATOM     11  C   UNL     1      -3.946   3.401  -1.126  1.00  0.00     0.036 A 
BRANCH   7  12
ATOM     12  C   UNL     1      -0.946   0.657  -0.107  1.00  0.00     0.000 A 
ATOM     13  C   UNL     1       2.778  -0.183   0.064  1.00  0.00     0.044 C 
ATOM     14  C   UNL     1       1.282  -0.322   0.076  1.00  0.00    -0.050 A 
ATOM     15  C   UNL     1       0.704  -1.592   0.210  1.00  0.00     0.003 A 
ATOM     16  C   UNL     1       0.451   0.797  -0.088  1.00  0.00     0.013 A 
ATOM     17  C   UNL     1      -0.680  -1.742   0.220  1.00  0.00     0.001 A 
ATOM     18  C   UNL     1      -1.495  -0.624   0.073  1.00  0.00     0.010 A 
ENDBRANCH   7  12
ENDBRANCH   4   6
ENDBRANCH   3   4
ENDBRANCH   2   3
ENDBRANCH   1   2
BRANCH   1  19
ATOM     19  O   UNL     1      -4.245   5.993  -5.067  1.00  0.00    -0.458 OA
BRANCH  19  20
ATOM     20  C   UNL     1      -4.315   6.680  -3.905  1.00  0.00     0.338 C 
ATOM     21  O   UNL     1      -5.374   7.089  -3.446  1.00  0.00    -0.246 OA
BRANCH  20  22
ATOM     22  C   UNL     1      -3.062   6.906  -3.194  1.00  0.00     0.060 A 
ATOM     23  C   UNL     1      -2.948   6.538  -1.844  1.00  0.00     0.016 A 
ATOM     24  C   UNL     1      -1.987   7.418  -3.907  1.00  0.00     0.016 A 
ATOM     25  C   UNL     1      -1.706   6.581  -1.220  1.00  0.00     0.010 A 
ATOM     26  C   UNL     1      -0.746   7.381  -3.325  1.00  0.00     0.010 A 
ATOM     27  C   UNL     1      -0.614   7.011  -1.971  1.00  0.00    -0.014 A 
BRANCH  27  28
ATOM     28  C   UNL     1       0.595   7.544  -1.365  1.00  0.00     0.031 A 
ATOM     29  C   UNL     1       1.754   6.735  -0.974  1.00  0.00     0.074 A 
ATOM     30  C   UNL     1       0.589   8.896  -1.378  1.00  0.00     0.049 A 
ATOM     31  N   UNL     1       2.691   7.181  -0.212  1.00  0.00    -0.248 NA
ATOM     32  C   UNL     1       1.951   5.348  -1.380  1.00  0.00     0.031 C 
ATOM     33  C   UNL     1       1.679   9.843  -1.292  1.00  0.00     0.029 A 
ATOM     34  N   UNL     1      -0.565   9.697  -1.366  1.00  0.00    -0.354 N 
ATOM     35  C   UNL     1       3.722   6.265  -0.228  1.00  0.00     0.074 A 
ATOM     36  C   UNL     1       3.181   5.107  -0.905  1.00  0.00     0.031 C 
ATOM     37  C   UNL     1       1.162  11.047  -0.977  1.00  0.00     0.029 A 
ATOM     38  C   UNL     1      -0.245  10.840  -0.642  1.00  0.00     0.049 A 
ATOM     39  H   UNL     1      -1.431   9.490  -1.787  1.00  0.00     0.167 HD
ATOM     40  C   UNL     1       4.958   6.666   0.190  1.00  0.00     0.034 A 
ATOM     41  C   UNL     1      -0.852  11.118   0.551  1.00  0.00     0.034 A 
ATOM     42  C   UNL     1       4.906   8.060   0.652  1.00  0.00     0.049 A 
ATOM     43  C   UNL     1       0.167  11.199   1.667  1.00  0.00     0.074 A 
ATOM     44  C   UNL     1       5.105   9.256  -0.019  1.00  0.00     0.029 A 
ATOM     45  N   UNL     1       4.277   8.377   1.848  1.00  0.00    -0.354 N 
ATOM     46  N   UNL     1       1.370  10.705   1.584  1.00  0.00    -0.248 NA
ATOM     47  C   UNL     1      -0.098  11.812   2.964  1.00  0.00     0.031 C 
ATOM     48  C   UNL     1       4.480  10.286   0.732  1.00  0.00     0.029 A 
ATOM     49  C   UNL     1       3.942   9.724   1.877  1.00  0.00     0.049 A 
ATOM     50  H   UNL     1       4.094   7.737   2.574  1.00  0.00     0.167 HD
ATOM     51  C   UNL     1       2.007  10.841   2.781  1.00  0.00     0.074 A 
ATOM     52  C   UNL     1       1.066  11.590   3.599  1.00  0.00     0.031 C 
ATOM     53  C   UNL     1       3.228  10.280   3.020  1.00  0.00     0.034 A 
BRANCH  40  54
ATOM     54  C   UNL     1       6.267   5.966  -0.144  1.00  0.00     0.023 A 
ATOM     55  C   UNL     1       7.420   6.783  -0.247  1.00  0.00     0.012 A 
ATOM     56  C   UNL     1       6.453   4.595  -0.428  1.00  0.00     0.148 A 
ATOM     57  C   UNL     1       8.650   6.306  -0.710  1.00  0.00     0.002 A 
ATOM     58  C   UNL     1       7.672   4.123  -0.939  1.00  0.00     0.091 A 
ATOM     59  F   UNL     1       5.475   3.726  -0.149  1.00  0.00    -0.205 F 
ATOM     60  C   UNL     1       8.768   4.980  -1.089  1.00  0.00     0.022 A 
BRANCH  58  61
ATOM     61  S   UNL     1       7.905   2.431  -1.516  1.00  0.00     0.127 S 
ATOM     62  O   UNL     1       8.393   2.637  -2.882  1.00  0.00    -0.237 OA
ATOM     63  O   UNL     1       8.907   1.915  -0.586  1.00  0.00    -0.237 OA
ATOM     64  O   UNL     1       6.596   1.794  -1.442  1.00  0.00    -0.744 OA
ENDBRANCH  58  61
ENDBRANCH  40  54
BRANCH  41  65
ATOM     65  C   UNL     1      -2.236  10.544   0.717  1.00  0.00     0.023 A 
ATOM     66  C   UNL     1      -3.214  10.867  -0.260  1.00  0.00     0.012 A 
ATOM     67  C   UNL     1      -2.499   9.464   1.580  1.00  0.00     0.148 A 
ATOM     68  C   UNL     1      -4.354  10.076  -0.441  1.00  0.00     0.002 A 
ATOM     69  C   UNL     1      -3.637   8.674   1.387  1.00  0.00     0.091 A 
ATOM     70  F   UNL     1      -1.619   9.177   2.547  1.00  0.00    -0.205 F 
ATOM     71  C   UNL     1      -4.554   8.965   0.368  1.00  0.00     0.022 A 
BRANCH  69  72
ATOM     72  S   UNL     1      -3.856   7.151   2.323  1.00  0.00     0.127 S 
ATOM     73  O   UNL     1      -4.726   6.352   1.455  1.00  0.00    -0.237 OA
ATOM     74  O   UNL     1      -2.506   6.622   2.442  1.00  0.00    -0.237 OA
ATOM     75  O   UNL     1      -4.486   7.640   3.545  1.00  0.00    -0.744 OA
ENDBRANCH  69  72
ENDBRANCH  41  65
BRANCH  53  76
ATOM     76  C   UNL     1       3.861  10.190   4.381  1.00  0.00     0.023 A 
ATOM     77  C   UNL     1       3.087  10.062   5.549  1.00  0.00     0.012 A 
ATOM     78  C   UNL     1       5.262  10.041   4.505  1.00  0.00     0.148 A 
ATOM     79  C   UNL     1       3.679   9.852   6.796  1.00  0.00     0.002 A 
ATOM     80  C   UNL     1       5.835   9.716   5.728  1.00  0.00     0.091 A 
ATOM     81  F   UNL     1       6.050  10.221   3.433  1.00  0.00    -0.205 F 
ATOM     82  C   UNL     1       5.052   9.652   6.882  1.00  0.00     0.022 A 
BRANCH  80  83
ATOM     83  S   UNL     1       7.554   9.202   5.809  1.00  0.00     0.127 S 
ATOM     84  O   UNL     1       8.249  10.476   5.980  1.00  0.00    -0.237 OA
ATOM     85  O   UNL     1       7.574   8.335   6.989  1.00  0.00    -0.237 OA
ATOM     86  O   UNL     1       7.789   8.501   4.553  1.00  0.00    -0.744 OA
ENDBRANCH  80  83
ENDBRANCH  53  76
ENDBRANCH  27  28
ENDBRANCH  20  22
ENDBRANCH  19  20
ENDBRANCH   1  19
TORSDOF 15
