REMARK SMILES CCCc1cc2c(cc1Cl)C=C(C(=O)OCCOC(=O)c1ccc(-c3c4nc(c(-c5cccc(S(=O)(=O)[O-])c5F)c5ccc([nH]5)c(-c5cccc(S(=O)(=O)[O-])c5F)c5nc(c(-c6cccc(S(=O)(=O)[O-])c6F)c6ccc3[nH]6)C=C5)C=C4)cc1)[C@@H](C(F)(F)F)O2
REMARK SMILES IDX 17 1 16 2 15 3 13 4 14 5 12 6 4 7 5 8 9 9 6 10 8 11 10 12
REMARK SMILES IDX 7 13 89 14 11 15 84 16 3 17 2 18 1 19 85 20 86 21 87 22
REMARK SMILES IDX 88 23 18 24 19 25 20 26 21 27 22 28 83 29 23 30 82 31 24 32
REMARK SMILES IDX 25 33 26 34 76 35 27 36 81 37 75 38 77 39 28 40 80 41 74 42
REMARK SMILES IDX 73 43 29 45 61 46 41 47 60 48 42 49 45 50 59 51 78 52 43 53
REMARK SMILES IDX 44 54 58 56 79 57 46 58 30 59 31 60 39 61 32 62 34 63 40 64
REMARK SMILES IDX 33 65 35 66 36 67 37 68 38 69 62 70 63 71 71 72 64 73 66 74
REMARK SMILES IDX 72 75 65 76 67 77 68 78 69 79 70 80 47 81 48 82 56 83 49 84
REMARK SMILES IDX 51 85 57 86 50 87 52 88 53 89 54 90 55 91
REMARK H PARENT 77 44 45 55
REMARK Flexibility Score: inf
ROOT
ATOM      1  C   UNL     1      -2.597   8.346   6.513  1.00  0.00     0.275 C 
ENDROOT
BRANCH   1   2
ATOM      2  C   UNL     1      -3.622   7.447   5.822  1.00  0.00     0.275 C 
BRANCH   2   3
ATOM      3  O   UNL     1      -3.104   6.113   5.617  1.00  0.00    -0.459 OA
BRANCH   3   4
ATOM      4  C   UNL     1      -2.735   5.824   4.348  1.00  0.00     0.338 C 
ATOM      5  O   UNL     1      -2.814   6.564   3.381  1.00  0.00    -0.246 OA
BRANCH   4   6
ATOM      6  C   UNL     1      -2.171   4.464   4.268  1.00  0.00     0.087 C 
ATOM      7  C   UNL     1       0.542   0.484   2.820  1.00  0.00    -0.026 A 
ATOM      8  C   UNL     1      -0.710   0.643   3.452  1.00  0.00     0.052 A 
ATOM      9  C   UNL     1       1.332   1.623   2.594  1.00  0.00     0.045 A 
ATOM     10  C   UNL     1      -1.187   1.909   3.798  1.00  0.00     0.128 A 
ATOM     11  C   UNL     1       0.848   2.886   2.923  1.00  0.00     0.032 A 
ATOM     12  Cl  UNL     1       2.903   1.542   1.884  1.00  0.00    -0.084 Cl
ATOM     13  C   UNL     1      -0.418   3.026   3.499  1.00  0.00     0.019 A 
ATOM     14  O   UNL     1      -2.412   1.974   4.400  1.00  0.00    -0.475 OA
ATOM     15  C   UNL     1      -0.960   4.345   3.719  1.00  0.00     0.027 C 
ATOM     16  C   UNL     1      -2.999   3.283   4.683  1.00  0.00     0.316 C 
BRANCH   7  17
ATOM     17  C   UNL     1       0.953  -0.892   2.349  1.00  0.00     0.037 C 
BRANCH  17  18
ATOM     18  C   UNL     1       0.337  -1.275   0.997  1.00  0.00     0.001 C 
ATOM     19  C   UNL     1       0.832  -0.440  -0.178  1.00  0.00     0.004 C 
ENDBRANCH  17  18
ENDBRANCH   7  17
BRANCH  16  20
ATOM     20  C   UNL     1      -4.404   3.314   4.059  1.00  0.00     0.430 C 
ATOM     21  F   UNL     1      -5.142   2.250   4.461  1.00  0.00    -0.167 F 
ATOM     22  F   UNL     1      -5.097   4.417   4.433  1.00  0.00    -0.167 F 
ATOM     23  F   UNL     1      -4.368   3.296   2.708  1.00  0.00    -0.167 F 
ENDBRANCH  16  20
ENDBRANCH   4   6
ENDBRANCH   3   4
ENDBRANCH   2   3
ENDBRANCH   1   2
BRANCH   1  24
ATOM     24  O   UNL     1      -1.497   8.625   5.628  1.00  0.00    -0.458 OA
BRANCH  24  25
ATOM     25  C   UNL     1      -0.343   7.984   5.921  1.00  0.00     0.338 C 
ATOM     26  O   UNL     1      -0.128   7.239   6.861  1.00  0.00    -0.246 OA
BRANCH  25  27
ATOM     27  C   UNL     1       0.646   8.250   4.866  1.00  0.00     0.060 A 
ATOM     28  C   UNL     1       1.800   8.980   5.123  1.00  0.00     0.016 A 
ATOM     29  C   UNL     1       0.485   7.616   3.640  1.00  0.00     0.016 A 
ATOM     30  C   UNL     1       2.783   9.070   4.129  1.00  0.00     0.010 A 
ATOM     31  C   UNL     1       1.535   7.561   2.731  1.00  0.00     0.010 A 
ATOM     32  C   UNL     1       2.688   8.325   2.935  1.00  0.00    -0.014 A 
BRANCH  32  33
ATOM     33  C   UNL     1       3.770   8.349   1.905  1.00  0.00     0.031 A 
ATOM     34  C   UNL     1       3.468   8.661   0.453  1.00  0.00     0.074 A 
ATOM     35  C   UNL     1       5.037   8.041   2.257  1.00  0.00     0.049 A 
ATOM     36  N   UNL     1       4.295   8.735  -0.560  1.00  0.00    -0.248 NA
ATOM     37  C   UNL     1       2.060   8.873   0.073  1.00  0.00     0.031 C 
ATOM     38  C   UNL     1       5.462   7.585   3.584  1.00  0.00     0.029 A 
ATOM     39  N   UNL     1       6.206   8.074   1.535  1.00  0.00    -0.354 N 
ATOM     40  C   UNL     1       3.506   8.941  -1.688  1.00  0.00     0.074 A 
ATOM     41  C   UNL     1       2.131   8.932  -1.248  1.00  0.00     0.031 C 
ATOM     42  C   UNL     1       6.798   7.456   3.601  1.00  0.00     0.029 A 
ATOM     43  C   UNL     1       7.325   7.787   2.282  1.00  0.00     0.049 A 
ATOM     44  H   UNL     1       6.239   8.284   0.574  1.00  0.00     0.167 HD
ATOM     45  C   UNL     1       3.883   9.175  -2.966  1.00  0.00     0.034 A 
ATOM     46  C   UNL     1       8.633   7.812   1.956  1.00  0.00     0.034 A 
ATOM     47  C   UNL     1       5.248   9.313  -3.388  1.00  0.00     0.049 A 
ATOM     48  C   UNL     1       9.039   8.213   0.567  1.00  0.00     0.074 A 
ATOM     49  C   UNL     1       5.728   9.685  -4.631  1.00  0.00     0.029 A 
ATOM     50  N   UNL     1       6.349   9.108  -2.573  1.00  0.00    -0.354 N 
ATOM     51  N   UNL     1       8.276   8.551  -0.444  1.00  0.00    -0.248 NA
ATOM     52  C   UNL     1      10.479   8.264   0.277  1.00  0.00     0.031 C 
ATOM     53  C   UNL     1       7.124   9.713  -4.566  1.00  0.00     0.029 A 
ATOM     54  C   UNL     1       7.509   9.357  -3.283  1.00  0.00     0.049 A 
ATOM     55  H   UNL     1       6.311   8.828  -1.631  1.00  0.00     0.167 HD
ATOM     56  C   UNL     1       9.140   8.867  -1.484  1.00  0.00     0.074 A 
ATOM     57  C   UNL     1      10.487   8.703  -0.976  1.00  0.00     0.031 C 
ATOM     58  C   UNL     1       8.841   9.240  -2.751  1.00  0.00     0.034 A 
BRANCH  45  59
ATOM     59  C   UNL     1       2.806   9.419  -3.991  1.00  0.00     0.023 A 
ATOM     60  C   UNL     1       2.130  10.656  -3.990  1.00  0.00     0.012 A 
ATOM     61  C   UNL     1       2.526   8.476  -4.999  1.00  0.00     0.148 A 
ATOM     62  C   UNL     1       1.174  10.944  -4.962  1.00  0.00     0.002 A 
ATOM     63  C   UNL     1       1.597   8.785  -5.987  1.00  0.00     0.091 A 
ATOM     64  F   UNL     1       3.175   7.304  -4.976  1.00  0.00    -0.205 F 
ATOM     65  C   UNL     1       0.915  10.013  -5.965  1.00  0.00     0.022 A 
BRANCH  63  66
ATOM     66  S   UNL     1       1.230   7.689  -7.362  1.00  0.00     0.127 S 
ATOM     67  O   UNL     1      -0.171   7.354  -7.108  1.00  0.00    -0.237 OA
ATOM     68  O   UNL     1       1.448   8.562  -8.515  1.00  0.00    -0.237 OA
ATOM     69  O   UNL     1       2.162   6.575  -7.253  1.00  0.00    -0.744 OA
ENDBRANCH  63  66
ENDBRANCH  45  59
BRANCH  46  70
ATOM     70  C   UNL     1       9.650   7.564   3.016  1.00  0.00     0.023 A 
ATOM     71  C   UNL     1      10.327   8.663   3.579  1.00  0.00     0.012 A 
ATOM     72  C   UNL     1       9.881   6.274   3.529  1.00  0.00     0.148 A 
ATOM     73  C   UNL     1      11.223   8.482   4.633  1.00  0.00     0.002 A 
ATOM     74  C   UNL     1      10.746   6.105   4.605  1.00  0.00     0.091 A 
ATOM     75  F   UNL     1       9.224   5.246   2.975  1.00  0.00    -0.205 F 
ATOM     76  C   UNL     1      11.424   7.206   5.152  1.00  0.00     0.022 A 
BRANCH  74  77
ATOM     77  S   UNL     1      10.990   4.521   5.417  1.00  0.00     0.127 S 
ATOM     78  O   UNL     1      12.406   4.269   5.158  1.00  0.00    -0.237 OA
ATOM     79  O   UNL     1      10.666   4.846   6.806  1.00  0.00    -0.237 OA
ATOM     80  O   UNL     1      10.063   3.599   4.776  1.00  0.00    -0.744 OA
ENDBRANCH  74  77
ENDBRANCH  46  70
BRANCH  58  81
ATOM     81  C   UNL     1       9.974   9.507  -3.699  1.00  0.00     0.023 A 
ATOM     82  C   UNL     1      10.621   8.420  -4.316  1.00  0.00     0.012 A 
ATOM     83  C   UNL     1      10.295  10.823  -4.085  1.00  0.00     0.148 A 
ATOM     84  C   UNL     1      11.579   8.639  -5.305  1.00  0.00     0.002 A 
ATOM     85  C   UNL     1      11.227  11.033  -5.094  1.00  0.00     0.091 A 
ATOM     86  F   UNL     1       9.667  11.838  -3.475  1.00  0.00    -0.205 F 
ATOM     87  C   UNL     1      11.871   9.942  -5.702  1.00  0.00     0.022 A 
BRANCH  85  88
ATOM     88  S   UNL     1      11.614  12.667  -5.730  1.00  0.00     0.127 S 
ATOM     89  O   UNL     1      12.998  12.836  -5.291  1.00  0.00    -0.237 OA
ATOM     90  O   UNL     1      11.449  12.485  -7.172  1.00  0.00    -0.237 OA
ATOM     91  O   UNL     1      10.655  13.577  -5.118  1.00  0.00    -0.744 OA
ENDBRANCH  85  88
ENDBRANCH  58  81
ENDBRANCH  32  33
ENDBRANCH  25  27
ENDBRANCH  24  25
ENDBRANCH   1  24
TORSDOF 17
