REMARK SMILES Cc1[nH]ncc1S(=O)(=O)N1CC[C@@H](C(=O)OCCOC(=O)c2ccc(-c3c4nc(c(-c5cccc(S(=O)(=O)[O-])c5F)c5ccc([nH]5)c(-c5cccc(S(=O)(=O)[O-])c5F)c5nc(c(-c6cccc(S(=O)(=O)[O-])c6F)c6ccc3[nH]6)C=C5)C=C4)cc2)[C@@H]1C
REMARK SMILES IDX 18 1 17 2 16 3 14 4 15 5 13 6 10 7 11 8 85 9 12 10 86 11
REMARK SMILES IDX 7 12 8 13 9 14 6 15 1 16 2 17 3 18 4 19 5 21 19 22 20 23
REMARK SMILES IDX 21 24 22 25 23 26 84 27 24 28 83 29 25 30 26 31 27 32 77 33
REMARK SMILES IDX 28 34 82 35 76 36 78 37 29 38 81 39 75 40 74 41 30 43 62 44
REMARK SMILES IDX 42 45 61 46 43 47 46 48 60 49 79 50 44 51 45 52 59 54 80 55
REMARK SMILES IDX 47 56 31 57 32 58 40 59 33 60 35 61 41 62 34 63 36 64 37 65
REMARK SMILES IDX 38 66 39 67 63 68 64 69 72 70 65 71 67 72 73 73 66 74 68 75
REMARK SMILES IDX 69 76 70 77 71 78 48 79 49 80 57 81 50 82 52 83 58 84 51 85
REMARK SMILES IDX 53 86 54 87 55 88 56 89
REMARK H PARENT 3 20 78 42 46 53
REMARK Flexibility Score: inf
ROOT
ATOM      1  C   UNL     1      -1.712  -1.520   3.738  1.00  0.00     0.275 C 
ENDROOT
BRANCH   1   2
ATOM      2  C   UNL     1      -1.479  -1.455   2.227  1.00  0.00     0.274 C 
BRANCH   2   3
ATOM      3  O   UNL     1      -1.894  -0.169   1.724  1.00  0.00    -0.462 OA
BRANCH   3   4
ATOM      4  C   UNL     1      -2.914  -0.126   0.833  1.00  0.00     0.310 C 
ATOM      5  O   UNL     1      -3.433  -1.115   0.329  1.00  0.00    -0.252 OA
BRANCH   4   6
ATOM      6  C   UNL     1      -3.427   1.285   0.590  1.00  0.00     0.118 C 
ATOM      7  N   UNL     1      -1.823   2.758  -0.304  1.00  0.00    -0.194 NA
ATOM      8  C   UNL     1      -2.705   2.453  -1.431  1.00  0.00     0.104 C 
ATOM      9  C   UNL     1      -2.461   2.399   0.973  1.00  0.00     0.084 C 
ATOM     10  C   UNL     1      -3.790   1.540  -0.875  1.00  0.00     0.034 C 
ATOM     11  C   UNL     1      -3.233   3.607   1.515  1.00  0.00     0.027 C 
BRANCH   7  12
ATOM     12  S   UNL     1      -0.161   2.747  -0.470  1.00  0.00     0.246 S 
ATOM     13  O   UNL     1       0.387   3.454   0.666  1.00  0.00    -0.207 OA
ATOM     14  O   UNL     1       0.162   3.145  -1.827  1.00  0.00    -0.207 OA
BRANCH  12  15
ATOM     15  C   UNL     1       0.555   1.181  -0.342  1.00  0.00     0.123 A 
ATOM     16  C   UNL     1      -0.862  -0.646  -1.662  1.00  0.00     0.067 C 
ATOM     17  C   UNL     1       0.227  -0.068  -0.849  1.00  0.00     0.052 A 
ATOM     18  N   UNL     1       1.257  -0.890  -0.459  1.00  0.00    -0.281 N 
ATOM     19  N   UNL     1       2.219  -0.275   0.240  1.00  0.00    -0.183 NA
ATOM     20  H   UNL     1       1.286  -1.850  -0.676  1.00  0.00     0.190 HD
ATOM     21  C   UNL     1       1.799   0.991   0.295  1.00  0.00     0.157 A 
ENDBRANCH  12  15
ENDBRANCH   7  12
ENDBRANCH   4   6
ENDBRANCH   3   4
ENDBRANCH   2   3
ENDBRANCH   1   2
BRANCH   1  22
ATOM     22  O   UNL     1      -3.121  -1.563   4.028  1.00  0.00    -0.458 OA
BRANCH  22  23
ATOM     23  C   UNL     1      -3.703  -0.351   4.159  1.00  0.00     0.338 C 
ATOM     24  O   UNL     1      -3.163   0.743   4.131  1.00  0.00    -0.246 OA
BRANCH  23  25
ATOM     25  C   UNL     1      -5.159  -0.502   4.132  1.00  0.00     0.060 A 
ATOM     26  C   UNL     1      -5.801  -0.199   2.934  1.00  0.00     0.016 A 
ATOM     27  C   UNL     1      -5.893  -0.783   5.279  1.00  0.00     0.016 A 
ATOM     28  C   UNL     1      -7.171  -0.033   2.892  1.00  0.00     0.010 A 
ATOM     29  C   UNL     1      -7.287  -0.723   5.212  1.00  0.00     0.010 A 
ATOM     30  C   UNL     1      -7.930  -0.304   4.030  1.00  0.00    -0.014 A 
BRANCH  30  31
ATOM     31  C   UNL     1      -9.394  -0.108   3.975  1.00  0.00     0.031 A 
ATOM     32  C   UNL     1     -10.031   0.921   4.859  1.00  0.00     0.074 A 
ATOM     33  C   UNL     1     -10.129  -0.841   3.119  1.00  0.00     0.049 A 
ATOM     34  N   UNL     1     -11.297   1.140   5.087  1.00  0.00    -0.248 NA
ATOM     35  C   UNL     1      -9.122   1.817   5.594  1.00  0.00     0.031 C 
ATOM     36  C   UNL     1      -9.596  -1.835   2.183  1.00  0.00     0.029 A 
ATOM     37  N   UNL     1     -11.483  -0.880   2.909  1.00  0.00    -0.354 N 
ATOM     38  C   UNL     1     -11.338   2.149   6.041  1.00  0.00     0.074 A 
ATOM     39  C   UNL     1      -9.970   2.504   6.345  1.00  0.00     0.031 C 
ATOM     40  C   UNL     1     -10.611  -2.395   1.510  1.00  0.00     0.029 A 
ATOM     41  C   UNL     1     -11.864  -1.859   2.022  1.00  0.00     0.049 A 
ATOM     42  H   UNL     1     -12.117  -0.270   3.349  1.00  0.00     0.167 HD
ATOM     43  C   UNL     1     -12.425   2.726   6.606  1.00  0.00     0.034 A 
ATOM     44  C   UNL     1     -13.090  -2.314   1.702  1.00  0.00     0.034 A 
ATOM     45  C   UNL     1     -13.776   2.381   6.255  1.00  0.00     0.049 A 
ATOM     46  C   UNL     1     -14.280  -1.669   2.352  1.00  0.00     0.074 A 
ATOM     47  C   UNL     1     -14.956   2.906   6.747  1.00  0.00     0.029 A 
ATOM     48  N   UNL     1     -14.124   1.420   5.316  1.00  0.00    -0.354 N 
ATOM     49  N   UNL     1     -14.309  -0.693   3.228  1.00  0.00    -0.248 NA
ATOM     50  C   UNL     1     -15.602  -2.169   1.958  1.00  0.00     0.031 C 
ATOM     51  C   UNL     1     -16.019   2.249   6.116  1.00  0.00     0.029 A 
ATOM     52  C   UNL     1     -15.501   1.333   5.213  1.00  0.00     0.049 A 
ATOM     53  H   UNL     1     -13.485   0.878   4.799  1.00  0.00     0.167 HD
ATOM     54  C   UNL     1     -15.652  -0.445   3.477  1.00  0.00     0.074 A 
ATOM     55  C   UNL     1     -16.404  -1.359   2.637  1.00  0.00     0.031 C 
ATOM     56  C   UNL     1     -16.217   0.442   4.333  1.00  0.00     0.034 A 
BRANCH  43  57
ATOM     57  C   UNL     1     -12.184   3.782   7.652  1.00  0.00     0.023 A 
ATOM     58  C   UNL     1     -11.685   5.045   7.276  1.00  0.00     0.012 A 
ATOM     59  C   UNL     1     -12.456   3.525   9.011  1.00  0.00     0.148 A 
ATOM     60  C   UNL     1     -11.420   6.021   8.238  1.00  0.00     0.002 A 
ATOM     61  C   UNL     1     -12.231   4.517   9.959  1.00  0.00     0.091 A 
ATOM     62  F   UNL     1     -12.902   2.308   9.355  1.00  0.00    -0.205 F 
ATOM     63  C   UNL     1     -11.701   5.759   9.576  1.00  0.00     0.022 A 
BRANCH  61  64
ATOM     64  S   UNL     1     -12.627   4.298  11.697  1.00  0.00     0.127 S 
ATOM     65  O   UNL     1     -11.297   4.151  12.287  1.00  0.00    -0.237 OA
ATOM     66  O   UNL     1     -13.302   5.555  12.021  1.00  0.00    -0.237 OA
ATOM     67  O   UNL     1     -13.479   3.119  11.768  1.00  0.00    -0.744 OA
ENDBRANCH  61  64
ENDBRANCH  43  57
BRANCH  44  68
ATOM     68  C   UNL     1     -13.228  -3.434   0.730  1.00  0.00     0.023 A 
ATOM     69  C   UNL     1     -13.770  -3.188  -0.545  1.00  0.00     0.012 A 
ATOM     70  C   UNL     1     -12.756  -4.726   1.038  1.00  0.00     0.148 A 
ATOM     71  C   UNL     1     -13.855  -4.213  -1.490  1.00  0.00     0.002 A 
ATOM     72  C   UNL     1     -12.788  -5.726   0.073  1.00  0.00     0.091 A 
ATOM     73  F   UNL     1     -12.256  -4.944   2.263  1.00  0.00    -0.205 F 
ATOM     74  C   UNL     1     -13.352  -5.476  -1.186  1.00  0.00     0.022 A 
BRANCH  72  75
ATOM     75  S   UNL     1     -12.028  -7.334   0.328  1.00  0.00     0.127 S 
ATOM     76  O   UNL     1     -13.196  -8.205   0.426  1.00  0.00    -0.237 OA
ATOM     77  O   UNL     1     -11.241  -7.493  -0.896  1.00  0.00    -0.237 OA
ATOM     78  O   UNL     1     -11.230  -7.205   1.540  1.00  0.00    -0.744 OA
ENDBRANCH  72  75
ENDBRANCH  44  68
BRANCH  56  79
ATOM     79  C   UNL     1     -17.719   0.487   4.381  1.00  0.00     0.023 A 
ATOM     80  C   UNL     1     -18.430  -0.547   5.020  1.00  0.00     0.012 A 
ATOM     81  C   UNL     1     -18.418   1.592   3.858  1.00  0.00     0.148 A 
ATOM     82  C   UNL     1     -19.820  -0.497   5.110  1.00  0.00     0.002 A 
ATOM     83  C   UNL     1     -19.797   1.659   3.996  1.00  0.00     0.091 A 
ATOM     84  F   UNL     1     -17.720   2.554   3.236  1.00  0.00    -0.205 F 
ATOM     85  C   UNL     1     -20.502   0.611   4.611  1.00  0.00     0.022 A 
BRANCH  83  86
ATOM     86  S   UNL     1     -20.744   3.091   3.470  1.00  0.00     0.127 S 
ATOM     87  O   UNL     1     -21.413   2.583   2.273  1.00  0.00    -0.237 OA
ATOM     88  O   UNL     1     -21.628   3.317   4.614  1.00  0.00    -0.237 OA
ATOM     89  O   UNL     1     -19.772   4.152   3.241  1.00  0.00    -0.744 OA
ENDBRANCH  83  86
ENDBRANCH  56  79
ENDBRANCH  30  31
ENDBRANCH  23  25
ENDBRANCH  22  23
ENDBRANCH   1  22
TORSDOF 16
