REMARK SMILES O=C(OCCOC(=O)[C@H]1CC=CC[C@H]1C(=O)Nc1ccc(S(=O)(=O)N2CCc3ccccc32)cc1)c1ccc(-c2c3nc(c(-c4cccc(S(=O)(=O)[O-])c4F)c4ccc([nH]4)c(-c4cccc(S(=O)(=O)[O-])c4F)c4nc(c(-c5cccc(S(=O)(=O)[O-])c5F)c5ccc2[nH]5)C=C4)C=C3)cc1
REMARK SMILES IDX 5 1 4 2 3 3 2 4 1 5 36 6 37 7 98 8 38 9 97 10 39 11 40 12
REMARK SMILES IDX 41 13 91 14 42 15 96 16 90 17 92 18 43 19 95 20 89 21 88 22
REMARK SMILES IDX 44 24 76 25 56 26 75 27 57 28 60 29 74 30 93 31 58 32 59 33
REMARK SMILES IDX 73 35 94 36 61 37 45 38 46 39 54 40 47 41 49 42 55 43 48 44
REMARK SMILES IDX 50 45 51 46 52 47 53 48 77 49 78 50 86 51 79 52 81 53 87 54
REMARK SMILES IDX 80 55 82 56 83 57 84 58 85 59 62 60 63 61 71 62 64 63 66 64
REMARK SMILES IDX 72 65 65 66 67 67 68 68 69 69 70 70 6 71 7 72 8 73 9 74
REMARK SMILES IDX 10 75 14 76 11 77 13 78 12 79 15 80 16 81 17 82 18 84 19 85
REMARK SMILES IDX 35 86 20 87 34 88 21 89 22 90 23 91 24 92 25 93 26 94 33 95
REMARK SMILES IDX 27 96 28 97 32 98 29 99 31 100 30 101
REMARK H PARENT 92 23 60 34 17 83
REMARK Flexibility Score: inf
ROOT
ATOM      1  C   UNL     1       2.823  -1.243  -0.053  1.00  0.00     0.274 C 
ENDROOT
BRANCH   1   2
ATOM      2  C   UNL     1       3.890  -0.883   0.984  1.00  0.00     0.275 C 
BRANCH   2   3
ATOM      3  O   UNL     1       3.649   0.256   1.843  1.00  0.00    -0.458 OA
BRANCH   3   4
ATOM      4  C   UNL     1       2.663   1.121   1.516  1.00  0.00     0.338 C 
ATOM      5  O   UNL     1       1.487   0.955   1.803  1.00  0.00    -0.246 OA
BRANCH   4   6
ATOM      6  C   UNL     1       3.197   2.326   0.820  1.00  0.00     0.060 A 
ATOM      7  C   UNL     1       4.511   2.362   0.338  1.00  0.00     0.016 A 
ATOM      8  C   UNL     1       2.336   3.404   0.555  1.00  0.00     0.016 A 
ATOM      9  C   UNL     1       4.942   3.434  -0.440  1.00  0.00     0.010 A 
ATOM     10  C   UNL     1       2.779   4.498  -0.203  1.00  0.00     0.010 A 
ATOM     11  C   UNL     1       4.082   4.514  -0.711  1.00  0.00    -0.014 A 
BRANCH  11  12
ATOM     12  C   UNL     1       4.676   5.712  -1.355  1.00  0.00     0.031 A 
ATOM     13  C   UNL     1       5.571   6.551  -0.504  1.00  0.00     0.074 A 
ATOM     14  C   UNL     1       4.520   5.991  -2.663  1.00  0.00     0.049 A 
ATOM     15  N   UNL     1       6.353   7.534  -0.849  1.00  0.00    -0.248 NA
ATOM     16  C   UNL     1       5.566   6.248   0.939  1.00  0.00     0.031 C 
ATOM     17  C   UNL     1       3.609   5.302  -3.559  1.00  0.00     0.029 A 
ATOM     18  N   UNL     1       5.171   6.874  -3.491  1.00  0.00    -0.354 N 
ATOM     19  C   UNL     1       6.850   8.035   0.343  1.00  0.00     0.074 A 
ATOM     20  C   UNL     1       6.380   7.177   1.407  1.00  0.00     0.031 C 
ATOM     21  C   UNL     1       3.892   5.623  -4.831  1.00  0.00     0.029 A 
ATOM     22  C   UNL     1       4.920   6.655  -4.834  1.00  0.00     0.049 A 
ATOM     23  H   UNL     1       5.758   7.592  -3.161  1.00  0.00     0.167 HD
ATOM     24  C   UNL     1       7.558   9.168   0.539  1.00  0.00     0.034 A 
ATOM     25  C   UNL     1       5.465   7.229  -5.928  1.00  0.00     0.034 A 
ATOM     26  C   UNL     1       7.936  10.055  -0.520  1.00  0.00     0.049 A 
ATOM     27  C   UNL     1       6.387   8.398  -5.699  1.00  0.00     0.074 A 
ATOM     28  C   UNL     1       8.525  11.300  -0.438  1.00  0.00     0.029 A 
ATOM     29  N   UNL     1       7.733   9.789  -1.867  1.00  0.00    -0.354 N 
ATOM     30  N   UNL     1       6.870   8.854  -4.567  1.00  0.00    -0.248 NA
ATOM     31  C   UNL     1       6.796   9.170  -6.881  1.00  0.00     0.031 C 
ATOM     32  C   UNL     1       8.669  11.793  -1.740  1.00  0.00     0.029 A 
ATOM     33  C   UNL     1       8.197  10.841  -2.631  1.00  0.00     0.049 A 
ATOM     34  H   UNL     1       7.319   8.970  -2.225  1.00  0.00     0.167 HD
ATOM     35  C   UNL     1       7.599   9.989  -4.893  1.00  0.00     0.074 A 
ATOM     36  C   UNL     1       7.566  10.104  -6.338  1.00  0.00     0.031 C 
ATOM     37  C   UNL     1       8.187  10.891  -4.071  1.00  0.00     0.034 A 
BRANCH  24  38
ATOM     38  C   UNL     1       7.813   9.533   1.970  1.00  0.00     0.023 A 
ATOM     39  C   UNL     1       8.804   8.855   2.706  1.00  0.00     0.012 A 
ATOM     40  C   UNL     1       6.967  10.453   2.619  1.00  0.00     0.148 A 
ATOM     41  C   UNL     1       8.918   9.053   4.081  1.00  0.00     0.002 A 
ATOM     42  C   UNL     1       7.106  10.667   3.983  1.00  0.00     0.091 A 
ATOM     43  F   UNL     1       5.998  11.044   1.906  1.00  0.00    -0.205 F 
ATOM     44  C   UNL     1       8.071   9.959   4.718  1.00  0.00     0.022 A 
BRANCH  42  45
ATOM     45  S   UNL     1       6.069  11.823   4.881  1.00  0.00     0.127 S 
ATOM     46  O   UNL     1       5.170  10.919   5.595  1.00  0.00    -0.237 OA
ATOM     47  O   UNL     1       7.041  12.513   5.729  1.00  0.00    -0.237 OA
ATOM     48  O   UNL     1       5.444  12.665   3.870  1.00  0.00    -0.744 OA
ENDBRANCH  42  45
ENDBRANCH  24  38
BRANCH  25  49
ATOM     49  C   UNL     1       5.193   6.723  -7.312  1.00  0.00     0.023 A 
ATOM     50  C   UNL     1       6.273   6.250  -8.089  1.00  0.00     0.012 A 
ATOM     51  C   UNL     1       3.902   6.684  -7.872  1.00  0.00     0.148 A 
ATOM     52  C   UNL     1       6.076   5.771  -9.388  1.00  0.00     0.002 A 
ATOM     53  C   UNL     1       3.702   6.133  -9.137  1.00  0.00     0.091 A 
ATOM     54  F   UNL     1       2.881   7.189  -7.166  1.00  0.00    -0.205 F 
ATOM     55  C   UNL     1       4.788   5.696  -9.906  1.00  0.00     0.022 A 
BRANCH  53  56
ATOM     56  S   UNL     1       2.047   5.843  -9.776  1.00  0.00     0.127 S 
ATOM     57  O   UNL     1       1.824   7.031 -10.594  1.00  0.00    -0.237 OA
ATOM     58  O   UNL     1       2.213   4.598 -10.528  1.00  0.00    -0.237 OA
ATOM     59  O   UNL     1       1.212   5.708  -8.588  1.00  0.00    -0.744 OA
ENDBRANCH  53  56
ENDBRANCH  25  49
BRANCH  37  60
ATOM     60  C   UNL     1       8.832  12.089  -4.704  1.00  0.00     0.023 A 
ATOM     61  C   UNL     1       8.024  13.147  -5.164  1.00  0.00     0.012 A 
ATOM     62  C   UNL     1      10.231  12.221  -4.713  1.00  0.00     0.148 A 
ATOM     63  C   UNL     1       8.604  14.324  -5.631  1.00  0.00     0.002 A 
ATOM     64  C   UNL     1      10.801  13.412  -5.140  1.00  0.00     0.091 A 
ATOM     65  F   UNL     1      10.974  11.187  -4.294  1.00  0.00    -0.205 F 
ATOM     66  C   UNL     1       9.991  14.463  -5.604  1.00  0.00     0.022 A 
BRANCH  64  67
ATOM     67  S   UNL     1      12.569  13.709  -5.041  1.00  0.00     0.127 S 
ATOM     68  O   UNL     1      12.969  13.589  -6.442  1.00  0.00    -0.237 OA
ATOM     69  O   UNL     1      12.627  15.068  -4.502  1.00  0.00    -0.237 OA
ATOM     70  O   UNL     1      13.095  12.685  -4.149  1.00  0.00    -0.744 OA
ENDBRANCH  64  67
ENDBRANCH  37  60
ENDBRANCH  11  12
ENDBRANCH   4   6
ENDBRANCH   3   4
ENDBRANCH   2   3
ENDBRANCH   1   2
BRANCH   1  71
ATOM     71  O   UNL     1       2.726  -0.226  -1.069  1.00  0.00    -0.462 OA
BRANCH  71  72
ATOM     72  C   UNL     1       1.770  -0.472  -2.009  1.00  0.00     0.310 C 
ATOM     73  O   UNL     1       1.052  -1.466  -1.988  1.00  0.00    -0.252 OA
BRANCH  72  74
ATOM     74  C   UNL     1       1.670   0.597  -3.102  1.00  0.00     0.116 C 
ATOM     75  C   UNL     1       2.378   1.922  -2.807  1.00  0.00     0.043 C 
ATOM     76  C   UNL     1       1.904   0.065  -4.532  1.00  0.00     0.097 C 
ATOM     77  C   UNL     1       3.609   2.199  -3.609  1.00  0.00    -0.030 C 
ATOM     78  C   UNL     1       2.746   0.906  -5.509  1.00  0.00     0.041 C 
ATOM     79  C   UNL     1       3.770   1.761  -4.859  1.00  0.00    -0.030 C 
BRANCH  76  80
ATOM     80  C   UNL     1       2.239  -1.409  -4.675  1.00  0.00     0.228 C 
ATOM     81  O   UNL     1       1.353  -2.174  -5.092  1.00  0.00    -0.274 OA
ATOM     82  N   UNL     1       3.442  -1.996  -4.486  1.00  0.00    -0.326 N 
ATOM     83  H   UNL     1       3.428  -2.914  -4.841  1.00  0.00     0.169 HD
BRANCH  82  84
ATOM     84  C   UNL     1       4.702  -1.711  -3.944  1.00  0.00     0.041 A 
ATOM     85  C   UNL     1       5.679  -2.676  -4.180  1.00  0.00     0.027 A 
ATOM     86  C   UNL     1       5.039  -0.653  -3.110  1.00  0.00     0.027 A 
ATOM     87  C   UNL     1       6.904  -2.628  -3.521  1.00  0.00     0.024 A 
ATOM     88  C   UNL     1       6.275  -0.577  -2.440  1.00  0.00     0.024 A 
ATOM     89  C   UNL     1       7.179  -1.613  -2.591  1.00  0.00     0.088 A 
BRANCH  89  90
ATOM     90  S   UNL     1       8.390  -2.059  -1.372  1.00  0.00     0.264 S 
ATOM     91  O   UNL     1       7.607  -2.633  -0.291  1.00  0.00    -0.201 OA
ATOM     92  O   UNL     1       9.339  -2.881  -2.106  1.00  0.00    -0.201 OA
BRANCH  90  93
ATOM     93  N   UNL     1       9.292  -0.704  -0.713  1.00  0.00    -0.266 N 
ATOM     94  C   UNL     1       8.493   0.222   0.188  1.00  0.00     0.140 C 
ATOM     95  C   UNL     1      10.251  -1.310   0.211  1.00  0.00     0.055 A 
ATOM     96  C   UNL     1       8.698  -0.232   1.647  1.00  0.00     0.060 C 
ATOM     97  C   UNL     1       9.768  -1.258   1.516  1.00  0.00    -0.022 A 
ATOM     98  C   UNL     1      11.260  -2.188  -0.151  1.00  0.00     0.027 A 
ATOM     99  C   UNL     1      10.151  -2.212   2.445  1.00  0.00     0.006 A 
ATOM    100  C   UNL     1      11.643  -3.161   0.773  1.00  0.00     0.002 A 
ATOM    101  C   UNL     1      11.060  -3.196   2.049  1.00  0.00     0.000 A 
ENDBRANCH  90  93
ENDBRANCH  89  90
ENDBRANCH  82  84
ENDBRANCH  76  80
ENDBRANCH  72  74
ENDBRANCH  71  72
ENDBRANCH   1  71
TORSDOF 18
