REMARK SMILES Cc1cc(S(=O)(=O)N[C@@H](CO)C(=O)OCCOC(=O)c2ccc(-c3c4nc(c(-c5cccc(S(=O)(=O)[O-])c5F)c5ccc([nH]5)c(-c5cccc(S(=O)(=O)[O-])c5F)c5nc(c(-c6cccc(S(=O)(=O)[O-])c6F)c6ccc3[nH]6)C=C5)C=C4)cc2)ccc1OC(C)C
REMARK SMILES IDX 15 1 14 2 12 3 13 4 9 5 8 6 5 8 6 9 7 10 4 11 1 12 2 13 3 14
REMARK SMILES IDX 85 15 84 16 83 17 86 18 87 19 88 20 89 21 10 22 11 23 16 25
REMARK SMILES IDX 17 26 18 27 19 28 20 29 21 30 82 31 22 32 81 33 23 34 24 35
REMARK SMILES IDX 25 36 75 37 26 38 80 39 74 40 76 41 27 42 79 43 73 44 72 45
REMARK SMILES IDX 28 47 60 48 40 49 59 50 41 51 44 52 58 53 77 54 42 55 43 56
REMARK SMILES IDX 57 58 78 59 45 60 29 61 30 62 38 63 31 64 33 65 39 66 32 67
REMARK SMILES IDX 34 68 35 69 36 70 37 71 61 72 62 73 70 74 63 75 65 76 71 77
REMARK SMILES IDX 64 78 66 79 67 80 68 81 69 82 46 83 47 84 55 85 48 86 50 87
REMARK SMILES IDX 56 88 49 89 51 90 52 91 53 92 54 93
REMARK H PARENT 8 7 11 24 76 46 44 57
REMARK Flexibility Score: inf
ROOT
ATOM      1  C   UNL     1      -7.680  -3.285   0.157  1.00  0.00     0.274 C 
ENDROOT
BRANCH   1   2
ATOM      2  O   UNL     1      -6.377  -3.215  -0.420  1.00  0.00    -0.461 OA
BRANCH   2   3
ATOM      3  C   UNL     1      -5.354  -3.392   0.443  1.00  0.00     0.326 C 
ATOM      4  O   UNL     1      -5.510  -3.604   1.645  1.00  0.00    -0.250 OA
BRANCH   3   5
ATOM      5  C   UNL     1      -3.976  -3.189  -0.216  1.00  0.00     0.205 C 
BRANCH   5   6
ATOM      6  N   UNL     1      -3.055  -3.400   0.911  1.00  0.00    -0.194 NA
ATOM      7  H   UNL     1      -3.296  -2.672   1.583  1.00  0.00     0.142 HD
BRANCH   6   8
ATOM      8  S   UNL     1      -1.423  -3.410   0.874  1.00  0.00     0.241 S 
ATOM      9  O   UNL     1      -1.004  -4.296  -0.193  1.00  0.00    -0.207 OA
ATOM     10  O   UNL     1      -1.020  -3.665   2.239  1.00  0.00    -0.207 OA
BRANCH   8  11
ATOM     11  C   UNL     1      -0.827  -1.789   0.490  1.00  0.00     0.083 A 
ATOM     12  C   UNL     1       2.712  -0.711  -0.115  1.00  0.00     0.048 C 
ATOM     13  C   UNL     1       1.241  -0.499   0.083  1.00  0.00    -0.008 A 
ATOM     14  C   UNL     1       0.548  -1.718   0.256  1.00  0.00     0.029 A 
ATOM     15  C   UNL     1       0.498   0.688   0.095  1.00  0.00     0.122 A 
ATOM     16  C   UNL     1      -0.907   0.594   0.265  1.00  0.00     0.048 A 
ATOM     17  C   UNL     1      -1.574  -0.624   0.487  1.00  0.00     0.025 A 
BRANCH  15  18
ATOM     18  O   UNL     1       0.881   1.991  -0.023  1.00  0.00    -0.491 OA
BRANCH  18  19
ATOM     19  C   UNL     1       2.208   2.501  -0.022  1.00  0.00     0.167 C 
ATOM     20  C   UNL     1       2.969   2.232   1.280  1.00  0.00     0.052 C 
ATOM     21  C   UNL     1       2.945   2.244  -1.338  1.00  0.00     0.052 C 
ENDBRANCH  18  19
ENDBRANCH  15  18
ENDBRANCH   8  11
ENDBRANCH   6   8
ENDBRANCH   5   6
BRANCH   5  22
ATOM     22  C   UNL     1      -3.784  -4.099  -1.425  1.00  0.00     0.188 C 
BRANCH  22  23
ATOM     23  O   UNL     1      -4.266  -5.417  -1.184  1.00  0.00    -0.394 OA
ATOM     24  H   UNL     1      -3.773  -5.812  -0.447  1.00  0.00     0.210 HD
ENDBRANCH  22  23
ENDBRANCH   5  22
ENDBRANCH   3   5
ENDBRANCH   2   3
ENDBRANCH   1   2
BRANCH   1  25
ATOM     25  C   UNL     1      -8.052  -2.195   1.190  1.00  0.00     0.275 C 
BRANCH  25  26
ATOM     26  O   UNL     1      -7.206  -1.026   1.463  1.00  0.00    -0.458 OA
BRANCH  26  27
ATOM     27  C   UNL     1      -6.452  -0.193   0.700  1.00  0.00     0.338 C 
ATOM     28  O   UNL     1      -5.677   0.610   1.199  1.00  0.00    -0.246 OA
BRANCH  27  29
ATOM     29  C   UNL     1      -6.540  -0.355  -0.751  1.00  0.00     0.060 A 
ATOM     30  C   UNL     1      -5.378  -0.386  -1.542  1.00  0.00     0.016 A 
ATOM     31  C   UNL     1      -7.773  -0.681  -1.273  1.00  0.00     0.016 A 
ATOM     32  C   UNL     1      -5.429  -0.898  -2.837  1.00  0.00     0.010 A 
ATOM     33  C   UNL     1      -7.783  -1.390  -2.437  1.00  0.00     0.010 A 
ATOM     34  C   UNL     1      -6.636  -1.443  -3.252  1.00  0.00    -0.014 A 
BRANCH  34  35
ATOM     35  C   UNL     1      -6.969  -1.830  -4.612  1.00  0.00     0.031 A 
ATOM     36  C   UNL     1      -6.458  -3.057  -5.229  1.00  0.00     0.074 A 
ATOM     37  C   UNL     1      -7.957  -1.048  -5.105  1.00  0.00     0.049 A 
ATOM     38  N   UNL     1      -6.282  -3.192  -6.494  1.00  0.00    -0.248 NA
ATOM     39  C   UNL     1      -6.071  -4.240  -4.465  1.00  0.00     0.031 C 
ATOM     40  C   UNL     1      -8.903  -1.228  -6.179  1.00  0.00     0.029 A 
ATOM     41  N   UNL     1      -8.271   0.230  -4.612  1.00  0.00    -0.354 N 
ATOM     42  C   UNL     1      -6.083  -4.542  -6.723  1.00  0.00     0.074 A 
ATOM     43  C   UNL     1      -5.761  -5.108  -5.437  1.00  0.00     0.031 C 
ATOM     44  C   UNL     1      -9.466  -0.027  -6.447  1.00  0.00     0.029 A 
ATOM     45  C   UNL     1      -8.762   0.988  -5.662  1.00  0.00     0.049 A 
ATOM     46  H   UNL     1      -8.161   0.534  -3.682  1.00  0.00     0.167 HD
ATOM     47  C   UNL     1      -6.471  -5.076  -7.916  1.00  0.00     0.034 A 
ATOM     48  C   UNL     1      -7.998   2.038  -6.099  1.00  0.00     0.034 A 
ATOM     49  C   UNL     1      -7.160  -4.038  -8.700  1.00  0.00     0.049 A 
ATOM     50  C   UNL     1      -7.388   1.690  -7.454  1.00  0.00     0.074 A 
ATOM     51  C   UNL     1      -8.488  -3.659  -8.812  1.00  0.00     0.029 A 
ATOM     52  N   UNL     1      -6.424  -2.980  -9.185  1.00  0.00    -0.354 N 
ATOM     53  N   UNL     1      -7.560   0.550  -8.069  1.00  0.00    -0.248 NA
ATOM     54  C   UNL     1      -6.453   2.563  -8.157  1.00  0.00     0.031 C 
ATOM     55  C   UNL     1      -8.519  -2.314  -9.305  1.00  0.00     0.029 A 
ATOM     56  C   UNL     1      -7.215  -1.890  -9.506  1.00  0.00     0.049 A 
ATOM     57  H   UNL     1      -5.445  -2.997  -9.292  1.00  0.00     0.167 HD
ATOM     58  C   UNL     1      -6.697   0.459  -9.120  1.00  0.00     0.074 A 
ATOM     59  C   UNL     1      -6.021   1.748  -9.132  1.00  0.00     0.031 C 
ATOM     60  C   UNL     1      -6.539  -0.656  -9.895  1.00  0.00     0.034 A 
BRANCH  47  61
ATOM     61  C   UNL     1      -6.531  -6.548  -8.293  1.00  0.00     0.023 A 
ATOM     62  C   UNL     1      -7.384  -6.883  -9.372  1.00  0.00     0.012 A 
ATOM     63  C   UNL     1      -5.812  -7.624  -7.714  1.00  0.00     0.148 A 
ATOM     64  C   UNL     1      -7.572  -8.194  -9.817  1.00  0.00     0.002 A 
ATOM     65  C   UNL     1      -6.029  -8.947  -8.135  1.00  0.00     0.091 A 
ATOM     66  F   UNL     1      -4.875  -7.375  -6.792  1.00  0.00    -0.205 F 
ATOM     67  C   UNL     1      -6.909  -9.230  -9.185  1.00  0.00     0.022 A 
BRANCH  65  68
ATOM     68  S   UNL     1      -5.250 -10.383  -7.366  1.00  0.00     0.127 S 
ATOM     69  O   UNL     1      -6.412 -11.188  -6.981  1.00  0.00    -0.237 OA
ATOM     70  O   UNL     1      -4.466 -10.943  -8.465  1.00  0.00    -0.237 OA
ATOM     71  O   UNL     1      -4.475  -9.873  -6.242  1.00  0.00    -0.744 OA
ENDBRANCH  65  68
ENDBRANCH  47  61
BRANCH  48  72
ATOM     72  C   UNL     1      -7.256   2.753  -4.971  1.00  0.00     0.023 A 
ATOM     73  C   UNL     1      -8.017   3.135  -3.830  1.00  0.00     0.012 A 
ATOM     74  C   UNL     1      -5.853   2.719  -4.828  1.00  0.00     0.148 A 
ATOM     75  C   UNL     1      -7.423   3.276  -2.568  1.00  0.00     0.002 A 
ATOM     76  C   UNL     1      -5.263   2.901  -3.575  1.00  0.00     0.091 A 
ATOM     77  F   UNL     1      -5.101   2.448  -5.897  1.00  0.00    -0.205 F 
ATOM     78  C   UNL     1      -6.049   3.125  -2.436  1.00  0.00     0.022 A 
BRANCH  76  79
ATOM     79  S   UNL     1      -3.481   2.785  -3.329  1.00  0.00     0.127 S 
ATOM     80  O   UNL     1      -3.143   4.175  -3.035  1.00  0.00    -0.237 OA
ATOM     81  O   UNL     1      -3.380   1.873  -2.191  1.00  0.00    -0.237 OA
ATOM     82  O   UNL     1      -2.953   2.257  -4.577  1.00  0.00    -0.744 OA
ENDBRANCH  76  79
ENDBRANCH  48  72
BRANCH  60  83
ATOM     83  C   UNL     1      -5.691  -0.614 -11.142  1.00  0.00     0.023 A 
ATOM     84  C   UNL     1      -5.742   0.528 -11.966  1.00  0.00     0.012 A 
ATOM     85  C   UNL     1      -4.948  -1.718 -11.615  1.00  0.00     0.148 A 
ATOM     86  C   UNL     1      -5.010   0.612 -13.149  1.00  0.00     0.002 A 
ATOM     87  C   UNL     1      -4.335  -1.680 -12.858  1.00  0.00     0.091 A 
ATOM     88  F   UNL     1      -4.776  -2.798 -10.846  1.00  0.00    -0.205 F 
ATOM     89  C   UNL     1      -4.323  -0.501 -13.606  1.00  0.00     0.022 A 
BRANCH  87  90
ATOM     90  S   UNL     1      -3.664  -3.158 -13.628  1.00  0.00     0.127 S 
ATOM     91  O   UNL     1      -4.279  -3.102 -14.956  1.00  0.00    -0.237 OA
ATOM     92  O   UNL     1      -2.230  -2.881 -13.605  1.00  0.00    -0.237 OA
ATOM     93  O   UNL     1      -4.112  -4.274 -12.809  1.00  0.00    -0.744 OA
ENDBRANCH  87  90
ENDBRANCH  60  83
ENDBRANCH  34  35
ENDBRANCH  27  29
ENDBRANCH  26  27
ENDBRANCH  25  26
ENDBRANCH   1  25
TORSDOF 21
