REMARK SMILES O=C(OCCOC(=O)c1nccnc1C(=O)Nc1ccc(-n2cncn2)c(Cl)c1)c1ccc(-c2c3nc(c(-c4cccc(S(=O)(=O)[O-])c4F)c4ccc([nH]4)c(-c4cccc(S(=O)(=O)[O-])c4F)c4nc(c(-c5cccc(S(=O)(=O)[O-])c5F)c5ccc2[nH]5)C=C4)C=C3)cc1
REMARK SMILES IDX 4 1 3 2 2 3 1 4 30 5 31 6 92 7 32 8 91 9 33 10 34 11 35 12
REMARK SMILES IDX 85 13 36 14 90 15 84 16 86 17 37 18 89 19 83 20 82 21 38 23
REMARK SMILES IDX 70 24 50 25 69 26 51 27 54 28 68 29 87 30 52 31 53 32 67 34
REMARK SMILES IDX 88 35 55 36 39 37 40 38 48 39 41 40 43 41 49 42 42 43 44 44
REMARK SMILES IDX 45 45 46 46 47 47 71 48 72 49 80 50 73 51 75 52 81 53 74 54
REMARK SMILES IDX 76 55 77 56 78 57 79 58 56 59 57 60 65 61 58 62 60 63 66 64
REMARK SMILES IDX 59 65 61 66 62 67 63 68 64 69 5 70 6 71 7 72 8 73 9 74 10 75
REMARK SMILES IDX 14 76 11 77 13 78 12 79 15 80 16 81 17 82 18 84 19 85 29 86
REMARK SMILES IDX 20 87 27 88 21 89 28 90 22 91 23 92 26 93 24 94 25 95
REMARK H PARENT 86 22 54 33 17 83
REMARK Flexibility Score: inf
ROOT
ATOM      1  C   UNL     1       5.368  -0.815   0.433  1.00  0.00     0.275 C 
ENDROOT
BRANCH   1   2
ATOM      2  O   UNL     1       4.114  -1.461   0.186  1.00  0.00    -0.458 OA
BRANCH   2   3
ATOM      3  C   UNL     1       2.976  -1.419   0.914  1.00  0.00     0.338 C 
ATOM      4  O   UNL     1       2.020  -2.089   0.520  1.00  0.00    -0.246 OA
BRANCH   3   5
ATOM      5  C   UNL     1       2.773  -0.550   2.116  1.00  0.00     0.060 A 
ATOM      6  C   UNL     1       3.768  -0.001   2.929  1.00  0.00     0.016 A 
ATOM      7  C   UNL     1       1.433  -0.280   2.449  1.00  0.00     0.016 A 
ATOM      8  C   UNL     1       3.443   0.806   4.012  1.00  0.00     0.010 A 
ATOM      9  C   UNL     1       1.099   0.538   3.523  1.00  0.00     0.010 A 
ATOM     10  C   UNL     1       2.110   1.054   4.323  1.00  0.00    -0.014 A 
BRANCH  10  11
ATOM     11  C   UNL     1       1.851   1.810   5.539  1.00  0.00     0.031 A 
ATOM     12  C   UNL     1       2.338   3.214   5.584  1.00  0.00     0.074 A 
ATOM     13  C   UNL     1       1.203   1.265   6.585  1.00  0.00     0.049 A 
ATOM     14  N   UNL     1       3.249   3.715   6.356  1.00  0.00    -0.248 NA
ATOM     15  C   UNL     1       1.811   4.153   4.587  1.00  0.00     0.031 C 
ATOM     16  C   UNL     1       0.438   0.016   6.601  1.00  0.00     0.029 A 
ATOM     17  N   UNL     1       0.984   1.790   7.825  1.00  0.00    -0.354 N 
ATOM     18  C   UNL     1       3.251   5.088   6.102  1.00  0.00     0.074 A 
ATOM     19  C   UNL     1       2.477   5.266   4.901  1.00  0.00     0.031 C 
ATOM     20  C   UNL     1      -0.364   0.010   7.685  1.00  0.00     0.029 A 
ATOM     21  C   UNL     1      -0.063   1.177   8.495  1.00  0.00     0.049 A 
ATOM     22  H   UNL     1       1.514   2.528   8.204  1.00  0.00     0.167 HD
ATOM     23  C   UNL     1       3.692   5.984   7.032  1.00  0.00     0.034 A 
ATOM     24  C   UNL     1      -0.705   1.641   9.589  1.00  0.00     0.034 A 
ATOM     25  C   UNL     1       4.529   5.348   8.024  1.00  0.00     0.049 A 
ATOM     26  C   UNL     1       0.192   2.597  10.275  1.00  0.00     0.074 A 
ATOM     27  C   UNL     1       5.697   4.613   8.013  1.00  0.00     0.029 A 
ATOM     28  N   UNL     1       4.006   5.191   9.284  1.00  0.00    -0.354 N 
ATOM     29  N   UNL     1       1.293   2.256  10.887  1.00  0.00    -0.248 NA
ATOM     30  C   UNL     1       0.049   4.015   9.993  1.00  0.00     0.031 C 
ATOM     31  C   UNL     1       5.588   3.711   9.113  1.00  0.00     0.029 A 
ATOM     32  C   UNL     1       4.367   3.957   9.742  1.00  0.00     0.049 A 
ATOM     33  H   UNL     1       3.465   5.854   9.772  1.00  0.00     0.167 HD
ATOM     34  C   UNL     1       2.156   3.322  10.675  1.00  0.00     0.074 A 
ATOM     35  C   UNL     1       1.291   4.423  10.262  1.00  0.00     0.031 C 
ATOM     36  C   UNL     1       3.506   3.130  10.563  1.00  0.00     0.034 A 
BRANCH  23  37
ATOM     37  C   UNL     1       3.048   7.341   7.315  1.00  0.00     0.023 A 
ATOM     38  C   UNL     1       3.602   8.105   8.374  1.00  0.00     0.012 A 
ATOM     39  C   UNL     1       1.775   7.744   6.854  1.00  0.00     0.148 A 
ATOM     40  C   UNL     1       2.866   9.091   9.043  1.00  0.00     0.002 A 
ATOM     41  C   UNL     1       1.065   8.761   7.490  1.00  0.00     0.091 A 
ATOM     42  F   UNL     1       1.179   7.098   5.854  1.00  0.00    -0.205 F 
ATOM     43  C   UNL     1       1.586   9.405   8.612  1.00  0.00     0.022 A 
BRANCH  41  44
ATOM     44  S   UNL     1      -0.583   9.229   6.939  1.00  0.00     0.127 S 
ATOM     45  O   UNL     1      -1.415   8.596   7.965  1.00  0.00    -0.237 OA
ATOM     46  O   UNL     1      -0.517  10.692   7.015  1.00  0.00    -0.237 OA
ATOM     47  O   UNL     1      -0.712   8.709   5.593  1.00  0.00    -0.744 OA
ENDBRANCH  41  44
ENDBRANCH  23  37
BRANCH  24  48
ATOM     48  C   UNL     1      -2.121   1.445   9.961  1.00  0.00     0.023 A 
ATOM     49  C   UNL     1      -2.521   1.597  11.301  1.00  0.00     0.012 A 
ATOM     50  C   UNL     1      -3.128   1.318   8.975  1.00  0.00     0.148 A 
ATOM     51  C   UNL     1      -3.877   1.629  11.646  1.00  0.00     0.002 A 
ATOM     52  C   UNL     1      -4.473   1.320   9.326  1.00  0.00     0.091 A 
ATOM     53  F   UNL     1      -2.774   1.288   7.682  1.00  0.00    -0.205 F 
ATOM     54  C   UNL     1      -4.853   1.487  10.661  1.00  0.00     0.022 A 
BRANCH  52  55
ATOM     55  S   UNL     1      -5.766   1.106   8.095  1.00  0.00     0.127 S 
ATOM     56  O   UNL     1      -6.734   0.267   8.804  1.00  0.00    -0.237 OA
ATOM     57  O   UNL     1      -6.202   2.480   7.865  1.00  0.00    -0.237 OA
ATOM     58  O   UNL     1      -5.122   0.439   6.970  1.00  0.00    -0.744 OA
ENDBRANCH  52  55
ENDBRANCH  24  48
BRANCH  36  59
ATOM     59  C   UNL     1       4.088   1.817  11.024  1.00  0.00     0.023 A 
ATOM     60  C   UNL     1       3.701   0.592  10.442  1.00  0.00     0.012 A 
ATOM     61  C   UNL     1       5.162   1.824  11.933  1.00  0.00     0.148 A 
ATOM     62  C   UNL     1       4.341  -0.600  10.787  1.00  0.00     0.002 A 
ATOM     63  C   UNL     1       5.828   0.641  12.238  1.00  0.00     0.091 A 
ATOM     64  F   UNL     1       5.535   2.995  12.475  1.00  0.00    -0.205 F 
ATOM     65  C   UNL     1       5.412  -0.575  11.676  1.00  0.00     0.022 A 
BRANCH  63  66
ATOM     66  S   UNL     1       7.301   0.640  13.266  1.00  0.00     0.127 S 
ATOM     67  O   UNL     1       6.758   0.328  14.586  1.00  0.00    -0.237 OA
ATOM     68  O   UNL     1       8.111  -0.425  12.671  1.00  0.00    -0.237 OA
ATOM     69  O   UNL     1       7.879   1.971  13.114  1.00  0.00    -0.744 OA
ENDBRANCH  63  66
ENDBRANCH  36  59
ENDBRANCH  10  11
ENDBRANCH   3   5
ENDBRANCH   2   3
ENDBRANCH   1   2
BRANCH   1  70
ATOM     70  C   UNL     1       5.396   0.645  -0.006  1.00  0.00     0.275 C 
BRANCH  70  71
ATOM     71  O   UNL     1       4.191   1.384   0.288  1.00  0.00    -0.457 OA
BRANCH  71  72
ATOM     72  C   UNL     1       4.183   2.577  -0.358  1.00  0.00     0.359 C 
ATOM     73  O   UNL     1       5.076   2.946  -1.119  1.00  0.00    -0.244 OA
BRANCH  72  74
ATOM     74  C   UNL     1       3.022   3.469  -0.102  1.00  0.00     0.179 A 
ATOM     75  N   UNL     1       3.446   4.780   0.003  1.00  0.00    -0.245 NA
ATOM     76  C   UNL     1       1.668   3.158  -0.134  1.00  0.00     0.161 A 
ATOM     77  C   UNL     1       2.505   5.734   0.149  1.00  0.00     0.132 A 
ATOM     78  N   UNL     1       0.735   4.168  -0.030  1.00  0.00    -0.247 NA
ATOM     79  C   UNL     1       1.167   5.432   0.141  1.00  0.00     0.132 A 
BRANCH  76  80
ATOM     80  C   UNL     1       0.966   1.848  -0.119  1.00  0.00     0.276 C 
ATOM     81  O   UNL     1       0.089   1.719   0.748  1.00  0.00    -0.267 OA
ATOM     82  N   UNL     1       1.053   0.787  -0.983  1.00  0.00    -0.321 N 
ATOM     83  H   UNL     1       0.383   0.098  -0.769  1.00  0.00     0.170 HD
BRANCH  82  84
ATOM     84  C   UNL     1       1.826   0.412  -2.079  1.00  0.00     0.043 A 
ATOM     85  C   UNL     1       2.772   1.227  -2.671  1.00  0.00     0.028 A 
ATOM     86  C   UNL     1       1.673  -0.911  -2.537  1.00  0.00     0.049 A 
ATOM     87  C   UNL     1       3.728   0.672  -3.512  1.00  0.00     0.032 A 
ATOM     88  C   UNL     1       2.584  -1.465  -3.439  1.00  0.00     0.068 A 
ATOM     89  C   UNL     1       3.644  -0.678  -3.869  1.00  0.00     0.085 A 
ATOM     90  Cl  UNL     1       2.320  -3.066  -4.021  1.00  0.00    -0.082 Cl
BRANCH  89  91
ATOM     91  N   UNL     1       4.705  -1.202  -4.618  1.00  0.00    -0.220 N 
ATOM     92  C   UNL     1       5.117  -0.710  -5.834  1.00  0.00     0.226 A 
ATOM     93  N   UNL     1       5.767  -1.754  -3.979  1.00  0.00    -0.155 NA
ATOM     94  N   UNL     1       6.401  -0.915  -6.007  1.00  0.00    -0.223 NA
ATOM     95  C   UNL     1       6.758  -1.528  -4.842  1.00  0.00     0.246 A 
ENDBRANCH  89  91
ENDBRANCH  82  84
ENDBRANCH  76  80
ENDBRANCH  72  74
ENDBRANCH  71  72
ENDBRANCH  70  71
ENDBRANCH   1  70
TORSDOF 17
