REMARK SMILES CC1CC[NH+]([C@H](c2ccc(F)cc2)c2ccc([C@@H](C)C(=O)OCCOC(=O)c3ccc(-c4c5nc(c(-c6cccc(S(=O)(=O)[O-])c6F)c6ccc([nH]6)c(-c6cccc(S(=O)(=O)[O-])c6F)c6nc(c(-c7cccc(S(=O)(=O)[O-])c7F)c7ccc4[nH]7)C=C6)C=C5)cc3)cc2-c2ccc(C(F)(F)F)cc2)CC1
REMARK SMILES IDX 23 1 22 2 20 3 21 4 18 5 19 6 17 7 14 8 15 9 92 10 16 11
REMARK SMILES IDX 91 12 6 13 5 14 1 15 2 16 3 17 104 18 4 19 103 20 7 22 8 23
REMARK SMILES IDX 13 24 9 25 12 26 10 27 11 28 93 29 94 30 102 31 95 32 101 33
REMARK SMILES IDX 96 34 97 35 98 36 99 37 100 38 24 39 25 40 26 41 27 42 28 43
REMARK SMILES IDX 29 44 90 45 30 46 89 47 31 48 32 49 33 50 83 51 34 52 88 53
REMARK SMILES IDX 82 54 84 55 35 56 87 57 81 58 80 59 36 61 68 62 48 63 67 64
REMARK SMILES IDX 49 65 52 66 66 67 85 68 50 69 51 70 65 72 86 73 53 74 37 75
REMARK SMILES IDX 38 76 46 77 39 78 41 79 47 80 40 81 42 82 43 83 44 84 45 85
REMARK SMILES IDX 69 86 70 87 78 88 71 89 73 90 79 91 72 92 74 93 75 94 76 95
REMARK SMILES IDX 77 96 54 97 55 98 63 99 56 100 58 101 64 102 57 103 59 104
REMARK SMILES IDX 60 105 61 106 62 107
REMARK H PARENT 5 21 84 60 52 71
REMARK Flexibility Score: inf
ROOT
ATOM      1  C   UNL     1       2.638   7.322  -3.085  1.00  0.00     0.274 C 
ENDROOT
BRANCH   1   2
ATOM      2  O   UNL     1       3.073   6.040  -3.571  1.00  0.00    -0.462 OA
BRANCH   2   3
ATOM      3  C   UNL     1       4.379   5.906  -3.924  1.00  0.00     0.313 C 
ATOM      4  O   UNL     1       5.178   6.835  -3.967  1.00  0.00    -0.252 OA
BRANCH   3   5
ATOM      5  C   UNL     1       4.758   4.480  -4.333  1.00  0.00     0.126 C 
ATOM      6  C   UNL     1       4.731   4.362  -5.856  1.00  0.00     0.025 C 
BRANCH   5   7
ATOM      7  C   UNL     1       3.961   3.372  -3.660  1.00  0.00    -0.033 A 
ATOM      8  C   UNL     1       2.443   1.333  -2.330  1.00  0.00     0.022 A 
ATOM      9  C   UNL     1       1.854   2.287  -3.184  1.00  0.00     0.011 A 
ATOM     10  C   UNL     1       3.854   1.408  -2.156  1.00  0.00    -0.009 A 
ATOM     11  C   UNL     1       2.591   3.258  -3.856  1.00  0.00     0.005 A 
ATOM     12  C   UNL     1       4.579   2.434  -2.817  1.00  0.00     0.013 A 
BRANCH   8  13
ATOM     13  C   UNL     1       1.584   0.224  -1.655  1.00  0.00     0.247 C 
BRANCH  13  14
ATOM     14  N   UNL     1       0.147   0.086  -2.076  1.00  0.00    -0.325 N 
ATOM     15  C   UNL     1      -3.440   1.306  -4.307  1.00  0.00     0.008 C 
ATOM     16  C   UNL     1      -2.062   1.145  -3.676  1.00  0.00    -0.003 C 
ATOM     17  C   UNL     1      -1.411  -0.180  -4.067  1.00  0.00     0.065 C 
ATOM     18  C   UNL     1      -2.141   1.175  -2.154  1.00  0.00     0.065 C 
ATOM     19  C   UNL     1      -0.002  -0.304  -3.481  1.00  0.00     0.263 C 
ATOM     20  C   UNL     1      -0.747   1.112  -1.532  1.00  0.00     0.263 C 
ATOM     21  H   UNL     1      -0.233  -0.731  -1.598  1.00  0.00     0.348 HD
ENDBRANCH  13  14
BRANCH  13  22
ATOM     22  C   UNL     1       1.705   0.167  -0.123  1.00  0.00     0.014 A 
ATOM     23  C   UNL     1       1.629   1.323   0.677  1.00  0.00     0.013 A 
ATOM     24  C   UNL     1       1.876  -1.080   0.513  1.00  0.00     0.013 A 
ATOM     25  C   UNL     1       1.713   1.232   2.068  1.00  0.00     0.040 A 
ATOM     26  C   UNL     1       1.982  -1.165   1.901  1.00  0.00     0.040 A 
ATOM     27  C   UNL     1       1.891  -0.010   2.666  1.00  0.00     0.123 A 
ATOM     28  F   UNL     1       1.968  -0.095   4.000  1.00  0.00    -0.207 F 
ENDBRANCH  13  22
ENDBRANCH   8  13
BRANCH  10  29
ATOM     29  C   UNL     1       4.618   0.473  -1.306  1.00  0.00    -0.018 A 
ATOM     30  C   UNL     1       5.174   0.902  -0.089  1.00  0.00     0.009 A 
ATOM     31  C   UNL     1       4.810  -0.864  -1.685  1.00  0.00     0.009 A 
ATOM     32  C   UNL     1       5.857   0.011   0.746  1.00  0.00     0.014 A 
ATOM     33  C   UNL     1       5.486  -1.760  -0.849  1.00  0.00     0.014 A 
ATOM     34  C   UNL     1       6.002  -1.335   0.384  1.00  0.00     0.056 A 
BRANCH  34  35
ATOM     35  C   UNL     1       6.709  -2.300   1.306  1.00  0.00     0.416 C 
ATOM     36  F   UNL     1       8.052  -2.097   1.349  1.00  0.00    -0.166 F 
ATOM     37  F   UNL     1       6.268  -2.220   2.591  1.00  0.00    -0.166 F 
ATOM     38  F   UNL     1       6.541  -3.606   0.943  1.00  0.00    -0.166 F 
ENDBRANCH  34  35
ENDBRANCH  10  29
ENDBRANCH   5   7
ENDBRANCH   3   5
ENDBRANCH   2   3
ENDBRANCH   1   2
BRANCH   1  39
ATOM     39  C   UNL     1       2.475   7.289  -1.565  1.00  0.00     0.275 C 
BRANCH  39  40
ATOM     40  O   UNL     1       3.758   7.165  -0.928  1.00  0.00    -0.458 OA
BRANCH  40  41
ATOM     41  C   UNL     1       4.074   5.927  -0.482  1.00  0.00     0.338 C 
ATOM     42  O   UNL     1       3.373   4.932  -0.482  1.00  0.00    -0.246 OA
BRANCH  41  43
ATOM     43  C   UNL     1       5.486   5.925  -0.076  1.00  0.00     0.060 A 
ATOM     44  C   UNL     1       6.415   5.297  -0.907  1.00  0.00     0.016 A 
ATOM     45  C   UNL     1       5.881   6.486   1.137  1.00  0.00     0.016 A 
ATOM     46  C   UNL     1       7.751   5.215  -0.526  1.00  0.00     0.010 A 
ATOM     47  C   UNL     1       7.224   6.411   1.516  1.00  0.00     0.010 A 
ATOM     48  C   UNL     1       8.164   5.765   0.693  1.00  0.00    -0.014 A 
BRANCH  48  49
ATOM     49  C   UNL     1       9.573   5.622   1.130  1.00  0.00     0.031 A 
ATOM     50  C   UNL     1       9.913   4.660   2.234  1.00  0.00     0.074 A 
ATOM     51  C   UNL     1      10.539   6.348   0.536  1.00  0.00     0.049 A 
ATOM     52  N   UNL     1      11.062   4.452   2.818  1.00  0.00    -0.248 NA
ATOM     53  C   UNL     1       8.816   3.819   2.745  1.00  0.00     0.031 C 
ATOM     54  C   UNL     1      10.330   7.287  -0.568  1.00  0.00     0.029 A 
ATOM     55  N   UNL     1      11.887   6.418   0.783  1.00  0.00    -0.354 N 
ATOM     56  C   UNL     1      10.825   3.485   3.787  1.00  0.00     0.074 A 
ATOM     57  C   UNL     1       9.421   3.144   3.714  1.00  0.00     0.031 C 
ATOM     58  C   UNL     1      11.507   7.843  -0.898  1.00  0.00     0.029 A 
ATOM     59  C   UNL     1      12.545   7.333  -0.006  1.00  0.00     0.049 A 
ATOM     60  H   UNL     1      12.340   5.866   1.461  1.00  0.00     0.167 HD
ATOM     61  C   UNL     1      11.705   2.921   4.646  1.00  0.00     0.034 A 
ATOM     62  C   UNL     1      13.834   7.730   0.006  1.00  0.00     0.034 A 
ATOM     63  C   UNL     1      13.107   3.236   4.688  1.00  0.00     0.049 A 
ATOM     64  C   UNL     1      14.780   7.106   0.998  1.00  0.00     0.074 A 
ATOM     65  C   UNL     1      14.078   2.714   5.524  1.00  0.00     0.029 A 
ATOM     66  N   UNL     1      13.740   4.145   3.856  1.00  0.00    -0.354 N 
ATOM     67  N   UNL     1      14.552   6.152   1.867  1.00  0.00    -0.248 NA
ATOM     68  C   UNL     1      16.166   7.598   1.000  1.00  0.00     0.031 C 
ATOM     69  C   UNL     1      15.299   3.312   5.200  1.00  0.00     0.029 A 
ATOM     70  C   UNL     1      15.090   4.196   4.154  1.00  0.00     0.049 A 
ATOM     71  H   UNL     1      13.295   4.676   3.156  1.00  0.00     0.167 HD
ATOM     72  C   UNL     1      15.768   5.907   2.495  1.00  0.00     0.074 A 
ATOM     73  C   UNL     1      16.736   6.799   1.892  1.00  0.00     0.031 C 
ATOM     74  C   UNL     1      16.053   5.038   3.495  1.00  0.00     0.034 A 
BRANCH  61  75
ATOM     75  C   UNL     1      11.200   1.866   5.592  1.00  0.00     0.023 A 
ATOM     76  C   UNL     1      10.977   0.561   5.111  1.00  0.00     0.012 A 
ATOM     77  C   UNL     1      11.066   2.132   6.969  1.00  0.00     0.148 A 
ATOM     78  C   UNL     1      10.620  -0.464   5.986  1.00  0.00     0.002 A 
ATOM     79  C   UNL     1      10.746   1.098   7.840  1.00  0.00     0.091 A 
ATOM     80  F   UNL     1      11.272   3.385   7.399  1.00  0.00    -0.205 F 
ATOM     81  C   UNL     1      10.518  -0.199   7.349  1.00  0.00     0.022 A 
BRANCH  79  82
ATOM     82  S   UNL     1      10.662   1.315   9.621  1.00  0.00     0.127 S 
ATOM     83  O   UNL     1       9.254   1.022   9.889  1.00  0.00    -0.237 OA
ATOM     84  O   UNL     1      11.597   0.296  10.098  1.00  0.00    -0.237 OA
ATOM     85  O   UNL     1      11.066   2.689   9.882  1.00  0.00    -0.744 OA
ENDBRANCH  79  82
ENDBRANCH  61  75
BRANCH  62  86
ATOM     86  C   UNL     1      14.318   8.736  -0.983  1.00  0.00     0.023 A 
ATOM     87  C   UNL     1      15.220   8.335  -1.987  1.00  0.00     0.012 A 
ATOM     88  C   UNL     1      13.879  10.074  -0.953  1.00  0.00     0.148 A 
ATOM     89  C   UNL     1      15.696   9.251  -2.926  1.00  0.00     0.002 A 
ATOM     90  C   UNL     1      14.313  10.969  -1.926  1.00  0.00     0.091 A 
ATOM     91  F   UNL     1      13.043  10.450   0.026  1.00  0.00    -0.205 F 
ATOM     92  C   UNL     1      15.233  10.564  -2.904  1.00  0.00     0.022 A 
BRANCH  90  93
ATOM     93  S   UNL     1      13.655  12.637  -2.042  1.00  0.00     0.127 S 
ATOM     94  O   UNL     1      14.718  13.423  -1.422  1.00  0.00    -0.237 OA
ATOM     95  O   UNL     1      13.519  12.817  -3.488  1.00  0.00    -0.237 OA
ATOM     96  O   UNL     1      12.386  12.598  -1.327  1.00  0.00    -0.744 OA
ENDBRANCH  90  93
ENDBRANCH  62  86
BRANCH  74  97
ATOM     97  C   UNL     1      17.472   4.972   3.993  1.00  0.00     0.023 A 
ATOM     98  C   UNL     1      17.960   5.994   4.829  1.00  0.00     0.012 A 
ATOM     99  C   UNL     1      18.273   3.842   3.735  1.00  0.00     0.148 A 
ATOM    100  C   UNL     1      19.232   5.901   5.390  1.00  0.00     0.002 A 
ATOM    101  C   UNL     1      19.523   3.736   4.332  1.00  0.00     0.091 A 
ATOM    102  F   UNL     1      17.794   2.890   2.922  1.00  0.00    -0.205 F 
ATOM    103  C   UNL     1      20.007   4.767   5.154  1.00  0.00     0.022 A 
BRANCH 101 104
ATOM    104  S   UNL     1      20.550   2.271   4.163  1.00  0.00     0.127 S 
ATOM    105  O   UNL     1      21.605   2.748   3.272  1.00  0.00    -0.237 OA
ATOM    106  O   UNL     1      20.979   2.030   5.542  1.00  0.00    -0.237 OA
ATOM    107  O   UNL     1      19.684   1.237   3.611  1.00  0.00    -0.744 OA
ENDBRANCH 101 104
ENDBRANCH  74  97
ENDBRANCH  48  49
ENDBRANCH  41  43
ENDBRANCH  40  41
ENDBRANCH  39  40
ENDBRANCH   1  39
TORSDOF 20
