REMARK SMILES O=C(OCCOC(=O)c1ccc(-c2c3nc(c(-c4cccc(S(=O)(=O)[O-])c4F)c4ccc([nH]4)c(-c4cccc(S(=O)(=O)[O-])c4F)c4nc(c(-c5cccc(S(=O)(=O)[O-])c5F)c5ccc2[nH]5)C=C4)C=C3)cc1)C1=Cc2cc(Cl)cc(Cl)c2O[C@@H]1C(F)(F)F
REMARK SMILES IDX 5 1 4 2 3 3 2 4 1 5 72 6 73 7 83 8 74 9 82 10 75 11 81 12
REMARK SMILES IDX 76 13 79 14 77 15 78 16 80 17 84 18 85 19 86 20 87 21 6 22
REMARK SMILES IDX 7 23 8 24 9 25 10 26 71 27 11 28 70 29 12 30 13 31 14 32
REMARK SMILES IDX 64 33 15 34 69 35 63 36 65 37 16 38 68 39 62 40 61 41 17 43
REMARK SMILES IDX 49 44 29 45 48 46 30 47 33 48 47 49 66 50 31 51 32 52 46 54
REMARK SMILES IDX 67 55 34 56 18 57 19 58 27 59 20 60 22 61 28 62 21 63 23 64
REMARK SMILES IDX 24 65 25 66 26 67 50 68 51 69 59 70 52 71 54 72 60 73 53 74
REMARK SMILES IDX 55 75 56 76 57 77 58 78 35 79 36 80 44 81 37 82 39 83 45 84
REMARK SMILES IDX 38 85 40 86 41 87 42 88 43 89
REMARK H PARENT 65 42 33 53
REMARK Flexibility Score: inf
ROOT
ATOM      1  C   UNL     1       4.717  -0.514   0.795  1.00  0.00     0.275 C 
ENDROOT
BRANCH   1   2
ATOM      2  C   UNL     1       3.911  -0.232  -1.210  1.00  0.00     0.275 C 
BRANCH   2   3
ATOM      3  O   UNL     1       3.127  -1.281  -2.037  1.00  0.00    -0.459 OA
BRANCH   3   4
ATOM      4  C   UNL     1       3.376  -2.544  -1.673  1.00  0.00     0.338 C 
ATOM      5  O   UNL     1       2.869  -3.571  -2.038  1.00  0.00    -0.246 OA
BRANCH   4   6
ATOM      6  C   UNL     1       4.166  -2.194  -0.519  1.00  0.00     0.087 C 
ATOM      7  C   UNL     1       5.528  -1.771  -0.909  1.00  0.00     0.027 C 
ATOM      8  C   UNL     1       2.839  -1.055   0.304  1.00  0.00     0.316 C 
ATOM      9  C   UNL     1       6.091  -0.049  -0.834  1.00  0.00     0.020 A 
ATOM     10  O   UNL     1       3.407   0.785   0.356  1.00  0.00    -0.474 OA
ATOM     11  C   UNL     1       7.265   0.268  -1.458  1.00  0.00     0.032 A 
ATOM     12  C   UNL     1       5.052   1.242  -0.291  1.00  0.00     0.146 A 
ATOM     13  C   UNL     1       7.500   1.645  -1.606  1.00  0.00     0.043 A 
ATOM     14  C   UNL     1       5.383   2.556  -0.474  1.00  0.00     0.085 A 
ATOM     15  Cl  UNL     1       8.934   2.091  -2.479  1.00  0.00    -0.084 Cl
ATOM     16  C   UNL     1       6.623   2.720  -1.146  1.00  0.00     0.045 A 
ATOM     17  Cl  UNL     1       4.420   3.888  -0.053  1.00  0.00    -0.080 Cl
BRANCH   8  18
ATOM     18  C   UNL     1       2.332  -2.049   1.407  1.00  0.00     0.430 C 
ATOM     19  F   UNL     1       1.099  -1.744   1.827  1.00  0.00    -0.167 F 
ATOM     20  F   UNL     1       2.198  -3.280   0.827  1.00  0.00    -0.167 F 
ATOM     21  F   UNL     1       3.159  -2.288   2.437  1.00  0.00    -0.167 F 
ENDBRANCH   8  18
ENDBRANCH   4   6
ENDBRANCH   3   4
ENDBRANCH   2   3
ENDBRANCH   1   2
BRANCH   1  22
ATOM     22  O   UNL     1       3.908  -0.175   2.241  1.00  0.00    -0.458 OA
BRANCH  22  23
ATOM     23  C   UNL     1       3.136   0.757   2.879  1.00  0.00     0.338 C 
ATOM     24  O   UNL     1       2.835   1.886   2.547  1.00  0.00    -0.246 OA
BRANCH  23  25
ATOM     25  C   UNL     1       2.421  -0.025   3.931  1.00  0.00     0.060 A 
ATOM     26  C   UNL     1       1.034  -0.217   3.811  1.00  0.00     0.016 A 
ATOM     27  C   UNL     1       3.171  -0.848   4.776  1.00  0.00     0.016 A 
ATOM     28  C   UNL     1       0.438  -1.348   4.396  1.00  0.00     0.010 A 
ATOM     29  C   UNL     1       2.577  -1.974   5.348  1.00  0.00     0.010 A 
ATOM     30  C   UNL     1       1.216  -2.257   5.130  1.00  0.00    -0.014 A 
BRANCH  30  31
ATOM     31  C   UNL     1       0.563  -3.304   5.955  1.00  0.00     0.031 A 
ATOM     32  C   UNL     1       0.180  -2.860   7.337  1.00  0.00     0.074 A 
ATOM     33  C   UNL     1       0.372  -4.582   5.564  1.00  0.00     0.049 A 
ATOM     34  N   UNL     1      -0.420  -3.514   8.290  1.00  0.00    -0.248 NA
ATOM     35  C   UNL     1       0.556  -1.477   7.693  1.00  0.00     0.031 C 
ATOM     36  C   UNL     1       0.749  -5.159   4.273  1.00  0.00     0.029 A 
ATOM     37  N   UNL     1      -0.180  -5.644   6.246  1.00  0.00    -0.354 N 
ATOM     38  C   UNL     1      -0.481  -2.626   9.355  1.00  0.00     0.074 A 
ATOM     39  C   UNL     1       0.195  -1.416   8.959  1.00  0.00     0.031 C 
ATOM     40  C   UNL     1       0.428  -6.470   4.263  1.00  0.00     0.029 A 
ATOM     41  C   UNL     1      -0.181  -6.831   5.543  1.00  0.00     0.049 A 
ATOM     42  H   UNL     1      -0.542  -5.563   7.158  1.00  0.00     0.167 HD
ATOM     43  C   UNL     1      -1.081  -2.780  10.554  1.00  0.00     0.034 A 
ATOM     44  C   UNL     1      -0.639  -8.052   5.899  1.00  0.00     0.034 A 
ATOM     45  C   UNL     1      -1.732  -3.986  10.957  1.00  0.00     0.049 A 
ATOM     46  C   UNL     1      -1.304  -8.208   7.255  1.00  0.00     0.074 A 
ATOM     47  C   UNL     1      -2.393  -4.256  12.137  1.00  0.00     0.029 A 
ATOM     48  N   UNL     1      -1.777  -5.138  10.187  1.00  0.00    -0.354 N 
ATOM     49  N   UNL     1      -1.507  -7.308   8.189  1.00  0.00    -0.248 NA
ATOM     50  C   UNL     1      -1.848  -9.536   7.585  1.00  0.00     0.031 C 
ATOM     51  C   UNL     1      -2.814  -5.589  12.094  1.00  0.00     0.029 A 
ATOM     52  C   UNL     1      -2.456  -6.128  10.867  1.00  0.00     0.049 A 
ATOM     53  H   UNL     1      -1.384  -5.235   9.290  1.00  0.00     0.167 HD
ATOM     54  C   UNL     1      -2.255  -7.940   9.179  1.00  0.00     0.074 A 
ATOM     55  C   UNL     1      -2.473  -9.299   8.730  1.00  0.00     0.031 C 
ATOM     56  C   UNL     1      -2.719  -7.448  10.356  1.00  0.00     0.034 A 
BRANCH  43  57
ATOM     57  C   UNL     1      -1.041  -1.596  11.475  1.00  0.00     0.023 A 
ATOM     58  C   UNL     1      -1.770  -0.432  11.148  1.00  0.00     0.012 A 
ATOM     59  C   UNL     1      -0.227  -1.607  12.620  1.00  0.00     0.148 A 
ATOM     60  C   UNL     1      -1.640   0.724  11.913  1.00  0.00     0.002 A 
ATOM     61  C   UNL     1      -0.146  -0.468  13.410  1.00  0.00     0.091 A 
ATOM     62  F   UNL     1       0.483  -2.711  12.889  1.00  0.00    -0.205 F 
ATOM     63  C   UNL     1      -0.834   0.703  13.047  1.00  0.00     0.022 A 
BRANCH  61  64
ATOM     64  S   UNL     1       0.810  -0.411  14.926  1.00  0.00     0.127 S 
ATOM     65  O   UNL     1       1.858   0.548  14.579  1.00  0.00    -0.237 OA
ATOM     66  O   UNL     1      -0.177   0.082  15.886  1.00  0.00    -0.237 OA
ATOM     67  O   UNL     1       1.268  -1.772  15.166  1.00  0.00    -0.744 OA
ENDBRANCH  61  64
ENDBRANCH  43  57
BRANCH  44  68
ATOM     68  C   UNL     1      -0.587  -9.220   4.960  1.00  0.00     0.023 A 
ATOM     69  C   UNL     1      -1.792  -9.749   4.447  1.00  0.00     0.012 A 
ATOM     70  C   UNL     1       0.626  -9.853   4.621  1.00  0.00     0.148 A 
ATOM     71  C   UNL     1      -1.797 -10.906   3.664  1.00  0.00     0.002 A 
ATOM     72  C   UNL     1       0.618 -10.981   3.801  1.00  0.00     0.091 A 
ATOM     73  F   UNL     1       1.763  -9.355   5.124  1.00  0.00    -0.205 F 
ATOM     74  C   UNL     1      -0.593 -11.520   3.338  1.00  0.00     0.022 A 
BRANCH  72  75
ATOM     75  S   UNL     1       2.122 -11.800   3.251  1.00  0.00     0.127 S 
ATOM     76  O   UNL     1       2.021 -13.095   3.920  1.00  0.00    -0.237 OA
ATOM     77  O   UNL     1       1.928 -11.842   1.801  1.00  0.00    -0.237 OA
ATOM     78  O   UNL     1       3.219 -10.950   3.691  1.00  0.00    -0.744 OA
ENDBRANCH  72  75
ENDBRANCH  44  68
BRANCH  56  79
ATOM     79  C   UNL     1      -3.583  -8.339  11.209  1.00  0.00     0.023 A 
ATOM     80  C   UNL     1      -3.020  -9.425  11.906  1.00  0.00     0.012 A 
ATOM     81  C   UNL     1      -4.940  -8.014  11.409  1.00  0.00     0.148 A 
ATOM     82  C   UNL     1      -3.805 -10.195  12.764  1.00  0.00     0.002 A 
ATOM     83  C   UNL     1      -5.699  -8.748  12.310  1.00  0.00     0.091 A 
ATOM     84  F   UNL     1      -5.461  -6.986  10.723  1.00  0.00    -0.205 F 
ATOM     85  C   UNL     1      -5.138  -9.848  12.978  1.00  0.00     0.022 A 
BRANCH  83  86
ATOM     86  S   UNL     1      -7.383  -8.289  12.736  1.00  0.00     0.127 S 
ATOM     87  O   UNL     1      -8.158  -9.298  12.016  1.00  0.00    -0.237 OA
ATOM     88  O   UNL     1      -7.388  -8.438  14.191  1.00  0.00    -0.237 OA
ATOM     89  O   UNL     1      -7.553  -6.918  12.272  1.00  0.00    -0.744 OA
ENDBRANCH  83  86
ENDBRANCH  56  79
ENDBRANCH  30  31
ENDBRANCH  23  25
ENDBRANCH  22  23
ENDBRANCH   1  22
TORSDOF 15
