REMARK SMILES O=C(OCCOC(=O)[C@H]1CC[C@H]2CCCC[C@@H]2N1C(=O)c1ccn[nH]1)c1ccc(-c2c3nc(c(-c4cccc(S(=O)(=O)[O-])c4F)c4ccc([nH]4)c(-c4cccc(S(=O)(=O)[O-])c4F)c4nc(c(-c5cccc(S(=O)(=O)[O-])c5F)c5ccc2[nH]5)C=C4)C=C3)cc1
REMARK SMILES IDX 4 1 3 2 2 3 1 4 26 5 27 6 88 7 28 8 87 9 29 10 30 11 31 12
REMARK SMILES IDX 81 13 32 14 86 15 80 16 82 17 33 18 85 19 79 20 78 21 34 23
REMARK SMILES IDX 66 24 46 25 65 26 47 27 50 28 64 29 83 30 48 31 49 32 63 34
REMARK SMILES IDX 84 35 51 36 35 37 36 38 44 39 37 40 39 41 45 42 38 43 40 44
REMARK SMILES IDX 41 45 42 46 43 47 67 48 68 49 76 50 69 51 71 52 77 53 70 54
REMARK SMILES IDX 72 55 73 56 74 57 75 58 52 59 53 60 61 61 54 62 56 63 62 64
REMARK SMILES IDX 55 65 57 66 58 67 59 68 60 69 5 70 6 71 7 72 8 73 9 74 10 75
REMARK SMILES IDX 18 76 11 77 17 78 12 79 16 80 13 81 15 82 14 83 19 84 20 85
REMARK SMILES IDX 21 86 22 87 25 88 23 89 24 90
REMARK H PARENT 82 22 50 33 25 91
REMARK Flexibility Score: inf
ROOT
ATOM      1  C   UNL     1       4.053   1.257  -1.087  1.00  0.00     0.275 C 
ENDROOT
BRANCH   1   2
ATOM      2  O   UNL     1       3.125   0.165  -1.192  1.00  0.00    -0.458 OA
BRANCH   2   3
ATOM      3  C   UNL     1       3.448  -1.149  -1.084  1.00  0.00     0.338 C 
ATOM      4  O   UNL     1       2.904  -1.989  -1.795  1.00  0.00    -0.246 OA
BRANCH   3   5
ATOM      5  C   UNL     1       4.222  -1.610   0.102  1.00  0.00     0.060 A 
ATOM      6  C   UNL     1       5.492  -1.150   0.456  1.00  0.00     0.016 A 
ATOM      7  C   UNL     1       3.631  -2.615   0.883  1.00  0.00     0.016 A 
ATOM      8  C   UNL     1       6.114  -1.597   1.629  1.00  0.00     0.010 A 
ATOM      9  C   UNL     1       4.246  -3.055   2.061  1.00  0.00     0.010 A 
ATOM     10  C   UNL     1       5.489  -2.538   2.455  1.00  0.00    -0.014 A 
BRANCH  10  11
ATOM     11  C   UNL     1       6.170  -3.033   3.679  1.00  0.00     0.031 A 
ATOM     12  C   UNL     1       6.676  -4.447   3.722  1.00  0.00     0.074 A 
ATOM     13  C   UNL     1       6.311  -2.251   4.769  1.00  0.00     0.049 A 
ATOM     14  N   UNL     1       7.373  -5.041   4.655  1.00  0.00    -0.248 NA
ATOM     15  C   UNL     1       6.347  -5.306   2.573  1.00  0.00     0.031 C 
ATOM     16  C   UNL     1       5.794  -0.890   4.915  1.00  0.00     0.029 A 
ATOM     17  N   UNL     1       6.900  -2.509   5.985  1.00  0.00    -0.354 N 
ATOM     18  C   UNL     1       7.580  -6.335   4.198  1.00  0.00     0.074 A 
ATOM     19  C   UNL     1       6.864  -6.465   2.949  1.00  0.00     0.031 C 
ATOM     20  C   UNL     1       6.036  -0.464   6.167  1.00  0.00     0.029 A 
ATOM     21  C   UNL     1       6.778  -1.483   6.892  1.00  0.00     0.049 A 
ATOM     22  H   UNL     1       7.367  -3.352   6.187  1.00  0.00     0.167 HD
ATOM     23  C   UNL     1       8.357  -7.309   4.726  1.00  0.00     0.034 A 
ATOM     24  C   UNL     1       7.234  -1.352   8.153  1.00  0.00     0.034 A 
ATOM     25  C   UNL     1       9.090  -7.183   5.952  1.00  0.00     0.049 A 
ATOM     26  C   UNL     1       8.117  -2.430   8.717  1.00  0.00     0.074 A 
ATOM     27  C   UNL     1       9.955  -8.087   6.541  1.00  0.00     0.029 A 
ATOM     28  N   UNL     1       9.038  -6.076   6.785  1.00  0.00    -0.354 N 
ATOM     29  N   UNL     1       8.482  -3.562   8.168  1.00  0.00    -0.248 NA
ATOM     30  C   UNL     1       8.713  -2.181  10.038  1.00  0.00     0.031 C 
ATOM     31  C   UNL     1      10.433  -7.520   7.729  1.00  0.00     0.029 A 
ATOM     32  C   UNL     1       9.863  -6.266   7.878  1.00  0.00     0.049 A 
ATOM     33  H   UNL     1       8.493  -5.272   6.622  1.00  0.00     0.167 HD
ATOM     34  C   UNL     1       9.390  -4.135   9.049  1.00  0.00     0.074 A 
ATOM     35  C   UNL     1       9.526  -3.221  10.165  1.00  0.00     0.031 C 
ATOM     36  C   UNL     1      10.046  -5.316   8.945  1.00  0.00     0.034 A 
BRANCH  23  37
ATOM     37  C   UNL     1       8.521  -8.548   3.892  1.00  0.00     0.023 A 
ATOM     38  C   UNL     1       9.329  -8.475   2.736  1.00  0.00     0.012 A 
ATOM     39  C   UNL     1       7.859  -9.748   4.202  1.00  0.00     0.148 A 
ATOM     40  C   UNL     1       9.436  -9.562   1.874  1.00  0.00     0.002 A 
ATOM     41  C   UNL     1       7.997 -10.840   3.352  1.00  0.00     0.091 A 
ATOM     42  F   UNL     1       7.078  -9.787   5.291  1.00  0.00    -0.205 F 
ATOM     43  C   UNL     1       8.773 -10.745   2.183  1.00  0.00     0.022 A 
BRANCH  41  44
ATOM     44  S   UNL     1       7.212 -12.423   3.671  1.00  0.00     0.127 S 
ATOM     45  O   UNL     1       6.179 -12.453   2.637  1.00  0.00    -0.237 OA
ATOM     46  O   UNL     1       8.315 -13.361   3.458  1.00  0.00    -0.237 OA
ATOM     47  O   UNL     1       6.725 -12.360   5.041  1.00  0.00    -0.744 OA
ENDBRANCH  41  44
ENDBRANCH  23  37
BRANCH  24  48
ATOM     48  C   UNL     1       6.988  -0.101   8.927  1.00  0.00     0.023 A 
ATOM     49  C   UNL     1       8.035   0.830   9.079  1.00  0.00     0.012 A 
ATOM     50  C   UNL     1       5.743   0.160   9.530  1.00  0.00     0.148 A 
ATOM     51  C   UNL     1       7.863   1.976   9.855  1.00  0.00     0.002 A 
ATOM     52  C   UNL     1       5.572   1.313  10.291  1.00  0.00     0.091 A 
ATOM     53  F   UNL     1       4.750  -0.720   9.338  1.00  0.00    -0.205 F 
ATOM     54  C   UNL     1       6.634   2.216  10.463  1.00  0.00     0.022 A 
BRANCH  52  55
ATOM     55  S   UNL     1       4.024   1.725  11.105  1.00  0.00     0.127 S 
ATOM     56  O   UNL     1       4.447   1.875  12.496  1.00  0.00    -0.237 OA
ATOM     57  O   UNL     1       3.661   2.969  10.431  1.00  0.00    -0.237 OA
ATOM     58  O   UNL     1       3.132   0.602  10.851  1.00  0.00    -0.744 OA
ENDBRANCH  52  55
ENDBRANCH  24  48
BRANCH  36  59
ATOM     59  C   UNL     1      11.009  -5.678  10.040  1.00  0.00     0.023 A 
ATOM     60  C   UNL     1      10.516  -6.117  11.284  1.00  0.00     0.012 A 
ATOM     61  C   UNL     1      12.397  -5.665   9.808  1.00  0.00     0.148 A 
ATOM     62  C   UNL     1      11.395  -6.520  12.289  1.00  0.00     0.002 A 
ATOM     63  C   UNL     1      13.264  -6.109  10.798  1.00  0.00     0.091 A 
ATOM     64  F   UNL     1      12.847  -5.212   8.628  1.00  0.00    -0.205 F 
ATOM     65  C   UNL     1      12.766  -6.530  12.042  1.00  0.00     0.022 A 
BRANCH  63  66
ATOM     66  S   UNL     1      15.034  -6.242  10.517  1.00  0.00     0.127 S 
ATOM     67  O   UNL     1      15.530  -5.020  11.143  1.00  0.00    -0.237 OA
ATOM     68  O   UNL     1      15.375  -7.475  11.228  1.00  0.00    -0.237 OA
ATOM     69  O   UNL     1      15.194  -6.324   9.070  1.00  0.00    -0.744 OA
ENDBRANCH  63  66
ENDBRANCH  36  59
ENDBRANCH  10  11
ENDBRANCH   3   5
ENDBRANCH   2   3
ENDBRANCH   1   2
BRANCH   1  70
ATOM     70  C   UNL     1       3.710   2.247   0.028  1.00  0.00     0.274 C 
BRANCH  70  71
ATOM     71  O   UNL     1       3.404   1.642   1.292  1.00  0.00    -0.461 OA
BRANCH  71  72
ATOM     72  C   UNL     1       2.063   1.511   1.547  1.00  0.00     0.329 C 
ATOM     73  O   UNL     1       1.186   1.636   0.696  1.00  0.00    -0.250 OA
BRANCH  72  74
ATOM     74  C   UNL     1       1.763   0.988   2.978  1.00  0.00     0.195 C 
ATOM     75  C   UNL     1       2.095  -0.508   2.862  1.00  0.00     0.037 C 
ATOM     76  N   UNL     1       2.477   1.581   4.128  1.00  0.00    -0.320 N 
ATOM     77  C   UNL     1       2.176  -1.308   4.149  1.00  0.00     0.008 C 
ATOM     78  C   UNL     1       2.354   0.873   5.437  1.00  0.00     0.089 C 
ATOM     79  C   UNL     1       1.666  -0.513   5.323  1.00  0.00     0.012 C 
ATOM     80  C   UNL     1       1.524   1.633   6.497  1.00  0.00     0.025 C 
ATOM     81  C   UNL     1       1.828  -1.293   6.632  1.00  0.00     0.006 C 
ATOM     82  C   UNL     1       1.581   0.914   7.848  1.00  0.00     0.002 C 
ATOM     83  C   UNL     1       1.145  -0.547   7.773  1.00  0.00     0.000 C 
BRANCH  76  84
ATOM     84  C   UNL     1       2.828   2.938   4.043  1.00  0.00     0.272 C 
ATOM     85  O   UNL     1       2.411   3.645   3.128  1.00  0.00    -0.267 OA
BRANCH  84  86
ATOM     86  C   UNL     1       3.667   3.516   5.060  1.00  0.00     0.123 A 
ATOM     87  C   UNL     1       4.850   3.128   5.652  1.00  0.00     0.055 A 
ATOM     88  N   UNL     1       3.385   4.735   5.615  1.00  0.00    -0.273 N 
ATOM     89  C   UNL     1       5.136   4.127   6.602  1.00  0.00     0.135 A 
ATOM     90  N   UNL     1       4.272   5.142   6.536  1.00  0.00    -0.183 NA
ATOM     91  H   UNL     1       2.598   5.269   5.360  1.00  0.00     0.190 HD
ENDBRANCH  84  86
ENDBRANCH  76  84
ENDBRANCH  72  74
ENDBRANCH  71  72
ENDBRANCH  70  71
ENDBRANCH   1  70
TORSDOF 16
