REMARK SMILES O=C(Cc1cc[nH]n1)Nc1nc(CC(=O)OCCOC(=O)c2ccc(-c3c4nc(c(-c5cccc(S(=O)(=O)[O-])c5F)c5ccc([nH]5)c(-c5cccc(S(=O)(=O)[O-])c5F)c5nc(c(-c6cccc(S(=O)(=O)[O-])c6F)c6ccc3[nH]6)C=C5)C=C4)cc2)cs1
REMARK SMILES IDX 17 1 16 2 14 3 15 4 13 5 12 6 10 7 11 8 86 9 85 10 9 11 1 12
REMARK SMILES IDX 2 13 3 15 4 16 5 17 8 18 6 19 7 20 18 22 19 23 20 24 21 25
REMARK SMILES IDX 22 26 23 27 84 28 24 29 83 30 25 31 26 32 27 33 77 34 28 35
REMARK SMILES IDX 82 36 76 37 78 38 29 39 81 40 75 41 74 42 30 44 62 45 42 46
REMARK SMILES IDX 61 47 43 48 46 49 60 50 79 51 44 52 45 53 59 55 80 56 47 57
REMARK SMILES IDX 31 58 32 59 40 60 33 61 35 62 41 63 34 64 36 65 37 66 38 67
REMARK SMILES IDX 39 68 63 69 64 70 72 71 65 72 67 73 73 74 66 75 68 76 69 77
REMARK SMILES IDX 70 78 71 79 48 80 49 81 57 82 50 83 52 84 58 85 51 86 53 87
REMARK SMILES IDX 54 88 55 89 56 90
REMARK H PARENT 9 14 7 21 78 43 46 54
REMARK Flexibility Score: inf
ROOT
ATOM      1  C   UNL     1       1.194  -7.695   0.734  1.00  0.00     0.274 C 
ENDROOT
BRANCH   1   2
ATOM      2  O   UNL     1       1.022  -6.264   0.709  1.00  0.00    -0.462 OA
BRANCH   2   3
ATOM      3  C   UNL     1      -0.267  -5.829   0.703  1.00  0.00     0.312 C 
ATOM      4  O   UNL     1      -1.245  -6.570   0.692  1.00  0.00    -0.252 OA
BRANCH   3   5
ATOM      5  C   UNL     1      -0.414  -4.331   0.645  1.00  0.00     0.179 C 
BRANCH   5   6
ATOM      6  C   UNL     1       0.729  -3.518   1.156  1.00  0.00     0.065 A 
ATOM      7  C   UNL     1       2.092  -1.789   0.972  1.00  0.00     0.189 A 
ATOM      8  N   UNL     1       1.136  -2.446   0.374  1.00  0.00    -0.224 NA
ATOM      9  S   UNL     1       2.607  -2.404   2.475  1.00  0.00    -0.105 S 
ATOM     10  C   UNL     1       1.397  -3.619   2.364  1.00  0.00     0.093 A 
BRANCH   7  11
ATOM     11  N   UNL     1       2.751  -0.672   0.555  1.00  0.00    -0.302 N 
ATOM     12  O   UNL     1       1.365  -0.154  -1.243  1.00  0.00    -0.274 OA
ATOM     13  C   UNL     1       2.355   0.056  -0.544  1.00  0.00     0.232 C 
ATOM     14  H   UNL     1       3.541  -0.373   1.060  1.00  0.00     0.172 HD
BRANCH  13  15
ATOM     15  C   UNL     1       3.323   1.157  -0.940  1.00  0.00     0.158 C 
BRANCH  15  16
ATOM     16  C   UNL     1       3.896   1.917   0.209  1.00  0.00     0.071 A 
ATOM     17  C   UNL     1       3.729   3.288   0.514  1.00  0.00     0.045 A 
ATOM     18  N   UNL     1       4.703   1.310   1.096  1.00  0.00    -0.180 NA
ATOM     19  C   UNL     1       4.496   3.498   1.633  1.00  0.00     0.105 A 
ATOM     20  N   UNL     1       5.053   2.294   1.944  1.00  0.00    -0.285 N 
ATOM     21  H   UNL     1       5.652   2.158   2.713  1.00  0.00     0.189 HD
ENDBRANCH  15  16
ENDBRANCH  13  15
ENDBRANCH   7  11
ENDBRANCH   5   6
ENDBRANCH   3   5
ENDBRANCH   2   3
ENDBRANCH   1   2
BRANCH   1  22
ATOM     22  C   UNL     1       1.457  -8.194   2.153  1.00  0.00     0.275 C 
BRANCH  22  23
ATOM     23  O   UNL     1       0.348  -7.869   3.009  1.00  0.00    -0.458 OA
BRANCH  23  24
ATOM     24  C   UNL     1       0.630  -7.054   4.050  1.00  0.00     0.338 C 
ATOM     25  O   UNL     1       1.713  -6.593   4.364  1.00  0.00    -0.246 OA
BRANCH  24  26
ATOM     26  C   UNL     1      -0.608  -6.743   4.776  1.00  0.00     0.060 A 
ATOM     27  C   UNL     1      -1.485  -5.780   4.271  1.00  0.00     0.016 A 
ATOM     28  C   UNL     1      -0.833  -7.330   6.021  1.00  0.00     0.016 A 
ATOM     29  C   UNL     1      -2.583  -5.377   5.029  1.00  0.00     0.010 A 
ATOM     30  C   UNL     1      -1.955  -6.954   6.760  1.00  0.00     0.010 A 
ATOM     31  C   UNL     1      -2.825  -5.958   6.282  1.00  0.00    -0.014 A 
BRANCH  31  32
ATOM     32  C   UNL     1      -3.972  -5.518   7.114  1.00  0.00     0.031 A 
ATOM     33  C   UNL     1      -3.731  -4.770   8.396  1.00  0.00     0.074 A 
ATOM     34  C   UNL     1      -5.225  -5.843   6.747  1.00  0.00     0.049 A 
ATOM     35  N   UNL     1      -4.591  -4.398   9.308  1.00  0.00    -0.248 NA
ATOM     36  C   UNL     1      -2.338  -4.403   8.697  1.00  0.00     0.031 C 
ATOM     37  C   UNL     1      -5.583  -6.587   5.539  1.00  0.00     0.029 A 
ATOM     38  N   UNL     1      -6.426  -5.620   7.373  1.00  0.00    -0.354 N 
ATOM     39  C   UNL     1      -3.843  -3.799  10.313  1.00  0.00     0.074 A 
ATOM     40  C   UNL     1      -2.457  -3.855   9.899  1.00  0.00     0.031 C 
ATOM     41  C   UNL     1      -6.912  -6.780   5.522  1.00  0.00     0.029 A 
ATOM     42  C   UNL     1      -7.493  -6.204   6.732  1.00  0.00     0.049 A 
ATOM     43  H   UNL     1      -6.515  -5.092   8.199  1.00  0.00     0.167 HD
ATOM     44  C   UNL     1      -4.273  -3.237  11.468  1.00  0.00     0.034 A 
ATOM     45  C   UNL     1      -8.789  -6.290   7.090  1.00  0.00     0.034 A 
ATOM     46  C   UNL     1      -5.655  -3.135  11.854  1.00  0.00     0.049 A 
ATOM     47  C   UNL     1      -9.244  -5.637   8.366  1.00  0.00     0.074 A 
ATOM     48  C   UNL     1      -6.194  -2.514  12.967  1.00  0.00     0.029 A 
ATOM     49  N   UNL     1      -6.717  -3.669  11.141  1.00  0.00    -0.354 N 
ATOM     50  N   UNL     1      -8.541  -4.961   9.242  1.00  0.00    -0.248 NA
ATOM     51  C   UNL     1     -10.675  -5.733   8.690  1.00  0.00     0.031 C 
ATOM     52  C   UNL     1      -7.583  -2.681  12.931  1.00  0.00     0.029 A 
ATOM     53  C   UNL     1      -7.909  -3.401  11.793  1.00  0.00     0.049 A 
ATOM     54  H   UNL     1      -6.636  -4.167  10.295  1.00  0.00     0.167 HD
ATOM     55  C   UNL     1      -9.443  -4.534  10.209  1.00  0.00     0.074 A 
ATOM     56  C   UNL     1     -10.750  -5.006   9.797  1.00  0.00     0.031 C 
ATOM     57  C   UNL     1      -9.209  -3.833  11.346  1.00  0.00     0.034 A 
BRANCH  44  58
ATOM     58  C   UNL     1      -3.234  -2.647  12.383  1.00  0.00     0.023 A 
ATOM     59  C   UNL     1      -2.650  -1.407  12.057  1.00  0.00     0.012 A 
ATOM     60  C   UNL     1      -2.873  -3.288  13.583  1.00  0.00     0.148 A 
ATOM     61  C   UNL     1      -1.701  -0.826  12.899  1.00  0.00     0.002 A 
ATOM     62  C   UNL     1      -1.952  -2.686  14.434  1.00  0.00     0.091 A 
ATOM     63  F   UNL     1      -3.417  -4.481  13.863  1.00  0.00    -0.205 F 
ATOM     64  C   UNL     1      -1.360  -1.460  14.091  1.00  0.00     0.022 A 
BRANCH  62  65
ATOM     65  S   UNL     1      -1.506  -3.405  16.020  1.00  0.00     0.127 S 
ATOM     66  O   UNL     1      -0.237  -4.057  15.704  1.00  0.00    -0.237 OA
ATOM     67  O   UNL     1      -1.387  -2.226  16.879  1.00  0.00    -0.237 OA
ATOM     68  O   UNL     1      -2.606  -4.293  16.370  1.00  0.00    -0.744 OA
ENDBRANCH  62  65
ENDBRANCH  44  58
BRANCH  45  69
ATOM     69  C   UNL     1      -9.750  -6.989   6.194  1.00  0.00     0.023 A 
ATOM     70  C   UNL     1     -10.682  -6.233   5.459  1.00  0.00     0.012 A 
ATOM     71  C   UNL     1      -9.702  -8.386   6.015  1.00  0.00     0.148 A 
ATOM     72  C   UNL     1     -11.560  -6.856   4.572  1.00  0.00     0.002 A 
ATOM     73  C   UNL     1     -10.543  -8.994   5.091  1.00  0.00     0.091 A 
ATOM     74  F   UNL     1      -8.820  -9.090   6.740  1.00  0.00    -0.205 F 
ATOM     75  C   UNL     1     -11.481  -8.233   4.377  1.00  0.00     0.022 A 
BRANCH  73  76
ATOM     76  S   UNL     1     -10.413 -10.739   4.682  1.00  0.00     0.127 S 
ATOM     77  O   UNL     1     -11.582 -11.293   5.359  1.00  0.00    -0.237 OA
ATOM     78  O   UNL     1     -10.500 -10.718   3.221  1.00  0.00    -0.237 OA
ATOM     79  O   UNL     1      -9.118 -11.164   5.196  1.00  0.00    -0.744 OA
ENDBRANCH  73  76
ENDBRANCH  45  69
BRANCH  57  80
ATOM     80  C   UNL     1     -10.388  -3.523  12.228  1.00  0.00     0.023 A 
ATOM     81  C   UNL     1     -10.939  -4.543  13.028  1.00  0.00     0.012 A 
ATOM     82  C   UNL     1     -10.901  -2.215  12.324  1.00  0.00     0.148 A 
ATOM     83  C   UNL     1     -11.999  -4.272  13.892  1.00  0.00     0.002 A 
ATOM     84  C   UNL     1     -11.932  -1.943  13.217  1.00  0.00     0.091 A 
ATOM     85  F   UNL     1     -10.380  -1.261  11.538  1.00  0.00    -0.205 F 
ATOM     86  C   UNL     1     -12.488  -2.971  13.995  1.00  0.00     0.022 A 
BRANCH  84  87
ATOM     87  S   UNL     1     -12.556  -0.277  13.470  1.00  0.00     0.127 S 
ATOM     88  O   UNL     1     -13.767  -0.283  12.652  1.00  0.00    -0.237 OA
ATOM     89  O   UNL     1     -12.796  -0.243  14.914  1.00  0.00    -0.237 OA
ATOM     90  O   UNL     1     -11.493   0.612  13.020  1.00  0.00    -0.744 OA
ENDBRANCH  84  87
ENDBRANCH  57  80
ENDBRANCH  31  32
ENDBRANCH  24  26
ENDBRANCH  23  24
ENDBRANCH  22  23
ENDBRANCH   1  22
TORSDOF 18
