REMARK SMILES Cc1cccc2c1N=CN1C2=[NH+]NC(=O)[C@@H]1CC(=O)OCCOC(=O)c1ccc(-c2c3nc(c(-c4cccc(S(=O)(=O)[O-])c4F)c4ccc([nH]4)c(-c4cccc(S(=O)(=O)[O-])c4F)c4nc(c(-c5cccc(S(=O)(=O)[O-])c5F)c5ccc2[nH]5)C=C4)C=C3)cc1
REMARK SMILES IDX 22 1 21 2 20 3 18 4 19 5 17 6 16 7 1 8 2 9 3 10 7 11 4 12
REMARK SMILES IDX 6 13 8 14 5 15 11 16 9 17 10 18 12 19 13 20 14 22 15 24
REMARK SMILES IDX 23 25 24 26 25 27 26 28 27 29 88 30 28 31 87 32 29 33 30 34
REMARK SMILES IDX 31 35 81 36 32 37 86 38 80 39 82 40 33 41 85 42 79 43 78 44
REMARK SMILES IDX 34 46 66 47 46 48 65 49 47 50 50 51 64 52 83 53 48 54 49 55
REMARK SMILES IDX 63 57 84 58 51 59 35 60 36 61 44 62 37 63 39 64 45 65 38 66
REMARK SMILES IDX 40 67 41 68 42 69 43 70 67 71 68 72 76 73 69 74 71 75 77 76
REMARK SMILES IDX 70 77 72 78 73 79 74 80 75 81 52 82 53 83 61 84 54 85 56 86
REMARK SMILES IDX 62 87 55 88 57 89 58 90 59 91 60 92
REMARK H PARENT 12 21 13 23 82 45 50 56
REMARK Flexibility Score: inf
ROOT
ATOM      1  C   UNL     1       4.686   4.784  -4.495  1.00  0.00     0.275 C 
ENDROOT
BRANCH   1   2
ATOM      2  C   UNL     1       4.536   3.916  -3.250  1.00  0.00     0.274 C 
BRANCH   2   3
ATOM      3  O   UNL     1       3.356   4.345  -2.534  1.00  0.00    -0.462 OA
BRANCH   3   4
ATOM      4  C   UNL     1       3.590   5.244  -1.549  1.00  0.00     0.310 C 
ATOM      5  O   UNL     1       4.695   5.489  -1.075  1.00  0.00    -0.252 OA
BRANCH   4   6
ATOM      6  C   UNL     1       2.374   6.003  -1.094  1.00  0.00     0.183 C 
BRANCH   6   7
ATOM      7  C   UNL     1       0.994   5.565  -1.570  1.00  0.00     0.286 C 
ATOM      8  C   UNL     1       0.938  -0.528   0.366  1.00  0.00     0.047 C 
ATOM      9  C   UNL     1       0.161   0.142  -0.732  1.00  0.00    -0.024 A 
ATOM     10  C   UNL     1      -0.413  -0.632  -1.756  1.00  0.00     0.006 A 
ATOM     11  C   UNL     1       0.102   1.543  -0.803  1.00  0.00     0.085 A 
ATOM     12  C   UNL     1      -1.089  -0.030  -2.818  1.00  0.00     0.001 A 
ATOM     13  C   UNL     1      -0.539   2.129  -1.911  1.00  0.00     0.092 A 
ATOM     14  N   UNL     1       0.757   2.312   0.188  1.00  0.00    -0.215 NA
ATOM     15  C   UNL     1      -1.167   1.354  -2.893  1.00  0.00     0.019 A 
ATOM     16  C   UNL     1      -0.278   3.573  -2.158  1.00  0.00     0.309 C 
ATOM     17  C   UNL     1       0.977   3.552  -0.109  1.00  0.00     0.317 C 
ATOM     18  N   UNL     1       0.604   4.182  -1.272  1.00  0.00    -0.202 N 
ATOM     19  N   UNL     1      -0.809   4.112  -3.217  1.00  0.00    -0.169 N 
ATOM     20  N   UNL     1      -0.315   5.313  -3.616  1.00  0.00    -0.193 N 
ATOM     21  H   UNL     1      -1.538   3.669  -3.709  1.00  0.00     0.340 HD
ATOM     22  C   UNL     1       0.787   5.903  -3.044  1.00  0.00     0.300 C 
ATOM     23  H   UNL     1      -0.768   5.784  -4.352  1.00  0.00     0.216 HD
ATOM     24  O   UNL     1       1.468   6.721  -3.656  1.00  0.00    -0.267 OA
ENDBRANCH   6   7
ENDBRANCH   4   6
ENDBRANCH   3   4
ENDBRANCH   2   3
ENDBRANCH   1   2
BRANCH   1  25
ATOM     25  O   UNL     1       4.803   6.160  -4.095  1.00  0.00    -0.458 OA
BRANCH  25  26
ATOM     26  C   UNL     1       4.237   7.039  -4.957  1.00  0.00     0.338 C 
ATOM     27  O   UNL     1       3.724   6.757  -6.028  1.00  0.00    -0.246 OA
BRANCH  26  28
ATOM     28  C   UNL     1       4.397   8.432  -4.473  1.00  0.00     0.060 A 
ATOM     29  C   UNL     1       4.560   8.780  -3.124  1.00  0.00     0.016 A 
ATOM     30  C   UNL     1       4.379   9.431  -5.450  1.00  0.00     0.016 A 
ATOM     31  C   UNL     1       4.687  10.127  -2.759  1.00  0.00     0.010 A 
ATOM     32  C   UNL     1       4.552  10.763  -5.092  1.00  0.00     0.010 A 
ATOM     33  C   UNL     1       4.696  11.124  -3.745  1.00  0.00    -0.014 A 
BRANCH  33  34
ATOM     34  C   UNL     1       4.905  12.559  -3.440  1.00  0.00     0.031 A 
ATOM     35  C   UNL     1       3.794  13.542  -3.674  1.00  0.00     0.074 A 
ATOM     36  C   UNL     1       6.144  12.981  -3.123  1.00  0.00     0.049 A 
ATOM     37  N   UNL     1       3.837  14.848  -3.676  1.00  0.00    -0.248 NA
ATOM     38  C   UNL     1       2.462  12.983  -3.963  1.00  0.00     0.031 C 
ATOM     39  C   UNL     1       7.304  12.111  -2.922  1.00  0.00     0.029 A 
ATOM     40  N   UNL     1       6.645  14.248  -2.968  1.00  0.00    -0.354 N 
ATOM     41  C   UNL     1       2.553  15.268  -4.002  1.00  0.00     0.074 A 
ATOM     42  C   UNL     1       1.751  14.079  -4.191  1.00  0.00     0.031 C 
ATOM     43  C   UNL     1       8.388  12.870  -2.695  1.00  0.00     0.029 A 
ATOM     44  C   UNL     1       8.006  14.276  -2.768  1.00  0.00     0.049 A 
ATOM     45  H   UNL     1       6.087  15.058  -2.997  1.00  0.00     0.167 HD
ATOM     46  C   UNL     1       2.087  16.534  -4.119  1.00  0.00     0.034 A 
ATOM     47  C   UNL     1       8.855  15.317  -2.677  1.00  0.00     0.034 A 
ATOM     48  C   UNL     1       2.891  17.706  -3.904  1.00  0.00     0.049 A 
ATOM     49  C   UNL     1       8.310  16.712  -2.792  1.00  0.00     0.074 A 
ATOM     50  C   UNL     1       2.502  19.033  -3.942  1.00  0.00     0.029 A 
ATOM     51  N   UNL     1       4.246  17.691  -3.613  1.00  0.00    -0.354 N 
ATOM     52  N   UNL     1       7.074  17.093  -3.002  1.00  0.00    -0.248 NA
ATOM     53  C   UNL     1       9.265  17.818  -2.635  1.00  0.00     0.031 C 
ATOM     54  C   UNL     1       3.625  19.822  -3.674  1.00  0.00     0.029 A 
ATOM     55  C   UNL     1       4.710  18.985  -3.463  1.00  0.00     0.049 A 
ATOM     56  H   UNL     1       4.796  16.880  -3.526  1.00  0.00     0.167 HD
ATOM     57  C   UNL     1       7.093  18.481  -2.978  1.00  0.00     0.074 A 
ATOM     58  C   UNL     1       8.465  18.875  -2.724  1.00  0.00     0.031 C 
ATOM     59  C   UNL     1       6.070  19.349  -3.162  1.00  0.00     0.034 A 
BRANCH  46  60
ATOM     60  C   UNL     1       0.629  16.727  -4.434  1.00  0.00     0.023 A 
ATOM     61  C   UNL     1      -0.316  16.583  -3.398  1.00  0.00     0.012 A 
ATOM     62  C   UNL     1       0.203  17.140  -5.710  1.00  0.00     0.148 A 
ATOM     63  C   UNL     1      -1.666  16.838  -3.630  1.00  0.00     0.002 A 
ATOM     64  C   UNL     1      -1.143  17.418  -5.928  1.00  0.00     0.091 A 
ATOM     65  F   UNL     1       1.119  17.259  -6.682  1.00  0.00    -0.205 F 
ATOM     66  C   UNL     1      -2.078  17.264  -4.890  1.00  0.00     0.022 A 
BRANCH  64  67
ATOM     67  S   UNL     1      -1.777  18.020  -7.497  1.00  0.00     0.127 S 
ATOM     68  O   UNL     1      -2.644  16.916  -7.908  1.00  0.00    -0.237 OA
ATOM     69  O   UNL     1      -2.486  19.235  -7.096  1.00  0.00    -0.237 OA
ATOM     70  O   UNL     1      -0.614  18.241  -8.346  1.00  0.00    -0.744 OA
ENDBRANCH  64  67
ENDBRANCH  46  60
BRANCH  47  71
ATOM     71  C   UNL     1      10.291  15.058  -2.391  1.00  0.00     0.023 A 
ATOM     72  C   UNL     1      10.766  15.249  -1.080  1.00  0.00     0.012 A 
ATOM     73  C   UNL     1      11.156  14.527  -3.369  1.00  0.00     0.148 A 
ATOM     74  C   UNL     1      12.078  14.918  -0.745  1.00  0.00     0.002 A 
ATOM     75  C   UNL     1      12.451  14.164  -3.019  1.00  0.00     0.091 A 
ATOM     76  F   UNL     1      10.679  14.356  -4.610  1.00  0.00    -0.205 F 
ATOM     77  C   UNL     1      12.916  14.365  -1.710  1.00  0.00     0.022 A 
BRANCH  75  78
ATOM     78  S   UNL     1      13.574  13.344  -4.158  1.00  0.00     0.127 S 
ATOM     79  O   UNL     1      14.630  14.343  -4.307  1.00  0.00    -0.237 OA
ATOM     80  O   UNL     1      13.956  12.154  -3.398  1.00  0.00    -0.237 OA
ATOM     81  O   UNL     1      12.794  13.073  -5.358  1.00  0.00    -0.744 OA
ENDBRANCH  75  78
ENDBRANCH  47  71
BRANCH  59  82
ATOM     82  C   UNL     1       6.375  20.817  -3.077  1.00  0.00     0.023 A 
ATOM     83  C   UNL     1       6.938  21.471  -4.189  1.00  0.00     0.012 A 
ATOM     84  C   UNL     1       5.986  21.564  -1.948  1.00  0.00     0.148 A 
ATOM     85  C   UNL     1       7.116  22.852  -4.177  1.00  0.00     0.002 A 
ATOM     86  C   UNL     1       6.136  22.945  -1.957  1.00  0.00     0.091 A 
ATOM     87  F   UNL     1       5.463  20.912  -0.900  1.00  0.00    -0.205 F 
ATOM     88  C   UNL     1       6.705  23.590  -3.068  1.00  0.00     0.022 A 
BRANCH  86  89
ATOM     89  S   UNL     1       5.565  23.986  -0.610  1.00  0.00     0.127 S 
ATOM     90  O   UNL     1       6.828  24.464  -0.048  1.00  0.00    -0.237 OA
ATOM     91  O   UNL     1       4.786  25.005  -1.314  1.00  0.00    -0.237 OA
ATOM     92  O   UNL     1       4.784  23.123   0.265  1.00  0.00    -0.744 OA
ENDBRANCH  86  89
ENDBRANCH  59  82
ENDBRANCH  33  34
ENDBRANCH  26  28
ENDBRANCH  25  26
ENDBRANCH   1  25
TORSDOF 15
