REMARK SMILES Cc1cn2c(CC(=O)N[C@@H](C(=O)OCCOC(=O)c3ccc(-c4c5nc(c(-c6cccc(S(=O)(=O)[O-])c6F)c6ccc([nH]6)c(-c6cccc(S(=O)(=O)[O-])c6F)c6nc(c(-c7cccc(S(=O)(=O)[O-])c7F)c7ccc4[nH]7)C=C6)C=C5)cc3)[C@H](C)O)csc2n1
REMARK SMILES IDX 14 1 13 2 11 3 12 4 10 5 9 6 7 7 8 8 6 10 5 11 1 12 2 13
REMARK SMILES IDX 3 14 88 15 4 16 87 17 86 18 85 19 82 20 83 21 84 22 15 24
REMARK SMILES IDX 16 25 17 26 18 27 19 28 20 29 81 30 21 31 80 32 22 33 23 34
REMARK SMILES IDX 24 35 74 36 25 37 79 38 73 39 75 40 26 41 78 42 72 43 71 44
REMARK SMILES IDX 27 46 59 47 39 48 58 49 40 50 43 51 57 52 76 53 41 54 42 55
REMARK SMILES IDX 56 57 77 58 44 59 28 60 29 61 37 62 30 63 32 64 38 65 31 66
REMARK SMILES IDX 33 67 34 68 35 69 36 70 60 71 61 72 69 73 62 74 64 75 70 76
REMARK SMILES IDX 63 77 65 78 66 79 67 80 68 81 45 82 46 83 54 84 47 85 49 86
REMARK SMILES IDX 55 87 48 88 50 89 51 90 52 91 53 92
REMARK H PARENT 9 9 84 23 75 45 43 56
REMARK Flexibility Score: inf
ROOT
ATOM      1  C   UNL     1      -0.084  -7.673   3.647  1.00  0.00     0.274 C 
ENDROOT
BRANCH   1   2
ATOM      2  O   UNL     1       0.753  -6.628   3.103  1.00  0.00    -0.460 OA
BRANCH   2   3
ATOM      3  C   UNL     1       0.148  -5.435   2.839  1.00  0.00     0.331 C 
ATOM      4  O   UNL     1      -1.024  -5.184   3.088  1.00  0.00    -0.250 OA
BRANCH   3   5
ATOM      5  C   UNL     1       1.095  -4.435   2.146  1.00  0.00     0.221 C 
BRANCH   5   6
ATOM      6  N   UNL     1       2.434  -5.002   1.897  1.00  0.00    -0.340 N 
ATOM      7  C   UNL     1       2.937  -5.457   0.712  1.00  0.00     0.226 C 
ATOM      8  O   UNL     1       4.029  -6.026   0.706  1.00  0.00    -0.275 OA
ATOM      9  H   UNL     1       3.034  -5.060   2.675  1.00  0.00     0.164 HD
BRANCH   7  10
ATOM     10  C   UNL     1       2.128  -5.286  -0.572  1.00  0.00     0.155 C 
BRANCH  10  11
ATOM     11  C   UNL     1       1.073  -6.344  -0.645  1.00  0.00     0.044 A 
ATOM     12  C   UNL     1      -3.627  -4.698  -0.252  1.00  0.00     0.068 C 
ATOM     13  C   UNL     1      -2.370  -5.452  -0.468  1.00  0.00     0.057 A 
ATOM     14  C   UNL     1      -1.086  -4.956  -0.655  1.00  0.00     0.117 A 
ATOM     15  N   UNL     1      -2.372  -6.837  -0.466  1.00  0.00    -0.224 NA
ATOM     16  N   UNL     1      -0.285  -6.061  -0.660  1.00  0.00    -0.294 N 
ATOM     17  C   UNL     1      -1.112  -7.143  -0.597  1.00  0.00     0.194 A 
ATOM     18  S   UNL     1      -0.213  -8.625  -0.582  1.00  0.00    -0.105 S 
ATOM     19  C   UNL     1       1.281  -7.678  -0.610  1.00  0.00     0.091 A 
ENDBRANCH  10  11
ENDBRANCH   7  10
ENDBRANCH   5   6
BRANCH   5  20
ATOM     20  C   UNL     1       1.212  -3.078   2.861  1.00  0.00     0.145 C 
ATOM     21  C   UNL     1      -0.072  -2.255   2.803  1.00  0.00     0.041 C 
BRANCH  20  22
ATOM     22  O   UNL     1       2.216  -2.291   2.195  1.00  0.00    -0.391 OA
ATOM     23  H   UNL     1       1.946  -2.131   1.277  1.00  0.00     0.211 HD
ENDBRANCH  20  22
ENDBRANCH   5  20
ENDBRANCH   3   5
ENDBRANCH   2   3
ENDBRANCH   1   2
BRANCH   1  24
ATOM     24  C   UNL     1       0.277  -7.957   5.103  1.00  0.00     0.275 C 
BRANCH  24  25
ATOM     25  O   UNL     1      -0.028  -6.803   5.905  1.00  0.00    -0.458 OA
BRANCH  25  26
ATOM     26  C   UNL     1       1.027  -6.159   6.445  1.00  0.00     0.338 C 
ATOM     27  O   UNL     1       2.207  -6.486   6.393  1.00  0.00    -0.246 OA
BRANCH  26  28
ATOM     28  C   UNL     1       0.578  -4.887   7.024  1.00  0.00     0.060 A 
ATOM     29  C   UNL     1       0.068  -3.921   6.162  1.00  0.00     0.016 A 
ATOM     30  C   UNL     1       0.795  -4.582   8.365  1.00  0.00     0.016 A 
ATOM     31  C   UNL     1      -0.114  -2.616   6.601  1.00  0.00     0.010 A 
ATOM     32  C   UNL     1       0.494  -3.296   8.833  1.00  0.00     0.010 A 
ATOM     33  C   UNL     1       0.083  -2.283   7.947  1.00  0.00    -0.014 A 
BRANCH  33  34
ATOM     34  C   UNL     1      -0.107  -0.871   8.391  1.00  0.00     0.031 A 
ATOM     35  C   UNL     1       1.014  -0.122   9.065  1.00  0.00     0.074 A 
ATOM     36  C   UNL     1      -1.276  -0.238   8.159  1.00  0.00     0.049 A 
ATOM     37  N   UNL     1       0.997   1.064   9.617  1.00  0.00    -0.248 NA
ATOM     38  C   UNL     1       2.319  -0.799   9.149  1.00  0.00     0.031 C 
ATOM     39  C   UNL     1      -2.448  -0.835   7.515  1.00  0.00     0.029 A 
ATOM     40  N   UNL     1      -1.671   1.050   8.428  1.00  0.00    -0.354 N 
ATOM     41  C   UNL     1       2.249   1.235  10.194  1.00  0.00     0.074 A 
ATOM     42  C   UNL     1       3.013   0.041   9.905  1.00  0.00     0.031 C 
ATOM     43  C   UNL     1      -3.405   0.094   7.388  1.00  0.00     0.029 A 
ATOM     44  C   UNL     1      -2.954   1.331   8.016  1.00  0.00     0.049 A 
ATOM     45  H   UNL     1      -1.091   1.710   8.872  1.00  0.00     0.167 HD
ATOM     46  C   UNL     1       2.725   2.292  10.893  1.00  0.00     0.034 A 
ATOM     47  C   UNL     1      -3.701   2.445   8.150  1.00  0.00     0.034 A 
ATOM     48  C   UNL     1       2.010   3.526  11.086  1.00  0.00     0.049 A 
ATOM     49  C   UNL     1      -3.122   3.633   8.863  1.00  0.00     0.074 A 
ATOM     50  C   UNL     1       2.434   4.673  11.734  1.00  0.00     0.029 A 
ATOM     51  N   UNL     1       0.734   3.784  10.610  1.00  0.00    -0.354 N 
ATOM     52  N   UNL     1      -1.922   3.784   9.369  1.00  0.00    -0.248 NA
ATOM     53  C   UNL     1      -3.996   4.804   9.024  1.00  0.00     0.031 C 
ATOM     54  C   UNL     1       1.415   5.628  11.645  1.00  0.00     0.029 A 
ATOM     55  C   UNL     1       0.356   5.073  10.944  1.00  0.00     0.049 A 
ATOM     56  H   UNL     1       0.178   3.144  10.109  1.00  0.00     0.167 HD
ATOM     57  C   UNL     1      -1.899   5.061   9.915  1.00  0.00     0.074 A 
ATOM     58  C   UNL     1      -3.188   5.661   9.635  1.00  0.00     0.031 C 
ATOM     59  C   UNL     1      -0.913   5.669  10.620  1.00  0.00     0.034 A 
BRANCH  46  60
ATOM     60  C   UNL     1       4.105   2.176  11.481  1.00  0.00     0.023 A 
ATOM     61  C   UNL     1       5.234   2.338  10.656  1.00  0.00     0.012 A 
ATOM     62  C   UNL     1       4.281   1.960  12.862  1.00  0.00     0.148 A 
ATOM     63  C   UNL     1       6.519   2.263  11.193  1.00  0.00     0.002 A 
ATOM     64  C   UNL     1       5.564   1.921  13.395  1.00  0.00     0.091 A 
ATOM     65  F   UNL     1       3.195   1.776  13.627  1.00  0.00    -0.205 F 
ATOM     66  C   UNL     1       6.684   2.066  12.562  1.00  0.00     0.022 A 
BRANCH  64  67
ATOM     67  S   UNL     1       5.856   1.740  15.159  1.00  0.00     0.127 S 
ATOM     68  O   UNL     1       6.148   0.312  15.267  1.00  0.00    -0.237 OA
ATOM     69  O   UNL     1       7.010   2.615  15.380  1.00  0.00    -0.237 OA
ATOM     70  O   UNL     1       4.631   2.189  15.806  1.00  0.00    -0.744 OA
ENDBRANCH  64  67
ENDBRANCH  46  60
BRANCH  47  71
ATOM     71  C   UNL     1      -5.073   2.483   7.569  1.00  0.00     0.023 A 
ATOM     72  C   UNL     1      -5.328   3.299   6.450  1.00  0.00     0.012 A 
ATOM     73  C   UNL     1      -6.103   1.660   8.065  1.00  0.00     0.148 A 
ATOM     74  C   UNL     1      -6.584   3.295   5.839  1.00  0.00     0.002 A 
ATOM     75  C   UNL     1      -7.328   1.610   7.411  1.00  0.00     0.091 A 
ATOM     76  F   UNL     1      -5.857   0.916   9.153  1.00  0.00    -0.205 F 
ATOM     77  C   UNL     1      -7.577   2.437   6.306  1.00  0.00     0.022 A 
BRANCH  75  78
ATOM     78  S   UNL     1      -8.574   0.394   7.856  1.00  0.00     0.127 S 
ATOM     79  O   UNL     1      -9.447   1.164   8.737  1.00  0.00    -0.237 OA
ATOM     80  O   UNL     1      -9.157   0.052   6.557  1.00  0.00    -0.237 OA
ATOM     81  O   UNL     1      -7.830  -0.696   8.474  1.00  0.00    -0.744 OA
ENDBRANCH  75  78
ENDBRANCH  47  71
BRANCH  59  82
ATOM     82  C   UNL     1      -1.198   7.045  11.156  1.00  0.00     0.023 A 
ATOM     83  C   UNL     1      -2.015   7.179  12.296  1.00  0.00     0.012 A 
ATOM     84  C   UNL     1      -0.621   8.191  10.579  1.00  0.00     0.148 A 
ATOM     85  C   UNL     1      -2.272   8.436  12.841  1.00  0.00     0.002 A 
ATOM     86  C   UNL     1      -0.854   9.438  11.148  1.00  0.00     0.091 A 
ATOM     87  F   UNL     1       0.133   8.048   9.479  1.00  0.00    -0.205 F 
ATOM     88  C   UNL     1      -1.684   9.564  12.274  1.00  0.00     0.022 A 
BRANCH  86  89
ATOM     89  S   UNL     1      -0.068  10.924  10.513  1.00  0.00     0.127 S 
ATOM     90  O   UNL     1      -1.099  11.453   9.623  1.00  0.00    -0.237 OA
ATOM     91  O   UNL     1       0.152  11.714  11.726  1.00  0.00    -0.237 OA
ATOM     92  O   UNL     1       1.157  10.468   9.869  1.00  0.00    -0.744 OA
ENDBRANCH  86  89
ENDBRANCH  59  82
ENDBRANCH  33  34
ENDBRANCH  26  28
ENDBRANCH  25  26
ENDBRANCH  24  25
ENDBRANCH   1  24
TORSDOF 19
