REMARK SMILES CCc1ccc2[nH]c(C(=O)c3cc(C)ccn3)c(CC(=O)OCCOC(=O)c3ccc(-c4c5nc(c(-c6cccc(S(=O)(=O)[O-])c6F)c6ccc([nH]6)c(-c6cccc(S(=O)(=O)[O-])c6F)c6nc(c(-c7cccc(S(=O)(=O)[O-])c7F)c7ccc4[nH]7)C=C6)C=C5)cc3)c2c1
REMARK SMILES IDX 23 1 22 2 20 3 21 4 19 5 18 6 3 7 4 8 92 9 5 10 91 11 6 12
REMARK SMILES IDX 7 13 8 14 2 16 1 17 9 18 10 19 11 20 12 21 17 22 13 23 16 24
REMARK SMILES IDX 14 25 15 26 24 27 25 28 26 29 27 30 28 31 29 32 90 33 30 34
REMARK SMILES IDX 89 35 31 36 32 37 33 38 83 39 34 40 88 41 82 42 84 43 35 44
REMARK SMILES IDX 87 45 81 46 80 47 36 49 68 50 48 51 67 52 49 53 52 54 66 55
REMARK SMILES IDX 85 56 50 57 51 58 65 60 86 61 53 62 37 63 38 64 46 65 39 66
REMARK SMILES IDX 41 67 47 68 40 69 42 70 43 71 44 72 45 73 69 74 70 75 78 76
REMARK SMILES IDX 71 77 73 78 79 79 72 80 74 81 75 82 76 83 77 84 54 85 55 86
REMARK SMILES IDX 63 87 56 88 58 89 64 90 57 91 59 92 60 93 61 94 62 95
REMARK H PARENT 7 15 84 48 52 59
REMARK Flexibility Score: inf
ROOT
ATOM      1  C   UNL     1       0.599  -0.243   7.197  1.00  0.00     0.274 C 
ENDROOT
BRANCH   1   2
ATOM      2  O   UNL     1       1.265  -1.019   6.180  1.00  0.00    -0.462 OA
BRANCH   2   3
ATOM      3  C   UNL     1       2.294  -0.396   5.544  1.00  0.00     0.310 C 
ATOM      4  O   UNL     1       2.600   0.781   5.721  1.00  0.00    -0.252 OA
BRANCH   3   5
ATOM      5  C   UNL     1       3.097  -1.284   4.618  1.00  0.00     0.161 C 
BRANCH   5   6
ATOM      6  C   UNL     1       2.454  -2.574   4.207  1.00  0.00     0.000 A 
ATOM      7  C   UNL     1       0.572  -2.347   0.884  1.00  0.00    -0.048 A 
ATOM      8  C   UNL     1       0.243  -3.710   0.836  1.00  0.00     0.006 A 
ATOM      9  C   UNL     1       1.231  -1.853   2.019  1.00  0.00     0.014 A 
ATOM     10  C   UNL     1       0.572  -4.594   1.873  1.00  0.00     0.027 A 
ATOM     11  C   UNL     1       1.633  -2.733   3.046  1.00  0.00     0.004 A 
ATOM     12  C   UNL     1       1.288  -4.075   2.955  1.00  0.00     0.046 A 
ATOM     13  N   UNL     1       1.804  -4.695   4.070  1.00  0.00    -0.352 N 
ATOM     14  C   UNL     1       2.674  -3.850   4.726  1.00  0.00     0.093 A 
ATOM     15  H   UNL     1       1.583  -5.611   4.357  1.00  0.00     0.167 HD
BRANCH   7  16
ATOM     16  C   UNL     1       0.232  -1.475  -0.305  1.00  0.00     0.032 C 
ATOM     17  C   UNL     1       0.782  -0.052  -0.293  1.00  0.00     0.009 C 
ENDBRANCH   7  16
BRANCH  14  18
ATOM     18  C   UNL     1       3.684  -4.284   5.681  1.00  0.00     0.227 C 
ATOM     19  O   UNL     1       4.722  -3.660   5.884  1.00  0.00    -0.285 OA
BRANCH  18  20
ATOM     20  C   UNL     1       3.545  -5.603   6.343  1.00  0.00     0.113 A 
ATOM     21  C   UNL     1       4.307  -6.673   5.889  1.00  0.00     0.036 A 
ATOM     22  N   UNL     1       2.699  -5.664   7.396  1.00  0.00    -0.253 NA
ATOM     23  C   UNL     1       4.210  -7.887   6.573  1.00  0.00    -0.047 A 
ATOM     24  C   UNL     1       2.691  -6.819   8.090  1.00  0.00     0.112 A 
ATOM     25  C   UNL     1       4.974  -9.097   6.125  1.00  0.00     0.044 C 
ATOM     26  C   UNL     1       3.412  -7.944   7.719  1.00  0.00     0.023 A 
ENDBRANCH  18  20
ENDBRANCH  14  18
ENDBRANCH   5   6
ENDBRANCH   3   5
ENDBRANCH   2   3
ENDBRANCH   1   2
BRANCH   1  27
ATOM     27  C   UNL     1       1.006  -0.723   8.586  1.00  0.00     0.275 C 
BRANCH  27  28
ATOM     28  O   UNL     1       2.439  -0.793   8.669  1.00  0.00    -0.458 OA
BRANCH  28  29
ATOM     29  C   UNL     1       2.938  -2.027   8.908  1.00  0.00     0.338 C 
ATOM     30  O   UNL     1       2.295  -3.035   9.171  1.00  0.00    -0.246 OA
BRANCH  29  31
ATOM     31  C   UNL     1       4.412  -2.002   8.871  1.00  0.00     0.060 A 
ATOM     32  C   UNL     1       5.105  -1.339   7.857  1.00  0.00     0.016 A 
ATOM     33  C   UNL     1       5.111  -2.733   9.832  1.00  0.00     0.016 A 
ATOM     34  C   UNL     1       6.490  -1.483   7.754  1.00  0.00     0.010 A 
ATOM     35  C   UNL     1       6.505  -2.784   9.788  1.00  0.00     0.010 A 
ATOM     36  C   UNL     1       7.211  -2.184   8.733  1.00  0.00    -0.014 A 
BRANCH  36  37
ATOM     37  C   UNL     1       8.698  -2.265   8.686  1.00  0.00     0.031 A 
ATOM     38  C   UNL     1       9.398  -3.598   8.662  1.00  0.00     0.074 A 
ATOM     39  C   UNL     1       9.427  -1.131   8.725  1.00  0.00     0.049 A 
ATOM     40  N   UNL     1      10.671  -3.864   8.817  1.00  0.00    -0.248 NA
ATOM     41  C   UNL     1       8.560  -4.791   8.453  1.00  0.00     0.031 C 
ATOM     42  C   UNL     1       8.879   0.226   8.758  1.00  0.00     0.029 A 
ATOM     43  N   UNL     1      10.787  -0.939   8.761  1.00  0.00    -0.354 N 
ATOM     44  C   UNL     1      10.781  -5.249   8.785  1.00  0.00     0.074 A 
ATOM     45  C   UNL     1       9.444  -5.772   8.591  1.00  0.00     0.031 C 
ATOM     46  C   UNL     1       9.886   1.109   8.788  1.00  0.00     0.029 A 
ATOM     47  C   UNL     1      11.150   0.385   8.852  1.00  0.00     0.049 A 
ATOM     48  H   UNL     1      11.438  -1.676   8.726  1.00  0.00     0.167 HD
ATOM     49  C   UNL     1      11.894  -6.014   8.891  1.00  0.00     0.034 A 
ATOM     50  C   UNL     1      12.358   0.960   9.005  1.00  0.00     0.034 A 
ATOM     51  C   UNL     1      13.231  -5.491   9.014  1.00  0.00     0.049 A 
ATOM     52  C   UNL     1      13.578   0.090   9.094  1.00  0.00     0.074 A 
ATOM     53  C   UNL     1      14.423  -6.190   9.106  1.00  0.00     0.029 A 
ATOM     54  N   UNL     1      13.557  -4.144   9.038  1.00  0.00    -0.354 N 
ATOM     55  N   UNL     1      13.664  -1.216   9.030  1.00  0.00    -0.248 NA
ATOM     56  C   UNL     1      14.868   0.772   9.267  1.00  0.00     0.031 C 
ATOM     57  C   UNL     1      15.470  -5.265   9.179  1.00  0.00     0.029 A 
ATOM     58  C   UNL     1      14.931  -3.990   9.131  1.00  0.00     0.049 A 
ATOM     59  H   UNL     1      12.908  -3.405   8.995  1.00  0.00     0.167 HD
ATOM     60  C   UNL     1      15.016  -1.513   9.142  1.00  0.00     0.074 A 
ATOM     61  C   UNL     1      15.716  -0.249   9.247  1.00  0.00     0.031 C 
ATOM     62  C   UNL     1      15.619  -2.726   9.183  1.00  0.00     0.034 A 
BRANCH  49  63
ATOM     63  C   UNL     1      11.731  -7.509   8.824  1.00  0.00     0.023 A 
ATOM     64  C   UNL     1      11.530  -8.123   7.572  1.00  0.00     0.012 A 
ATOM     65  C   UNL     1      11.858  -8.311   9.976  1.00  0.00     0.148 A 
ATOM     66  C   UNL     1      11.441  -9.511   7.468  1.00  0.00     0.002 A 
ATOM     67  C   UNL     1      11.800  -9.696   9.860  1.00  0.00     0.091 A 
ATOM     68  F   UNL     1      12.026  -7.708  11.161  1.00  0.00    -0.205 F 
ATOM     69  C   UNL     1      11.587 -10.297   8.608  1.00  0.00     0.022 A 
BRANCH  67  70
ATOM     70  S   UNL     1      12.041 -10.792  11.264  1.00  0.00     0.127 S 
ATOM     71  O   UNL     1      10.668 -11.205  11.554  1.00  0.00    -0.237 OA
ATOM     72  O   UNL     1      12.885 -11.845  10.699  1.00  0.00    -0.237 OA
ATOM     73  O   UNL     1      12.688  -9.986  12.290  1.00  0.00    -0.744 OA
ENDBRANCH  67  70
ENDBRANCH  49  63
BRANCH  50  74
ATOM     74  C   UNL     1      12.458   2.445   9.038  1.00  0.00     0.023 A 
ATOM     75  C   UNL     1      13.002   3.120   7.929  1.00  0.00     0.012 A 
ATOM     76  C   UNL     1      11.942   3.193  10.114  1.00  0.00     0.148 A 
ATOM     77  C   UNL     1      13.035   4.514   7.893  1.00  0.00     0.002 A 
ATOM     78  C   UNL     1      11.925   4.581  10.047  1.00  0.00     0.091 A 
ATOM     79  F   UNL     1      11.450   2.531  11.172  1.00  0.00    -0.205 F 
ATOM     80  C   UNL     1      12.482   5.244   8.943  1.00  0.00     0.022 A 
BRANCH  78  81
ATOM     81  S   UNL     1      11.096   5.586  11.285  1.00  0.00     0.127 S 
ATOM     82  O   UNL     1      12.224   6.109  12.050  1.00  0.00    -0.237 OA
ATOM     83  O   UNL     1      10.399   6.575  10.462  1.00  0.00    -0.237 OA
ATOM     84  O   UNL     1      10.211   4.673  11.996  1.00  0.00    -0.744 OA
ENDBRANCH  78  81
ENDBRANCH  50  74
BRANCH  62  85
ATOM     85  C   UNL     1      17.114  -2.748   9.343  1.00  0.00     0.023 A 
ATOM     86  C   UNL     1      17.674  -2.500  10.612  1.00  0.00     0.012 A 
ATOM     87  C   UNL     1      17.959  -3.074   8.265  1.00  0.00     0.148 A 
ATOM     88  C   UNL     1      19.054  -2.552  10.801  1.00  0.00     0.002 A 
ATOM     89  C   UNL     1      19.332  -3.158   8.468  1.00  0.00     0.091 A 
ATOM     90  F   UNL     1      17.409  -3.282   7.059  1.00  0.00    -0.205 F 
ATOM     91  C   UNL     1      19.881  -2.891   9.733  1.00  0.00     0.022 A 
BRANCH  89  92
ATOM     92  S   UNL     1      20.458  -3.662   7.162  1.00  0.00     0.127 S 
ATOM     93  O   UNL     1      20.987  -2.377   6.710  1.00  0.00    -0.237 OA
ATOM     94  O   UNL     1      21.422  -4.498   7.879  1.00  0.00    -0.237 OA
ATOM     95  O   UNL     1      19.641  -4.385   6.196  1.00  0.00    -0.744 OA
ENDBRANCH  89  92
ENDBRANCH  62  85
ENDBRANCH  36  37
ENDBRANCH  29  31
ENDBRANCH  28  29
ENDBRANCH  27  28
ENDBRANCH   1  27
TORSDOF 18
