REMARK SMILES CS(=O)(=O)c1ccc(C2=NN(c3ccc(C(=O)OCCOC(=O)c4ccc(-c5c6nc(c(-c7cccc(S(=O)(=O)[O-])c7F)c7ccc([nH]7)c(-c7cccc(S(=O)(=O)[O-])c7F)c7nc(c(-c8cccc(S(=O)(=O)[O-])c8F)c8ccc5[nH]8)C=C7)C=C6)cc4)cc3)[C@H](c3ccc(F)cc3)C2)cc1
REMARK SMILES IDX 19 1 18 2 16 3 17 4 15 5 12 6 13 7 88 8 14 9 87 10 11 11
REMARK SMILES IDX 9 12 10 13 97 14 89 15 8 16 5 17 6 18 99 19 7 20 98 21 2 22
REMARK SMILES IDX 1 23 3 24 4 25 90 26 91 27 96 28 92 29 95 30 93 31 94 32
REMARK SMILES IDX 20 33 21 34 22 35 23 36 24 37 25 38 86 39 26 40 85 41 27 42
REMARK SMILES IDX 28 43 29 44 79 45 30 46 84 47 78 48 80 49 31 50 83 51 77 52
REMARK SMILES IDX 76 53 32 55 64 56 44 57 63 58 45 59 48 60 62 61 81 62 46 63
REMARK SMILES IDX 47 64 61 66 82 67 49 68 33 69 34 70 42 71 35 72 37 73 43 74
REMARK SMILES IDX 36 75 38 76 39 77 40 78 41 79 65 80 66 81 74 82 67 83 69 84
REMARK SMILES IDX 75 85 68 86 70 87 71 88 72 89 73 90 50 91 51 92 59 93 52 94
REMARK SMILES IDX 54 95 60 96 53 97 55 98 56 99 57 100 58 101
REMARK H PARENT 80 54 48 65
REMARK Flexibility Score: inf
ROOT
ATOM      1  C   UNL     1       8.908   7.308  11.101  1.00  0.00     0.275 C 
ENDROOT
BRANCH   1   2
ATOM      2  O   UNL     1       7.721   6.826  10.440  1.00  0.00    -0.458 OA
BRANCH   2   3
ATOM      3  C   UNL     1       7.257   7.601   9.425  1.00  0.00     0.338 C 
ATOM      4  O   UNL     1       7.708   8.671   9.069  1.00  0.00    -0.246 OA
BRANCH   3   5
ATOM      5  C   UNL     1       6.125   6.937   8.728  1.00  0.00     0.060 A 
ATOM      6  C   UNL     1       3.931   5.843   7.353  1.00  0.00     0.060 A 
ATOM      7  C   UNL     1       4.822   6.693   6.694  1.00  0.00     0.029 A 
ATOM      8  C   UNL     1       4.183   5.503   8.691  1.00  0.00     0.029 A 
ATOM      9  C   UNL     1       5.886   7.267   7.387  1.00  0.00     0.018 A 
ATOM     10  C   UNL     1       5.277   6.038   9.378  1.00  0.00     0.018 A 
BRANCH   6  11
ATOM     11  N   UNL     1       2.732   5.446   6.745  1.00  0.00    -0.257 N 
ATOM     12  C   UNL     1       1.801   4.963   4.882  1.00  0.00     0.071 C 
ATOM     13  N   UNL     1       2.809   4.659   5.638  1.00  0.00    -0.176 NA
ATOM     14  C   UNL     1       0.916   6.072   5.377  1.00  0.00     0.091 C 
ATOM     15  C   UNL     1       1.661   6.457   6.662  1.00  0.00     0.144 C 
BRANCH  12  16
ATOM     16  C   UNL     1       1.497   4.225   3.644  1.00  0.00    -0.002 A 
ATOM     17  C   UNL     1       0.854   2.714   1.394  1.00  0.00     0.067 A 
ATOM     18  C   UNL     1       1.298   2.070   2.550  1.00  0.00     0.021 A 
ATOM     19  C   UNL     1       0.760   4.112   1.348  1.00  0.00     0.021 A 
ATOM     20  C   UNL     1       1.631   2.832   3.670  1.00  0.00     0.011 A 
ATOM     21  C   UNL     1       1.071   4.872   2.482  1.00  0.00     0.011 A 
BRANCH  17  22
ATOM     22  S   UNL     1       0.373   1.792  -0.049  1.00  0.00     0.175 S 
ATOM     23  C   UNL     1       1.177   0.216   0.047  1.00  0.00     0.163 C 
ATOM     24  O   UNL     1       0.923   2.489  -1.195  1.00  0.00    -0.224 OA
ATOM     25  O   UNL     1      -1.055   1.571   0.077  1.00  0.00    -0.224 OA
ENDBRANCH  17  22
ENDBRANCH  12  16
BRANCH  15  26
ATOM     26  C   UNL     1       0.894   6.486   7.978  1.00  0.00    -0.023 A 
ATOM     27  C   UNL     1      -0.212   5.664   8.248  1.00  0.00     0.009 A 
ATOM     28  C   UNL     1       1.406   7.277   9.030  1.00  0.00     0.009 A 
ATOM     29  C   UNL     1      -0.774   5.627   9.528  1.00  0.00     0.039 A 
ATOM     30  C   UNL     1       0.866   7.213  10.315  1.00  0.00     0.039 A 
ATOM     31  C   UNL     1      -0.221   6.386  10.552  1.00  0.00     0.123 A 
ATOM     32  F   UNL     1      -0.730   6.302  11.787  1.00  0.00    -0.207 F 
ENDBRANCH  15  26
ENDBRANCH   6  11
ENDBRANCH   3   5
ENDBRANCH   2   3
ENDBRANCH   1   2
BRANCH   1  33
ATOM     33  C   UNL     1      10.139   6.513  10.665  1.00  0.00     0.275 C 
BRANCH  33  34
ATOM     34  O   UNL     1      10.454   6.782   9.288  1.00  0.00    -0.458 OA
BRANCH  34  35
ATOM     35  C   UNL     1      10.104   5.809   8.416  1.00  0.00     0.338 C 
ATOM     36  O   UNL     1       9.602   4.727   8.672  1.00  0.00    -0.246 OA
BRANCH  35  37
ATOM     37  C   UNL     1      10.345   6.267   7.041  1.00  0.00     0.060 A 
ATOM     38  C   UNL     1       9.378   7.063   6.436  1.00  0.00     0.016 A 
ATOM     39  C   UNL     1      11.429   5.799   6.305  1.00  0.00     0.016 A 
ATOM     40  C   UNL     1       9.429   7.319   5.070  1.00  0.00     0.010 A 
ATOM     41  C   UNL     1      11.534   6.142   4.952  1.00  0.00     0.010 A 
ATOM     42  C   UNL     1      10.517   6.875   4.308  1.00  0.00    -0.014 A 
BRANCH  42  43
ATOM     43  C   UNL     1      10.583   7.158   2.846  1.00  0.00     0.031 A 
ATOM     44  C   UNL     1      10.713   6.024   1.861  1.00  0.00     0.074 A 
ATOM     45  C   UNL     1      10.554   8.430   2.397  1.00  0.00     0.049 A 
ATOM     46  N   UNL     1      10.986   6.066   0.582  1.00  0.00    -0.248 NA
ATOM     47  C   UNL     1      10.526   4.662   2.387  1.00  0.00     0.031 C 
ATOM     48  C   UNL     1      10.411   9.622   3.236  1.00  0.00     0.029 A 
ATOM     49  N   UNL     1      10.667   8.936   1.124  1.00  0.00    -0.354 N 
ATOM     50  C   UNL     1      11.081   4.742   0.168  1.00  0.00     0.074 A 
ATOM     51  C   UNL     1      10.827   3.918   1.331  1.00  0.00     0.031 C 
ATOM     52  C   UNL     1      10.442  10.716   2.461  1.00  0.00     0.029 A 
ATOM     53  C   UNL     1      10.697  10.312   1.084  1.00  0.00     0.049 A 
ATOM     54  H   UNL     1      10.721   8.370   0.320  1.00  0.00     0.167 HD
ATOM     55  C   UNL     1      11.349   4.256  -1.068  1.00  0.00     0.034 A 
ATOM     56  C   UNL     1      10.958  11.160   0.069  1.00  0.00     0.034 A 
ATOM     57  C   UNL     1      11.536   5.081  -2.233  1.00  0.00     0.049 A 
ATOM     58  C   UNL     1      11.261  10.597  -1.291  1.00  0.00     0.074 A 
ATOM     59  C   UNL     1      11.767   4.686  -3.539  1.00  0.00     0.029 A 
ATOM     60  N   UNL     1      11.507   6.468  -2.235  1.00  0.00    -0.354 N 
ATOM     61  N   UNL     1      11.300   9.345  -1.674  1.00  0.00    -0.248 NA
ATOM     62  C   UNL     1      11.541  11.563  -2.362  1.00  0.00     0.031 C 
ATOM     63  C   UNL     1      11.901   5.833  -4.327  1.00  0.00     0.029 A 
ATOM     64  C   UNL     1      11.722   6.944  -3.518  1.00  0.00     0.049 A 
ATOM     65  H   UNL     1      11.357   7.030  -1.442  1.00  0.00     0.167 HD
ATOM     66  C   UNL     1      11.582   9.371  -3.034  1.00  0.00     0.074 A 
ATOM     67  C   UNL     1      11.680  10.766  -3.413  1.00  0.00     0.031 C 
ATOM     68  C   UNL     1      11.761   8.335  -3.889  1.00  0.00     0.034 A 
BRANCH  55  69
ATOM     69  C   UNL     1      11.442   2.760  -1.237  1.00  0.00     0.023 A 
ATOM     70  C   UNL     1      10.275   1.972  -1.183  1.00  0.00     0.012 A 
ATOM     71  C   UNL     1      12.679   2.143  -1.511  1.00  0.00     0.148 A 
ATOM     72  C   UNL     1      10.342   0.590  -1.363  1.00  0.00     0.002 A 
ATOM     73  C   UNL     1      12.732   0.772  -1.735  1.00  0.00     0.091 A 
ATOM     74  F   UNL     1      13.781   2.905  -1.542  1.00  0.00    -0.205 F 
ATOM     75  C   UNL     1      11.567  -0.008  -1.649  1.00  0.00     0.022 A 
BRANCH  73  76
ATOM     76  S   UNL     1      14.248  -0.080  -2.190  1.00  0.00     0.127 S 
ATOM     77  O   UNL     1      14.531  -0.847  -0.977  1.00  0.00    -0.237 OA
ATOM     78  O   UNL     1      13.816  -0.886  -3.333  1.00  0.00    -0.237 OA
ATOM     79  O   UNL     1      15.214   0.961  -2.511  1.00  0.00    -0.744 OA
ENDBRANCH  73  76
ENDBRANCH  55  69
BRANCH  56  80
ATOM     80  C   UNL     1      10.953  12.631   0.311  1.00  0.00     0.023 A 
ATOM     81  C   UNL     1       9.948  13.428  -0.269  1.00  0.00     0.012 A 
ATOM     82  C   UNL     1      11.915  13.239   1.143  1.00  0.00     0.148 A 
ATOM     83  C   UNL     1       9.915  14.805  -0.044  1.00  0.00     0.002 A 
ATOM     84  C   UNL     1      11.839  14.599   1.413  1.00  0.00     0.091 A 
ATOM     85  F   UNL     1      12.877  12.468   1.670  1.00  0.00    -0.205 F 
ATOM     86  C   UNL     1      10.851  15.388   0.807  1.00  0.00     0.022 A 
BRANCH  84  87
ATOM     87  S   UNL     1      12.912  15.402   2.610  1.00  0.00     0.127 S 
ATOM     88  O   UNL     1      13.786  16.192   1.745  1.00  0.00    -0.237 OA
ATOM     89  O   UNL     1      11.957  16.182   3.398  1.00  0.00    -0.237 OA
ATOM     90  O   UNL     1      13.555  14.323   3.346  1.00  0.00    -0.744 OA
ENDBRANCH  84  87
ENDBRANCH  56  80
BRANCH  68  91
ATOM     91  C   UNL     1      12.034   8.662  -5.333  1.00  0.00     0.023 A 
ATOM     92  C   UNL     1      13.293   9.165  -5.714  1.00  0.00     0.012 A 
ATOM     93  C   UNL     1      11.065   8.398  -6.321  1.00  0.00     0.148 A 
ATOM     94  C   UNL     1      13.575   9.425  -7.054  1.00  0.00     0.002 A 
ATOM     95  C   UNL     1      11.370   8.613  -7.659  1.00  0.00     0.091 A 
ATOM     96  F   UNL     1       9.866   7.938  -5.933  1.00  0.00    -0.205 F 
ATOM     97  C   UNL     1      12.619   9.138  -8.026  1.00  0.00     0.022 A 
BRANCH  95  98
ATOM     98  S   UNL     1      10.239   8.184  -8.986  1.00  0.00     0.127 S 
ATOM     99  O   UNL     1       9.839   9.502  -9.475  1.00  0.00    -0.237 OA
ATOM    100  O   UNL     1      11.103   7.432  -9.897  1.00  0.00    -0.237 OA
ATOM    101  O   UNL     1       9.176   7.398  -8.373  1.00  0.00    -0.744 OA
ENDBRANCH  95  98
ENDBRANCH  68  91
ENDBRANCH  42  43
ENDBRANCH  35  37
ENDBRANCH  34  35
ENDBRANCH  33  34
ENDBRANCH   1  33
TORSDOF 18
