REMARK SMILES O=C(OCCOC(=O)c1cc([C@@H]2C=NN=C2c2ccc(F)cc2)c2c(ccc3ccccc32)n1)c1ccc(-c2c3nc(c(-c4cccc(S(=O)(=O)[O-])c4F)c4ccc([nH]4)c(-c4cccc(S(=O)(=O)[O-])c4F)c4nc(c(-c5cccc(S(=O)(=O)[O-])c5F)c5ccc2[nH]5)C=C4)C=C3)cc1
REMARK SMILES IDX 4 1 3 2 2 3 1 4 35 5 36 6 97 7 37 8 96 9 38 10 39 11 40 12
REMARK SMILES IDX 90 13 41 14 95 15 89 16 91 17 42 18 94 19 88 20 87 21 43 23
REMARK SMILES IDX 75 24 55 25 74 26 56 27 59 28 73 29 92 30 57 31 58 32 72 34
REMARK SMILES IDX 93 35 60 36 44 37 45 38 53 39 46 40 48 41 54 42 47 43 49 44
REMARK SMILES IDX 50 45 51 46 52 47 76 48 77 49 85 50 78 51 80 52 86 53 79 54
REMARK SMILES IDX 81 55 82 56 83 57 84 58 61 59 62 60 70 61 63 62 65 63 71 64
REMARK SMILES IDX 64 65 66 66 67 67 68 68 69 69 5 70 6 71 7 72 8 73 9 74 10 75
REMARK SMILES IDX 34 76 11 77 25 78 24 79 26 80 33 81 27 82 28 83 32 84 29 85
REMARK SMILES IDX 31 86 30 87 12 88 13 89 16 90 14 91 15 92 17 93 18 94 23 95
REMARK SMILES IDX 19 96 22 97 20 98 21 99
REMARK H PARENT 91 22 59 33
REMARK Flexibility Score: inf
ROOT
ATOM      1  C   UNL     1       4.560  -0.102   1.147  1.00  0.00     0.275 C 
ENDROOT
BRANCH   1   2
ATOM      2  O   UNL     1       3.413   0.698   1.505  1.00  0.00    -0.458 OA
BRANCH   2   3
ATOM      3  C   UNL     1       2.286   0.611   0.759  1.00  0.00     0.338 C 
ATOM      4  O   UNL     1       1.418  -0.225   0.933  1.00  0.00    -0.246 OA
BRANCH   3   5
ATOM      5  C   UNL     1       2.160   1.769  -0.162  1.00  0.00     0.060 A 
ATOM      6  C   UNL     1       3.283   2.481  -0.598  1.00  0.00     0.016 A 
ATOM      7  C   UNL     1       0.883   2.143  -0.599  1.00  0.00     0.016 A 
ATOM      8  C   UNL     1       3.126   3.593  -1.409  1.00  0.00     0.010 A 
ATOM      9  C   UNL     1       0.725   3.261  -1.415  1.00  0.00     0.010 A 
ATOM     10  C   UNL     1       1.845   4.001  -1.794  1.00  0.00    -0.014 A 
BRANCH  10  11
ATOM     11  C   UNL     1       1.755   5.178  -2.653  1.00  0.00     0.031 A 
ATOM     12  C   UNL     1       2.422   5.062  -3.978  1.00  0.00     0.074 A 
ATOM     13  C   UNL     1       1.073   6.295  -2.339  1.00  0.00     0.049 A 
ATOM     14  N   UNL     1       3.502   5.649  -4.384  1.00  0.00    -0.248 NA
ATOM     15  C   UNL     1       1.876   4.092  -4.930  1.00  0.00     0.031 C 
ATOM     16  C   UNL     1       0.123   6.496  -1.243  1.00  0.00     0.029 A 
ATOM     17  N   UNL     1       1.015   7.474  -3.023  1.00  0.00    -0.354 N 
ATOM     18  C   UNL     1       3.643   5.295  -5.728  1.00  0.00     0.074 A 
ATOM     19  C   UNL     1       2.727   4.208  -5.949  1.00  0.00     0.031 C 
ATOM     20  C   UNL     1      -0.583   7.627  -1.471  1.00  0.00     0.029 A 
ATOM     21  C   UNL     1      -0.027   8.302  -2.629  1.00  0.00     0.049 A 
ATOM     22  H   UNL     1       1.655   7.716  -3.732  1.00  0.00     0.167 HD
ATOM     23  C   UNL     1       4.336   6.080  -6.602  1.00  0.00     0.034 A 
ATOM     24  C   UNL     1      -0.429   9.436  -3.250  1.00  0.00     0.034 A 
ATOM     25  C   UNL     1       5.184   7.018  -5.906  1.00  0.00     0.049 A 
ATOM     26  C   UNL     1       0.717   9.938  -4.039  1.00  0.00     0.074 A 
ATOM     27  C   UNL     1       6.219   6.933  -4.998  1.00  0.00     0.029 A 
ATOM     28  N   UNL     1       4.769   8.326  -5.882  1.00  0.00    -0.354 N 
ATOM     29  N   UNL     1       1.816  10.399  -3.511  1.00  0.00    -0.248 NA
ATOM     30  C   UNL     1       0.784   9.625  -5.456  1.00  0.00     0.031 C 
ATOM     31  C   UNL     1       6.064   8.072  -4.152  1.00  0.00     0.029 A 
ATOM     32  C   UNL     1       4.968   8.802  -4.617  1.00  0.00     0.049 A 
ATOM     33  H   UNL     1       4.396   8.831  -6.640  1.00  0.00     0.167 HD
ATOM     34  C   UNL     1       2.810  10.020  -4.399  1.00  0.00     0.074 A 
ATOM     35  C   UNL     1       2.105   9.688  -5.633  1.00  0.00     0.031 C 
ATOM     36  C   UNL     1       4.071   9.731  -3.961  1.00  0.00     0.034 A 
BRANCH  23  37
ATOM     37  C   UNL     1       3.990   6.289  -8.070  1.00  0.00     0.023 A 
ATOM     38  C   UNL     1       4.835   7.156  -8.809  1.00  0.00     0.012 A 
ATOM     39  C   UNL     1       2.764   5.940  -8.680  1.00  0.00     0.148 A 
ATOM     40  C   UNL     1       4.439   7.726 -10.024  1.00  0.00     0.002 A 
ATOM     41  C   UNL     1       2.407   6.447  -9.928  1.00  0.00     0.091 A 
ATOM     42  F   UNL     1       1.864   5.210  -8.020  1.00  0.00    -0.205 F 
ATOM     43  C   UNL     1       3.220   7.372 -10.584  1.00  0.00     0.022 A 
BRANCH  41  44
ATOM     44  S   UNL     1       0.868   5.977 -10.732  1.00  0.00     0.127 S 
ATOM     45  O   UNL     1       0.065   7.183 -10.549  1.00  0.00    -0.237 OA
ATOM     46  O   UNL     1       1.312   5.730 -12.104  1.00  0.00    -0.237 OA
ATOM     47  O   UNL     1       0.405   4.785 -10.032  1.00  0.00    -0.744 OA
ENDBRANCH  41  44
ENDBRANCH  23  37
BRANCH  24  48
ATOM     48  C   UNL     1      -1.788  10.002  -3.405  1.00  0.00     0.023 A 
ATOM     49  C   UNL     1      -1.936  11.351  -3.786  1.00  0.00     0.012 A 
ATOM     50  C   UNL     1      -2.919   9.159  -3.481  1.00  0.00     0.148 A 
ATOM     51  C   UNL     1      -3.155  11.832  -4.278  1.00  0.00     0.002 A 
ATOM     52  C   UNL     1      -4.129   9.643  -3.967  1.00  0.00     0.091 A 
ATOM     53  F   UNL     1      -2.782   7.863  -3.170  1.00  0.00    -0.205 F 
ATOM     54  C   UNL     1      -4.247  10.976  -4.381  1.00  0.00     0.022 A 
BRANCH  52  55
ATOM     55  S   UNL     1      -5.572   8.588  -4.162  1.00  0.00     0.127 S 
ATOM     56  O   UNL     1      -6.630   9.407  -3.570  1.00  0.00    -0.237 OA
ATOM     57  O   UNL     1      -5.647   8.446  -5.614  1.00  0.00    -0.237 OA
ATOM     58  O   UNL     1      -5.275   7.368  -3.422  1.00  0.00    -0.744 OA
ENDBRANCH  52  55
ENDBRANCH  24  48
BRANCH  36  59
ATOM     59  C   UNL     1       4.459  10.134  -2.560  1.00  0.00     0.023 A 
ATOM     60  C   UNL     1       3.819   9.597  -1.424  1.00  0.00     0.012 A 
ATOM     61  C   UNL     1       5.628  10.896  -2.385  1.00  0.00     0.148 A 
ATOM     62  C   UNL     1       4.328   9.821  -0.143  1.00  0.00     0.002 A 
ATOM     63  C   UNL     1       6.164  11.068  -1.115  1.00  0.00     0.091 A 
ATOM     64  F   UNL     1       6.225  11.398  -3.477  1.00  0.00    -0.205 F 
ATOM     65  C   UNL     1       5.511  10.540   0.010  1.00  0.00     0.022 A 
BRANCH  63  66
ATOM     66  S   UNL     1       7.764  11.841  -0.861  1.00  0.00     0.127 S 
ATOM     67  O   UNL     1       7.396  13.108  -0.234  1.00  0.00    -0.237 OA
ATOM     68  O   UNL     1       8.431  10.889   0.029  1.00  0.00    -0.237 OA
ATOM     69  O   UNL     1       8.374  11.950  -2.180  1.00  0.00    -0.744 OA
ENDBRANCH  63  66
ENDBRANCH  36  59
ENDBRANCH  10  11
ENDBRANCH   3   5
ENDBRANCH   2   3
ENDBRANCH   1   2
BRANCH   1  70
ATOM     70  C   UNL     1       4.310  -1.358   0.317  1.00  0.00     0.275 C 
BRANCH  70  71
ATOM     71  O   UNL     1       3.834  -0.979  -0.983  1.00  0.00    -0.457 OA
BRANCH  71  72
ATOM     72  C   UNL     1       2.772  -1.692  -1.440  1.00  0.00     0.357 C 
ATOM     73  O   UNL     1       2.290  -2.699  -0.956  1.00  0.00    -0.244 OA
BRANCH  72  74
ATOM     74  C   UNL     1       2.411  -1.151  -2.763  1.00  0.00     0.149 A 
ATOM     75  C   UNL     1       3.119  -1.615  -3.839  1.00  0.00     0.041 A 
ATOM     76  N   UNL     1       1.327  -0.379  -2.876  1.00  0.00    -0.241 NA
ATOM     77  C   UNL     1       2.662  -1.343  -5.148  1.00  0.00    -0.021 A 
ATOM     78  C   UNL     1       0.919  -0.036  -4.105  1.00  0.00     0.072 A 
ATOM     79  C   UNL     1       1.496  -0.491  -5.336  1.00  0.00     0.012 A 
ATOM     80  C   UNL     1      -0.178   0.795  -4.096  1.00  0.00     0.029 A 
ATOM     81  C   UNL     1       0.807  -0.063  -6.572  1.00  0.00    -0.009 A 
ATOM     82  C   UNL     1      -0.770   1.253  -5.261  1.00  0.00     0.011 A 
ATOM     83  C   UNL     1      -0.295   0.836  -6.493  1.00  0.00    -0.018 A 
ATOM     84  C   UNL     1       1.115  -0.461  -7.894  1.00  0.00     0.009 A 
ATOM     85  C   UNL     1      -0.948   1.329  -7.636  1.00  0.00     0.009 A 
ATOM     86  C   UNL     1       0.455   0.013  -9.035  1.00  0.00     0.001 A 
ATOM     87  C   UNL     1      -0.570   0.927  -8.907  1.00  0.00     0.001 A 
BRANCH  77  88
ATOM     88  C   UNL     1       3.430  -2.161  -6.156  1.00  0.00     0.115 C 
ATOM     89  C   UNL     1       4.125  -1.497  -7.282  1.00  0.00     0.123 C 
ATOM     90  C   UNL     1       2.767  -3.272  -6.910  1.00  0.00     0.083 C 
ATOM     91  N   UNL     1       4.064  -2.194  -8.372  1.00  0.00    -0.162 NA
ATOM     92  N   UNL     1       3.202  -3.325  -8.139  1.00  0.00    -0.154 NA
BRANCH  90  93
ATOM     93  C   UNL     1       1.872  -4.298  -6.313  1.00  0.00    -0.001 A 
ATOM     94  C   UNL     1       1.901  -5.587  -6.864  1.00  0.00     0.013 A 
ATOM     95  C   UNL     1       1.016  -4.048  -5.233  1.00  0.00     0.013 A 
ATOM     96  C   UNL     1       1.119  -6.610  -6.318  1.00  0.00     0.040 A 
ATOM     97  C   UNL     1       0.239  -5.072  -4.682  1.00  0.00     0.040 A 
ATOM     98  C   UNL     1       0.302  -6.345  -5.226  1.00  0.00     0.123 A 
ATOM     99  F   UNL     1      -0.437  -7.328  -4.696  1.00  0.00    -0.207 F 
ENDBRANCH  90  93
ENDBRANCH  77  88
ENDBRANCH  72  74
ENDBRANCH  71  72
ENDBRANCH  70  71
ENDBRANCH   1  70
TORSDOF 16
