REMARK SMILES Cc1ccc(C(=O)N2C[C@H](C(=O)OCCOC(=O)c3ccc(-c4c5nc(c(-c6cccc(S(=O)(=O)[O-])c6F)c6ccc([nH]6)c(-c6cccc(S(=O)(=O)[O-])c6F)c6nc(c(-c7cccc(S(=O)(=O)[O-])c7F)c7ccc4[nH]7)C=C6)C=C5)cc3)Oc3ccccc32)o1
REMARK SMILES IDX 15 1 14 2 13 3 11 4 12 5 10 6 8 7 9 8 88 9 83 10 87 11 82 12
REMARK SMILES IDX 84 13 86 14 85 15 6 16 7 17 5 18 1 19 2 20 3 21 89 22 4 23
REMARK SMILES IDX 16 24 17 25 18 26 19 27 20 28 81 29 21 30 80 31 22 32 23 33
REMARK SMILES IDX 24 34 74 35 25 36 79 37 73 38 75 39 26 40 78 41 72 42 71 43
REMARK SMILES IDX 27 45 59 46 39 47 58 48 40 49 43 50 57 51 76 52 41 53 42 54
REMARK SMILES IDX 56 56 77 57 44 58 28 59 29 60 37 61 30 62 32 63 38 64 31 65
REMARK SMILES IDX 33 66 34 67 35 68 36 69 60 70 61 71 69 72 62 73 64 74 70 75
REMARK SMILES IDX 63 76 65 77 66 78 67 79 68 80 45 81 46 82 54 83 47 84 49 85
REMARK SMILES IDX 55 86 48 87 50 88 51 89 52 90 53 91
REMARK H PARENT 75 44 43 55
REMARK Flexibility Score: inf
ROOT
ATOM      1  C   UNL     1      -6.036  -1.709   4.904  1.00  0.00     0.275 C 
ENDROOT
BRANCH   1   2
ATOM      2  C   UNL     1      -6.963  -1.674   3.682  1.00  0.00     0.274 C 
BRANCH   2   3
ATOM      3  O   UNL     1      -6.332  -1.091   2.521  1.00  0.00    -0.459 OA
BRANCH   3   4
ATOM      4  C   UNL     1      -6.613   0.223   2.307  1.00  0.00     0.349 C 
ATOM      5  O   UNL     1      -7.362   0.889   3.015  1.00  0.00    -0.248 OA
BRANCH   4   6
ATOM      6  C   UNL     1      -5.942   0.799   1.070  1.00  0.00     0.302 C 
ATOM      7  N   UNL     1      -3.972   0.986  -0.370  1.00  0.00    -0.298 N 
ATOM      8  C   UNL     1      -4.550   0.252   0.770  1.00  0.00     0.183 C 
ATOM      9  C   UNL     1      -4.911   1.419  -1.363  1.00  0.00     0.087 A 
ATOM     10  C   UNL     1      -6.285   1.169  -1.181  1.00  0.00     0.144 A 
ATOM     11  C   UNL     1      -4.505   2.041  -2.551  1.00  0.00     0.030 A 
ATOM     12  O   UNL     1      -6.803   0.576  -0.052  1.00  0.00    -0.475 OA
ATOM     13  C   UNL     1      -7.217   1.521  -2.159  1.00  0.00     0.049 A 
ATOM     14  C   UNL     1      -5.441   2.411  -3.522  1.00  0.00     0.002 A 
ATOM     15  C   UNL     1      -6.794   2.150  -3.327  1.00  0.00     0.004 A 
BRANCH   7  16
ATOM     16  C   UNL     1      -2.634   1.408  -0.381  1.00  0.00     0.294 C 
ATOM     17  O   UNL     1      -2.335   2.557  -0.712  1.00  0.00    -0.265 OA
BRANCH  16  18
ATOM     18  C   UNL     1      -1.612   0.416  -0.074  1.00  0.00     0.192 A 
ATOM     19  C   UNL     1       1.946   0.050   0.155  1.00  0.00     0.087 C 
ATOM     20  C   UNL     1       0.495  -0.224   0.135  1.00  0.00     0.101 A 
ATOM     21  C   UNL     1      -0.263  -1.367   0.226  1.00  0.00     0.046 A 
ATOM     22  O   UNL     1      -0.312   0.856  -0.034  1.00  0.00    -0.456 OA
ATOM     23  C   UNL     1      -1.615  -0.959   0.089  1.00  0.00     0.056 A 
ENDBRANCH  16  18
ENDBRANCH   7  16
ENDBRANCH   4   6
ENDBRANCH   3   4
ENDBRANCH   2   3
ENDBRANCH   1   2
BRANCH   1  24
ATOM     24  O   UNL     1      -5.716  -0.394   5.396  1.00  0.00    -0.458 OA
BRANCH  24  25
ATOM     25  C   UNL     1      -4.631   0.172   4.819  1.00  0.00     0.338 C 
ATOM     26  O   UNL     1      -3.923  -0.327   3.958  1.00  0.00    -0.246 OA
BRANCH  25  27
ATOM     27  C   UNL     1      -4.473   1.569   5.254  1.00  0.00     0.060 A 
ATOM     28  C   UNL     1      -4.486   2.560   4.267  1.00  0.00     0.016 A 
ATOM     29  C   UNL     1      -4.188   1.892   6.581  1.00  0.00     0.016 A 
ATOM     30  C   UNL     1      -4.178   3.876   4.593  1.00  0.00     0.010 A 
ATOM     31  C   UNL     1      -3.879   3.217   6.908  1.00  0.00     0.010 A 
ATOM     32  C   UNL     1      -3.843   4.209   5.911  1.00  0.00    -0.014 A 
BRANCH  32  33
ATOM     33  C   UNL     1      -3.363   5.579   6.211  1.00  0.00     0.031 A 
ATOM     34  C   UNL     1      -1.898   5.815   6.449  1.00  0.00     0.074 A 
ATOM     35  C   UNL     1      -4.231   6.606   6.243  1.00  0.00     0.049 A 
ATOM     36  N   UNL     1      -1.279   6.925   6.756  1.00  0.00    -0.248 NA
ATOM     37  C   UNL     1      -1.011   4.646   6.330  1.00  0.00     0.031 C 
ATOM     38  C   UNL     1      -5.672   6.501   6.014  1.00  0.00     0.029 A 
ATOM     39  N   UNL     1      -4.026   7.940   6.494  1.00  0.00    -0.354 N 
ATOM     40  C   UNL     1       0.059   6.585   6.905  1.00  0.00     0.074 A 
ATOM     41  C   UNL     1       0.164   5.162   6.660  1.00  0.00     0.031 C 
ATOM     42  C   UNL     1      -6.225   7.718   6.149  1.00  0.00     0.029 A 
ATOM     43  C   UNL     1      -5.184   8.681   6.498  1.00  0.00     0.049 A 
ATOM     44  H   UNL     1      -3.136   8.328   6.654  1.00  0.00     0.167 HD
ATOM     45  C   UNL     1       1.109   7.387   7.200  1.00  0.00     0.034 A 
ATOM     46  C   UNL     1      -5.382   9.986   6.767  1.00  0.00     0.034 A 
ATOM     47  C   UNL     1       1.009   8.808   7.394  1.00  0.00     0.049 A 
ATOM     48  C   UNL     1      -4.195  10.858   7.082  1.00  0.00     0.074 A 
ATOM     49  C   UNL     1       2.021   9.713   7.664  1.00  0.00     0.029 A 
ATOM     50  N   UNL     1      -0.171   9.533   7.332  1.00  0.00    -0.354 N 
ATOM     51  N   UNL     1      -2.924  10.537   7.128  1.00  0.00    -0.248 NA
ATOM     52  C   UNL     1      -4.464  12.278   7.349  1.00  0.00     0.031 C 
ATOM     53  C   UNL     1       1.450  10.986   7.772  1.00  0.00     0.029 A 
ATOM     54  C   UNL     1       0.085  10.875   7.559  1.00  0.00     0.049 A 
ATOM     55  H   UNL     1      -1.060   9.150   7.153  1.00  0.00     0.167 HD
ATOM     56  C   UNL     1      -2.241  11.718   7.396  1.00  0.00     0.074 A 
ATOM     57  C   UNL     1      -3.238  12.766   7.482  1.00  0.00     0.031 C 
ATOM     58  C   UNL     1      -0.911  11.915   7.576  1.00  0.00     0.034 A 
BRANCH  45  59
ATOM     59  C   UNL     1       2.469   6.748   7.298  1.00  0.00     0.023 A 
ATOM     60  C   UNL     1       3.144   6.369   6.120  1.00  0.00     0.012 A 
ATOM     61  C   UNL     1       3.098   6.569   8.545  1.00  0.00     0.148 A 
ATOM     62  C   UNL     1       4.413   5.796   6.184  1.00  0.00     0.002 A 
ATOM     63  C   UNL     1       4.378   6.030   8.598  1.00  0.00     0.091 A 
ATOM     64  F   UNL     1       2.428   6.911   9.655  1.00  0.00    -0.205 F 
ATOM     65  C   UNL     1       5.034   5.636   7.420  1.00  0.00     0.022 A 
BRANCH  63  66
ATOM     66  S   UNL     1       5.283   5.849  10.140  1.00  0.00     0.127 S 
ATOM     67  O   UNL     1       5.181   4.409  10.375  1.00  0.00    -0.237 OA
ATOM     68  O   UNL     1       6.622   6.312   9.773  1.00  0.00    -0.237 OA
ATOM     69  O   UNL     1       4.597   6.694  11.106  1.00  0.00    -0.744 OA
ENDBRANCH  63  66
ENDBRANCH  45  59
BRANCH  46  70
ATOM     70  C   UNL     1      -6.757  10.556   6.702  1.00  0.00     0.023 A 
ATOM     71  C   UNL     1      -7.090  11.444   5.661  1.00  0.00     0.012 A 
ATOM     72  C   UNL     1      -7.743  10.199   7.642  1.00  0.00     0.148 A 
ATOM     73  C   UNL     1      -8.373  11.985   5.571  1.00  0.00     0.002 A 
ATOM     74  C   UNL     1      -9.034  10.700   7.516  1.00  0.00     0.091 A 
ATOM     75  F   UNL     1      -7.402   9.371   8.639  1.00  0.00    -0.205 F 
ATOM     76  C   UNL     1      -9.347  11.605   6.490  1.00  0.00     0.022 A 
BRANCH  74  77
ATOM     77  S   UNL     1     -10.377  10.160   8.580  1.00  0.00     0.127 S 
ATOM     78  O   UNL     1     -10.529  11.303   9.476  1.00  0.00    -0.237 OA
ATOM     79  O   UNL     1     -11.470   9.976   7.625  1.00  0.00    -0.237 OA
ATOM     80  O   UNL     1      -9.910   8.925   9.196  1.00  0.00    -0.744 OA
ENDBRANCH  74  77
ENDBRANCH  46  70
BRANCH  58  81
ATOM     81  C   UNL     1      -0.444  13.319   7.854  1.00  0.00     0.023 A 
ATOM     82  C   UNL     1      -0.660  13.884   9.126  1.00  0.00     0.012 A 
ATOM     83  C   UNL     1       0.278  14.045   6.886  1.00  0.00     0.148 A 
ATOM     84  C   UNL     1      -0.189  15.162   9.422  1.00  0.00     0.002 A 
ATOM     85  C   UNL     1       0.781  15.302   7.203  1.00  0.00     0.091 A 
ATOM     86  F   UNL     1       0.455  13.500   5.674  1.00  0.00    -0.205 F 
ATOM     87  C   UNL     1       0.541  15.866   8.466  1.00  0.00     0.022 A 
BRANCH  85  88
ATOM     88  S   UNL     1       1.809  16.234   6.061  1.00  0.00     0.127 S 
ATOM     89  O   UNL     1       0.858  17.207   5.528  1.00  0.00    -0.237 OA
ATOM     90  O   UNL     1       2.829  16.800   6.944  1.00  0.00    -0.237 OA
ATOM     91  O   UNL     1       2.319  15.260   5.104  1.00  0.00    -0.744 OA
ENDBRANCH  85  88
ENDBRANCH  58  81
ENDBRANCH  32  33
ENDBRANCH  25  27
ENDBRANCH  24  25
ENDBRANCH   1  24
TORSDOF 16
