REMARK SMILES COc1ccc(OC)c(/C=N/[NH+]=C2/NC(=O)[C@@H](CC(=O)OCCOC(=O)c3ccc(-c4c5nc(c(-c6cccc(S(=O)(=O)[O-])c6F)c6ccc([nH]6)c(-c6cccc(S(=O)(=O)[O-])c6F)c6nc(c(-c7cccc(S(=O)(=O)[O-])c7F)c7ccc4[nH]7)C=C6)C=C5)cc3)S2)c1
REMARK SMILES IDX 22 1 21 2 19 3 20 4 18 5 17 6 12 7 13 8 14 10 90 11 15 12
REMARK SMILES IDX 16 14 11 15 10 16 9 17 3 18 4 19 91 20 5 21 6 22 2 23 1 24
REMARK SMILES IDX 7 25 8 26 23 27 24 28 25 29 26 30 27 31 28 32 89 33 29 34
REMARK SMILES IDX 88 35 30 36 31 37 32 38 82 39 33 40 87 41 81 42 83 43 34 44
REMARK SMILES IDX 86 45 80 46 79 47 35 49 67 50 47 51 66 52 48 53 51 54 65 55
REMARK SMILES IDX 84 56 49 57 50 58 64 60 85 61 52 62 36 63 37 64 45 65 38 66
REMARK SMILES IDX 40 67 46 68 39 69 41 70 42 71 43 72 44 73 68 74 69 75 77 76
REMARK SMILES IDX 70 77 72 78 78 79 71 80 73 81 74 82 75 83 76 84 53 85 54 86
REMARK SMILES IDX 62 87 55 88 57 89 63 90 56 91 58 92 59 93 60 94 61 95
REMARK H PARENT 12 9 14 13 83 48 51 59
REMARK Flexibility Score: inf
ROOT
ATOM      1  C   UNL     1       6.277  -0.416   1.615  1.00  0.00     0.274 C 
ENDROOT
BRANCH   1   2
ATOM      2  O   UNL     1       7.172   0.659   1.973  1.00  0.00    -0.462 OA
BRANCH   2   3
ATOM      3  C   UNL     1       8.342   0.692   1.290  1.00  0.00     0.307 C 
ATOM      4  O   UNL     1       8.692  -0.159   0.480  1.00  0.00    -0.252 OA
BRANCH   3   5
ATOM      5  C   UNL     1       9.280   1.792   1.717  1.00  0.00     0.150 C 
BRANCH   5   6
ATOM      6  C   UNL     1       8.803   3.214   2.022  1.00  0.00     0.184 C 
ATOM      7  N   UNL     1       5.722   3.522   4.297  1.00  0.00    -0.142 N 
ATOM      8  C   UNL     1       6.813   3.547   3.610  1.00  0.00     0.337 C 
ATOM      9  H   UNL     1       5.708   3.343   5.265  1.00  0.00     0.343 HD
ATOM     10  N   UNL     1       8.006   3.499   4.244  1.00  0.00    -0.202 N 
ATOM     11  S   UNL     1       7.040   3.643   1.890  1.00  0.00    -0.020 SA
ATOM     12  C   UNL     1       9.128   3.490   3.477  1.00  0.00     0.322 C 
ATOM     13  H   UNL     1       8.060   3.471   5.227  1.00  0.00     0.316 HD
ATOM     14  O   UNL     1      10.257   3.623   3.931  1.00  0.00    -0.246 OA
BRANCH   7  15
ATOM     15  N   UNL     1       4.567   3.767   3.565  1.00  0.00    -0.093 NA
ATOM     16  C   UNL     1       3.715   2.799   3.639  1.00  0.00     0.170 C 
BRANCH  16  17
ATOM     17  C   UNL     1       2.360   2.934   3.086  1.00  0.00     0.042 A 
ATOM     18  C   UNL     1       0.761   1.990   1.510  1.00  0.00     0.119 A 
ATOM     19  C   UNL     1      -0.134   2.999   1.850  1.00  0.00     0.050 A 
ATOM     20  C   UNL     1       2.010   1.958   2.130  1.00  0.00     0.060 A 
ATOM     21  C   UNL     1       0.205   3.951   2.812  1.00  0.00     0.051 A 
ATOM     22  C   UNL     1       1.448   3.930   3.460  1.00  0.00     0.128 A 
BRANCH  18  23
ATOM     23  O   UNL     1       0.294   1.118   0.568  1.00  0.00    -0.497 OA
ATOM     24  C   UNL     1       1.135   0.033   0.203  1.00  0.00     0.278 C 
ENDBRANCH  18  23
BRANCH  22  25
ATOM     25  O   UNL     1       1.523   4.916   4.401  1.00  0.00    -0.496 OA
ATOM     26  C   UNL     1       2.599   4.979   5.321  1.00  0.00     0.278 C 
ENDBRANCH  22  25
ENDBRANCH  16  17
ENDBRANCH   7  15
ENDBRANCH   5   6
ENDBRANCH   3   5
ENDBRANCH   2   3
ENDBRANCH   1   2
BRANCH   1  27
ATOM     27  C   UNL     1       5.367  -0.061   0.437  1.00  0.00     0.275 C 
BRANCH  27  28
ATOM     28  O   UNL     1       6.127   0.140  -0.762  1.00  0.00    -0.458 OA
BRANCH  28  29
ATOM     29  C   UNL     1       6.098   1.394  -1.268  1.00  0.00     0.338 C 
ATOM     30  O   UNL     1       5.447   2.341  -0.868  1.00  0.00    -0.246 OA
BRANCH  29  31
ATOM     31  C   UNL     1       7.012   1.479  -2.413  1.00  0.00     0.060 A 
ATOM     32  C   UNL     1       8.347   1.840  -2.207  1.00  0.00     0.016 A 
ATOM     33  C   UNL     1       6.506   1.309  -3.700  1.00  0.00     0.016 A 
ATOM     34  C   UNL     1       9.186   2.047  -3.301  1.00  0.00     0.010 A 
ATOM     35  C   UNL     1       7.349   1.504  -4.792  1.00  0.00     0.010 A 
ATOM     36  C   UNL     1       8.686   1.895  -4.600  1.00  0.00    -0.014 A 
BRANCH  36  37
ATOM     37  C   UNL     1       9.527   2.197  -5.779  1.00  0.00     0.031 A 
ATOM     38  C   UNL     1       9.256   3.441  -6.574  1.00  0.00     0.074 A 
ATOM     39  C   UNL     1      10.473   1.323  -6.168  1.00  0.00     0.049 A 
ATOM     40  N   UNL     1       9.744   3.806  -7.729  1.00  0.00    -0.248 NA
ATOM     41  C   UNL     1       8.298   4.398  -5.994  1.00  0.00     0.031 C 
ATOM     42  C   UNL     1      10.819   0.088  -5.465  1.00  0.00     0.029 A 
ATOM     43  N   UNL     1      11.284   1.320  -7.274  1.00  0.00    -0.354 N 
ATOM     44  C   UNL     1       9.121   5.008  -8.040  1.00  0.00     0.074 A 
ATOM     45  C   UNL     1       8.223   5.317  -6.947  1.00  0.00     0.031 C 
ATOM     46  C   UNL     1      11.744  -0.575  -6.177  1.00  0.00     0.029 A 
ATOM     47  C   UNL     1      12.025   0.169  -7.401  1.00  0.00     0.049 A 
ATOM     48  H   UNL     1      11.331   2.068  -7.913  1.00  0.00     0.167 HD
ATOM     49  C   UNL     1       9.291   5.787  -9.134  1.00  0.00     0.034 A 
ATOM     50  C   UNL     1      12.813  -0.252  -8.410  1.00  0.00     0.034 A 
ATOM     51  C   UNL     1      10.211   5.485 -10.197  1.00  0.00     0.049 A 
ATOM     52  C   UNL     1      12.993   0.637  -9.611  1.00  0.00     0.074 A 
ATOM     53  C   UNL     1      10.479   6.217 -11.339  1.00  0.00     0.029 A 
ATOM     54  N   UNL     1      11.018   4.358 -10.244  1.00  0.00    -0.354 N 
ATOM     55  N   UNL     1      12.460   1.810  -9.854  1.00  0.00    -0.248 NA
ATOM     56  C   UNL     1      13.901   0.160 -10.665  1.00  0.00     0.031 C 
ATOM     57  C   UNL     1      11.448   5.531 -12.078  1.00  0.00     0.029 A 
ATOM     58  C   UNL     1      11.790   4.377 -11.391  1.00  0.00     0.049 A 
ATOM     59  H   UNL     1      11.037   3.648  -9.561  1.00  0.00     0.167 HD
ATOM     60  C   UNL     1      12.993   2.229 -11.068  1.00  0.00     0.074 A 
ATOM     61  C   UNL     1      13.902   1.188 -11.504  1.00  0.00     0.031 C 
ATOM     62  C   UNL     1      12.741   3.362 -11.767  1.00  0.00     0.034 A 
BRANCH  49  63
ATOM     63  C   UNL     1       8.491   7.058  -9.219  1.00  0.00     0.023 A 
ATOM     64  C   UNL     1       8.867   8.165  -8.433  1.00  0.00     0.012 A 
ATOM     65  C   UNL     1       7.407   7.178 -10.111  1.00  0.00     0.148 A 
ATOM     66  C   UNL     1       8.161   9.365  -8.514  1.00  0.00     0.002 A 
ATOM     67  C   UNL     1       6.731   8.389 -10.212  1.00  0.00     0.091 A 
ATOM     68  F   UNL     1       7.048   6.105 -10.830  1.00  0.00    -0.205 F 
ATOM     69  C   UNL     1       7.101   9.480  -9.410  1.00  0.00     0.022 A 
BRANCH  67  70
ATOM     70  S   UNL     1       5.396   8.650 -11.387  1.00  0.00     0.127 S 
ATOM     71  O   UNL     1       4.222   8.601 -10.517  1.00  0.00    -0.237 OA
ATOM     72  O   UNL     1       5.705   9.979 -11.919  1.00  0.00    -0.237 OA
ATOM     73  O   UNL     1       5.506   7.572 -12.359  1.00  0.00    -0.744 OA
ENDBRANCH  67  70
ENDBRANCH  49  63
BRANCH  50  74
ATOM     74  C   UNL     1      13.517  -1.560  -8.300  1.00  0.00     0.023 A 
ATOM     75  C   UNL     1      14.911  -1.580  -8.109  1.00  0.00     0.012 A 
ATOM     76  C   UNL     1      12.810  -2.779  -8.328  1.00  0.00     0.148 A 
ATOM     77  C   UNL     1      15.592  -2.790  -7.966  1.00  0.00     0.002 A 
ATOM     78  C   UNL     1      13.487  -3.978  -8.131  1.00  0.00     0.091 A 
ATOM     79  F   UNL     1      11.486  -2.744  -8.534  1.00  0.00    -0.205 F 
ATOM     80  C   UNL     1      14.880  -3.987  -7.964  1.00  0.00     0.022 A 
BRANCH  78  81
ATOM     81  S   UNL     1      12.621  -5.545  -7.976  1.00  0.00     0.127 S 
ATOM     82  O   UNL     1      12.818  -6.130  -9.299  1.00  0.00    -0.237 OA
ATOM     83  O   UNL     1      13.359  -6.202  -6.896  1.00  0.00    -0.237 OA
ATOM     84  O   UNL     1      11.250  -5.193  -7.628  1.00  0.00    -0.744 OA
ENDBRANCH  78  81
ENDBRANCH  50  74
BRANCH  62  85
ATOM     85  C   UNL     1      13.484   3.566 -13.058  1.00  0.00     0.023 A 
ATOM     86  C   UNL     1      13.080   2.867 -14.211  1.00  0.00     0.012 A 
ATOM     87  C   UNL     1      14.514   4.522 -13.149  1.00  0.00     0.148 A 
ATOM     88  C   UNL     1      13.704   3.104 -15.436  1.00  0.00     0.002 A 
ATOM     89  C   UNL     1      15.104   4.782 -14.380  1.00  0.00     0.091 A 
ATOM     90  F   UNL     1      14.896   5.160 -12.033  1.00  0.00    -0.205 F 
ATOM     91  C   UNL     1      14.705   4.069 -15.523  1.00  0.00     0.022 A 
BRANCH  89  92
ATOM     92  S   UNL     1      16.339   6.069 -14.598  1.00  0.00     0.127 S 
ATOM     93  O   UNL     1      17.570   5.287 -14.695  1.00  0.00    -0.237 OA
ATOM     94  O   UNL     1      15.917   6.701 -15.848  1.00  0.00    -0.237 OA
ATOM     95  O   UNL     1      16.230   6.926 -13.425  1.00  0.00    -0.744 OA
ENDBRANCH  89  92
ENDBRANCH  62  85
ENDBRANCH  36  37
ENDBRANCH  29  31
ENDBRANCH  28  29
ENDBRANCH  27  28
ENDBRANCH   1  27
TORSDOF 19
