REMARK SMILES C[C@@H](C(=O)OCCOC(=O)c1ccc(-c2c3nc(c(-c4cccc(S(=O)(=O)[O-])c4F)c4ccc([nH]4)c(-c4cccc(S(=O)(=O)[O-])c4F)c4nc(c(-c5cccc(S(=O)(=O)[O-])c5F)c5ccc2[nH]5)C=C4)C=C3)cc1)c1ccn(C(F)F)c(=O)c1
REMARK SMILES IDX 7 1 6 2 5 3 3 4 4 5 2 6 1 7 74 8 75 9 83 10 76 11 81 12
REMARK SMILES IDX 77 13 82 14 78 15 79 16 80 17 8 18 9 19 10 20 11 21 12 22
REMARK SMILES IDX 73 23 13 24 72 25 14 26 15 27 16 28 66 29 17 30 71 31 65 32
REMARK SMILES IDX 67 33 18 34 70 35 64 36 63 37 19 39 51 40 31 41 50 42 32 43
REMARK SMILES IDX 35 44 49 45 68 46 33 47 34 48 48 50 69 51 36 52 20 53 21 54
REMARK SMILES IDX 29 55 22 56 24 57 30 58 23 59 25 60 26 61 27 62 28 63 52 64
REMARK SMILES IDX 53 65 61 66 54 67 56 68 62 69 55 70 57 71 58 72 59 73 60 74
REMARK SMILES IDX 37 75 38 76 46 77 39 78 41 79 47 80 40 81 42 82 43 83 44 84
REMARK SMILES IDX 45 85
REMARK H PARENT 67 38 35 49
REMARK Flexibility Score: inf
ROOT
ATOM      1  C   UNL     1       2.179   3.418  -2.910  1.00  0.00     0.275 C 
ENDROOT
BRANCH   1   2
ATOM      2  C   UNL     1       2.546   3.536  -1.433  1.00  0.00     0.274 C 
BRANCH   2   3
ATOM      3  O   UNL     1       2.069   2.384  -0.704  1.00  0.00    -0.462 OA
BRANCH   3   4
ATOM      4  C   UNL     1       1.072   2.597   0.201  1.00  0.00     0.313 C 
ATOM      5  O   UNL     1       0.594   3.700   0.434  1.00  0.00    -0.252 OA
BRANCH   4   6
ATOM      6  C   UNL     1       0.671   1.308   0.964  1.00  0.00     0.126 C 
ATOM      7  C   UNL     1       1.323   0.059   0.353  1.00  0.00     0.025 C 
BRANCH   6   8
ATOM      8  C   UNL     1      -0.849   1.210   1.168  1.00  0.00    -0.027 A 
ATOM      9  C   UNL     1      -1.609   0.071   0.672  1.00  0.00     0.023 A 
ATOM     10  C   UNL     1      -1.538   2.175   1.810  1.00  0.00     0.076 A 
ATOM     11  C   UNL     1      -2.942   0.025   0.793  1.00  0.00     0.095 A 
ATOM     12  C   UNL     1      -3.025   2.143   1.956  1.00  0.00     0.255 A 
ATOM     13  N   UNL     1      -3.654   1.040   1.407  1.00  0.00    -0.258 N 
ATOM     14  O   UNL     1      -3.559   3.077   2.542  1.00  0.00    -0.269 OA
BRANCH  13  15
ATOM     15  C   UNL     1      -5.105   0.976   1.369  1.00  0.00     0.451 C 
ATOM     16  F   UNL     1      -5.726   1.967   2.043  1.00  0.00    -0.185 F 
ATOM     17  F   UNL     1      -5.512   1.046   0.076  1.00  0.00    -0.185 F 
ENDBRANCH  13  15
ENDBRANCH   6   8
ENDBRANCH   4   6
ENDBRANCH   3   4
ENDBRANCH   2   3
ENDBRANCH   1   2
BRANCH   1  18
ATOM     18  O   UNL     1       0.755   3.534  -3.053  1.00  0.00    -0.458 OA
BRANCH  18  19
ATOM     19  C   UNL     1       0.110   2.433  -3.501  1.00  0.00     0.338 C 
ATOM     20  O   UNL     1       0.597   1.381  -3.875  1.00  0.00    -0.246 OA
BRANCH  19  21
ATOM     21  C   UNL     1      -1.336   2.658  -3.367  1.00  0.00     0.060 A 
ATOM     22  C   UNL     1      -1.893   2.570  -2.095  1.00  0.00     0.016 A 
ATOM     23  C   UNL     1      -2.147   2.855  -4.483  1.00  0.00     0.016 A 
ATOM     24  C   UNL     1      -3.273   2.618  -1.937  1.00  0.00     0.010 A 
ATOM     25  C   UNL     1      -3.535   2.957  -4.312  1.00  0.00     0.010 A 
ATOM     26  C   UNL     1      -4.115   2.802  -3.040  1.00  0.00    -0.014 A 
BRANCH  26  27
ATOM     27  C   UNL     1      -5.591   2.749  -2.847  1.00  0.00     0.031 A 
ATOM     28  C   UNL     1      -6.392   1.633  -3.464  1.00  0.00     0.074 A 
ATOM     29  C   UNL     1      -6.213   3.647  -2.056  1.00  0.00     0.049 A 
ATOM     30  N   UNL     1      -7.687   1.444  -3.464  1.00  0.00    -0.248 NA
ATOM     31  C   UNL     1      -5.637   0.586  -4.175  1.00  0.00     0.031 C 
ATOM     32  C   UNL     1      -5.555   4.734  -1.330  1.00  0.00     0.029 A 
ATOM     33  N   UNL     1      -7.537   3.773  -1.713  1.00  0.00    -0.354 N 
ATOM     34  C   UNL     1      -7.906   0.302  -4.222  1.00  0.00     0.074 A 
ATOM     35  C   UNL     1      -6.611  -0.174  -4.655  1.00  0.00     0.031 C 
ATOM     36  C   UNL     1      -6.469   5.388  -0.596  1.00  0.00     0.029 A 
ATOM     37  C   UNL     1      -7.787   4.815  -0.850  1.00  0.00     0.049 A 
ATOM     38  H   UNL     1      -8.241   3.175  -2.053  1.00  0.00     0.167 HD
ATOM     39  C   UNL     1      -9.079  -0.303  -4.526  1.00  0.00     0.034 A 
ATOM     40  C   UNL     1      -8.946   5.272  -0.336  1.00  0.00     0.034 A 
ATOM     41  C   UNL     1     -10.364   0.121  -4.043  1.00  0.00     0.049 A 
ATOM     42  C   UNL     1     -10.236   4.595  -0.712  1.00  0.00     0.074 A 
ATOM     43  C   UNL     1     -11.605  -0.434  -4.303  1.00  0.00     0.029 A 
ATOM     44  N   UNL     1     -10.577   1.193  -3.192  1.00  0.00    -0.354 N 
ATOM     45  N   UNL     1     -10.426   3.506  -1.416  1.00  0.00    -0.248 NA
ATOM     46  C   UNL     1     -11.477   5.214  -0.220  1.00  0.00     0.031 C 
ATOM     47  C   UNL     1     -12.570   0.307  -3.614  1.00  0.00     0.029 A 
ATOM     48  C   UNL     1     -11.929   1.320  -2.920  1.00  0.00     0.049 A 
ATOM     49  H   UNL     1      -9.871   1.778  -2.833  1.00  0.00     0.167 HD
ATOM     50  C   UNL     1     -11.801   3.303  -1.443  1.00  0.00     0.074 A 
ATOM     51  C   UNL     1     -12.397   4.361  -0.654  1.00  0.00     0.031 C 
ATOM     52  C   UNL     1     -12.508   2.345  -2.090  1.00  0.00     0.034 A 
BRANCH  39  53
ATOM     53  C   UNL     1      -9.026  -1.508  -5.423  1.00  0.00     0.023 A 
ATOM     54  C   UNL     1      -8.663  -2.760  -4.892  1.00  0.00     0.012 A 
ATOM     55  C   UNL     1      -9.388  -1.406  -6.780  1.00  0.00     0.148 A 
ATOM     56  C   UNL     1      -8.644  -3.893  -5.705  1.00  0.00     0.002 A 
ATOM     57  C   UNL     1      -9.398  -2.545  -7.576  1.00  0.00     0.091 A 
ATOM     58  F   UNL     1      -9.700  -0.198  -7.271  1.00  0.00    -0.205 F 
ATOM     59  C   UNL     1      -9.021  -3.788  -7.042  1.00  0.00     0.022 A 
BRANCH  57  60
ATOM     60  S   UNL     1      -9.929  -2.508  -9.292  1.00  0.00     0.127 S 
ATOM     61  O   UNL     1      -8.649  -2.544  -9.997  1.00  0.00    -0.237 OA
ATOM     62  O   UNL     1     -10.720  -3.735  -9.401  1.00  0.00    -0.237 OA
ATOM     63  O   UNL     1     -10.699  -1.281  -9.441  1.00  0.00    -0.744 OA
ENDBRANCH  57  60
ENDBRANCH  39  53
BRANCH  40  64
ATOM     64  C   UNL     1      -8.942   6.425   0.611  1.00  0.00     0.023 A 
ATOM     65  C   UNL     1      -9.307   6.214   1.954  1.00  0.00     0.012 A 
ATOM     66  C   UNL     1      -8.565   7.718   0.199  1.00  0.00     0.148 A 
ATOM     67  C   UNL     1      -9.315   7.273   2.865  1.00  0.00     0.002 A 
ATOM     68  C   UNL     1      -8.519   8.756   1.124  1.00  0.00     0.091 A 
ATOM     69  F   UNL     1      -8.258   7.915  -1.091  1.00  0.00    -0.205 F 
ATOM     70  C   UNL     1      -8.908   8.539   2.454  1.00  0.00     0.022 A 
BRANCH  68  71
ATOM     71  S   UNL     1      -7.877  10.377   0.689  1.00  0.00     0.127 S 
ATOM     72  O   UNL     1      -9.102  11.126   0.426  1.00  0.00    -0.237 OA
ATOM     73  O   UNL     1      -7.165  10.771   1.905  1.00  0.00    -0.237 OA
ATOM     74  O   UNL     1      -7.008  10.146  -0.458  1.00  0.00    -0.744 OA
ENDBRANCH  68  71
ENDBRANCH  40  64
BRANCH  52  75
ATOM     75  C   UNL     1     -14.009   2.389  -1.982  1.00  0.00     0.023 A 
ATOM     76  C   UNL     1     -14.723   3.360  -2.713  1.00  0.00     0.012 A 
ATOM     77  C   UNL     1     -14.717   1.429  -1.234  1.00  0.00     0.148 A 
ATOM     78  C   UNL     1     -16.116   3.389  -2.683  1.00  0.00     0.002 A 
ATOM     79  C   UNL     1     -16.108   1.440  -1.240  1.00  0.00     0.091 A 
ATOM     80  F   UNL     1     -14.022   0.525  -0.528  1.00  0.00    -0.205 F 
ATOM     81  C   UNL     1     -16.808   2.423  -1.957  1.00  0.00     0.022 A 
BRANCH  79  82
ATOM     82  S   UNL     1     -17.078   0.178  -0.405  1.00  0.00     0.127 S 
ATOM     83  O   UNL     1     -17.507   0.880   0.803  1.00  0.00    -0.237 OA
ATOM     84  O   UNL     1     -18.148  -0.087  -1.369  1.00  0.00    -0.237 OA
ATOM     85  O   UNL     1     -16.171  -0.943  -0.195  1.00  0.00    -0.744 OA
ENDBRANCH  79  82
ENDBRANCH  52  75
ENDBRANCH  26  27
ENDBRANCH  19  21
ENDBRANCH  18  19
ENDBRANCH   1  18
TORSDOF 16
