REMARK SMILES O=C(CCC(=O)OCCOC(=O)c1ccc(-c2c3nc(c(-c4cccc(S(=O)(=O)[O-])c4F)c4ccc([nH]4)c(-c4cccc(S(=O)(=O)[O-])c4F)c4nc(c(-c5cccc(S(=O)(=O)[O-])c5F)c5ccc2[nH]5)C=C4)C=C3)cc1)/[NH+]=C1\S[C@H]2CS(=O)(=O)C[C@@H]2N1c1ccc2c(c1)OCO2
REMARK SMILES IDX 8 1 7 2 5 3 6 4 4 5 3 6 2 7 1 8 76 9 77 10 78 12 86 13 79 14
REMARK SMILES IDX 85 15 80 16 84 17 81 18 82 19 83 20 87 21 88 22 92 23 89 24
REMARK SMILES IDX 91 25 90 26 93 27 95 28 94 29 9 30 10 31 11 32 12 33 13 34
REMARK SMILES IDX 14 35 75 36 15 37 74 38 16 39 17 40 18 41 68 42 19 43 73 44
REMARK SMILES IDX 67 45 69 46 20 47 72 48 66 49 65 50 21 52 53 53 33 54 52 55
REMARK SMILES IDX 34 56 37 57 51 58 70 59 35 60 36 61 50 63 71 64 38 65 22 66
REMARK SMILES IDX 23 67 31 68 24 69 26 70 32 71 25 72 27 73 28 74 29 75 30 76
REMARK SMILES IDX 54 77 55 78 63 79 56 80 58 81 64 82 57 83 59 84 60 85 61 86
REMARK SMILES IDX 62 87 39 88 40 89 48 90 41 91 43 92 49 93 42 94 44 95 45 96
REMARK SMILES IDX 46 97 47 98
REMARK H PARENT 76 11 69 51 37 62
REMARK Flexibility Score: inf
ROOT
ATOM      1  C   UNL     1       5.163   2.870   1.481  1.00  0.00     0.274 C 
ENDROOT
BRANCH   1   2
ATOM      2  O   UNL     1       3.876   2.329   1.148  1.00  0.00    -0.462 OA
BRANCH   2   3
ATOM      3  C   UNL     1       3.532   2.517  -0.138  1.00  0.00     0.306 C 
ATOM      4  O   UNL     1       3.924   3.452  -0.828  1.00  0.00    -0.252 OA
BRANCH   3   5
ATOM      5  C   UNL     1       2.590   1.472  -0.657  1.00  0.00     0.135 C 
BRANCH   5   6
ATOM      6  C   UNL     1       2.644  -0.001  -0.243  1.00  0.00     0.139 C 
BRANCH   6   7
ATOM      7  C   UNL     1       2.748  -0.599   1.168  1.00  0.00     0.308 C 
ATOM      8  O   UNL     1       1.866  -1.389   1.514  1.00  0.00    -0.247 OA
ATOM      9  N   UNL     1       3.753  -0.287   2.048  1.00  0.00    -0.204 N 
ATOM     10  C   UNL     1       4.828  -1.006   2.167  1.00  0.00     0.319 C 
ATOM     11  H   UNL     1       3.655   0.514   2.611  1.00  0.00     0.316 HD
ATOM     12  S   UNL     1       5.464  -2.207   1.006  1.00  0.00    -0.029 SA
ATOM     13  N   UNL     1       5.769  -0.838   3.199  1.00  0.00    -0.216 N 
ATOM     14  C   UNL     1       7.153  -2.139   1.712  1.00  0.00     0.120 C 
ATOM     15  C   UNL     1       7.124  -0.977   2.705  1.00  0.00     0.212 C 
ATOM     16  C   UNL     1       8.401  -1.795   0.914  1.00  0.00     0.156 C 
ATOM     17  C   UNL     1       8.351  -1.161   3.559  1.00  0.00     0.188 C 
ATOM     18  S   UNL     1       9.576  -1.365   2.238  1.00  0.00     0.155 S 
ATOM     19  O   UNL     1      10.395  -2.517   2.539  1.00  0.00    -0.229 OA
ATOM     20  O   UNL     1      10.132  -0.060   1.953  1.00  0.00    -0.229 OA
BRANCH  13  21
ATOM     21  C   UNL     1       5.484  -1.386   4.458  1.00  0.00     0.132 A 
ATOM     22  C   UNL     1       5.340  -0.529   5.570  1.00  0.00     0.056 A 
ATOM     23  C   UNL     1       5.234  -2.759   4.599  1.00  0.00     0.102 A 
ATOM     24  C   UNL     1       4.865  -1.015   6.792  1.00  0.00     0.055 A 
ATOM     25  C   UNL     1       4.733  -3.200   5.796  1.00  0.00     0.170 A 
ATOM     26  C   UNL     1       4.530  -2.349   6.857  1.00  0.00     0.166 A 
ATOM     27  O   UNL     1       4.295  -4.462   6.046  1.00  0.00    -0.453 OA
ATOM     28  O   UNL     1       3.912  -2.979   7.894  1.00  0.00    -0.454 OA
ATOM     29  C   UNL     1       3.532  -4.211   7.240  1.00  0.00     0.468 C 
ENDBRANCH  13  21
ENDBRANCH   6   7
ENDBRANCH   5   6
ENDBRANCH   3   5
ENDBRANCH   2   3
ENDBRANCH   1   2
BRANCH   1  30
ATOM     30  C   UNL     1       6.235   1.943   0.927  1.00  0.00     0.275 C 
BRANCH  30  31
ATOM     31  O   UNL     1       6.458   2.029  -0.485  1.00  0.00    -0.458 OA
BRANCH  31  32
ATOM     32  C   UNL     1       6.121   0.923  -1.174  1.00  0.00     0.338 C 
ATOM     33  O   UNL     1       5.454  -0.029  -0.793  1.00  0.00    -0.246 OA
BRANCH  32  34
ATOM     34  C   UNL     1       6.843   0.836  -2.410  1.00  0.00     0.060 A 
ATOM     35  C   UNL     1       6.474   1.651  -3.469  1.00  0.00     0.016 A 
ATOM     36  C   UNL     1       7.883  -0.097  -2.485  1.00  0.00     0.016 A 
ATOM     37  C   UNL     1       7.222   1.568  -4.622  1.00  0.00     0.010 A 
ATOM     38  C   UNL     1       8.694  -0.101  -3.592  1.00  0.00     0.010 A 
ATOM     39  C   UNL     1       8.362   0.741  -4.652  1.00  0.00    -0.014 A 
BRANCH  39  40
ATOM     40  C   UNL     1       9.279   0.860  -5.782  1.00  0.00     0.031 A 
ATOM     41  C   UNL     1       9.420  -0.276  -6.731  1.00  0.00     0.074 A 
ATOM     42  C   UNL     1       9.949   2.022  -5.872  1.00  0.00     0.049 A 
ATOM     43  N   UNL     1      10.086  -0.316  -7.847  1.00  0.00    -0.248 NA
ATOM     44  C   UNL     1       8.749  -1.543  -6.381  1.00  0.00     0.031 C 
ATOM     45  C   UNL     1       9.894   3.102  -4.874  1.00  0.00     0.029 A 
ATOM     46  N   UNL     1      10.775   2.509  -6.837  1.00  0.00    -0.354 N 
ATOM     47  C   UNL     1       9.952  -1.615  -8.314  1.00  0.00     0.074 A 
ATOM     48  C   UNL     1       9.155  -2.343  -7.356  1.00  0.00     0.031 C 
ATOM     49  C   UNL     1      10.601   4.150  -5.316  1.00  0.00     0.029 A 
ATOM     50  C   UNL     1      11.195   3.796  -6.595  1.00  0.00     0.049 A 
ATOM     51  H   UNL     1      11.045   1.992  -7.630  1.00  0.00     0.167 HD
ATOM     52  C   UNL     1      10.454  -2.126  -9.458  1.00  0.00     0.034 A 
ATOM     53  C   UNL     1      11.974   4.591  -7.347  1.00  0.00     0.034 A 
ATOM     54  C   UNL     1      11.214  -1.325 -10.377  1.00  0.00     0.049 A 
ATOM     55  C   UNL     1      12.426   4.023  -8.659  1.00  0.00     0.074 A 
ATOM     56  C   UNL     1      11.724  -1.672 -11.611  1.00  0.00     0.029 A 
ATOM     57  N   UNL     1      11.578  -0.002 -10.142  1.00  0.00    -0.354 N 
ATOM     58  N   UNL     1      12.175   2.837  -9.167  1.00  0.00    -0.248 NA
ATOM     59  C   UNL     1      13.233   4.893  -9.516  1.00  0.00     0.031 C 
ATOM     60  C   UNL     1      12.425  -0.568 -12.106  1.00  0.00     0.029 A 
ATOM     61  C   UNL     1      12.318   0.481 -11.201  1.00  0.00     0.049 A 
ATOM     62  H   UNL     1      11.342   0.513  -9.337  1.00  0.00     0.167 HD
ATOM     63  C   UNL     1      12.777   2.818 -10.412  1.00  0.00     0.074 A 
ATOM     64  C   UNL     1      13.377   4.131 -10.592  1.00  0.00     0.031 C 
ATOM     65  C   UNL     1      12.855   1.815 -11.321  1.00  0.00     0.034 A 
BRANCH  52  66
ATOM     66  C   UNL     1      10.198  -3.577  -9.759  1.00  0.00     0.023 A 
ATOM     67  C   UNL     1       8.899  -4.021 -10.080  1.00  0.00     0.012 A 
ATOM     68  C   UNL     1      11.258  -4.504  -9.744  1.00  0.00     0.148 A 
ATOM     69  C   UNL     1       8.653  -5.368 -10.350  1.00  0.00     0.002 A 
ATOM     70  C   UNL     1      11.015  -5.835 -10.061  1.00  0.00     0.091 A 
ATOM     71  F   UNL     1      12.480  -4.070  -9.404  1.00  0.00    -0.205 F 
ATOM     72  C   UNL     1       9.712  -6.271 -10.352  1.00  0.00     0.022 A 
BRANCH  70  73
ATOM     73  S   UNL     1      12.321  -7.063 -10.159  1.00  0.00     0.127 S 
ATOM     74  O   UNL     1      11.955  -7.972  -9.073  1.00  0.00    -0.237 OA
ATOM     75  O   UNL     1      12.125  -7.607 -11.503  1.00  0.00    -0.237 OA
ATOM     76  O   UNL     1      13.571  -6.342  -9.967  1.00  0.00    -0.744 OA
ENDBRANCH  70  73
ENDBRANCH  52  66
BRANCH  53  77
ATOM     77  C   UNL     1      12.301   5.971  -6.896  1.00  0.00     0.023 A 
ATOM     78  C   UNL     1      11.795   7.083  -7.595  1.00  0.00     0.012 A 
ATOM     79  C   UNL     1      13.063   6.189  -5.729  1.00  0.00     0.148 A 
ATOM     80  C   UNL     1      12.069   8.382  -7.163  1.00  0.00     0.002 A 
ATOM     81  C   UNL     1      13.284   7.483  -5.271  1.00  0.00     0.091 A 
ATOM     82  F   UNL     1      13.543   5.122  -5.075  1.00  0.00    -0.205 F 
ATOM     83  C   UNL     1      12.803   8.583  -5.996  1.00  0.00     0.022 A 
BRANCH  81  84
ATOM     84  S   UNL     1      14.095   7.812  -3.702  1.00  0.00     0.127 S 
ATOM     85  O   UNL     1      15.424   8.232  -4.135  1.00  0.00    -0.237 OA
ATOM     86  O   UNL     1      13.262   8.878  -3.142  1.00  0.00    -0.237 OA
ATOM     87  O   UNL     1      14.030   6.558  -2.963  1.00  0.00    -0.744 OA
ENDBRANCH  81  84
ENDBRANCH  53  77
BRANCH  65  88
ATOM     88  C   UNL     1      13.592   2.125 -12.588  1.00  0.00     0.023 A 
ATOM     89  C   UNL     1      14.997   2.218 -12.574  1.00  0.00     0.012 A 
ATOM     90  C   UNL     1      12.889   2.241 -13.800  1.00  0.00     0.148 A 
ATOM     91  C   UNL     1      15.693   2.458 -13.754  1.00  0.00     0.002 A 
ATOM     92  C   UNL     1      13.594   2.420 -14.979  1.00  0.00     0.091 A 
ATOM     93  F   UNL     1      11.550   2.167 -13.773  1.00  0.00    -0.205 F 
ATOM     94  C   UNL     1      14.993   2.544 -14.957  1.00  0.00     0.022 A 
BRANCH  92  95
ATOM     95  S   UNL     1      12.786   2.423 -16.579  1.00  0.00     0.127 S 
ATOM     96  O   UNL     1      12.894   3.829 -16.963  1.00  0.00    -0.237 OA
ATOM     97  O   UNL     1      13.629   1.510 -17.352  1.00  0.00    -0.237 OA
ATOM     98  O   UNL     1      11.430   1.942 -16.348  1.00  0.00    -0.744 OA
ENDBRANCH  92  95
ENDBRANCH  65  88
ENDBRANCH  39  40
ENDBRANCH  32  34
ENDBRANCH  31  32
ENDBRANCH  30  31
ENDBRANCH   1  30
TORSDOF 17
