REMARK SMILES Cc1c([C@H]2[C@H](C(=O)OCCOC(=O)c3ccc(-c4c5nc(c(-c6cccc(S(=O)(=O)[O-])c6F)c6ccc([nH]6)c(-c6cccc(S(=O)(=O)[O-])c6F)c6nc(c(-c7cccc(S(=O)(=O)[O-])c7F)c7ccc4[nH]7)C=C6)C=C5)cc3)OCC(=O)N2CC(C)C)cnn1C
REMARK SMILES IDX 10 1 9 2 8 3 6 4 7 5 5 6 4 7 81 8 77 9 79 10 78 11 80 12
REMARK SMILES IDX 3 13 1 14 2 15 88 16 86 17 87 18 89 19 82 20 83 21 84 22
REMARK SMILES IDX 85 23 11 24 12 25 13 26 14 27 15 28 76 29 16 30 75 31 17 32
REMARK SMILES IDX 18 33 19 34 69 35 20 36 74 37 68 38 70 39 21 40 73 41 67 42
REMARK SMILES IDX 66 43 22 45 54 46 34 47 53 48 35 49 38 50 52 51 71 52 36 53
REMARK SMILES IDX 37 54 51 56 72 57 39 58 23 59 24 60 32 61 25 62 27 63 33 64
REMARK SMILES IDX 26 65 28 66 29 67 30 68 31 69 55 70 56 71 64 72 57 73 59 74
REMARK SMILES IDX 65 75 58 76 60 77 61 78 62 79 63 80 40 81 41 82 49 83 42 84
REMARK SMILES IDX 44 85 50 86 43 87 45 88 46 89 47 90 48 91
REMARK H PARENT 70 44 38 55
REMARK Flexibility Score: inf
ROOT
ATOM      1  C   UNL     1      -5.717  -2.521  -0.741  1.00  0.00     0.275 C 
ENDROOT
BRANCH   1   2
ATOM      2  C   UNL     1      -5.182  -3.510   0.294  1.00  0.00     0.274 C 
BRANCH   2   3
ATOM      3  O   UNL     1      -3.744  -3.604   0.232  1.00  0.00    -0.460 OA
BRANCH   3   4
ATOM      4  C   UNL     1      -3.247  -4.785  -0.219  1.00  0.00     0.337 C 
ATOM      5  O   UNL     1      -3.941  -5.751  -0.520  1.00  0.00    -0.249 OA
BRANCH   4   6
ATOM      6  C   UNL     1      -1.716  -4.822  -0.301  1.00  0.00     0.255 C 
ATOM      7  C   UNL     1      -0.978  -3.484  -0.031  1.00  0.00     0.159 C 
ATOM      8  N   UNL     1      -0.735  -3.229   1.401  1.00  0.00    -0.330 N 
ATOM      9  O   UNL     1      -1.134  -5.891   0.452  1.00  0.00    -0.354 OA
ATOM     10  C   UNL     1      -0.739  -4.255   2.340  1.00  0.00     0.249 C 
ATOM     11  C   UNL     1      -1.191  -5.635   1.841  1.00  0.00     0.261 C 
ATOM     12  O   UNL     1      -0.488  -4.074   3.532  1.00  0.00    -0.272 OA
BRANCH   7  13
ATOM     13  C   UNL     1       0.324  -3.487  -0.799  1.00  0.00     0.019 A 
ATOM     14  C   UNL     1      -0.109  -1.833  -2.796  1.00  0.00     0.067 C 
ATOM     15  C   UNL     1       0.628  -2.843  -1.995  1.00  0.00     0.040 A 
ATOM     16  N   UNL     1       1.835  -3.362  -2.401  1.00  0.00    -0.273 N 
ATOM     17  C   UNL     1       1.484  -4.252  -0.525  1.00  0.00     0.141 A 
ATOM     18  N   UNL     1       2.405  -4.158  -1.482  1.00  0.00    -0.181 NA
ATOM     19  C   UNL     1       2.445  -3.235  -3.707  1.00  0.00     0.174 C 
ENDBRANCH   7  13
BRANCH   8  20
ATOM     20  C   UNL     1      -0.504  -1.857   1.860  1.00  0.00     0.123 C 
BRANCH  20  21
ATOM     21  C   UNL     1       0.979  -1.530   2.138  1.00  0.00     0.002 C 
ATOM     22  C   UNL     1       1.556  -0.611   1.060  1.00  0.00     0.009 C 
ATOM     23  C   UNL     1       1.136  -0.851   3.503  1.00  0.00     0.009 C 
ENDBRANCH  20  21
ENDBRANCH   8  20
ENDBRANCH   4   6
ENDBRANCH   3   4
ENDBRANCH   2   3
ENDBRANCH   1   2
BRANCH   1  24
ATOM     24  O   UNL     1      -5.298  -2.874  -2.072  1.00  0.00    -0.458 OA
BRANCH  24  25
ATOM     25  C   UNL     1      -4.249  -2.163  -2.539  1.00  0.00     0.338 C 
ATOM     26  O   UNL     1      -3.632  -1.285  -1.951  1.00  0.00    -0.246 OA
BRANCH  25  27
ATOM     27  C   UNL     1      -3.838  -2.654  -3.860  1.00  0.00     0.060 A 
ATOM     28  C   UNL     1      -2.813  -3.597  -3.921  1.00  0.00     0.016 A 
ATOM     29  C   UNL     1      -4.323  -2.060  -5.024  1.00  0.00     0.016 A 
ATOM     30  C   UNL     1      -2.215  -3.899  -5.142  1.00  0.00     0.010 A 
ATOM     31  C   UNL     1      -3.761  -2.413  -6.258  1.00  0.00     0.010 A 
ATOM     32  C   UNL     1      -2.678  -3.308  -6.326  1.00  0.00    -0.014 A 
BRANCH  32  33
ATOM     33  C   UNL     1      -2.012  -3.611  -7.623  1.00  0.00     0.031 A 
ATOM     34  C   UNL     1      -1.337  -2.519  -8.412  1.00  0.00     0.074 A 
ATOM     35  C   UNL     1      -2.011  -4.871  -8.101  1.00  0.00     0.049 A 
ATOM     36  N   UNL     1      -0.816  -2.571  -9.611  1.00  0.00    -0.248 NA
ATOM     37  C   UNL     1      -1.237  -1.196  -7.775  1.00  0.00     0.031 C 
ATOM     38  C   UNL     1      -2.620  -6.024  -7.436  1.00  0.00     0.029 A 
ATOM     39  N   UNL     1      -1.491  -5.392  -9.260  1.00  0.00    -0.354 N 
ATOM     40  C   UNL     1      -0.392  -1.280  -9.902  1.00  0.00     0.074 A 
ATOM     41  C   UNL     1      -0.697  -0.467  -8.743  1.00  0.00     0.031 C 
ATOM     42  C   UNL     1      -2.426  -7.118  -8.188  1.00  0.00     0.029 A 
ATOM     43  C   UNL     1      -1.738  -6.736  -9.417  1.00  0.00     0.049 A 
ATOM     44  H   UNL     1      -0.989  -4.855  -9.915  1.00  0.00     0.167 HD
ATOM     45  C   UNL     1       0.204  -0.814 -11.025  1.00  0.00     0.034 A 
ATOM     46  C   UNL     1      -1.472  -7.566 -10.445  1.00  0.00     0.034 A 
ATOM     47  C   UNL     1       0.577  -1.632 -12.149  1.00  0.00     0.049 A 
ATOM     48  C   UNL     1      -0.783  -7.030 -11.666  1.00  0.00     0.074 A 
ATOM     49  C   UNL     1       1.221  -1.250 -13.313  1.00  0.00     0.029 A 
ATOM     50  N   UNL     1       0.353  -2.996 -12.245  1.00  0.00    -0.354 N 
ATOM     51  N   UNL     1      -0.344  -5.816 -11.897  1.00  0.00    -0.248 NA
ATOM     52  C   UNL     1      -0.543  -7.977 -12.765  1.00  0.00     0.031 C 
ATOM     53  C   UNL     1       1.392  -2.387 -14.113  1.00  0.00     0.029 A 
ATOM     54  C   UNL     1       0.851  -3.474 -13.446  1.00  0.00     0.049 A 
ATOM     55  H   UNL     1      -0.094  -3.544 -11.561  1.00  0.00     0.167 HD
ATOM     56  C   UNL     1       0.230  -5.855 -13.163  1.00  0.00     0.074 A 
ATOM     57  C   UNL     1       0.114  -7.220 -13.635  1.00  0.00     0.031 C 
ATOM     58  C   UNL     1       0.775  -4.843 -13.882  1.00  0.00     0.034 A 
BRANCH  45  59
ATOM     59  C   UNL     1       0.532   0.653 -11.087  1.00  0.00     0.023 A 
ATOM     60  C   UNL     1       1.672   1.138 -10.417  1.00  0.00     0.012 A 
ATOM     61  C   UNL     1      -0.244   1.536 -11.863  1.00  0.00     0.148 A 
ATOM     62  C   UNL     1       2.025   2.485 -10.504  1.00  0.00     0.002 A 
ATOM     63  C   UNL     1       0.132   2.871 -11.970  1.00  0.00     0.091 A 
ATOM     64  F   UNL     1      -1.343   1.063 -12.468  1.00  0.00    -0.205 F 
ATOM     65  C   UNL     1       1.262   3.348 -11.288  1.00  0.00     0.022 A 
BRANCH  63  66
ATOM     66  S   UNL     1      -0.762   4.030 -13.012  1.00  0.00     0.127 S 
ATOM     67  O   UNL     1      -1.623   4.700 -12.040  1.00  0.00    -0.237 OA
ATOM     68  O   UNL     1       0.312   4.865 -13.553  1.00  0.00    -0.237 OA
ATOM     69  O   UNL     1      -1.444   3.212 -14.007  1.00  0.00    -0.744 OA
ENDBRANCH  63  66
ENDBRANCH  45  59
BRANCH  46  70
ATOM     70  C   UNL     1      -1.843  -9.005 -10.336  1.00  0.00     0.023 A 
ATOM     71  C   UNL     1      -0.830  -9.970 -10.187  1.00  0.00     0.012 A 
ATOM     72  C   UNL     1      -3.190  -9.413 -10.306  1.00  0.00     0.148 A 
ATOM     73  C   UNL     1      -1.153 -11.317 -10.016  1.00  0.00     0.002 A 
ATOM     74  C   UNL     1      -3.506 -10.747 -10.074  1.00  0.00     0.091 A 
ATOM     75  F   UNL     1      -4.144  -8.486 -10.482  1.00  0.00    -0.205 F 
ATOM     76  C   UNL     1      -2.489 -11.703  -9.941  1.00  0.00     0.022 A 
BRANCH  74  77
ATOM     77  S   UNL     1      -5.204 -11.269  -9.805  1.00  0.00     0.127 S 
ATOM     78  O   UNL     1      -5.599 -11.710 -11.139  1.00  0.00    -0.237 OA
ATOM     79  O   UNL     1      -5.052 -12.342  -8.821  1.00  0.00    -0.237 OA
ATOM     80  O   UNL     1      -5.880 -10.086  -9.289  1.00  0.00    -0.744 OA
ENDBRANCH  74  77
ENDBRANCH  46  70
BRANCH  58  81
ATOM     81  C   UNL     1       1.288  -5.169 -15.257  1.00  0.00     0.023 A 
ATOM     82  C   UNL     1       0.370  -5.322 -16.314  1.00  0.00     0.012 A 
ATOM     83  C   UNL     1       2.668  -5.258 -15.520  1.00  0.00     0.148 A 
ATOM     84  C   UNL     1       0.817  -5.578 -17.610  1.00  0.00     0.002 A 
ATOM     85  C   UNL     1       3.108  -5.480 -16.820  1.00  0.00     0.091 A 
ATOM     86  F   UNL     1       3.526  -5.135 -14.496  1.00  0.00    -0.205 F 
ATOM     87  C   UNL     1       2.184  -5.646 -17.865  1.00  0.00     0.022 A 
BRANCH  85  88
ATOM     88  S   UNL     1       4.856  -5.505 -17.236  1.00  0.00     0.127 S 
ATOM     89  O   UNL     1       5.143  -6.938 -17.238  1.00  0.00    -0.237 OA
ATOM     90  O   UNL     1       4.879  -4.877 -18.558  1.00  0.00    -0.237 OA
ATOM     91  O   UNL     1       5.514  -4.727 -16.195  1.00  0.00    -0.744 OA
ENDBRANCH  85  88
ENDBRANCH  58  81
ENDBRANCH  32  33
ENDBRANCH  25  27
ENDBRANCH  24  25
ENDBRANCH   1  24
TORSDOF 17
