REMARK SMILES CC[N@H+](CC(C)(C)C(=O)OCCOC(=O)c1ccc(-c2c3nc(c(-c4cccc(S(=O)(=O)[O-])c4F)c4ccc([nH]4)c(-c4cccc(S(=O)(=O)[O-])c4F)c4nc(c(-c5cccc(S(=O)(=O)[O-])c5F)c5ccc2[nH]5)C=C4)C=C3)cc1)[C@H]1CC[NH2+]C1
REMARK SMILES IDX 11 1 10 2 8 3 9 4 5 5 6 6 7 7 4 8 3 9 2 11 1 12 79 13 80 14
REMARK SMILES IDX 83 15 81 16 82 17 12 20 13 21 14 22 15 23 16 24 17 25 78 26
REMARK SMILES IDX 18 27 77 28 19 29 20 30 21 31 71 32 22 33 76 34 70 35 72 36
REMARK SMILES IDX 23 37 75 38 69 39 68 40 24 42 56 43 36 44 55 45 37 46 40 47
REMARK SMILES IDX 54 48 73 49 38 50 39 51 53 53 74 54 41 55 25 56 26 57 34 58
REMARK SMILES IDX 27 59 29 60 35 61 28 62 30 63 31 64 32 65 33 66 57 67 58 68
REMARK SMILES IDX 66 69 59 70 61 71 67 72 60 73 62 74 63 75 64 76 65 77 42 78
REMARK SMILES IDX 43 79 51 80 44 81 46 82 52 83 45 84 47 85 48 86 49 87 50 88
REMARK H PARENT 3 10 82 18 82 19 72 41 40 52
REMARK Flexibility Score: inf
ROOT
ATOM      1  C   UNL     1       4.482   1.819   3.200  1.00  0.00     0.274 C 
ENDROOT
BRANCH   1   2
ATOM      2  O   UNL     1       4.859   0.454   2.909  1.00  0.00    -0.461 OA
BRANCH   2   3
ATOM      3  C   UNL     1       4.269  -0.042   1.784  1.00  0.00     0.317 C 
ATOM      4  O   UNL     1       3.624   0.673   1.039  1.00  0.00    -0.251 OA
BRANCH   3   5
ATOM      5  C   UNL     1       4.494  -1.541   1.564  1.00  0.00     0.111 C 
ATOM      6  C   UNL     1       3.911  -2.374   2.710  1.00  0.00     0.029 C 
ATOM      7  C   UNL     1       6.026  -1.763   1.528  1.00  0.00     0.029 C 
BRANCH   5   8
ATOM      8  C   UNL     1       3.906  -2.015   0.179  1.00  0.00     0.280 C 
BRANCH   8   9
ATOM      9  N   UNL     1       2.434  -2.188  -0.052  1.00  0.00    -0.327 N 
ATOM     10  H   UNL     1       2.111  -2.873   0.631  1.00  0.00     0.348 HD
BRANCH   9  11
ATOM     11  C   UNL     1       1.699  -0.920   0.172  1.00  0.00     0.259 C 
ATOM     12  C   UNL     1       0.203  -0.853  -0.118  1.00  0.00     0.071 C 
ENDBRANCH   9  11
BRANCH   9  13
ATOM     13  C   UNL     1       2.137  -2.731  -1.413  1.00  0.00     0.245 C 
ATOM     14  C   UNL     1       2.337  -1.761  -2.583  1.00  0.00     0.132 C 
ATOM     15  C   UNL     1       2.873  -4.008  -1.881  1.00  0.00     0.326 C 
ATOM     16  C   UNL     1       2.787  -2.625  -3.744  1.00  0.00     0.267 C 
ATOM     17  N   UNL     1       3.609  -3.659  -3.107  1.00  0.00    -0.341 N 
ATOM     18  H   UNL     1       4.535  -3.296  -2.881  1.00  0.00     0.346 HD
ATOM     19  H   UNL     1       3.758  -4.466  -3.713  1.00  0.00     0.346 HD
ENDBRANCH   9  13
ENDBRANCH   8   9
ENDBRANCH   5   8
ENDBRANCH   3   5
ENDBRANCH   2   3
ENDBRANCH   1   2
BRANCH   1  20
ATOM     20  C   UNL     1       5.245   2.904   2.408  1.00  0.00     0.275 C 
BRANCH  20  21
ATOM     21  O   UNL     1       4.928   2.950   0.996  1.00  0.00    -0.458 OA
BRANCH  21  22
ATOM     22  C   UNL     1       5.786   2.271   0.192  1.00  0.00     0.338 C 
ATOM     23  O   UNL     1       6.838   1.761   0.560  1.00  0.00    -0.246 OA
BRANCH  22  24
ATOM     24  C   UNL     1       5.242   2.035  -1.177  1.00  0.00     0.060 A 
ATOM     25  C   UNL     1       5.563   0.806  -1.763  1.00  0.00     0.016 A 
ATOM     26  C   UNL     1       4.471   2.949  -1.905  1.00  0.00     0.016 A 
ATOM     27  C   UNL     1       5.114   0.481  -3.044  1.00  0.00     0.010 A 
ATOM     28  C   UNL     1       4.045   2.633  -3.218  1.00  0.00     0.010 A 
ATOM     29  C   UNL     1       4.363   1.394  -3.800  1.00  0.00    -0.014 A 
BRANCH  29  30
ATOM     30  C   UNL     1       4.122   1.049  -5.234  1.00  0.00     0.031 A 
ATOM     31  C   UNL     1       5.307   1.071  -6.164  1.00  0.00     0.074 A 
ATOM     32  C   UNL     1       2.943   0.587  -5.699  1.00  0.00     0.049 A 
ATOM     33  N   UNL     1       5.423   0.603  -7.379  1.00  0.00    -0.248 NA
ATOM     34  C   UNL     1       6.528   1.702  -5.638  1.00  0.00     0.031 C 
ATOM     35  C   UNL     1       1.708   0.499  -4.931  1.00  0.00     0.029 A 
ATOM     36  N   UNL     1       2.611   0.038  -6.921  1.00  0.00    -0.354 N 
ATOM     37  C   UNL     1       6.716   0.916  -7.778  1.00  0.00     0.074 A 
ATOM     38  C   UNL     1       7.360   1.569  -6.658  1.00  0.00     0.031 C 
ATOM     39  C   UNL     1       0.783  -0.155  -5.658  1.00  0.00     0.029 A 
ATOM     40  C   UNL     1       1.334  -0.482  -6.973  1.00  0.00     0.049 A 
ATOM     41  H   UNL     1       3.230   0.020  -7.687  1.00  0.00     0.167 HD
ATOM     42  C   UNL     1       7.312   0.719  -8.977  1.00  0.00     0.034 A 
ATOM     43  C   UNL     1       0.691  -1.150  -7.958  1.00  0.00     0.034 A 
ATOM     44  C   UNL     1       6.674   0.133 -10.122  1.00  0.00     0.049 A 
ATOM     45  C   UNL     1       1.386  -1.371  -9.285  1.00  0.00     0.074 A 
ATOM     46  C   UNL     1       7.185  -0.032 -11.398  1.00  0.00     0.029 A 
ATOM     47  N   UNL     1       5.380  -0.359 -10.143  1.00  0.00    -0.354 N 
ATOM     48  N   UNL     1       2.625  -1.117  -9.627  1.00  0.00    -0.248 NA
ATOM     49  C   UNL     1       0.584  -1.969 -10.368  1.00  0.00     0.031 C 
ATOM     50  C   UNL     1       6.184  -0.586 -12.203  1.00  0.00     0.029 A 
ATOM     51  C   UNL     1       5.072  -0.822 -11.411  1.00  0.00     0.049 A 
ATOM     52  H   UNL     1       4.770  -0.376  -9.371  1.00  0.00     0.167 HD
ATOM     53  C   UNL     1       2.754  -1.536 -10.950  1.00  0.00     0.074 A 
ATOM     54  C   UNL     1       1.481  -2.104 -11.335  1.00  0.00     0.031 C 
ATOM     55  C   UNL     1       3.821  -1.432 -11.780  1.00  0.00     0.034 A 
BRANCH  42  56
ATOM     56  C   UNL     1       8.716   1.233  -9.124  1.00  0.00     0.023 A 
ATOM     57  C   UNL     1       9.789   0.559  -8.507  1.00  0.00     0.012 A 
ATOM     58  C   UNL     1       8.964   2.400  -9.872  1.00  0.00     0.148 A 
ATOM     59  C   UNL     1      11.084   1.065  -8.600  1.00  0.00     0.002 A 
ATOM     60  C   UNL     1      10.263   2.870 -10.000  1.00  0.00     0.091 A 
ATOM     61  F   UNL     1       7.922   3.038 -10.423  1.00  0.00    -0.205 F 
ATOM     62  C   UNL     1      11.322   2.214  -9.352  1.00  0.00     0.022 A 
BRANCH  60  63
ATOM     63  S   UNL     1      10.676   4.299 -11.004  1.00  0.00     0.127 S 
ATOM     64  O   UNL     1      11.090   5.264  -9.986  1.00  0.00    -0.237 OA
ATOM     65  O   UNL     1      11.764   3.782 -11.835  1.00  0.00    -0.237 OA
ATOM     66  O   UNL     1       9.464   4.645 -11.733  1.00  0.00    -0.744 OA
ENDBRANCH  60  63
ENDBRANCH  42  56
BRANCH  43  67
ATOM     67  C   UNL     1      -0.697  -1.683  -7.764  1.00  0.00     0.023 A 
ATOM     68  C   UNL     1      -0.940  -3.070  -7.882  1.00  0.00     0.012 A 
ATOM     69  C   UNL     1      -1.789  -0.828  -7.522  1.00  0.00     0.148 A 
ATOM     70  C   UNL     1      -2.238  -3.582  -7.812  1.00  0.00     0.002 A 
ATOM     71  C   UNL     1      -3.068  -1.353  -7.374  1.00  0.00     0.091 A 
ATOM     72  F   UNL     1      -1.560   0.491  -7.458  1.00  0.00    -0.205 F 
ATOM     73  C   UNL     1      -3.301  -2.725  -7.545  1.00  0.00     0.022 A 
BRANCH  71  74
ATOM     74  S   UNL     1      -4.463  -0.337  -6.876  1.00  0.00     0.127 S 
ATOM     75  O   UNL     1      -5.230  -0.249  -8.116  1.00  0.00    -0.237 OA
ATOM     76  O   UNL     1      -5.074  -1.154  -5.828  1.00  0.00    -0.237 OA
ATOM     77  O   UNL     1      -3.882   0.911  -6.398  1.00  0.00    -0.744 OA
ENDBRANCH  71  74
ENDBRANCH  43  67
BRANCH  55  78
ATOM     78  C   UNL     1       3.692  -1.974 -13.184  1.00  0.00     0.023 A 
ATOM     79  C   UNL     1       2.856  -1.334 -14.121  1.00  0.00     0.012 A 
ATOM     80  C   UNL     1       4.467  -3.078 -13.596  1.00  0.00     0.148 A 
ATOM     81  C   UNL     1       2.762  -1.808 -15.431  1.00  0.00     0.002 A 
ATOM     82  C   UNL     1       4.409  -3.511 -14.915  1.00  0.00     0.091 A 
ATOM     83  F   UNL     1       5.245  -3.687 -12.690  1.00  0.00    -0.205 F 
ATOM     84  C   UNL     1       3.546  -2.887 -15.830  1.00  0.00     0.022 A 
BRANCH  82  85
ATOM     85  S   UNL     1       5.461  -4.826 -15.542  1.00  0.00     0.127 S 
ATOM     86  O   UNL     1       4.511  -5.928 -15.678  1.00  0.00    -0.237 OA
ATOM     87  O   UNL     1       5.934  -4.269 -16.810  1.00  0.00    -0.237 OA
ATOM     88  O   UNL     1       6.503  -5.016 -14.541  1.00  0.00    -0.744 OA
ENDBRANCH  82  85
ENDBRANCH  55  78
ENDBRANCH  29  30
ENDBRANCH  22  24
ENDBRANCH  21  22
ENDBRANCH  20  21
ENDBRANCH   1  20
TORSDOF 18
