REMARK SMILES CC(C)(C)c1n[nH]c2c1CC[C@@H](C(=O)OCCOC(=O)c1ccc(-c3c4nc(c(-c5cccc(S(=O)(=O)[O-])c5F)c5ccc([nH]5)c(-c5cccc(S(=O)(=O)[O-])c5F)c5nc(c(-c6cccc(S(=O)(=O)[O-])c6F)c6ccc3[nH]6)C=C5)C=C4)cc1)C2
REMARK SMILES IDX 17 1 16 2 15 3 13 4 14 5 12 6 5 7 6 8 9 9 7 10 8 11 10 12
REMARK SMILES IDX 84 14 11 15 2 16 1 17 3 18 4 19 18 20 19 21 20 22 21 23
REMARK SMILES IDX 22 24 83 25 23 26 82 27 24 28 25 29 26 30 76 31 27 32 81 33
REMARK SMILES IDX 75 34 77 35 28 36 80 37 74 38 73 39 29 41 61 42 41 43 60 44
REMARK SMILES IDX 42 45 45 46 59 47 78 48 43 49 44 50 58 52 79 53 46 54 30 55
REMARK SMILES IDX 31 56 39 57 32 58 34 59 40 60 33 61 35 62 36 63 37 64 38 65
REMARK SMILES IDX 62 66 63 67 71 68 64 69 66 70 72 71 65 72 67 73 68 74 69 75
REMARK SMILES IDX 70 76 47 77 48 78 56 79 49 80 51 81 57 82 50 83 52 84 53 85
REMARK SMILES IDX 54 86 55 87
REMARK H PARENT 7 13 77 40 45 51
REMARK Flexibility Score: inf
ROOT
ATOM      1  C   UNL     1       2.189   6.720   8.299  1.00  0.00     0.275 C 
ENDROOT
BRANCH   1   2
ATOM      2  C   UNL     1       0.885   6.740   7.496  1.00  0.00     0.274 C 
BRANCH   2   3
ATOM      3  O   UNL     1       0.837   5.677   6.523  1.00  0.00    -0.462 OA
BRANCH   3   4
ATOM      4  C   UNL     1       1.117   6.043   5.247  1.00  0.00     0.309 C 
ATOM      5  O   UNL     1       1.315   7.197   4.885  1.00  0.00    -0.252 OA
BRANCH   4   6
ATOM      6  C   UNL     1       1.150   4.887   4.272  1.00  0.00     0.105 C 
ATOM      7  C   UNL     1       0.746   1.452   1.860  1.00  0.00     0.071 A 
ATOM      8  N   UNL     1       1.228   0.515   2.696  1.00  0.00    -0.180 NA
ATOM      9  C   UNL     1       0.634   2.703   2.528  1.00  0.00    -0.003 A 
ATOM     10  N   UNL     1       1.480   1.167   3.844  1.00  0.00    -0.282 N 
ATOM     11  C   UNL     1       1.123   2.476   3.796  1.00  0.00     0.040 A 
ATOM     12  C   UNL     1       0.175   4.049   2.084  1.00  0.00     0.040 C 
ATOM     13  H   UNL     1       1.881   0.741   4.635  1.00  0.00     0.190 HD
ATOM     14  C   UNL     1       1.252   3.476   4.893  1.00  0.00     0.071 C 
ATOM     15  C   UNL     1      -0.040   4.982   3.292  1.00  0.00     0.020 C 
BRANCH   7  16
ATOM     16  C   UNL     1       0.373   1.097   0.424  1.00  0.00     0.006 C 
ATOM     17  C   UNL     1       0.913  -0.292   0.012  1.00  0.00     0.017 C 
ATOM     18  C   UNL     1       0.958   2.120  -0.573  1.00  0.00     0.017 C 
ATOM     19  C   UNL     1      -1.161   1.071   0.281  1.00  0.00     0.017 C 
ENDBRANCH   7  16
ENDBRANCH   4   6
ENDBRANCH   3   4
ENDBRANCH   2   3
ENDBRANCH   1   2
BRANCH   1  20
ATOM     20  O   UNL     1       3.349   6.956   7.479  1.00  0.00    -0.458 OA
BRANCH  20  21
ATOM     21  C   UNL     1       3.922   5.839   6.970  1.00  0.00     0.338 C 
ATOM     22  O   UNL     1       3.557   4.688   7.143  1.00  0.00    -0.246 OA
BRANCH  21  23
ATOM     23  C   UNL     1       5.014   6.191   6.047  1.00  0.00     0.060 A 
ATOM     24  C   UNL     1       4.942   5.702   4.739  1.00  0.00     0.016 A 
ATOM     25  C   UNL     1       6.142   6.893   6.476  1.00  0.00     0.016 A 
ATOM     26  C   UNL     1       5.996   5.905   3.855  1.00  0.00     0.010 A 
ATOM     27  C   UNL     1       7.207   7.088   5.588  1.00  0.00     0.010 A 
ATOM     28  C   UNL     1       7.147   6.581   4.277  1.00  0.00    -0.014 A 
BRANCH  28  29
ATOM     29  C   UNL     1       8.305   6.687   3.356  1.00  0.00     0.031 A 
ATOM     30  C   UNL     1       9.506   5.806   3.560  1.00  0.00     0.074 A 
ATOM     31  C   UNL     1       8.262   7.544   2.320  1.00  0.00     0.049 A 
ATOM     32  N   UNL     1      10.620   5.757   2.875  1.00  0.00    -0.248 NA
ATOM     33  C   UNL     1       9.447   4.852   4.679  1.00  0.00     0.031 C 
ATOM     34  C   UNL     1       7.144   8.436   2.010  1.00  0.00     0.029 A 
ATOM     35  N   UNL     1       9.184   7.809   1.339  1.00  0.00    -0.354 N 
ATOM     36  C   UNL     1      11.405   4.792   3.495  1.00  0.00     0.074 A 
ATOM     37  C   UNL     1      10.643   4.284   4.616  1.00  0.00     0.031 C 
ATOM     38  C   UNL     1       7.449   9.156   0.917  1.00  0.00     0.029 A 
ATOM     39  C   UNL     1       8.790   8.795   0.465  1.00  0.00     0.049 A 
ATOM     40  H   UNL     1      10.046   7.338   1.268  1.00  0.00     0.167 HD
ATOM     41  C   UNL     1      12.640   4.356   3.150  1.00  0.00     0.034 A 
ATOM     42  C   UNL     1       9.442   9.350  -0.576  1.00  0.00     0.034 A 
ATOM     43  C   UNL     1      13.382   4.838   2.015  1.00  0.00     0.049 A 
ATOM     44  C   UNL     1      10.814   8.843  -0.935  1.00  0.00     0.074 A 
ATOM     45  C   UNL     1      14.641   4.458   1.585  1.00  0.00     0.029 A 
ATOM     46  N   UNL     1      12.927   5.796   1.123  1.00  0.00    -0.354 N 
ATOM     47  N   UNL     1      11.509   7.878  -0.382  1.00  0.00    -0.248 NA
ATOM     48  C   UNL     1      11.477   9.478  -2.083  1.00  0.00     0.031 C 
ATOM     49  C   UNL     1      14.948   5.188   0.431  1.00  0.00     0.029 A 
ATOM     50  C   UNL     1      13.876   6.014   0.138  1.00  0.00     0.049 A 
ATOM     51  H   UNL     1      12.058   6.255   1.181  1.00  0.00     0.167 HD
ATOM     52  C   UNL     1      12.672   7.766  -1.135  1.00  0.00     0.074 A 
ATOM     53  C   UNL     1      12.578   8.747  -2.198  1.00  0.00     0.031 C 
ATOM     54  C   UNL     1      13.733   6.943  -0.953  1.00  0.00     0.034 A 
BRANCH  41  55
ATOM     55  C   UNL     1      13.255   3.267   3.989  1.00  0.00     0.023 A 
ATOM     56  C   UNL     1      12.802   1.941   3.837  1.00  0.00     0.012 A 
ATOM     57  C   UNL     1      14.314   3.540   4.876  1.00  0.00     0.148 A 
ATOM     58  C   UNL     1      13.379   0.906   4.572  1.00  0.00     0.002 A 
ATOM     59  C   UNL     1      14.908   2.498   5.579  1.00  0.00     0.091 A 
ATOM     60  F   UNL     1      14.713   4.812   5.024  1.00  0.00    -0.205 F 
ATOM     61  C   UNL     1      14.438   1.182   5.433  1.00  0.00     0.022 A 
BRANCH  59  62
ATOM     62  S   UNL     1      16.320   2.744   6.663  1.00  0.00     0.127 S 
ATOM     63  O   UNL     1      15.708   2.592   7.982  1.00  0.00    -0.237 OA
ATOM     64  O   UNL     1      17.206   1.647   6.273  1.00  0.00    -0.237 OA
ATOM     65  O   UNL     1      16.831   4.072   6.358  1.00  0.00    -0.744 OA
ENDBRANCH  59  62
ENDBRANCH  41  55
BRANCH  42  66
ATOM     66  C   UNL     1       8.785  10.412  -1.389  1.00  0.00     0.023 A 
ATOM     67  C   UNL     1       8.400  10.128  -2.714  1.00  0.00     0.012 A 
ATOM     68  C   UNL     1       8.525  11.690  -0.860  1.00  0.00     0.148 A 
ATOM     69  C   UNL     1       7.797  11.106  -3.506  1.00  0.00     0.002 A 
ATOM     70  C   UNL     1       7.875  12.643  -1.636  1.00  0.00     0.091 A 
ATOM     71  F   UNL     1       8.921  11.954   0.394  1.00  0.00    -0.205 F 
ATOM     72  C   UNL     1       7.524  12.359  -2.964  1.00  0.00     0.022 A 
BRANCH  70  73
ATOM     73  S   UNL     1       7.375  14.230  -0.959  1.00  0.00     0.127 S 
ATOM     74  O   UNL     1       8.443  15.108  -1.428  1.00  0.00    -0.237 OA
ATOM     75  O   UNL     1       6.075  14.446  -1.598  1.00  0.00    -0.237 OA
ATOM     76  O   UNL     1       7.299  14.022   0.481  1.00  0.00    -0.744 OA
ENDBRANCH  70  73
ENDBRANCH  42  66
BRANCH  54  77
ATOM     77  C   UNL     1      14.863   7.034  -1.945  1.00  0.00     0.023 A 
ATOM     78  C   UNL     1      15.745   8.131  -1.896  1.00  0.00     0.012 A 
ATOM     79  C   UNL     1      15.086   6.007  -2.882  1.00  0.00     0.148 A 
ATOM     80  C   UNL     1      16.814   8.221  -2.787  1.00  0.00     0.002 A 
ATOM     81  C   UNL     1      16.177   6.083  -3.740  1.00  0.00     0.091 A 
ATOM     82  F   UNL     1      14.223   4.982  -2.931  1.00  0.00    -0.205 F 
ATOM     83  C   UNL     1      17.036   7.193  -3.701  1.00  0.00     0.022 A 
BRANCH  81  84
ATOM     84  S   UNL     1      16.577   4.756  -4.884  1.00  0.00     0.127 S 
ATOM     85  O   UNL     1      15.985   5.243  -6.128  1.00  0.00    -0.237 OA
ATOM     86  O   UNL     1      18.041   4.750  -4.867  1.00  0.00    -0.237 OA
ATOM     87  O   UNL     1      15.969   3.559  -4.318  1.00  0.00    -0.744 OA
ENDBRANCH  81  84
ENDBRANCH  54  77
ENDBRANCH  28  29
ENDBRANCH  21  23
ENDBRANCH  20  21
ENDBRANCH   1  20
TORSDOF 15
