REMARK SMILES O=C(OCCOC(=O)[C@@H]1CCCC[C@@H]1NS(=O)(=O)c1ccc2ccccc2c1)c1ccc(-c2c3nc(c(-c4cccc(S(=O)(=O)[O-])c4F)c4ccc([nH]4)c(-c4cccc(S(=O)(=O)[O-])c4F)c4nc(c(-c5cccc(S(=O)(=O)[O-])c5F)c5ccc2[nH]5)C=C4)C=C3)cc1
REMARK SMILES IDX 4 1 3 2 2 3 1 4 29 5 30 6 91 7 31 8 90 9 32 10 33 11 34 12
REMARK SMILES IDX 84 13 35 14 89 15 83 16 85 17 36 18 88 19 82 20 81 21 37 23
REMARK SMILES IDX 69 24 49 25 68 26 50 27 53 28 67 29 86 30 51 31 52 32 66 34
REMARK SMILES IDX 87 35 54 36 38 37 39 38 47 39 40 40 42 41 48 42 41 43 43 44
REMARK SMILES IDX 44 45 45 46 46 47 70 48 71 49 79 50 72 51 74 52 80 53 73 54
REMARK SMILES IDX 75 55 76 56 77 57 78 58 55 59 56 60 64 61 57 62 59 63 65 64
REMARK SMILES IDX 58 65 60 66 61 67 62 68 63 69 5 70 6 71 7 72 8 73 9 74 10 75
REMARK SMILES IDX 14 76 11 77 13 78 12 79 15 80 16 82 17 83 18 84 19 85 20 86
REMARK SMILES IDX 28 87 21 88 27 89 22 90 26 91 23 92 25 93 24 94
REMARK H PARENT 85 22 53 33 15 81
REMARK Flexibility Score: inf
ROOT
ATOM      1  C   UNL     1       3.110  -2.488   0.894  1.00  0.00     0.275 C 
ENDROOT
BRANCH   1   2
ATOM      2  O   UNL     1       1.857  -1.363   0.416  1.00  0.00    -0.458 OA
BRANCH   2   3
ATOM      3  C   UNL     1       1.951  -0.132  -0.696  1.00  0.00     0.338 C 
ATOM      4  O   UNL     1       1.150  -0.581  -1.537  1.00  0.00    -0.246 OA
BRANCH   3   5
ATOM      5  C   UNL     1       3.014   1.573  -0.618  1.00  0.00     0.060 A 
ATOM      6  C   UNL     1       4.376   1.881  -1.016  1.00  0.00     0.016 A 
ATOM      7  C   UNL     1       2.552   2.916  -0.218  1.00  0.00     0.016 A 
ATOM      8  C   UNL     1       5.088   3.115  -1.102  1.00  0.00     0.010 A 
ATOM      9  C   UNL     1       3.183   4.205  -0.407  1.00  0.00     0.010 A 
ATOM     10  C   UNL     1       4.450   4.310  -0.938  1.00  0.00    -0.014 A 
BRANCH  10  11
ATOM     11  C   UNL     1       5.077   5.550  -1.458  1.00  0.00     0.031 A 
ATOM     12  C   UNL     1       5.534   6.647  -0.552  1.00  0.00     0.074 A 
ATOM     13  C   UNL     1       5.290   5.672  -2.789  1.00  0.00     0.049 A 
ATOM     14  N   UNL     1       6.145   7.759  -0.873  1.00  0.00    -0.248 NA
ATOM     15  C   UNL     1       5.351   6.448   0.892  1.00  0.00     0.031 C 
ATOM     16  C   UNL     1       5.046   4.632  -3.787  1.00  0.00     0.029 A 
ATOM     17  N   UNL     1       5.739   6.726  -3.546  1.00  0.00    -0.354 N 
ATOM     18  C   UNL     1       6.473   8.368   0.326  1.00  0.00     0.074 A 
ATOM     19  C   UNL     1       5.939   7.532   1.383  1.00  0.00     0.031 C 
ATOM     20  C   UNL     1       5.201   5.129  -5.018  1.00  0.00     0.029 A 
ATOM     21  C   UNL     1       5.628   6.512  -4.902  1.00  0.00     0.049 A 
ATOM     22  H   UNL     1       6.105   7.554  -3.157  1.00  0.00     0.167 HD
ATOM     23  C   UNL     1       7.211   9.486   0.525  1.00  0.00     0.034 A 
ATOM     24  C   UNL     1       5.861   7.315  -5.955  1.00  0.00     0.034 A 
ATOM     25  C   UNL     1       7.752  10.312  -0.522  1.00  0.00     0.049 A 
ATOM     26  C   UNL     1       6.503   8.640  -5.707  1.00  0.00     0.074 A 
ATOM     27  C   UNL     1       8.518  11.459  -0.407  1.00  0.00     0.029 A 
ATOM     28  N   UNL     1       7.572  10.089  -1.880  1.00  0.00    -0.354 N 
ATOM     29  N   UNL     1       6.897   9.148  -4.566  1.00  0.00    -0.248 NA
ATOM     30  C   UNL     1       6.805   9.468  -6.880  1.00  0.00     0.031 C 
ATOM     31  C   UNL     1       8.801  11.931  -1.696  1.00  0.00     0.029 A 
ATOM     32  C   UNL     1       8.197  11.085  -2.614  1.00  0.00     0.049 A 
ATOM     33  H   UNL     1       7.073   9.334  -2.266  1.00  0.00     0.167 HD
ATOM     34  C   UNL     1       7.554  10.324  -4.885  1.00  0.00     0.074 A 
ATOM     35  C   UNL     1       7.483  10.467  -6.327  1.00  0.00     0.031 C 
ATOM     36  C   UNL     1       8.169  11.195  -4.051  1.00  0.00     0.034 A 
BRANCH  23  37
ATOM     37  C   UNL     1       7.557   9.806   1.949  1.00  0.00     0.023 A 
ATOM     38  C   UNL     1       8.737   9.254   2.489  1.00  0.00     0.012 A 
ATOM     39  C   UNL     1       6.730  10.602   2.757  1.00  0.00     0.148 A 
ATOM     40  C   UNL     1       9.081   9.482   3.821  1.00  0.00     0.002 A 
ATOM     41  C   UNL     1       7.083  10.827   4.085  1.00  0.00     0.091 A 
ATOM     42  F   UNL     1       5.590  11.083   2.241  1.00  0.00    -0.205 F 
ATOM     43  C   UNL     1       8.256  10.270   4.619  1.00  0.00     0.022 A 
BRANCH  41  44
ATOM     44  S   UNL     1       6.037  11.827   5.147  1.00  0.00     0.127 S 
ATOM     45  O   UNL     1       5.021  10.865   5.564  1.00  0.00    -0.237 OA
ATOM     46  O   UNL     1       6.951  12.244   6.213  1.00  0.00    -0.237 OA
ATOM     47  O   UNL     1       5.585  12.918   4.292  1.00  0.00    -0.744 OA
ENDBRANCH  41  44
ENDBRANCH  23  37
BRANCH  24  48
ATOM     48  C   UNL     1       5.571   6.816  -7.326  1.00  0.00     0.023 A 
ATOM     49  C   UNL     1       6.625   6.376  -8.147  1.00  0.00     0.012 A 
ATOM     50  C   UNL     1       4.243   6.681  -7.777  1.00  0.00     0.148 A 
ATOM     51  C   UNL     1       6.360   5.816  -9.398  1.00  0.00     0.002 A 
ATOM     52  C   UNL     1       3.985   6.092  -9.011  1.00  0.00     0.091 A 
ATOM     53  F   UNL     1       3.251   7.120  -6.989  1.00  0.00    -0.205 F 
ATOM     54  C   UNL     1       5.042   5.664  -9.826  1.00  0.00     0.022 A 
BRANCH  52  55
ATOM     55  S   UNL     1       2.301   5.777  -9.556  1.00  0.00     0.127 S 
ATOM     56  O   UNL     1       1.984   7.003 -10.283  1.00  0.00    -0.237 OA
ATOM     57  O   UNL     1       2.451   4.588 -10.395  1.00  0.00    -0.237 OA
ATOM     58  O   UNL     1       1.552   5.542  -8.327  1.00  0.00    -0.744 OA
ENDBRANCH  52  55
ENDBRANCH  24  48
BRANCH  36  59
ATOM     59  C   UNL     1       8.840  12.379  -4.681  1.00  0.00     0.023 A 
ATOM     60  C   UNL     1       8.063  13.497  -5.040  1.00  0.00     0.012 A 
ATOM     61  C   UNL     1      10.233  12.407  -4.873  1.00  0.00     0.148 A 
ATOM     62  C   UNL     1       8.666  14.625  -5.593  1.00  0.00     0.002 A 
ATOM     63  C   UNL     1      10.830  13.547  -5.399  1.00  0.00     0.091 A 
ATOM     64  F   UNL     1      10.950  11.318  -4.560  1.00  0.00    -0.205 F 
ATOM     65  C   UNL     1      10.049  14.656  -5.762  1.00  0.00     0.022 A 
BRANCH  63  66
ATOM     66  S   UNL     1      12.614  13.669  -5.577  1.00  0.00     0.127 S 
ATOM     67  O   UNL     1      12.814  13.198  -6.946  1.00  0.00    -0.237 OA
ATOM     68  O   UNL     1      12.861  15.099  -5.383  1.00  0.00    -0.237 OA
ATOM     69  O   UNL     1      13.160  12.823  -4.523  1.00  0.00    -0.744 OA
ENDBRANCH  63  66
ENDBRANCH  36  59
ENDBRANCH  10  11
ENDBRANCH   3   5
ENDBRANCH   2   3
ENDBRANCH   1   2
BRANCH   1  70
ATOM     70  C   UNL     1       4.769  -2.207   0.012  1.00  0.00     0.274 C 
BRANCH  70  71
ATOM     71  O   UNL     1       4.720  -0.679  -1.368  1.00  0.00    -0.462 OA
BRANCH  71  72
ATOM     72  C   UNL     1       3.858  -0.007  -2.668  1.00  0.00     0.310 C 
ATOM     73  O   UNL     1       4.524   0.004  -3.720  1.00  0.00    -0.252 OA
BRANCH  72  74
ATOM     74  C   UNL     1       2.225   0.985  -2.739  1.00  0.00     0.117 C 
ATOM     75  C   UNL     1       2.473   2.165  -3.708  1.00  0.00     0.017 C 
ATOM     76  C   UNL     1       0.819   1.591  -1.568  1.00  0.00     0.084 C 
ATOM     77  C   UNL     1       1.224   2.914  -4.148  1.00  0.00     0.001 C 
ATOM     78  C   UNL     1       0.118   2.948  -1.864  1.00  0.00     0.021 C 
ATOM     79  C   UNL     1       0.677   3.765  -3.015  1.00  0.00     0.002 C 
BRANCH  76  80
ATOM     80  N   UNL     1       0.732   1.241   0.328  1.00  0.00    -0.207 NA
ATOM     81  H   UNL     1       0.010   0.528   0.430  1.00  0.00     0.141 HD
BRANCH  80  82
ATOM     82  S   UNL     1       2.349   0.582   1.611  1.00  0.00     0.240 S 
ATOM     83  O   UNL     1       3.095   1.728   2.087  1.00  0.00    -0.207 OA
ATOM     84  O   UNL     1       1.782  -0.347   2.570  1.00  0.00    -0.207 OA
BRANCH  82  85
ATOM     85  C   UNL     1       3.775  -0.509   0.257  1.00  0.00     0.083 A 
ATOM     86  C   UNL     1       5.410  -0.098   0.534  1.00  0.00     0.022 A 
ATOM     87  C   UNL     1       3.314  -1.775  -1.169  1.00  0.00     0.030 A 
ATOM     88  C   UNL     1       6.580  -0.833  -0.499  1.00  0.00     0.010 A 
ATOM     89  C   UNL     1       4.623  -2.483  -2.187  1.00  0.00    -0.017 A 
ATOM     90  C   UNL     1       6.245  -1.968  -1.797  1.00  0.00    -0.018 A 
ATOM     91  C   UNL     1       4.501  -3.361  -3.263  1.00  0.00     0.009 A 
ATOM     92  C   UNL     1       7.255  -2.465  -2.601  1.00  0.00     0.009 A 
ATOM     93  C   UNL     1       5.643  -3.752  -3.980  1.00  0.00     0.001 A 
ATOM     94  C   UNL     1       6.954  -3.324  -3.665  1.00  0.00     0.001 A 
ENDBRANCH  82  85
ENDBRANCH  80  82
ENDBRANCH  76  80
ENDBRANCH  72  74
ENDBRANCH  71  72
ENDBRANCH  70  71
ENDBRANCH   1  70
TORSDOF 17
