REMARK SMILES Cc1nsc(N[C@@H](C)C2CCCC2)c1C(=O)OCCOC(=O)c1ccc(-c2c3nc(c(-c4cccc(S(=O)(=O)[O-])c4F)c4ccc([nH]4)c(-c4cccc(S(=O)(=O)[O-])c4F)c4nc(c(-c5cccc(S(=O)(=O)[O-])c5F)c5ccc2[nH]5)C=C4)C=C3)cc1
REMARK SMILES IDX 18 1 17 2 15 3 16 4 14 5 1 6 2 7 3 8 4 9 5 10 6 11 7 13 8 14
REMARK SMILES IDX 9 15 10 16 13 17 11 18 12 19 19 20 20 21 21 22 22 23 23 24
REMARK SMILES IDX 24 25 85 26 25 27 84 28 26 29 27 30 28 31 78 32 29 33 83 34
REMARK SMILES IDX 77 35 79 36 30 37 82 38 76 39 75 40 31 42 63 43 43 44 62 45
REMARK SMILES IDX 44 46 47 47 61 48 80 49 45 50 46 51 60 53 81 54 48 55 32 56
REMARK SMILES IDX 33 57 41 58 34 59 36 60 42 61 35 62 37 63 38 64 39 65 40 66
REMARK SMILES IDX 64 67 65 68 73 69 66 70 68 71 74 72 67 73 69 74 70 75 71 76
REMARK SMILES IDX 72 77 49 78 50 79 58 80 51 81 53 82 59 83 52 84 54 85 55 86
REMARK SMILES IDX 56 87 57 88
REMARK H PARENT 6 12 79 41 47 52
REMARK Flexibility Score: inf
ROOT
ATOM      1  C   UNL     1       3.904   1.312  -1.680  1.00  0.00     0.275 C 
ENDROOT
BRANCH   1   2
ATOM      2  O   UNL     1       2.649   1.400  -0.973  1.00  0.00    -0.458 OA
BRANCH   2   3
ATOM      3  C   UNL     1       2.310   2.575  -0.355  1.00  0.00     0.343 C 
ATOM      4  O   UNL     1       3.046   3.561  -0.321  1.00  0.00    -0.246 OA
BRANCH   3   5
ATOM      5  C   UNL     1       0.996   2.521   0.290  1.00  0.00     0.117 A 
ATOM      6  C   UNL     1       0.712  -0.100   0.377  1.00  0.00     0.069 C 
ATOM      7  C   UNL     1       0.288   1.305   0.653  1.00  0.00     0.068 A 
ATOM      8  N   UNL     1      -0.854   1.462   1.319  1.00  0.00    -0.195 NA
ATOM      9  S   UNL     1      -1.180   3.067   1.449  1.00  0.00    -0.018 S 
ATOM     10  C   UNL     1       0.242   3.644   0.660  1.00  0.00     0.124 A 
BRANCH  10  11
ATOM     11  N   UNL     1       0.511   4.969   0.431  1.00  0.00    -0.372 N 
ATOM     12  H   UNL     1       1.079   5.196  -0.340  1.00  0.00     0.161 HD
BRANCH  11  13
ATOM     13  C   UNL     1       0.008   6.073   1.260  1.00  0.00     0.080 C 
ATOM     14  C   UNL     1       1.221   6.646   2.005  1.00  0.00     0.031 C 
BRANCH  13  15
ATOM     15  C   UNL     1      -0.837   7.144   0.497  1.00  0.00     0.011 C 
ATOM     16  C   UNL     1      -0.316   8.587   0.554  1.00  0.00     0.006 C 
ATOM     17  C   UNL     1      -1.096   6.943  -0.995  1.00  0.00     0.006 C 
ATOM     18  C   UNL     1      -1.106   9.347  -0.501  1.00  0.00     0.000 C 
ATOM     19  C   UNL     1      -1.518   8.312  -1.539  1.00  0.00     0.000 C 
ENDBRANCH  13  15
ENDBRANCH  11  13
ENDBRANCH  10  11
ENDBRANCH   3   5
ENDBRANCH   2   3
ENDBRANCH   1   2
BRANCH   1  20
ATOM     20  C   UNL     1       3.742   1.556  -3.180  1.00  0.00     0.275 C 
BRANCH  20  21
ATOM     21  O   UNL     1       3.817   2.950  -3.484  1.00  0.00    -0.458 OA
BRANCH  21  22
ATOM     22  C   UNL     1       2.635   3.576  -3.340  1.00  0.00     0.338 C 
ATOM     23  O   UNL     1       1.590   3.096  -2.927  1.00  0.00    -0.246 OA
BRANCH  22  24
ATOM     24  C   UNL     1       2.709   4.941  -3.839  1.00  0.00     0.060 A 
ATOM     25  C   UNL     1       1.929   5.867  -3.164  1.00  0.00     0.016 A 
ATOM     26  C   UNL     1       3.163   5.167  -5.136  1.00  0.00     0.016 A 
ATOM     27  C   UNL     1       1.332   6.863  -3.899  1.00  0.00     0.010 A 
ATOM     28  C   UNL     1       2.637   6.238  -5.836  1.00  0.00     0.010 A 
ATOM     29  C   UNL     1       1.581   6.960  -5.270  1.00  0.00    -0.014 A 
BRANCH  29  30
ATOM     30  C   UNL     1       0.635   7.755  -6.072  1.00  0.00     0.031 A 
ATOM     31  C   UNL     1       0.259   9.097  -5.514  1.00  0.00     0.074 A 
ATOM     32  C   UNL     1       0.168   7.289  -7.255  1.00  0.00     0.049 A 
ATOM     33  N   UNL     1      -0.917   9.643  -5.426  1.00  0.00    -0.248 NA
ATOM     34  C   UNL     1       1.321   9.866  -4.836  1.00  0.00     0.031 C 
ATOM     35  C   UNL     1       0.540   6.042  -7.938  1.00  0.00     0.029 A 
ATOM     36  N   UNL     1      -0.579   7.929  -8.206  1.00  0.00    -0.354 N 
ATOM     37  C   UNL     1      -0.701  10.900  -4.857  1.00  0.00     0.074 A 
ATOM     38  C   UNL     1       0.643  10.899  -4.347  1.00  0.00     0.031 C 
ATOM     39  C   UNL     1       0.371   6.200  -9.264  1.00  0.00     0.029 A 
ATOM     40  C   UNL     1      -0.259   7.484  -9.491  1.00  0.00     0.049 A 
ATOM     41  H   UNL     1      -1.256   8.616  -8.009  1.00  0.00     0.167 HD
ATOM     42  C   UNL     1      -1.533  11.959  -5.052  1.00  0.00     0.034 A 
ATOM     43  C   UNL     1      -0.346   8.189 -10.645  1.00  0.00     0.034 A 
ATOM     44  C   UNL     1      -2.866  11.567  -5.398  1.00  0.00     0.049 A 
ATOM     45  C   UNL     1      -1.276   9.313 -10.415  1.00  0.00     0.074 A 
ATOM     46  C   UNL     1      -3.871  10.855  -4.775  1.00  0.00     0.029 A 
ATOM     47  N   UNL     1      -3.244  11.672  -6.712  1.00  0.00    -0.354 N 
ATOM     48  N   UNL     1      -2.551   9.159 -10.200  1.00  0.00    -0.248 NA
ATOM     49  C   UNL     1      -0.709  10.580  -9.985  1.00  0.00     0.031 C 
ATOM     50  C   UNL     1      -4.537  10.161  -5.826  1.00  0.00     0.029 A 
ATOM     51  C   UNL     1      -3.919  10.523  -7.023  1.00  0.00     0.049 A 
ATOM     52  H   UNL     1      -3.063  12.428  -7.316  1.00  0.00     0.167 HD
ATOM     53  C   UNL     1      -2.846  10.094  -9.217  1.00  0.00     0.074 A 
ATOM     54  C   UNL     1      -1.700  11.001  -9.196  1.00  0.00     0.031 C 
ATOM     55  C   UNL     1      -3.847   9.881  -8.314  1.00  0.00     0.034 A 
BRANCH  42  56
ATOM     56  C   UNL     1      -1.023  13.369  -5.236  1.00  0.00     0.023 A 
ATOM     57  C   UNL     1      -1.946  14.435  -5.218  1.00  0.00     0.012 A 
ATOM     58  C   UNL     1       0.292  13.674  -5.663  1.00  0.00     0.148 A 
ATOM     59  C   UNL     1      -1.575  15.730  -5.606  1.00  0.00     0.002 A 
ATOM     60  C   UNL     1       0.682  14.976  -5.941  1.00  0.00     0.091 A 
ATOM     61  F   UNL     1       1.151  12.689  -5.948  1.00  0.00    -0.205 F 
ATOM     62  C   UNL     1      -0.254  16.007  -5.944  1.00  0.00     0.022 A 
BRANCH  60  63
ATOM     63  S   UNL     1       2.404  15.360  -6.280  1.00  0.00     0.127 S 
ATOM     64  O   UNL     1       2.412  15.429  -7.737  1.00  0.00    -0.237 OA
ATOM     65  O   UNL     1       2.570  16.644  -5.597  1.00  0.00    -0.237 OA
ATOM     66  O   UNL     1       3.160  14.269  -5.676  1.00  0.00    -0.744 OA
ENDBRANCH  60  63
ENDBRANCH  42  56
BRANCH  43  67
ATOM     67  C   UNL     1       0.601   8.166 -11.787  1.00  0.00     0.023 A 
ATOM     68  C   UNL     1       0.184   8.637 -13.047  1.00  0.00     0.012 A 
ATOM     69  C   UNL     1       1.981   7.922 -11.592  1.00  0.00     0.148 A 
ATOM     70  C   UNL     1       1.111   8.866 -14.072  1.00  0.00     0.002 A 
ATOM     71  C   UNL     1       2.895   8.128 -12.621  1.00  0.00     0.091 A 
ATOM     72  F   UNL     1       2.416   7.582 -10.371  1.00  0.00    -0.205 F 
ATOM     73  C   UNL     1       2.464   8.612 -13.861  1.00  0.00     0.022 A 
BRANCH  71  74
ATOM     74  S   UNL     1       4.654   7.818 -12.408  1.00  0.00     0.127 S 
ATOM     75  O   UNL     1       4.978   7.066 -13.622  1.00  0.00    -0.237 OA
ATOM     76  O   UNL     1       5.197   9.172 -12.362  1.00  0.00    -0.237 OA
ATOM     77  O   UNL     1       4.774   7.043 -11.179  1.00  0.00    -0.744 OA
ENDBRANCH  71  74
ENDBRANCH  43  67
BRANCH  55  78
ATOM     78  C   UNL     1      -4.774   8.714  -8.538  1.00  0.00     0.023 A 
ATOM     79  C   UNL     1      -4.320   7.378  -8.516  1.00  0.00     0.012 A 
ATOM     80  C   UNL     1      -6.155   8.961  -8.597  1.00  0.00     0.148 A 
ATOM     81  C   UNL     1      -5.223   6.313  -8.577  1.00  0.00     0.002 A 
ATOM     82  C   UNL     1      -7.053   7.900  -8.614  1.00  0.00     0.091 A 
ATOM     83  F   UNL     1      -6.571  10.237  -8.607  1.00  0.00    -0.205 F 
ATOM     84  C   UNL     1      -6.591   6.574  -8.614  1.00  0.00     0.022 A 
BRANCH  82  85
ATOM     85  S   UNL     1      -8.824   8.171  -8.538  1.00  0.00     0.127 S 
ATOM     86  O   UNL     1      -9.235   7.893  -9.913  1.00  0.00    -0.237 OA
ATOM     87  O   UNL     1      -9.255   7.173  -7.558  1.00  0.00    -0.237 OA
ATOM     88  O   UNL     1      -9.000   9.550  -8.097  1.00  0.00    -0.744 OA
ENDBRANCH  82  85
ENDBRANCH  55  78
ENDBRANCH  29  30
ENDBRANCH  22  24
ENDBRANCH  21  22
ENDBRANCH  20  21
ENDBRANCH   1  20
TORSDOF 17
