REMARK SMILES O=C(NC1(C(=O)OCCOC(=O)c2ccc(-c3c4nc(c(-c5cccc(S(=O)(=O)[O-])c5F)c5ccc([nH]5)c(-c5cccc(S(=O)(=O)[O-])c5F)c5nc(c(-c6cccc(S(=O)(=O)[O-])c6F)c6ccc3[nH]6)C=C5)C=C4)cc2)CCCCC1)c1c[nH]c(=O)c(Cl)c1
REMARK SMILES IDX 9 1 8 2 7 3 5 4 6 5 4 6 76 7 80 8 77 9 79 10 78 11 3 12 1 13
REMARK SMILES IDX 2 14 81 16 82 17 88 18 83 19 86 20 84 21 87 23 85 24 10 25
REMARK SMILES IDX 11 26 12 27 13 28 14 29 75 30 15 31 74 32 16 33 17 34 18 35
REMARK SMILES IDX 68 36 19 37 73 38 67 39 69 40 20 41 72 42 66 43 65 44 21 46
REMARK SMILES IDX 53 47 33 48 52 49 34 50 37 51 51 52 70 53 35 54 36 55 50 57
REMARK SMILES IDX 71 58 38 59 22 60 23 61 31 62 24 63 26 64 32 65 25 66 27 67
REMARK SMILES IDX 28 68 29 69 30 70 54 71 55 72 63 73 56 74 58 75 64 76 57 77
REMARK SMILES IDX 59 78 60 79 61 80 62 81 39 82 40 83 48 84 41 85 43 86 49 87
REMARK SMILES IDX 42 88 44 89 45 90 46 91 47 92
REMARK H PARENT 3 15 83 22 69 45 37 56
REMARK Flexibility Score: inf
ROOT
ATOM      1  C   UNL     1       6.235  -2.803  -2.944  1.00  0.00     0.275 C 
ENDROOT
BRANCH   1   2
ATOM      2  C   UNL     1       6.659  -1.406  -2.434  1.00  0.00     0.274 C 
BRANCH   2   3
ATOM      3  O   UNL     1       6.420  -1.157  -1.026  1.00  0.00    -0.460 OA
BRANCH   3   4
ATOM      4  C   UNL     1       5.126  -0.882  -0.733  1.00  0.00     0.331 C 
ATOM      5  O   UNL     1       4.249  -0.965  -1.572  1.00  0.00    -0.249 OA
BRANCH   4   6
ATOM      6  C   UNL     1       4.820  -0.506   0.733  1.00  0.00     0.138 C 
ATOM      7  C   UNL     1       5.625   0.662   1.318  1.00  0.00     0.040 C 
ATOM      8  C   UNL     1       5.015  -1.785   1.594  1.00  0.00     0.040 C 
ATOM      9  C   UNL     1       7.070   0.326   1.689  1.00  0.00     0.003 C 
ATOM     10  C   UNL     1       6.473  -2.118   1.910  1.00  0.00     0.003 C 
ATOM     11  C   UNL     1       7.193  -0.935   2.537  1.00  0.00     0.000 C 
BRANCH   6  12
ATOM     12  N   UNL     1       3.353  -0.164   0.769  1.00  0.00    -0.336 N 
ATOM     13  O   UNL     1       1.364   0.773   0.535  1.00  0.00    -0.269 OA
ATOM     14  C   UNL     1       2.556   0.798   0.218  1.00  0.00     0.253 C 
ATOM     15  H   UNL     1       2.841  -0.790   1.331  1.00  0.00     0.165 HD
BRANCH  14  16
ATOM     16  C   UNL     1       3.063   1.909  -0.644  1.00  0.00     0.057 A 
ATOM     17  C   UNL     1       2.717   3.153  -0.266  1.00  0.00     0.099 A 
ATOM     18  C   UNL     1       3.717   1.764  -1.930  1.00  0.00     0.041 A 
ATOM     19  N   UNL     1       3.156   4.253  -0.971  1.00  0.00    -0.327 N 
ATOM     20  C   UNL     1       4.224   2.810  -2.596  1.00  0.00     0.106 A 
ATOM     21  C   UNL     1       3.987   4.187  -2.072  1.00  0.00     0.266 A 
ATOM     22  H   UNL     1       2.857   5.141  -0.671  1.00  0.00     0.169 HD
ATOM     23  Cl  UNL     1       5.055   2.617  -4.089  1.00  0.00    -0.078 Cl
ATOM     24  O   UNL     1       4.474   5.194  -2.574  1.00  0.00    -0.268 OA
ENDBRANCH  14  16
ENDBRANCH   6  12
ENDBRANCH   4   6
ENDBRANCH   3   4
ENDBRANCH   2   3
ENDBRANCH   1   2
BRANCH   1  25
ATOM     25  O   UNL     1       4.811  -2.938  -3.169  1.00  0.00    -0.458 OA
BRANCH  25  26
ATOM     26  C   UNL     1       4.120  -3.617  -2.213  1.00  0.00     0.338 C 
ATOM     27  O   UNL     1       4.615  -4.228  -1.275  1.00  0.00    -0.246 OA
BRANCH  26  28
ATOM     28  C   UNL     1       2.663  -3.329  -2.290  1.00  0.00     0.060 A 
ATOM     29  C   UNL     1       2.063  -2.802  -1.137  1.00  0.00     0.016 A 
ATOM     30  C   UNL     1       1.882  -3.564  -3.421  1.00  0.00     0.016 A 
ATOM     31  C   UNL     1       0.712  -2.466  -1.110  1.00  0.00     0.010 A 
ATOM     32  C   UNL     1       0.504  -3.280  -3.378  1.00  0.00     0.010 A 
ATOM     33  C   UNL     1      -0.088  -2.733  -2.222  1.00  0.00    -0.014 A 
BRANCH  33  34
ATOM     34  C   UNL     1      -1.560  -2.579  -2.096  1.00  0.00     0.031 A 
ATOM     35  C   UNL     1      -2.384  -3.789  -1.754  1.00  0.00     0.074 A 
ATOM     36  C   UNL     1      -2.156  -1.379  -2.223  1.00  0.00     0.049 A 
ATOM     37  N   UNL     1      -3.682  -3.909  -1.649  1.00  0.00    -0.248 NA
ATOM     38  C   UNL     1      -1.640  -5.029  -1.481  1.00  0.00     0.031 C 
ATOM     39  C   UNL     1      -1.468  -0.114  -2.466  1.00  0.00     0.029 A 
ATOM     40  N   UNL     1      -3.487  -1.036  -2.179  1.00  0.00    -0.354 N 
ATOM     41  C   UNL     1      -3.914  -5.241  -1.334  1.00  0.00     0.074 A 
ATOM     42  C   UNL     1      -2.622  -5.890  -1.257  1.00  0.00     0.031 C 
ATOM     43  C   UNL     1      -2.384   0.863  -2.593  1.00  0.00     0.029 A 
ATOM     44  C   UNL     1      -3.723   0.287  -2.471  1.00  0.00     0.049 A 
ATOM     45  H   UNL     1      -4.202  -1.676  -1.959  1.00  0.00     0.167 HD
ATOM     46  C   UNL     1      -5.094  -5.870  -1.123  1.00  0.00     0.034 A 
ATOM     47  C   UNL     1      -4.885   0.948  -2.654  1.00  0.00     0.034 A 
ATOM     48  C   UNL     1      -6.378  -5.226  -1.190  1.00  0.00     0.049 A 
ATOM     49  C   UNL     1      -6.190   0.208  -2.487  1.00  0.00     0.074 A 
ATOM     50  C   UNL     1      -7.630  -5.781  -0.993  1.00  0.00     0.029 A 
ATOM     51  N   UNL     1      -6.577  -3.887  -1.487  1.00  0.00    -0.354 N 
ATOM     52  N   UNL     1      -6.396  -1.037  -2.133  1.00  0.00    -0.248 NA
ATOM     53  C   UNL     1      -7.425   0.973  -2.721  1.00  0.00     0.031 C 
ATOM     54  C   UNL     1      -8.588  -4.784  -1.203  1.00  0.00     0.029 A 
ATOM     55  C   UNL     1      -7.931  -3.599  -1.492  1.00  0.00     0.049 A 
ATOM     56  H   UNL     1      -5.861  -3.236  -1.667  1.00  0.00     0.167 HD
ATOM     57  C   UNL     1      -7.777  -1.194  -2.066  1.00  0.00     0.074 A 
ATOM     58  C   UNL     1      -8.359   0.089  -2.398  1.00  0.00     0.031 C 
ATOM     59  C   UNL     1      -8.499  -2.304  -1.769  1.00  0.00     0.034 A 
BRANCH  46  60
ATOM     60  C   UNL     1      -5.048  -7.342  -0.813  1.00  0.00     0.023 A 
ATOM     61  C   UNL     1      -4.600  -7.781   0.450  1.00  0.00     0.012 A 
ATOM     62  C   UNL     1      -5.476  -8.289  -1.764  1.00  0.00     0.148 A 
ATOM     63  C   UNL     1      -4.545  -9.143   0.747  1.00  0.00     0.002 A 
ATOM     64  C   UNL     1      -5.460  -9.641  -1.444  1.00  0.00     0.091 A 
ATOM     65  F   UNL     1      -5.875  -7.851  -2.966  1.00  0.00    -0.205 F 
ATOM     66  C   UNL     1      -4.983 -10.070  -0.195  1.00  0.00     0.022 A 
BRANCH  64  67
ATOM     67  S   UNL     1      -6.070 -10.906  -2.562  1.00  0.00     0.127 S 
ATOM     68  O   UNL     1      -4.832 -11.579  -2.951  1.00  0.00    -0.237 OA
ATOM     69  O   UNL     1      -6.942 -11.693  -1.689  1.00  0.00    -0.237 OA
ATOM     70  O   UNL     1      -6.760 -10.200  -3.632  1.00  0.00    -0.744 OA
ENDBRANCH  64  67
ENDBRANCH  46  60
BRANCH  47  71
ATOM     71  C   UNL     1      -4.877   2.393  -3.026  1.00  0.00     0.023 A 
ATOM     72  C   UNL     1      -5.380   3.352  -2.124  1.00  0.00     0.012 A 
ATOM     73  C   UNL     1      -4.386   2.820  -4.276  1.00  0.00     0.148 A 
ATOM     74  C   UNL     1      -5.425   4.703  -2.474  1.00  0.00     0.002 A 
ATOM     75  C   UNL     1      -4.381   4.173  -4.595  1.00  0.00     0.091 A 
ATOM     76  F   UNL     1      -3.935   1.892  -5.131  1.00  0.00    -0.205 F 
ATOM     77  C   UNL     1      -4.917   5.114  -3.703  1.00  0.00     0.022 A 
BRANCH  75  78
ATOM     78  S   UNL     1      -3.642   4.807  -6.104  1.00  0.00     0.127 S 
ATOM     79  O   UNL     1      -4.815   5.277  -6.837  1.00  0.00    -0.237 OA
ATOM     80  O   UNL     1      -2.772   5.866  -5.590  1.00  0.00    -0.237 OA
ATOM     81  O   UNL     1      -2.934   3.683  -6.700  1.00  0.00    -0.744 OA
ENDBRANCH  75  78
ENDBRANCH  47  71
BRANCH  59  82
ATOM     82  C   UNL     1     -10.002  -2.183  -1.741  1.00  0.00     0.023 A 
ATOM     83  C   UNL     1     -10.721  -2.045  -2.945  1.00  0.00     0.012 A 
ATOM     84  C   UNL     1     -10.707  -2.295  -0.526  1.00  0.00     0.148 A 
ATOM     85  C   UNL     1     -12.115  -1.988  -2.937  1.00  0.00     0.002 A 
ATOM     86  C   UNL     1     -12.098  -2.289  -0.530  1.00  0.00     0.091 A 
ATOM     87  F   UNL     1     -10.007  -2.409   0.612  1.00  0.00    -0.205 F 
ATOM     88  C   UNL     1     -12.803  -2.123  -1.733  1.00  0.00     0.022 A 
BRANCH  86  89
ATOM     89  S   UNL     1     -13.068  -2.556   0.958  1.00  0.00     0.127 S 
ATOM     90  O   UNL     1     -13.624  -1.224   1.195  1.00  0.00    -0.237 OA
ATOM     91  O   UNL     1     -14.043  -3.554   0.518  1.00  0.00    -0.237 OA
ATOM     92  O   UNL     1     -12.133  -3.030   1.969  1.00  0.00    -0.744 OA
ENDBRANCH  86  89
ENDBRANCH  59  82
ENDBRANCH  33  34
ENDBRANCH  26  28
ENDBRANCH  25  26
ENDBRANCH   1  25
TORSDOF 16
