REMARK SMILES CS(=O)(=O)NCCCCCC(=O)OCCOC(=O)c1ccc(-c2c3nc(c(-c4cccc(S(=O)(=O)[O-])c4F)c4ccc([nH]4)c(-c4cccc(S(=O)(=O)[O-])c4F)c4nc(c(-c5cccc(S(=O)(=O)[O-])c5F)c5ccc2[nH]5)C=C4)C=C3)cc1
REMARK SMILES IDX 13 1 11 2 12 3 10 4 9 5 8 6 7 7 6 8 5 9 2 11 1 12 3 13 4 14
REMARK SMILES IDX 14 15 15 16 16 17 17 18 18 19 19 20 20 21 81 22 21 23 80 24
REMARK SMILES IDX 22 25 23 26 24 27 74 28 25 29 79 30 73 31 75 32 26 33 78 34
REMARK SMILES IDX 72 35 71 36 27 38 59 39 39 40 58 41 40 42 43 43 57 44 76 45
REMARK SMILES IDX 41 46 42 47 56 49 77 50 44 51 28 52 29 53 37 54 30 55 32 56
REMARK SMILES IDX 38 57 31 58 33 59 34 60 35 61 36 62 60 63 61 64 69 65 62 66
REMARK SMILES IDX 64 67 70 68 63 69 65 70 66 71 67 72 68 73 45 74 46 75 54 76
REMARK SMILES IDX 47 77 49 78 55 79 48 80 50 81 51 82 52 83 53 84
REMARK H PARENT 5 10 75 37 43 48
REMARK Flexibility Score: inf
ROOT
ATOM      1  O   UNL     1       4.706  -4.490  -3.695  1.00  0.00    -0.462 OA
ENDROOT
BRANCH   1   2
ATOM      2  C   UNL     1       5.421  -3.510  -4.295  1.00  0.00     0.305 C 
ATOM      3  O   UNL     1       6.615  -3.572  -4.555  1.00  0.00    -0.252 OA
BRANCH   2   4
ATOM      4  C   UNL     1       4.597  -2.269  -4.577  1.00  0.00     0.123 C 
BRANCH   4   5
ATOM      5  C   UNL     1       3.089  -2.466  -4.758  1.00  0.00     0.012 C 
BRANCH   5   6
ATOM      6  C   UNL     1       2.298  -2.847  -3.499  1.00  0.00     0.002 C 
BRANCH   6   7
ATOM      7  C   UNL     1       2.645  -2.029  -2.255  1.00  0.00     0.016 C 
BRANCH   7   8
ATOM      8  C   UNL     1       2.201  -0.576  -2.339  1.00  0.00     0.098 C 
BRANCH   8   9
ATOM      9  N   UNL     1       0.741  -0.401  -2.349  1.00  0.00    -0.215 NA
ATOM     10  H   UNL     1       0.573   0.591  -2.520  1.00  0.00     0.140 HD
BRANCH   9  11
ATOM     11  S   UNL     1      -0.210  -0.818  -1.032  1.00  0.00     0.208 S 
ATOM     12  C   UNL     1       0.499   0.143   0.287  1.00  0.00     0.176 C 
ATOM     13  O   UNL     1      -0.018  -2.219  -0.741  1.00  0.00    -0.213 OA
ATOM     14  O   UNL     1      -1.532  -0.301  -1.315  1.00  0.00    -0.213 OA
ENDBRANCH   9  11
ENDBRANCH   8   9
ENDBRANCH   7   8
ENDBRANCH   6   7
ENDBRANCH   5   6
ENDBRANCH   4   5
ENDBRANCH   2   4
ENDBRANCH   1   2
BRANCH   1  15
ATOM     15  C   UNL     1       5.364  -5.752  -3.479  1.00  0.00     0.274 C 
BRANCH  15  16
ATOM     16  C   UNL     1       4.874  -6.781  -4.496  1.00  0.00     0.275 C 
BRANCH  16  17
ATOM     17  O   UNL     1       5.309  -6.423  -5.819  1.00  0.00    -0.458 OA
BRANCH  17  18
ATOM     18  C   UNL     1       4.375  -5.843  -6.606  1.00  0.00     0.338 C 
ATOM     19  O   UNL     1       3.200  -5.647  -6.350  1.00  0.00    -0.246 OA
BRANCH  18  20
ATOM     20  C   UNL     1       5.026  -5.358  -7.829  1.00  0.00     0.060 A 
ATOM     21  C   UNL     1       5.394  -4.013  -7.902  1.00  0.00     0.016 A 
ATOM     22  C   UNL     1       5.215  -6.208  -8.915  1.00  0.00     0.016 A 
ATOM     23  C   UNL     1       5.949  -3.502  -9.070  1.00  0.00     0.010 A 
ATOM     24  C   UNL     1       5.794  -5.700 -10.080  1.00  0.00     0.010 A 
ATOM     25  C   UNL     1       6.155  -4.343 -10.169  1.00  0.00    -0.014 A 
BRANCH  25  26
ATOM     26  C   UNL     1       6.727  -3.807 -11.426  1.00  0.00     0.031 A 
ATOM     27  C   UNL     1       5.869  -3.728 -12.655  1.00  0.00     0.074 A 
ATOM     28  C   UNL     1       8.021  -3.441 -11.469  1.00  0.00     0.049 A 
ATOM     29  N   UNL     1       6.213  -3.450 -13.884  1.00  0.00    -0.248 NA
ATOM     30  C   UNL     1       4.434  -4.008 -12.479  1.00  0.00     0.031 C 
ATOM     31  C   UNL     1       8.942  -3.459 -10.331  1.00  0.00     0.029 A 
ATOM     32  N   UNL     1       8.795  -3.016 -12.519  1.00  0.00    -0.354 N 
ATOM     33  C   UNL     1       5.053  -3.577 -14.639  1.00  0.00     0.074 A 
ATOM     34  C   UNL     1       3.993  -3.948 -13.727  1.00  0.00     0.031 C 
ATOM     35  C   UNL     1      10.163  -3.089 -10.749  1.00  0.00     0.029 A 
ATOM     36  C   UNL     1      10.122  -2.859 -12.190  1.00  0.00     0.049 A 
ATOM     37  H   UNL     1       8.437  -2.840 -13.419  1.00  0.00     0.167 HD
ATOM     38  C   UNL     1       4.890  -3.394 -15.970  1.00  0.00     0.034 A 
ATOM     39  C   UNL     1      11.190  -2.603 -12.970  1.00  0.00     0.034 A 
ATOM     40  C   UNL     1       5.944  -2.986 -16.859  1.00  0.00     0.049 A 
ATOM     41  C   UNL     1      10.982  -2.417 -14.448  1.00  0.00     0.074 A 
ATOM     42  C   UNL     1       5.874  -2.728 -18.216  1.00  0.00     0.029 A 
ATOM     43  N   UNL     1       7.262  -2.778 -16.479  1.00  0.00    -0.354 N 
ATOM     44  N   UNL     1       9.866  -2.457 -15.136  1.00  0.00    -0.248 NA
ATOM     45  C   UNL     1      12.176  -2.130 -15.257  1.00  0.00     0.031 C 
ATOM     46  C   UNL     1       7.154  -2.381 -18.661  1.00  0.00     0.029 A 
ATOM     47  C   UNL     1       8.017  -2.402 -17.576  1.00  0.00     0.049 A 
ATOM     48  H   UNL     1       7.609  -2.883 -15.564  1.00  0.00     0.167 HD
ATOM     49  C   UNL     1      10.216  -2.170 -16.449  1.00  0.00     0.074 A 
ATOM     50  C   UNL     1      11.647  -1.939 -16.458  1.00  0.00     0.031 C 
ATOM     51  C   UNL     1       9.430  -2.119 -17.552  1.00  0.00     0.034 A 
BRANCH  38  52
ATOM     52  C   UNL     1       3.517  -3.614 -16.545  1.00  0.00     0.023 A 
ATOM     53  C   UNL     1       2.501  -2.665 -16.313  1.00  0.00     0.012 A 
ATOM     54  C   UNL     1       3.245  -4.733 -17.357  1.00  0.00     0.148 A 
ATOM     55  C   UNL     1       1.229  -2.840 -16.857  1.00  0.00     0.002 A 
ATOM     56  C   UNL     1       1.987  -4.880 -17.928  1.00  0.00     0.091 A 
ATOM     57  F   UNL     1       4.217  -5.638 -17.545  1.00  0.00    -0.205 F 
ATOM     58  C   UNL     1       0.975  -3.940 -17.672  1.00  0.00     0.022 A 
BRANCH  56  59
ATOM     59  S   UNL     1       1.585  -6.225 -19.050  1.00  0.00     0.127 S 
ATOM     60  O   UNL     1       0.715  -7.054 -18.217  1.00  0.00    -0.237 OA
ATOM     61  O   UNL     1       0.901  -5.526 -20.138  1.00  0.00    -0.237 OA
ATOM     62  O   UNL     1       2.856  -6.829 -19.423  1.00  0.00    -0.744 OA
ENDBRANCH  56  59
ENDBRANCH  38  52
BRANCH  39  63
ATOM     63  C   UNL     1      12.545  -2.487 -12.360  1.00  0.00     0.023 A 
ATOM     64  C   UNL     1      13.176  -1.230 -12.314  1.00  0.00     0.012 A 
ATOM     65  C   UNL     1      13.194  -3.603 -11.794  1.00  0.00     0.148 A 
ATOM     66  C   UNL     1      14.439  -1.089 -11.737  1.00  0.00     0.002 A 
ATOM     67  C   UNL     1      14.427  -3.445 -11.171  1.00  0.00     0.091 A 
ATOM     68  F   UNL     1      12.586  -4.796 -11.865  1.00  0.00    -0.205 F 
ATOM     69  C   UNL     1      15.058  -2.192 -11.155  1.00  0.00     0.022 A 
BRANCH  67  70
ATOM     70  S   UNL     1      15.232  -4.783 -10.283  1.00  0.00     0.127 S 
ATOM     71  O   UNL     1      16.330  -5.123 -11.185  1.00  0.00    -0.237 OA
ATOM     72  O   UNL     1      15.638  -4.123  -9.041  1.00  0.00    -0.237 OA
ATOM     73  O   UNL     1      14.212  -5.808 -10.110  1.00  0.00    -0.744 OA
ENDBRANCH  67  70
ENDBRANCH  39  63
BRANCH  51  74
ATOM     74  C   UNL     1      10.085  -1.763 -18.860  1.00  0.00     0.023 A 
ATOM     75  C   UNL     1      10.883  -2.715 -19.523  1.00  0.00     0.012 A 
ATOM     76  C   UNL     1       9.836  -0.518 -19.471  1.00  0.00     0.148 A 
ATOM     77  C   UNL     1      11.445  -2.424 -20.765  1.00  0.00     0.002 A 
ATOM     78  C   UNL     1      10.361  -0.253 -20.730  1.00  0.00     0.091 A 
ATOM     79  F   UNL     1       9.089   0.380 -18.813  1.00  0.00    -0.205 F 
ATOM     80  C   UNL     1      11.174  -1.200 -21.374  1.00  0.00     0.022 A 
BRANCH  78  81
ATOM     81  S   UNL     1       9.987   1.257 -21.629  1.00  0.00     0.127 S 
ATOM     82  O   UNL     1      11.254   1.981 -21.536  1.00  0.00    -0.237 OA
ATOM     83  O   UNL     1       9.669   0.752 -22.965  1.00  0.00    -0.237 OA
ATOM     84  O   UNL     1       8.864   1.870 -20.933  1.00  0.00    -0.744 OA
ENDBRANCH  78  81
ENDBRANCH  51  74
ENDBRANCH  25  26
ENDBRANCH  18  20
ENDBRANCH  17  18
ENDBRANCH  16  17
ENDBRANCH  15  16
ENDBRANCH   1  15
TORSDOF 20
