REMARK SMILES Cn1c(=O)c2c(nc(Nc3cccc(Cl)c3Cl)n2CC(=O)OCCOC(=O)c2ccc(-c3c4nc(c(-c5cccc(S(=O)(=O)[O-])c5F)c5ccc([nH]5)c(-c5cccc(S(=O)(=O)[O-])c5F)c5nc(c(-c6cccc(S(=O)(=O)[O-])c6F)c6ccc3[nH]6)C=C5)C=C4)cc2)n(C)c1=O
REMARK SMILES IDX 23 1 22 2 20 3 21 4 19 5 18 6 1 7 2 8 3 9 93 10 4 11 5 12
REMARK SMILES IDX 91 13 94 14 6 15 92 16 7 17 8 18 9 19 10 21 11 22 16 23
REMARK SMILES IDX 12 24 14 25 17 26 13 27 15 28 24 29 25 30 26 31 27 32 28 33
REMARK SMILES IDX 29 34 90 35 30 36 89 37 31 38 32 39 33 40 83 41 34 42 88 43
REMARK SMILES IDX 82 44 84 45 35 46 87 47 81 48 80 49 36 51 68 52 48 53 67 54
REMARK SMILES IDX 49 55 52 56 66 57 85 58 50 59 51 60 65 62 86 63 53 64 37 65
REMARK SMILES IDX 38 66 46 67 39 68 41 69 47 70 40 71 42 72 43 73 44 74 45 75
REMARK SMILES IDX 69 76 70 77 78 78 71 79 73 80 79 81 72 82 74 83 75 84 76 85
REMARK SMILES IDX 77 86 54 87 55 88 63 89 56 90 58 91 64 92 57 93 59 94 60 95
REMARK SMILES IDX 61 96 62 97
REMARK H PARENT 9 20 84 50 52 61
REMARK Flexibility Score: inf
ROOT
ATOM      1  C   UNL     1       5.110   5.338   1.179  1.00  0.00     0.274 C 
ENDROOT
BRANCH   1   2
ATOM      2  O   UNL     1       3.686   5.483   0.945  1.00  0.00    -0.461 OA
BRANCH   2   3
ATOM      3  C   UNL     1       3.334   5.852  -0.315  1.00  0.00     0.326 C 
ATOM      4  O   UNL     1       4.145   6.264  -1.145  1.00  0.00    -0.250 OA
BRANCH   3   5
ATOM      5  C   UNL     1       1.885   5.666  -0.693  1.00  0.00     0.248 C 
BRANCH   5   6
ATOM      6  N   UNL     1       0.908   5.308   0.324  1.00  0.00    -0.293 N 
ATOM      7  C   UNL     1       0.618   0.413  -0.001  1.00  0.00     0.159 C 
ATOM      8  N   UNL     1       0.179   1.700   0.505  1.00  0.00    -0.261 N 
ATOM      9  C   UNL     1       0.505   2.826  -0.247  1.00  0.00     0.282 A 
ATOM     10  C   UNL     1      -0.690   1.731   1.602  1.00  0.00     0.332 A 
ATOM     11  O   UNL     1       0.749   2.806  -1.450  1.00  0.00    -0.267 OA
ATOM     12  C   UNL     1       0.384   4.039   0.488  1.00  0.00     0.154 A 
ATOM     13  N   UNL     1      -1.062   2.996   2.074  1.00  0.00    -0.279 N 
ATOM     14  O   UNL     1      -1.130   0.701   2.118  1.00  0.00    -0.247 OA
ATOM     15  C   UNL     1      -0.430   4.110   1.571  1.00  0.00     0.170 A 
ATOM     16  C   UNL     1      -2.097   3.118   3.077  1.00  0.00     0.157 C 
ATOM     17  N   UNL     1      -0.580   5.388   1.988  1.00  0.00    -0.194 NA
ATOM     18  C   UNL     1       0.177   6.119   1.185  1.00  0.00     0.210 A 
BRANCH  18  19
ATOM     19  N   UNL     1       0.168   7.464   1.288  1.00  0.00    -0.324 N 
ATOM     20  H   UNL     1      -0.430   7.794   1.996  1.00  0.00     0.170 HD
BRANCH  19  21
ATOM     21  C   UNL     1       0.830   8.492   0.602  1.00  0.00     0.061 A 
ATOM     22  C   UNL     1       1.678   9.306   1.374  1.00  0.00     0.028 A 
ATOM     23  C   UNL     1       0.605   8.846  -0.745  1.00  0.00     0.083 A 
ATOM     24  C   UNL     1       2.371  10.373   0.811  1.00  0.00     0.004 A 
ATOM     25  C   UNL     1       1.355   9.883  -1.326  1.00  0.00     0.061 A 
ATOM     26  Cl  UNL     1      -0.637   8.041  -1.660  1.00  0.00    -0.080 Cl
ATOM     27  C   UNL     1       2.237  10.639  -0.547  1.00  0.00     0.022 A 
ATOM     28  Cl  UNL     1       1.247  10.284  -3.005  1.00  0.00    -0.083 Cl
ENDBRANCH  19  21
ENDBRANCH  18  19
ENDBRANCH   5   6
ENDBRANCH   3   5
ENDBRANCH   2   3
ENDBRANCH   1   2
BRANCH   1  29
ATOM     29  C   UNL     1       5.573   3.878   1.105  1.00  0.00     0.275 C 
BRANCH  29  30
ATOM     30  O   UNL     1       5.595   3.357  -0.231  1.00  0.00    -0.458 OA
BRANCH  30  31
ATOM     31  C   UNL     1       4.386   2.886  -0.609  1.00  0.00     0.338 C 
ATOM     32  O   UNL     1       3.326   3.111  -0.059  1.00  0.00    -0.246 OA
BRANCH  31  33
ATOM     33  C   UNL     1       4.486   1.831  -1.616  1.00  0.00     0.060 A 
ATOM     34  C   UNL     1       3.327   1.607  -2.354  1.00  0.00     0.016 A 
ATOM     35  C   UNL     1       5.437   0.830  -1.412  1.00  0.00     0.016 A 
ATOM     36  C   UNL     1       2.973   0.307  -2.625  1.00  0.00     0.010 A 
ATOM     37  C   UNL     1       5.113  -0.468  -1.756  1.00  0.00     0.010 A 
ATOM     38  C   UNL     1       3.838  -0.732  -2.253  1.00  0.00    -0.014 A 
BRANCH  38  39
ATOM     39  C   UNL     1       3.411  -2.087  -2.571  1.00  0.00     0.031 A 
ATOM     40  C   UNL     1       3.087  -2.230  -4.013  1.00  0.00     0.074 A 
ATOM     41  C   UNL     1       3.397  -3.110  -1.695  1.00  0.00     0.049 A 
ATOM     42  N   UNL     1       1.940  -2.492  -4.546  1.00  0.00    -0.248 NA
ATOM     43  C   UNL     1       4.115  -1.788  -4.971  1.00  0.00     0.031 C 
ATOM     44  C   UNL     1       3.923  -3.136  -0.328  1.00  0.00     0.029 A 
ATOM     45  N   UNL     1       3.035  -4.408  -1.905  1.00  0.00    -0.354 N 
ATOM     46  C   UNL     1       2.171  -2.476  -5.920  1.00  0.00     0.074 A 
ATOM     47  C   UNL     1       3.430  -1.814  -6.112  1.00  0.00     0.031 C 
ATOM     48  C   UNL     1       4.107  -4.422   0.050  1.00  0.00     0.029 A 
ATOM     49  C   UNL     1       3.585  -5.297  -0.984  1.00  0.00     0.049 A 
ATOM     50  H   UNL     1       2.442  -4.689  -2.639  1.00  0.00     0.167 HD
ATOM     51  C   UNL     1       1.457  -3.276  -6.755  1.00  0.00     0.034 A 
ATOM     52  C   UNL     1       3.683  -6.643  -1.127  1.00  0.00     0.034 A 
ATOM     53  C   UNL     1       0.209  -3.672  -6.149  1.00  0.00     0.049 A 
ATOM     54  C   UNL     1       2.696  -7.046  -2.154  1.00  0.00     0.074 A 
ATOM     55  C   UNL     1      -0.898  -3.007  -5.661  1.00  0.00     0.029 A 
ATOM     56  N   UNL     1       0.149  -4.941  -5.631  1.00  0.00    -0.354 N 
ATOM     57  N   UNL     1       1.407  -6.966  -1.990  1.00  0.00    -0.248 NA
ATOM     58  C   UNL     1       3.152  -7.155  -3.530  1.00  0.00     0.031 C 
ATOM     59  C   UNL     1      -1.317  -3.766  -4.529  1.00  0.00     0.029 A 
ATOM     60  C   UNL     1      -0.482  -4.880  -4.421  1.00  0.00     0.049 A 
ATOM     61  H   UNL     1       0.501  -5.756  -6.058  1.00  0.00     0.167 HD
ATOM     62  C   UNL     1       0.933  -6.545  -3.224  1.00  0.00     0.074 A 
ATOM     63  C   UNL     1       2.030  -6.795  -4.158  1.00  0.00     0.031 C 
ATOM     64  C   UNL     1      -0.184  -5.766  -3.316  1.00  0.00     0.034 A 
BRANCH  51  65
ATOM     65  C   UNL     1       2.076  -4.054  -7.903  1.00  0.00     0.023 A 
ATOM     66  C   UNL     1       1.204  -4.878  -8.652  1.00  0.00     0.012 A 
ATOM     67  C   UNL     1       3.463  -4.256  -8.106  1.00  0.00     0.148 A 
ATOM     68  C   UNL     1       1.684  -5.904  -9.473  1.00  0.00     0.002 A 
ATOM     69  C   UNL     1       3.936  -5.228  -8.980  1.00  0.00     0.091 A 
ATOM     70  F   UNL     1       4.364  -3.600  -7.376  1.00  0.00    -0.205 F 
ATOM     71  C   UNL     1       3.051  -6.082  -9.635  1.00  0.00     0.022 A 
BRANCH  69  72
ATOM     72  S   UNL     1       5.698  -5.464  -9.262  1.00  0.00     0.127 S 
ATOM     73  O   UNL     1       5.934  -6.732  -8.580  1.00  0.00    -0.237 OA
ATOM     74  O   UNL     1       5.757  -5.523 -10.723  1.00  0.00    -0.237 OA
ATOM     75  O   UNL     1       6.354  -4.297  -8.687  1.00  0.00    -0.744 OA
ENDBRANCH  69  72
ENDBRANCH  51  65
BRANCH  52  76
ATOM     76  C   UNL     1       4.762  -7.573  -0.705  1.00  0.00     0.023 A 
ATOM     77  C   UNL     1       4.511  -8.962  -0.706  1.00  0.00     0.012 A 
ATOM     78  C   UNL     1       6.104  -7.142  -0.619  1.00  0.00     0.148 A 
ATOM     79  C   UNL     1       5.561  -9.889  -0.677  1.00  0.00     0.002 A 
ATOM     80  C   UNL     1       7.145  -8.067  -0.590  1.00  0.00     0.091 A 
ATOM     81  F   UNL     1       6.365  -5.829  -0.663  1.00  0.00    -0.205 F 
ATOM     82  C   UNL     1       6.878  -9.441  -0.634  1.00  0.00     0.022 A 
BRANCH  80  83
ATOM     83  S   UNL     1       8.873  -7.567  -0.580  1.00  0.00     0.127 S 
ATOM     84  O   UNL     1       9.408  -8.354   0.532  1.00  0.00    -0.237 OA
ATOM     85  O   UNL     1       9.318  -7.995  -1.903  1.00  0.00    -0.237 OA
ATOM     86  O   UNL     1       8.871  -6.128  -0.350  1.00  0.00    -0.744 OA
ENDBRANCH  80  83
ENDBRANCH  52  76
BRANCH  64  87
ATOM     87  C   UNL     1      -1.049  -5.609  -2.090  1.00  0.00     0.023 A 
ATOM     88  C   UNL     1      -0.592  -4.982  -0.911  1.00  0.00     0.012 A 
ATOM     89  C   UNL     1      -2.413  -5.928  -2.204  1.00  0.00     0.148 A 
ATOM     90  C   UNL     1      -1.476  -4.689   0.132  1.00  0.00     0.002 A 
ATOM     91  C   UNL     1      -3.297  -5.587  -1.189  1.00  0.00     0.091 A 
ATOM     92  F   UNL     1      -2.829  -6.529  -3.329  1.00  0.00    -0.205 F 
ATOM     93  C   UNL     1      -2.832  -4.975  -0.015  1.00  0.00     0.022 A 
BRANCH  91  94
ATOM     94  S   UNL     1      -5.068  -5.800  -1.382  1.00  0.00     0.127 S 
ATOM     95  O   UNL     1      -5.338  -6.934  -0.502  1.00  0.00    -0.237 OA
ATOM     96  O   UNL     1      -5.593  -4.518  -0.908  1.00  0.00    -0.237 OA
ATOM     97  O   UNL     1      -5.291  -6.043  -2.803  1.00  0.00    -0.744 OA
ENDBRANCH  91  94
ENDBRANCH  64  87
ENDBRANCH  38  39
ENDBRANCH  31  33
ENDBRANCH  30  31
ENDBRANCH  29  30
ENDBRANCH   1  29
TORSDOF 17
