REMARK SMILES C[C@H]1[C@H](C)CC[C@@]2(C(=O)OCCOC(=O)c3ccc(-c4c5nc(c(-c6cccc(S(=O)(=O)[O-])c6F)c6ccc([nH]6)c(-c6cccc(S(=O)(=O)[O-])c6F)c6nc(c(-c7cccc(S(=O)(=O)[O-])c7F)c7ccc4[nH]7)C=C6)C=C5)cc3)CC[C@@]3(C)C(=CC[C@@H]4[C@@]5(C)CC[C@H](O)C(C)(C)[C@@H]5CC[C@]43C)[C@H]12
REMARK SMILES IDX 12 1 11 2 10 3 8 4 9 5 7 6 1 7 2 8 3 9 101 10 4 11 5 12
REMARK SMILES IDX 83 13 6 14 79 15 81 16 84 17 80 18 82 19 99 20 85 21 86 22
REMARK SMILES IDX 98 23 100 24 87 25 97 26 88 27 89 28 96 29 90 30 93 31 91 32
REMARK SMILES IDX 94 33 95 34 92 35 13 37 14 38 15 39 16 40 17 41 78 42 18 43
REMARK SMILES IDX 77 44 19 45 20 46 21 47 71 48 22 49 76 50 70 51 72 52 23 53
REMARK SMILES IDX 75 54 69 55 68 56 24 58 56 59 36 60 55 61 37 62 40 63 54 64
REMARK SMILES IDX 73 65 38 66 39 67 53 69 74 70 41 71 25 72 26 73 34 74 27 75
REMARK SMILES IDX 29 76 35 77 28 78 30 79 31 80 32 81 33 82 57 83 58 84 66 85
REMARK SMILES IDX 59 86 61 87 67 88 60 89 62 90 63 91 64 92 65 93 42 94 43 95
REMARK SMILES IDX 51 96 44 97 46 98 52 99 45 100 47 101 48 102 49 103 50 104
REMARK H PARENT 92 36 72 57 40 68
REMARK Flexibility Score: inf
ROOT
ATOM      1  C   UNL     1       1.637   2.488  -4.635  1.00  0.00     0.275 C 
ENDROOT
BRANCH   1   2
ATOM      2  C   UNL     1       1.486   1.664  -3.345  1.00  0.00     0.274 C 
BRANCH   2   3
ATOM      3  O   UNL     1       0.770   2.274  -2.248  1.00  0.00    -0.462 OA
BRANCH   3   4
ATOM      4  C   UNL     1       1.545   3.071  -1.463  1.00  0.00     0.312 C 
ATOM      5  O   UNL     1       2.587   3.533  -1.874  1.00  0.00    -0.252 OA
BRANCH   4   6
ATOM      6  C   UNL     1       1.125   3.161   0.022  1.00  0.00     0.075 C 
ATOM      7  C   UNL     1       1.123  -0.567   1.268  1.00  0.00     0.008 C 
ATOM      8  C   UNL     1       0.740   0.641   0.398  1.00  0.00    -0.003 C 
ATOM      9  C   UNL     1      -0.790   0.931   0.560  1.00  0.00    -0.011 C 
ATOM     10  C   UNL     1       1.641   1.883   0.749  1.00  0.00     0.036 C 
ATOM     11  C   UNL     1      -1.667  -0.218   0.036  1.00  0.00     0.008 C 
ATOM     12  C   UNL     1      -1.257   2.207  -0.144  1.00  0.00     0.005 C 
ATOM     13  C   UNL     1       3.183   1.827   0.458  1.00  0.00    -0.063 C 
ATOM     14  C   UNL     1      -0.385   3.404   0.173  1.00  0.00     0.020 C 
ATOM     15  C   UNL     1       1.821   4.377   0.703  1.00  0.00     0.020 C 
ATOM     16  C   UNL     1       4.061   3.015   0.997  1.00  0.00    -0.006 C 
ATOM     17  C   UNL     1       3.681   0.954  -0.443  1.00  0.00    -0.027 C 
ATOM     18  C   UNL     1       3.354   4.371   0.666  1.00  0.00     0.013 C 
ATOM     19  C   UNL     1       4.100   2.922   2.545  1.00  0.00     0.017 C 
ATOM     20  C   UNL     1       5.610   2.995   0.388  1.00  0.00    -0.020 C 
ATOM     21  C   UNL     1       4.971   1.137  -1.197  1.00  0.00     0.032 C 
ATOM     22  C   UNL     1       5.518   2.581  -1.125  1.00  0.00     0.006 C 
ATOM     23  C   UNL     1       6.309   4.375   0.488  1.00  0.00     0.008 C 
ATOM     24  C   UNL     1       6.489   2.003   1.194  1.00  0.00     0.012 C 
ATOM     25  C   UNL     1       6.737   2.896  -2.113  1.00  0.00    -0.025 C 
ATOM     26  C   UNL     1       7.598   4.519  -0.334  1.00  0.00     0.005 C 
ATOM     27  C   UNL     1       7.815   1.800  -2.030  1.00  0.00     0.012 C 
ATOM     28  C   UNL     1       6.191   2.909  -3.579  1.00  0.00     0.010 C 
ATOM     29  C   UNL     1       7.280   4.344  -1.829  1.00  0.00     0.003 C 
ATOM     30  C   UNL     1       7.177   3.428  -4.626  1.00  0.00     0.033 C 
ATOM     31  C   UNL     1       8.364   4.901  -2.838  1.00  0.00    -0.006 C 
ATOM     32  C   UNL     1       7.782   4.788  -4.283  1.00  0.00     0.120 C 
ATOM     33  C   UNL     1       9.742   4.223  -2.723  1.00  0.00     0.014 C 
ATOM     34  C   UNL     1       8.632   6.410  -2.563  1.00  0.00     0.014 C 
BRANCH  32  35
ATOM     35  O   UNL     1       8.731   5.125  -5.294  1.00  0.00    -0.393 OA
ATOM     36  H   UNL     1       9.447   4.470  -5.297  1.00  0.00     0.210 HD
ENDBRANCH  32  35
ENDBRANCH   4   6
ENDBRANCH   3   4
ENDBRANCH   2   3
ENDBRANCH   1   2
BRANCH   1  37
ATOM     37  O   UNL     1       2.400   3.695  -4.476  1.00  0.00    -0.458 OA
BRANCH  37  38
ATOM     38  C   UNL     1       1.692   4.788  -4.079  1.00  0.00     0.338 C 
ATOM     39  O   UNL     1       0.473   4.879  -4.054  1.00  0.00    -0.246 OA
BRANCH  38  40
ATOM     40  C   UNL     1       2.603   5.789  -3.456  1.00  0.00     0.060 A 
ATOM     41  C   UNL     1       2.151   6.507  -2.333  1.00  0.00     0.016 A 
ATOM     42  C   UNL     1       3.911   5.961  -3.895  1.00  0.00     0.016 A 
ATOM     43  C   UNL     1       2.998   7.390  -1.644  1.00  0.00     0.010 A 
ATOM     44  C   UNL     1       4.747   6.848  -3.214  1.00  0.00     0.010 A 
ATOM     45  C   UNL     1       4.303   7.585  -2.096  1.00  0.00    -0.014 A 
BRANCH  45  46
ATOM     46  C   UNL     1       5.133   8.756  -1.687  1.00  0.00     0.031 A 
ATOM     47  C   UNL     1       5.229   9.868  -2.698  1.00  0.00     0.074 A 
ATOM     48  C   UNL     1       5.880   8.812  -0.566  1.00  0.00     0.049 A 
ATOM     49  N   UNL     1       6.022  10.904  -2.726  1.00  0.00    -0.248 NA
ATOM     50  C   UNL     1       4.319   9.772  -3.856  1.00  0.00     0.031 C 
ATOM     51  C   UNL     1       5.877   7.843   0.521  1.00  0.00     0.029 A 
ATOM     52  N   UNL     1       6.853   9.712  -0.191  1.00  0.00    -0.354 N 
ATOM     53  C   UNL     1       5.715  11.566  -3.907  1.00  0.00     0.074 A 
ATOM     54  C   UNL     1       4.743  10.766  -4.614  1.00  0.00     0.031 C 
ATOM     55  C   UNL     1       6.881   8.120   1.374  1.00  0.00     0.029 A 
ATOM     56  C   UNL     1       7.570   9.325   0.922  1.00  0.00     0.049 A 
ATOM     57  H   UNL     1       7.021  10.554  -0.673  1.00  0.00     0.167 HD
ATOM     58  C   UNL     1       6.133  12.777  -4.336  1.00  0.00     0.034 A 
ATOM     59  C   UNL     1       8.648   9.889   1.508  1.00  0.00     0.034 A 
ATOM     60  C   UNL     1       7.044  13.607  -3.610  1.00  0.00     0.049 A 
ATOM     61  C   UNL     1       9.140  11.222   0.990  1.00  0.00     0.074 A 
ATOM     62  C   UNL     1       7.467  14.887  -3.908  1.00  0.00     0.029 A 
ATOM     63  N   UNL     1       7.668  13.234  -2.431  1.00  0.00    -0.354 N 
ATOM     64  N   UNL     1       8.703  11.927  -0.026  1.00  0.00    -0.248 NA
ATOM     65  C   UNL     1      10.215  11.881   1.751  1.00  0.00     0.031 C 
ATOM     66  C   UNL     1       8.351  15.292  -2.903  1.00  0.00     0.029 A 
ATOM     67  C   UNL     1       8.467  14.265  -1.979  1.00  0.00     0.049 A 
ATOM     68  H   UNL     1       7.557  12.365  -1.983  1.00  0.00     0.167 HD
ATOM     69  C   UNL     1       9.378  13.142   0.032  1.00  0.00     0.074 A 
ATOM     70  C   UNL     1      10.269  13.072   1.170  1.00  0.00     0.031 C 
ATOM     71  C   UNL     1       9.266  14.220  -0.782  1.00  0.00     0.034 A 
BRANCH  58  72
ATOM     72  C   UNL     1       5.503  13.293  -5.598  1.00  0.00     0.023 A 
ATOM     73  C   UNL     1       4.142  13.671  -5.572  1.00  0.00     0.012 A 
ATOM     74  C   UNL     1       6.225  13.376  -6.800  1.00  0.00     0.148 A 
ATOM     75  C   UNL     1       3.494  14.068  -6.738  1.00  0.00     0.002 A 
ATOM     76  C   UNL     1       5.583  13.820  -7.949  1.00  0.00     0.091 A 
ATOM     77  F   UNL     1       7.510  12.993  -6.803  1.00  0.00    -0.205 F 
ATOM     78  C   UNL     1       4.216  14.148  -7.924  1.00  0.00     0.022 A 
BRANCH  76  79
ATOM     79  S   UNL     1       6.430  14.025  -9.518  1.00  0.00     0.127 S 
ATOM     80  O   UNL     1       5.781  13.005 -10.341  1.00  0.00    -0.237 OA
ATOM     81  O   UNL     1       6.085  15.402  -9.870  1.00  0.00    -0.237 OA
ATOM     82  O   UNL     1       7.843  13.799  -9.248  1.00  0.00    -0.744 OA
ENDBRANCH  76  79
ENDBRANCH  58  72
BRANCH  59  83
ATOM     83  C   UNL     1       9.277   9.293   2.725  1.00  0.00     0.023 A 
ATOM     84  C   UNL     1       9.075   9.921   3.972  1.00  0.00     0.012 A 
ATOM     85  C   UNL     1      10.129   8.173   2.655  1.00  0.00     0.148 A 
ATOM     86  C   UNL     1       9.750   9.484   5.113  1.00  0.00     0.002 A 
ATOM     87  C   UNL     1      10.774   7.721   3.805  1.00  0.00     0.091 A 
ATOM     88  F   UNL     1      10.321   7.593   1.462  1.00  0.00    -0.205 F 
ATOM     89  C   UNL     1      10.599   8.385   5.030  1.00  0.00     0.022 A 
BRANCH  87  90
ATOM     90  S   UNL     1      11.838   6.271   3.821  1.00  0.00     0.127 S 
ATOM     91  O   UNL     1      13.162   6.872   3.958  1.00  0.00    -0.237 OA
ATOM     92  O   UNL     1      11.362   5.557   5.006  1.00  0.00    -0.237 OA
ATOM     93  O   UNL     1      11.580   5.583   2.563  1.00  0.00    -0.744 OA
ENDBRANCH  87  90
ENDBRANCH  59  83
BRANCH  71  94
ATOM     94  C   UNL     1      10.040  15.462  -0.436  1.00  0.00     0.023 A 
ATOM     95  C   UNL     1      11.428  15.514  -0.661  1.00  0.00     0.012 A 
ATOM     96  C   UNL     1       9.361  16.622  -0.008  1.00  0.00     0.148 A 
ATOM     97  C   UNL     1      12.133  16.699  -0.449  1.00  0.00     0.002 A 
ATOM     98  C   UNL     1      10.061  17.811   0.152  1.00  0.00     0.091 A 
ATOM     99  F   UNL     1       8.041  16.544   0.221  1.00  0.00    -0.205 F 
ATOM    100  C   UNL     1      11.448  17.849  -0.059  1.00  0.00     0.022 A 
BRANCH  98 101
ATOM    101  S   UNL     1       9.242  19.362   0.541  1.00  0.00     0.127 S 
ATOM    102  O   UNL     1       9.616  19.555   1.940  1.00  0.00    -0.237 OA
ATOM    103  O   UNL     1       9.876  20.292  -0.394  1.00  0.00    -0.237 OA
ATOM    104  O   UNL     1       7.823  19.138   0.297  1.00  0.00    -0.744 OA
ENDBRANCH  98 101
ENDBRANCH  71  94
ENDBRANCH  45  46
ENDBRANCH  38  40
ENDBRANCH  37  38
ENDBRANCH   1  37
TORSDOF 15
