REMARK SMILES O=C(CNC(=O)c1ccc(Cl)cc1Cl)OCCOC(=O)c1ccc(-c2c3nc(c(-c4cccc(S(=O)(=O)[O-])c4F)c4ccc([nH]4)c(-c4cccc(S(=O)(=O)[O-])c4F)c4nc(c(-c5cccc(S(=O)(=O)[O-])c5F)c5ccc2[nH]5)C=C4)C=C3)cc1
REMARK SMILES IDX 17 1 16 2 15 3 2 4 1 5 3 6 4 7 5 8 6 10 7 11 8 12 13 13 9 14
REMARK SMILES IDX 12 15 14 16 10 17 11 18 18 19 19 20 20 21 21 22 22 23 83 24
REMARK SMILES IDX 23 25 82 26 24 27 25 28 26 29 76 30 27 31 81 32 75 33 77 34
REMARK SMILES IDX 28 35 80 36 74 37 73 38 29 40 61 41 41 42 60 43 42 44 45 45
REMARK SMILES IDX 59 46 78 47 43 48 44 49 58 51 79 52 46 53 30 54 31 55 39 56
REMARK SMILES IDX 32 57 34 58 40 59 33 60 35 61 36 62 37 63 38 64 62 65 63 66
REMARK SMILES IDX 71 67 64 68 66 69 72 70 65 71 67 72 68 73 69 74 70 75 47 76
REMARK SMILES IDX 48 77 56 78 49 79 51 80 57 81 50 82 52 83 53 84 54 85 55 86
REMARK H PARENT 4 9 77 39 45 50
REMARK Flexibility Score: inf
ROOT
ATOM      1  C   UNL     1       3.925   1.948  -0.755  1.00  0.00     0.275 C 
ENDROOT
BRANCH   1   2
ATOM      2  C   UNL     1       4.084   0.460  -1.069  1.00  0.00     0.274 C 
BRANCH   2   3
ATOM      3  O   UNL     1       2.846  -0.260  -0.924  1.00  0.00    -0.461 OA
BRANCH   3   4
ATOM      4  C   UNL     1       2.523  -1.029   0.146  1.00  0.00     0.325 C 
ATOM      5  O   UNL     1       1.527  -1.749   0.103  1.00  0.00    -0.250 OA
BRANCH   4   6
ATOM      6  C   UNL     1       3.414  -0.991   1.389  1.00  0.00     0.239 C 
BRANCH   6   7
ATOM      7  N   UNL     1       4.558  -1.888   1.390  1.00  0.00    -0.341 N 
ATOM      8  C   UNL     1       5.893  -1.624   1.582  1.00  0.00     0.253 C 
ATOM      9  H   UNL     1       4.342  -2.835   1.226  1.00  0.00     0.164 HD
ATOM     10  O   UNL     1       6.702  -2.545   1.590  1.00  0.00    -0.269 OA
BRANCH   8  11
ATOM     11  C   UNL     1       6.381  -0.233   1.736  1.00  0.00     0.058 A 
ATOM     12  C   UNL     1       5.943   0.554   2.810  1.00  0.00     0.017 A 
ATOM     13  C   UNL     1       7.305   0.299   0.821  1.00  0.00     0.055 A 
ATOM     14  C   UNL     1       6.381   1.878   2.932  1.00  0.00     0.021 A 
ATOM     15  C   UNL     1       7.740   1.623   0.948  1.00  0.00     0.041 A 
ATOM     16  Cl  UNL     1       7.884  -0.582  -0.551  1.00  0.00    -0.083 Cl
ATOM     17  C   UNL     1       7.266   2.408   1.995  1.00  0.00     0.042 A 
ATOM     18  Cl  UNL     1       7.766   4.049   2.116  1.00  0.00    -0.084 Cl
ENDBRANCH   8  11
ENDBRANCH   6   7
ENDBRANCH   4   6
ENDBRANCH   3   4
ENDBRANCH   2   3
ENDBRANCH   1   2
BRANCH   1  19
ATOM     19  O   UNL     1       3.538   2.140   0.617  1.00  0.00    -0.458 OA
BRANCH  19  20
ATOM     20  C   UNL     1       2.213   2.349   0.831  1.00  0.00     0.338 C 
ATOM     21  O   UNL     1       1.357   2.516  -0.020  1.00  0.00    -0.246 OA
BRANCH  20  22
ATOM     22  C   UNL     1       1.916   2.140   2.268  1.00  0.00     0.060 A 
ATOM     23  C   UNL     1       0.758   1.429   2.606  1.00  0.00     0.016 A 
ATOM     24  C   UNL     1       2.771   2.599   3.274  1.00  0.00     0.016 A 
ATOM     25  C   UNL     1       0.440   1.203   3.948  1.00  0.00     0.010 A 
ATOM     26  C   UNL     1       2.463   2.352   4.617  1.00  0.00     0.010 A 
ATOM     27  C   UNL     1       1.278   1.681   4.967  1.00  0.00    -0.014 A 
BRANCH  27  28
ATOM     28  C   UNL     1       0.855   1.590   6.390  1.00  0.00     0.031 A 
ATOM     29  C   UNL     1       0.372   2.830   7.098  1.00  0.00     0.074 A 
ATOM     30  C   UNL     1       0.906   0.423   7.061  1.00  0.00     0.049 A 
ATOM     31  N   UNL     1      -0.066   2.965   8.323  1.00  0.00    -0.248 NA
ATOM     32  C   UNL     1       0.398   4.085   6.329  1.00  0.00     0.031 C 
ATOM     33  C   UNL     1       1.386  -0.847   6.521  1.00  0.00     0.029 A 
ATOM     34  N   UNL     1       0.565   0.127   8.360  1.00  0.00    -0.354 N 
ATOM     35  C   UNL     1      -0.347   4.316   8.479  1.00  0.00     0.074 A 
ATOM     36  C   UNL     1      -0.001   4.966   7.234  1.00  0.00     0.031 C 
ATOM     37  C   UNL     1       1.324  -1.783   7.484  1.00  0.00     0.029 A 
ATOM     38  C   UNL     1       0.805  -1.180   8.712  1.00  0.00     0.049 A 
ATOM     39  H   UNL     1       0.184   0.790   8.980  1.00  0.00     0.167 HD
ATOM     40  C   UNL     1      -0.877   4.960   9.546  1.00  0.00     0.034 A 
ATOM     41  C   UNL     1       0.627  -1.820   9.887  1.00  0.00     0.034 A 
ATOM     42  C   UNL     1      -1.265   4.323  10.773  1.00  0.00     0.049 A 
ATOM     43  C   UNL     1       0.026  -1.082  11.057  1.00  0.00     0.074 A 
ATOM     44  C   UNL     1      -1.883   4.887  11.876  1.00  0.00     0.029 A 
ATOM     45  N   UNL     1      -1.066   2.985  11.068  1.00  0.00    -0.354 N 
ATOM     46  N   UNL     1      -0.393   0.157  11.126  1.00  0.00    -0.248 NA
ATOM     47  C   UNL     1      -0.163  -1.846  12.302  1.00  0.00     0.031 C 
ATOM     48  C   UNL     1      -2.043   3.891  12.845  1.00  0.00     0.029 A 
ATOM     49  C   UNL     1      -1.538   2.705  12.339  1.00  0.00     0.049 A 
ATOM     50  H   UNL     1      -0.650   2.329  10.462  1.00  0.00     0.167 HD
ATOM     51  C   UNL     1      -0.929   0.309  12.402  1.00  0.00     0.074 A 
ATOM     52  C   UNL     1      -0.798  -0.969  13.067  1.00  0.00     0.031 C 
ATOM     53  C   UNL     1      -1.467   1.415  12.975  1.00  0.00     0.034 A 
BRANCH  40  54
ATOM     54  C   UNL     1      -1.123   6.438   9.410  1.00  0.00     0.023 A 
ATOM     55  C   UNL     1      -2.202   6.889   8.624  1.00  0.00     0.012 A 
ATOM     56  C   UNL     1      -0.326   7.374  10.097  1.00  0.00     0.148 A 
ATOM     57  C   UNL     1      -2.468   8.251   8.498  1.00  0.00     0.002 A 
ATOM     58  C   UNL     1      -0.621   8.728   9.998  1.00  0.00     0.091 A 
ATOM     59  F   UNL     1       0.712   6.925  10.817  1.00  0.00    -0.205 F 
ATOM     60  C   UNL     1      -1.685   9.169   9.193  1.00  0.00     0.022 A 
BRANCH  58  61
ATOM     61  S   UNL     1       0.288   9.981  10.909  1.00  0.00     0.127 S 
ATOM     62  O   UNL     1       1.098  10.584   9.852  1.00  0.00    -0.237 OA
ATOM     63  O   UNL     1      -0.786  10.836  11.417  1.00  0.00    -0.237 OA
ATOM     64  O   UNL     1       1.029   9.265  11.938  1.00  0.00    -0.744 OA
ENDBRANCH  58  61
ENDBRANCH  40  54
BRANCH  41  65
ATOM     65  C   UNL     1       0.966  -3.266  10.006  1.00  0.00     0.023 A 
ATOM     66  C   UNL     1      -0.071  -4.212  10.134  1.00  0.00     0.012 A 
ATOM     67  C   UNL     1       2.302  -3.708   9.996  1.00  0.00     0.148 A 
ATOM     68  C   UNL     1       0.219  -5.569  10.281  1.00  0.00     0.002 A 
ATOM     69  C   UNL     1       2.582  -5.067  10.093  1.00  0.00     0.091 A 
ATOM     70  F   UNL     1       3.274  -2.791   9.893  1.00  0.00    -0.205 F 
ATOM     71  C   UNL     1       1.543  -5.997  10.251  1.00  0.00     0.022 A 
BRANCH  69  72
ATOM     72  S   UNL     1       4.250  -5.717   9.948  1.00  0.00     0.127 S 
ATOM     73  O   UNL     1       4.532  -6.124  11.322  1.00  0.00    -0.237 OA
ATOM     74  O   UNL     1       4.063  -6.819   9.003  1.00  0.00    -0.237 OA
ATOM     75  O   UNL     1       5.053  -4.617   9.433  1.00  0.00    -0.744 OA
ENDBRANCH  69  72
ENDBRANCH  41  65
BRANCH  53  76
ATOM     76  C   UNL     1      -1.991   1.303  14.384  1.00  0.00     0.023 A 
ATOM     77  C   UNL     1      -1.086   1.221  15.460  1.00  0.00     0.012 A 
ATOM     78  C   UNL     1      -3.373   1.376  14.649  1.00  0.00     0.148 A 
ATOM     79  C   UNL     1      -1.548   1.189  16.776  1.00  0.00     0.002 A 
ATOM     80  C   UNL     1      -3.825   1.388  15.964  1.00  0.00     0.091 A 
ATOM     81  F   UNL     1      -4.222   1.435  13.612  1.00  0.00    -0.205 F 
ATOM     82  C   UNL     1      -2.914   1.285  17.028  1.00  0.00     0.022 A 
BRANCH  80  83
ATOM     83  S   UNL     1      -5.559   1.607  16.382  1.00  0.00     0.127 S 
ATOM     84  O   UNL     1      -5.948   0.250  16.763  1.00  0.00    -0.237 OA
ATOM     85  O   UNL     1      -5.497   2.557  17.493  1.00  0.00    -0.237 OA
ATOM     86  O   UNL     1      -6.195   2.129  15.180  1.00  0.00    -0.744 OA
ENDBRANCH  80  83
ENDBRANCH  53  76
ENDBRANCH  27  28
ENDBRANCH  20  22
ENDBRANCH  19  20
ENDBRANCH   1  19
TORSDOF 16
