REMARK SMILES CCC[N@H+](CC(=O)OCCOC(=O)c1ccc(-c2c3nc(c(-c4cccc(S(=O)(=O)[O-])c4F)c4ccc([nH]4)c(-c4cccc(S(=O)(=O)[O-])c4F)c4nc(c(-c5cccc(S(=O)(=O)[O-])c5F)c5ccc2[nH]5)C=C4)C=C3)cc1)[C@H]1CCOC2(CCCCC2)C1
REMARK SMILES IDX 9 1 8 2 6 3 7 4 5 5 4 6 3 8 2 9 1 10 77 11 78 12 87 13 79 14
REMARK SMILES IDX 81 15 80 16 82 17 86 18 83 19 85 20 84 21 10 22 11 23 12 24
REMARK SMILES IDX 13 25 14 26 15 27 76 28 16 29 75 30 17 31 18 32 19 33 69 34
REMARK SMILES IDX 20 35 74 36 68 37 70 38 21 39 73 40 67 41 66 42 22 44 54 45
REMARK SMILES IDX 34 46 53 47 35 48 38 49 52 50 71 51 36 52 37 53 51 55 72 56
REMARK SMILES IDX 39 57 23 58 24 59 32 60 25 61 27 62 33 63 26 64 28 65 29 66
REMARK SMILES IDX 30 67 31 68 55 69 56 70 64 71 57 72 59 73 65 74 58 75 60 76
REMARK SMILES IDX 61 77 62 78 63 79 40 80 41 81 49 82 42 83 44 84 50 85 43 86
REMARK SMILES IDX 45 87 46 88 47 89 48 90
REMARK H PARENT 4 7 70 43 38 54
REMARK Flexibility Score: inf
ROOT
ATOM      1  C   UNL     1      -2.839   5.688   2.100  1.00  0.00     0.274 C 
ENDROOT
BRANCH   1   2
ATOM      2  O   UNL     1      -1.587   4.993   2.247  1.00  0.00    -0.458 OA
BRANCH   2   3
ATOM      3  C   UNL     1      -1.566   3.954   3.121  1.00  0.00     0.361 C 
ATOM      4  O   UNL     1      -2.507   3.651   3.849  1.00  0.00    -0.245 OA
BRANCH   3   5
ATOM      5  C   UNL     1      -0.207   3.266   3.216  1.00  0.00     0.386 C 
BRANCH   5   6
ATOM      6  N   UNL     1       0.357   2.719   1.930  1.00  0.00    -0.323 N 
ATOM      7  H   UNL     1      -0.355   2.348   1.301  1.00  0.00     0.348 HD
BRANCH   6   8
ATOM      8  C   UNL     1       0.983   3.831   1.176  1.00  0.00     0.262 C 
BRANCH   8   9
ATOM      9  C   UNL     1       1.529   3.624  -0.244  1.00  0.00     0.058 C 
ATOM     10  C   UNL     1       0.541   2.996  -1.215  1.00  0.00     0.010 C 
ENDBRANCH   8   9
ENDBRANCH   6   8
BRANCH   6  11
ATOM     11  C   UNL     1       1.233   1.544   2.250  1.00  0.00     0.189 C 
ATOM     12  C   UNL     1       1.649   0.670   1.054  1.00  0.00     0.093 C 
ATOM     13  C   UNL     1       2.452   1.892   3.120  1.00  0.00     0.100 C 
ATOM     14  C   UNL     1       2.614  -0.446   1.434  1.00  0.00     0.167 C 
ATOM     15  C   UNL     1       3.327   0.668   3.445  1.00  0.00     0.074 C 
ATOM     16  O   UNL     1       3.708   0.037   2.214  1.00  0.00    -0.375 OA
ATOM     17  C   UNL     1       2.645  -0.337   4.403  1.00  0.00     0.036 C 
ATOM     18  C   UNL     1       4.619   1.182   4.124  1.00  0.00     0.036 C 
ATOM     19  C   UNL     1       3.582  -1.493   4.761  1.00  0.00     0.003 C 
ATOM     20  C   UNL     1       5.562   0.058   4.546  1.00  0.00     0.003 C 
ATOM     21  C   UNL     1       4.861  -0.981   5.414  1.00  0.00     0.000 C 
ENDBRANCH   6  11
ENDBRANCH   5   6
ENDBRANCH   3   5
ENDBRANCH   2   3
ENDBRANCH   1   2
BRANCH   1  22
ATOM     22  C   UNL     1      -3.671   5.103   0.957  1.00  0.00     0.275 C 
BRANCH  22  23
ATOM     23  O   UNL     1      -4.224   3.827   1.322  1.00  0.00    -0.458 OA
BRANCH  23  24
ATOM     24  C   UNL     1      -3.547   2.744   0.868  1.00  0.00     0.338 C 
ATOM     25  O   UNL     1      -2.595   2.740   0.109  1.00  0.00    -0.246 OA
BRANCH  24  26
ATOM     26  C   UNL     1      -4.067   1.534   1.530  1.00  0.00     0.060 A 
ATOM     27  C   UNL     1      -3.182   0.757   2.284  1.00  0.00     0.016 A 
ATOM     28  C   UNL     1      -5.399   1.144   1.375  1.00  0.00     0.016 A 
ATOM     29  C   UNL     1      -3.631  -0.413   2.895  1.00  0.00     0.010 A 
ATOM     30  C   UNL     1      -5.844  -0.036   1.980  1.00  0.00     0.010 A 
ATOM     31  C   UNL     1      -4.962  -0.827   2.735  1.00  0.00    -0.014 A 
BRANCH  31  32
ATOM     32  C   UNL     1      -5.414  -2.105   3.338  1.00  0.00     0.031 A 
ATOM     33  C   UNL     1      -5.588  -3.325   2.477  1.00  0.00     0.074 A 
ATOM     34  C   UNL     1      -5.665  -2.171   4.659  1.00  0.00     0.049 A 
ATOM     35  N   UNL     1      -5.956  -4.532   2.821  1.00  0.00    -0.248 NA
ATOM     36  C   UNL     1      -5.315  -3.167   1.039  1.00  0.00     0.031 C 
ATOM     37  C   UNL     1      -5.561  -1.051   5.594  1.00  0.00     0.029 A 
ATOM     38  N   UNL     1      -6.079  -3.222   5.439  1.00  0.00    -0.354 N 
ATOM     39  C   UNL     1      -5.973  -5.275   1.648  1.00  0.00     0.074 A 
ATOM     40  C   UNL     1      -5.596  -4.378   0.576  1.00  0.00     0.031 C 
ATOM     41  C   UNL     1      -5.919  -1.470   6.819  1.00  0.00     0.029 A 
ATOM     42  C   UNL     1      -6.289  -2.881   6.755  1.00  0.00     0.049 A 
ATOM     43  H   UNL     1      -6.212  -4.133   5.090  1.00  0.00     0.167 HD
ATOM     44  C   UNL     1      -6.253  -6.590   1.480  1.00  0.00     0.034 A 
ATOM     45  C   UNL     1      -6.737  -3.622   7.788  1.00  0.00     0.034 A 
ATOM     46  C   UNL     1      -6.609  -7.488   2.547  1.00  0.00     0.049 A 
ATOM     47  C   UNL     1      -7.030  -5.083   7.574  1.00  0.00     0.074 A 
ATOM     48  C   UNL     1      -6.879  -8.844   2.477  1.00  0.00     0.029 A 
ATOM     49  N   UNL     1      -6.750  -7.123   3.877  1.00  0.00    -0.354 N 
ATOM     50  N   UNL     1      -6.912  -5.798   6.481  1.00  0.00    -0.248 NA
ATOM     51  C   UNL     1      -7.481  -5.849   8.745  1.00  0.00     0.031 C 
ATOM     52  C   UNL     1      -7.189  -9.297   3.764  1.00  0.00     0.029 A 
ATOM     53  C   UNL     1      -7.103  -8.225   4.637  1.00  0.00     0.049 A 
ATOM     54  H   UNL     1      -6.618  -6.213   4.229  1.00  0.00     0.167 HD
ATOM     55  C   UNL     1      -7.253  -7.099   6.837  1.00  0.00     0.074 A 
ATOM     56  C   UNL     1      -7.545  -7.080   8.256  1.00  0.00     0.031 C 
ATOM     57  C   UNL     1      -7.341  -8.204   6.057  1.00  0.00     0.034 A 
BRANCH  44  58
ATOM     58  C   UNL     1      -6.129  -7.159   0.091  1.00  0.00     0.023 A 
ATOM     59  C   UNL     1      -4.845  -7.404  -0.436  1.00  0.00     0.012 A 
ATOM     60  C   UNL     1      -7.266  -7.518  -0.658  1.00  0.00     0.148 A 
ATOM     61  C   UNL     1      -4.693  -7.981  -1.696  1.00  0.00     0.002 A 
ATOM     62  C   UNL     1      -7.106  -8.125  -1.899  1.00  0.00     0.091 A 
ATOM     63  F   UNL     1      -8.477  -7.257  -0.146  1.00  0.00    -0.205 F 
ATOM     64  C   UNL     1      -5.822  -8.350  -2.422  1.00  0.00     0.022 A 
BRANCH  62  65
ATOM     65  S   UNL     1      -8.494  -8.700  -2.885  1.00  0.00     0.127 S 
ATOM     66  O   UNL     1      -8.483  -7.746  -3.993  1.00  0.00    -0.237 OA
ATOM     67  O   UNL     1      -8.077 -10.056  -3.243  1.00  0.00    -0.237 OA
ATOM     68  O   UNL     1      -9.660  -8.632  -2.015  1.00  0.00    -0.744 OA
ENDBRANCH  62  65
ENDBRANCH  44  58
BRANCH  45  69
ATOM     69  C   UNL     1      -6.887  -3.004   9.136  1.00  0.00     0.023 A 
ATOM     70  C   UNL     1      -6.014  -3.381  10.175  1.00  0.00     0.012 A 
ATOM     71  C   UNL     1      -7.878  -2.037   9.390  1.00  0.00     0.148 A 
ATOM     72  C   UNL     1      -6.145  -2.829  11.450  1.00  0.00     0.002 A 
ATOM     73  C   UNL     1      -7.968  -1.450  10.647  1.00  0.00     0.091 A 
ATOM     74  F   UNL     1      -8.719  -1.709   8.399  1.00  0.00    -0.205 F 
ATOM     75  C   UNL     1      -7.113  -1.855  11.683  1.00  0.00     0.022 A 
BRANCH  73  76
ATOM     76  S   UNL     1      -9.100  -0.095  10.980  1.00  0.00     0.127 S 
ATOM     77  O   UNL     1     -10.206  -0.783  11.639  1.00  0.00    -0.237 OA
ATOM     78  O   UNL     1      -8.304   0.768  11.854  1.00  0.00    -0.237 OA
ATOM     79  O   UNL     1      -9.391   0.487   9.677  1.00  0.00    -0.744 OA
ENDBRANCH  73  76
ENDBRANCH  45  69
BRANCH  57  80
ATOM     80  C   UNL     1      -7.765  -9.489   6.720  1.00  0.00     0.023 A 
ATOM     81  C   UNL     1      -9.109  -9.657   7.109  1.00  0.00     0.012 A 
ATOM     82  C   UNL     1      -6.853 -10.545   6.914  1.00  0.00     0.148 A 
ATOM     83  C   UNL     1      -9.531 -10.840   7.714  1.00  0.00     0.002 A 
ATOM     84  C   UNL     1      -7.291 -11.739   7.479  1.00  0.00     0.091 A 
ATOM     85  F   UNL     1      -5.573 -10.363   6.559  1.00  0.00    -0.205 F 
ATOM     86  C   UNL     1      -8.626 -11.884   7.890  1.00  0.00     0.022 A 
BRANCH  84  87
ATOM     87  S   UNL     1      -6.206 -13.159   7.661  1.00  0.00     0.127 S 
ATOM     88  O   UNL     1      -5.816 -13.061   9.066  1.00  0.00    -0.237 OA
ATOM     89  O   UNL     1      -7.096 -14.280   7.353  1.00  0.00    -0.237 OA
ATOM     90  O   UNL     1      -5.137 -12.962   6.691  1.00  0.00    -0.744 OA
ENDBRANCH  84  87
ENDBRANCH  57  80
ENDBRANCH  31  32
ENDBRANCH  24  26
ENDBRANCH  23  24
ENDBRANCH  22  23
ENDBRANCH   1  22
TORSDOF 18
