REMARK SMILES [NH3+]CC1([C@H](O)C(=O)OCCOC(=O)c2ccc(-c3c4nc(c(-c5cccc(S(=O)(=O)[O-])c5F)c5ccc([nH]5)c(-c5cccc(S(=O)(=O)[O-])c5F)c5nc(c(-c6cccc(S(=O)(=O)[O-])c6F)c6ccc3[nH]6)C=C5)C=C4)cc2)Cc2ccccc2C1
REMARK SMILES IDX 9 1 8 2 6 3 7 4 4 5 3 6 77 7 84 8 78 9 83 10 79 11 82 12
REMARK SMILES IDX 80 13 81 14 2 15 1 16 5 20 10 22 11 23 12 24 13 25 14 26
REMARK SMILES IDX 15 27 76 28 16 29 75 30 17 31 18 32 19 33 69 34 20 35 74 36
REMARK SMILES IDX 68 37 70 38 21 39 73 40 67 41 66 42 22 44 54 45 34 46 53 47
REMARK SMILES IDX 35 48 38 49 52 50 71 51 36 52 37 53 51 55 72 56 39 57 23 58
REMARK SMILES IDX 24 59 32 60 25 61 27 62 33 63 26 64 28 65 29 66 30 67 31 68
REMARK SMILES IDX 55 69 56 70 64 71 57 72 59 73 65 74 58 75 60 76 61 77 62 78
REMARK SMILES IDX 63 79 40 80 41 81 49 82 42 83 44 84 50 85 43 86 45 87 46 88
REMARK SMILES IDX 47 89 48 90
REMARK H PARENT 1 17 1 18 1 19 5 21 70 43 38 54
REMARK Flexibility Score: inf
ROOT
ATOM      1  C   UNL     1       3.597   0.724  -1.040  1.00  0.00     0.274 C 
ENDROOT
BRANCH   1   2
ATOM      2  O   UNL     1       2.871  -0.062  -0.076  1.00  0.00    -0.460 OA
BRANCH   2   3
ATOM      3  C   UNL     1       3.529  -0.343   1.083  1.00  0.00     0.335 C 
ATOM      4  O   UNL     1       4.711  -0.095   1.288  1.00  0.00    -0.249 OA
BRANCH   3   5
ATOM      5  C   UNL     1       2.602  -0.970   2.136  1.00  0.00     0.236 C 
BRANCH   5   6
ATOM      6  C   UNL     1       2.765  -2.519   2.338  1.00  0.00     0.064 C 
ATOM      7  C   UNL     1       1.543  -3.323   1.785  1.00  0.00     0.052 C 
ATOM      8  C   UNL     1       2.748  -2.827   3.883  1.00  0.00     0.052 C 
ATOM      9  C   UNL     1       0.632  -3.426   2.972  1.00  0.00    -0.044 A 
ATOM     10  C   UNL     1       1.314  -3.144   4.155  1.00  0.00    -0.044 A 
ATOM     11  C   UNL     1      -0.707  -3.778   2.992  1.00  0.00     0.004 A 
ATOM     12  C   UNL     1       0.681  -3.217   5.386  1.00  0.00     0.004 A 
ATOM     13  C   UNL     1      -1.361  -3.840   4.226  1.00  0.00     0.000 A 
ATOM     14  C   UNL     1      -0.670  -3.563   5.415  1.00  0.00     0.000 A 
BRANCH   6  15
ATOM     15  C   UNL     1       4.096  -3.089   1.778  1.00  0.00     0.269 C 
BRANCH  15  16
ATOM     16  N   UNL     1       4.242  -3.076   0.323  1.00  0.00    -0.357 N 
ATOM     17  H   UNL     1       5.148  -3.471   0.069  1.00  0.00     0.344 HD
ATOM     18  H   UNL     1       4.183  -2.115  -0.015  1.00  0.00     0.344 HD
ATOM     19  H   UNL     1       3.498  -3.632  -0.099  1.00  0.00     0.344 HD
ENDBRANCH  15  16
ENDBRANCH   6  15
ENDBRANCH   5   6
BRANCH   5  20
ATOM     20  O   UNL     1       1.237  -0.588   1.950  1.00  0.00    -0.381 OA
ATOM     21  H   UNL     1       0.909  -0.957   1.115  1.00  0.00     0.211 HD
ENDBRANCH   5  20
ENDBRANCH   3   5
ENDBRANCH   2   3
ENDBRANCH   1   2
BRANCH   1  22
ATOM     22  C   UNL     1       3.200   2.205  -0.976  1.00  0.00     0.275 C 
BRANCH  22  23
ATOM     23  O   UNL     1       3.648   2.849   0.233  1.00  0.00    -0.458 OA
BRANCH  23  24
ATOM     24  C   UNL     1       2.813   2.720   1.292  1.00  0.00     0.338 C 
ATOM     25  O   UNL     1       1.748   2.120   1.306  1.00  0.00    -0.246 OA
BRANCH  24  26
ATOM     26  C   UNL     1       3.424   3.257   2.524  1.00  0.00     0.060 A 
ATOM     27  C   UNL     1       3.248   2.503   3.689  1.00  0.00     0.016 A 
ATOM     28  C   UNL     1       4.077   4.491   2.577  1.00  0.00     0.016 A 
ATOM     29  C   UNL     1       3.702   2.979   4.911  1.00  0.00     0.010 A 
ATOM     30  C   UNL     1       4.523   4.978   3.814  1.00  0.00     0.010 A 
ATOM     31  C   UNL     1       4.314   4.234   4.988  1.00  0.00    -0.014 A 
BRANCH  31  32
ATOM     32  C   UNL     1       4.609   4.781   6.332  1.00  0.00     0.031 A 
ATOM     33  C   UNL     1       3.683   5.802   6.931  1.00  0.00     0.074 A 
ATOM     34  C   UNL     1       5.642   4.297   7.045  1.00  0.00     0.049 A 
ATOM     35  N   UNL     1       3.720   6.358   8.113  1.00  0.00    -0.248 NA
ATOM     36  C   UNL     1       2.561   6.251   6.090  1.00  0.00     0.031 C 
ATOM     37  C   UNL     1       6.589   3.286   6.575  1.00  0.00     0.029 A 
ATOM     38  N   UNL     1       6.063   4.586   8.318  1.00  0.00    -0.354 N 
ATOM     39  C   UNL     1       2.652   7.245   8.148  1.00  0.00     0.074 A 
ATOM     40  C   UNL     1       1.986   7.158   6.866  1.00  0.00     0.031 C 
ATOM     41  C   UNL     1       7.485   3.042   7.546  1.00  0.00     0.029 A 
ATOM     42  C   UNL     1       7.188   3.894   8.695  1.00  0.00     0.049 A 
ATOM     43  H   UNL     1       5.602   5.229   8.905  1.00  0.00     0.167 HD
ATOM     44  C   UNL     1       2.250   8.046   9.163  1.00  0.00     0.034 A 
ATOM     45  C   UNL     1       7.902   3.949   9.837  1.00  0.00     0.034 A 
ATOM     46  C   UNL     1       2.892   8.102  10.448  1.00  0.00     0.049 A 
ATOM     47  C   UNL     1       7.432   4.848  10.949  1.00  0.00     0.074 A 
ATOM     48  C   UNL     1       2.547   8.863  11.551  1.00  0.00     0.029 A 
ATOM     49  N   UNL     1       4.012   7.367  10.804  1.00  0.00    -0.354 N 
ATOM     50  N   UNL     1       6.366   5.612  10.999  1.00  0.00    -0.248 NA
ATOM     51  C   UNL     1       8.243   4.870  12.174  1.00  0.00     0.031 C 
ATOM     52  C   UNL     1       3.467   8.596  12.571  1.00  0.00     0.029 A 
ATOM     53  C   UNL     1       4.375   7.657  12.108  1.00  0.00     0.049 A 
ATOM     54  H   UNL     1       4.481   6.732  10.216  1.00  0.00     0.167 HD
ATOM     55  C   UNL     1       6.364   6.183  12.266  1.00  0.00     0.074 A 
ATOM     56  C   UNL     1       7.520   5.653  12.963  1.00  0.00     0.031 C 
ATOM     57  C   UNL     1       5.499   7.080  12.801  1.00  0.00     0.034 A 
BRANCH  44  58
ATOM     58  C   UNL     1       1.042   8.912   8.926  1.00  0.00     0.023 A 
ATOM     59  C   UNL     1      -0.242   8.330   8.919  1.00  0.00     0.012 A 
ATOM     60  C   UNL     1       1.173  10.303   8.747  1.00  0.00     0.148 A 
ATOM     61  C   UNL     1      -1.376   9.115   8.709  1.00  0.00     0.002 A 
ATOM     62  C   UNL     1       0.035  11.084   8.576  1.00  0.00     0.091 A 
ATOM     63  F   UNL     1       2.404  10.832   8.729  1.00  0.00    -0.205 F 
ATOM     64  C   UNL     1      -1.238  10.492   8.547  1.00  0.00     0.022 A 
BRANCH  62  65
ATOM     65  S   UNL     1       0.108  12.873   8.426  1.00  0.00     0.127 S 
ATOM     66  O   UNL     1      -0.169  13.061   7.003  1.00  0.00    -0.237 OA
ATOM     67  O   UNL     1      -0.969  13.303   9.319  1.00  0.00    -0.237 OA
ATOM     68  O   UNL     1       1.444  13.256   8.861  1.00  0.00    -0.744 OA
ENDBRANCH  62  65
ENDBRANCH  44  58
BRANCH  45  69
ATOM     69  C   UNL     1       9.112   3.094   9.999  1.00  0.00     0.023 A 
ATOM     70  C   UNL     1       9.096   2.029  10.919  1.00  0.00     0.012 A 
ATOM     71  C   UNL     1      10.270   3.317   9.228  1.00  0.00     0.148 A 
ATOM     72  C   UNL     1      10.219   1.217  11.088  1.00  0.00     0.002 A 
ATOM     73  C   UNL     1      11.364   2.471   9.360  1.00  0.00     0.091 A 
ATOM     74  F   UNL     1      10.276   4.351   8.374  1.00  0.00    -0.205 F 
ATOM     75  C   UNL     1      11.348   1.430  10.300  1.00  0.00     0.022 A 
BRANCH  73  76
ATOM     76  S   UNL     1      12.803   2.596   8.292  1.00  0.00     0.127 S 
ATOM     77  O   UNL     1      13.789   3.198   9.186  1.00  0.00    -0.237 OA
ATOM     78  O   UNL     1      13.054   1.195   7.951  1.00  0.00    -0.237 OA
ATOM     79  O   UNL     1      12.380   3.417   7.165  1.00  0.00    -0.744 OA
ENDBRANCH  73  76
ENDBRANCH  45  69
BRANCH  57  80
ATOM     80  C   UNL     1       5.755   7.533  14.214  1.00  0.00     0.023 A 
ATOM     81  C   UNL     1       6.822   8.414  14.480  1.00  0.00     0.012 A 
ATOM     82  C   UNL     1       4.906   7.137  15.266  1.00  0.00     0.148 A 
ATOM     83  C   UNL     1       7.062   8.866  15.777  1.00  0.00     0.002 A 
ATOM     84  C   UNL     1       5.124   7.629  16.549  1.00  0.00     0.091 A 
ATOM     85  F   UNL     1       3.909   6.281  15.000  1.00  0.00    -0.205 F 
ATOM     86  C   UNL     1       6.207   8.483  16.808  1.00  0.00     0.022 A 
BRANCH  84  87
ATOM     87  S   UNL     1       4.012   7.256  17.910  1.00  0.00     0.127 S 
ATOM     88  O   UNL     1       4.736   6.194  18.606  1.00  0.00    -0.237 OA
ATOM     89  O   UNL     1       3.958   8.529  18.631  1.00  0.00    -0.237 OA
ATOM     90  O   UNL     1       2.752   6.865  17.292  1.00  0.00    -0.744 OA
ENDBRANCH  84  87
ENDBRANCH  57  80
ENDBRANCH  31  32
ENDBRANCH  24  26
ENDBRANCH  23  24
ENDBRANCH  22  23
ENDBRANCH   1  22
TORSDOF 18
