REMARK SMILES CC1(C)[C@H](C(=O)OCCOC(=O)c2ccc(-c3c4nc(c(-c5cccc(S(=O)(=O)[O-])c5F)c5ccc([nH]5)c(-c5cccc(S(=O)(=O)[O-])c5F)c5nc(c(-c6cccc(S(=O)(=O)[O-])c6F)c6ccc3[nH]6)C=C5)C=C4)cc2)[C@@H]1C(=O)Nc1ccc(Cl)c(Br)c1
REMARK SMILES IDX 9 1 8 2 7 3 5 4 6 5 4 6 1 7 2 8 3 9 76 10 77 11 78 12 79 13
REMARK SMILES IDX 80 15 81 16 87 17 82 18 85 19 83 20 86 21 84 22 10 23 11 24
REMARK SMILES IDX 12 25 13 26 14 27 75 28 15 29 74 30 16 31 17 32 18 33 68 34
REMARK SMILES IDX 19 35 73 36 67 37 69 38 20 39 72 40 66 41 65 42 21 44 53 45
REMARK SMILES IDX 33 46 52 47 34 48 37 49 51 50 70 51 35 52 36 53 50 55 71 56
REMARK SMILES IDX 38 57 22 58 23 59 31 60 24 61 26 62 32 63 25 64 27 65 28 66
REMARK SMILES IDX 29 67 30 68 54 69 55 70 63 71 56 72 58 73 64 74 57 75 59 76
REMARK SMILES IDX 60 77 61 78 62 79 39 80 40 81 48 82 41 83 43 84 49 85 42 86
REMARK SMILES IDX 44 87 45 88 46 89 47 90
REMARK H PARENT 79 14 69 43 37 54
REMARK Flexibility Score: inf
ROOT
ATOM      1  C   UNL     1      -0.972   2.909  -4.016  1.00  0.00     0.275 C 
ENDROOT
BRANCH   1   2
ATOM      2  C   UNL     1      -1.574   3.145  -2.622  1.00  0.00     0.274 C 
BRANCH   2   3
ATOM      3  O   UNL     1      -1.009   2.301  -1.600  1.00  0.00    -0.462 OA
BRANCH   3   4
ATOM      4  C   UNL     1      -1.638   1.102  -1.462  1.00  0.00     0.310 C 
ATOM      5  O   UNL     1      -2.586   0.747  -2.133  1.00  0.00    -0.252 OA
BRANCH   4   6
ATOM      6  C   UNL     1      -1.062   0.165  -0.465  1.00  0.00     0.118 C 
ATOM      7  C   UNL     1       1.081  -0.875   0.414  1.00  0.00     0.013 C 
ATOM      8  C   UNL     1       0.184   0.344   0.366  1.00  0.00    -0.009 C 
ATOM      9  C   UNL     1       0.962   1.635   0.336  1.00  0.00     0.013 C 
ATOM     10  C   UNL     1      -1.205   0.281   1.032  1.00  0.00     0.100 C 
BRANCH  10  11
ATOM     11  C   UNL     1      -1.778   1.450   1.741  1.00  0.00     0.228 C 
ATOM     12  O   UNL     1      -1.131   1.978   2.643  1.00  0.00    -0.274 OA
ATOM     13  N   UNL     1      -3.000   1.974   1.397  1.00  0.00    -0.326 N 
ATOM     14  H   UNL     1      -3.214   2.827   1.840  1.00  0.00     0.169 HD
BRANCH  13  15
ATOM     15  C   UNL     1      -3.998   1.509   0.528  1.00  0.00     0.042 A 
ATOM     16  C   UNL     1      -4.742   2.483  -0.146  1.00  0.00     0.028 A 
ATOM     17  C   UNL     1      -4.236   0.159   0.262  1.00  0.00     0.043 A 
ATOM     18  C   UNL     1      -5.616   2.116  -1.172  1.00  0.00     0.024 A 
ATOM     19  C   UNL     1      -5.120  -0.213  -0.764  1.00  0.00     0.038 A 
ATOM     20  C   UNL     1      -5.790   0.769  -1.501  1.00  0.00     0.055 A 
ATOM     21  Br  UNL     1      -5.287  -2.067  -1.142  1.00  0.00    -0.049 Br
ATOM     22  Cl  UNL     1      -6.819   0.408  -2.838  1.00  0.00    -0.083 Cl
ENDBRANCH  13  15
ENDBRANCH  10  11
ENDBRANCH   4   6
ENDBRANCH   3   4
ENDBRANCH   2   3
ENDBRANCH   1   2
BRANCH   1  23
ATOM     23  O   UNL     1      -1.329   1.635  -4.586  1.00  0.00    -0.458 OA
BRANCH  23  24
ATOM     24  C   UNL     1      -0.477   0.622  -4.296  1.00  0.00     0.338 C 
ATOM     25  O   UNL     1       0.552   0.703  -3.643  1.00  0.00    -0.246 OA
BRANCH  24  26
ATOM     26  C   UNL     1      -1.028  -0.671  -4.739  1.00  0.00     0.060 A 
ATOM     27  C   UNL     1      -1.192  -1.667  -3.770  1.00  0.00     0.016 A 
ATOM     28  C   UNL     1      -1.264  -0.956  -6.082  1.00  0.00     0.016 A 
ATOM     29  C   UNL     1      -1.576  -2.953  -4.124  1.00  0.00     0.010 A 
ATOM     30  C   UNL     1      -1.629  -2.257  -6.446  1.00  0.00     0.010 A 
ATOM     31  C   UNL     1      -1.761  -3.264  -5.471  1.00  0.00    -0.014 A 
BRANCH  31  32
ATOM     32  C   UNL     1      -1.946  -4.677  -5.866  1.00  0.00     0.031 A 
ATOM     33  C   UNL     1      -0.783  -5.417  -6.462  1.00  0.00     0.074 A 
ATOM     34  C   UNL     1      -3.128  -5.290  -5.679  1.00  0.00     0.049 A 
ATOM     35  N   UNL     1      -0.749  -6.598  -7.016  1.00  0.00    -0.248 NA
ATOM     36  C   UNL     1       0.520  -4.729  -6.428  1.00  0.00     0.031 C 
ATOM     37  C   UNL     1      -4.300  -4.689  -5.044  1.00  0.00     0.029 A 
ATOM     38  N   UNL     1      -3.542  -6.549  -6.031  1.00  0.00    -0.354 N 
ATOM     39  C   UNL     1       0.559  -6.773  -7.451  1.00  0.00     0.074 A 
ATOM     40  C   UNL     1       1.295  -5.585  -7.079  1.00  0.00     0.031 C 
ATOM     41  C   UNL     1      -5.316  -5.566  -5.088  1.00  0.00     0.029 A 
ATOM     42  C   UNL     1      -4.879  -6.768  -5.793  1.00  0.00     0.049 A 
ATOM     43  H   UNL     1      -2.942  -7.229  -6.416  1.00  0.00     0.167 HD
ATOM     44  C   UNL     1       1.095  -7.831  -8.101  1.00  0.00     0.034 A 
ATOM     45  C   UNL     1      -5.665  -7.802  -6.149  1.00  0.00     0.034 A 
ATOM     46  C   UNL     1       0.359  -9.021  -8.429  1.00  0.00     0.049 A 
ATOM     47  C   UNL     1      -5.053  -8.956  -6.899  1.00  0.00     0.074 A 
ATOM     48  C   UNL     1       0.805 -10.159  -9.075  1.00  0.00     0.029 A 
ATOM     49  N   UNL     1      -0.980  -9.227  -8.130  1.00  0.00    -0.354 N 
ATOM     50  N   UNL     1      -3.806  -9.132  -7.267  1.00  0.00    -0.248 NA
ATOM     51  C   UNL     1      -5.947 -10.063  -7.265  1.00  0.00     0.031 C 
ATOM     52  C   UNL     1      -0.269 -11.049  -9.179  1.00  0.00     0.029 A 
ATOM     53  C   UNL     1      -1.378 -10.473  -8.578  1.00  0.00     0.049 A 
ATOM     54  H   UNL     1      -1.561  -8.581  -7.668  1.00  0.00     0.167 HD
ATOM     55  C   UNL     1      -3.758 -10.382  -7.873  1.00  0.00     0.074 A 
ATOM     56  C   UNL     1      -5.100 -10.925  -7.812  1.00  0.00     0.031 C 
ATOM     57  C   UNL     1      -2.704 -11.018  -8.442  1.00  0.00     0.034 A 
BRANCH  44  58
ATOM     58  C   UNL     1       2.544  -7.750  -8.496  1.00  0.00     0.023 A 
ATOM     59  C   UNL     1       3.546  -7.899  -7.517  1.00  0.00     0.012 A 
ATOM     60  C   UNL     1       2.914  -7.569  -9.843  1.00  0.00     0.148 A 
ATOM     61  C   UNL     1       4.895  -7.841  -7.868  1.00  0.00     0.002 A 
ATOM     62  C   UNL     1       4.259  -7.552 -10.192  1.00  0.00     0.091 A 
ATOM     63  F   UNL     1       1.945  -7.402 -10.755  1.00  0.00    -0.205 F 
ATOM     64  C   UNL     1       5.250  -7.678  -9.205  1.00  0.00     0.022 A 
BRANCH  62  65
ATOM     65  S   UNL     1       4.812  -7.417 -11.895  1.00  0.00     0.127 S 
ATOM     66  O   UNL     1       5.317  -6.045 -11.934  1.00  0.00    -0.237 OA
ATOM     67  O   UNL     1       5.848  -8.448 -11.968  1.00  0.00    -0.237 OA
ATOM     68  O   UNL     1       3.640  -7.678 -12.719  1.00  0.00    -0.744 OA
ENDBRANCH  62  65
ENDBRANCH  44  58
BRANCH  45  69
ATOM     69  C   UNL     1      -7.111  -7.795  -5.789  1.00  0.00     0.023 A 
ATOM     70  C   UNL     1      -7.590  -8.704  -4.826  1.00  0.00     0.012 A 
ATOM     71  C   UNL     1      -8.007  -6.874  -6.369  1.00  0.00     0.148 A 
ATOM     72  C   UNL     1      -8.938  -8.712  -4.463  1.00  0.00     0.002 A 
ATOM     73  C   UNL     1      -9.337  -6.852  -5.964  1.00  0.00     0.091 A 
ATOM     74  F   UNL     1      -7.539  -6.032  -7.301  1.00  0.00    -0.205 F 
ATOM     75  C   UNL     1      -9.808  -7.779  -5.022  1.00  0.00     0.022 A 
BRANCH  73  76
ATOM     76  S   UNL     1     -10.496  -5.606  -6.541  1.00  0.00     0.127 S 
ATOM     77  O   UNL     1     -11.334  -6.377  -7.455  1.00  0.00    -0.237 OA
ATOM     78  O   UNL     1     -11.154  -5.202  -5.297  1.00  0.00    -0.237 OA
ATOM     79  O   UNL     1      -9.680  -4.566  -7.152  1.00  0.00    -0.744 OA
ENDBRANCH  73  76
ENDBRANCH  45  69
BRANCH  57  80
ATOM     80  C   UNL     1      -2.936 -12.397  -9.000  1.00  0.00     0.023 A 
ATOM     81  C   UNL     1      -3.605 -12.551 -10.229  1.00  0.00     0.012 A 
ATOM     82  C   UNL     1      -2.393 -13.527  -8.356  1.00  0.00     0.148 A 
ATOM     83  C   UNL     1      -3.749 -13.814 -10.800  1.00  0.00     0.002 A 
ATOM     84  C   UNL     1      -2.502 -14.776  -8.954  1.00  0.00     0.091 A 
ATOM     85  F   UNL     1      -1.776 -13.357  -7.178  1.00  0.00    -0.205 F 
ATOM     86  C   UNL     1      -3.187 -14.923 -10.171  1.00  0.00     0.022 A 
BRANCH  84  87
ATOM     87  S   UNL     1      -1.724 -16.241  -8.264  1.00  0.00     0.127 S 
ATOM     88  O   UNL     1      -2.877 -16.972  -7.740  1.00  0.00    -0.237 OA
ATOM     89  O   UNL     1      -1.101 -16.847  -9.441  1.00  0.00    -0.237 OA
ATOM     90  O   UNL     1      -0.781 -15.760  -7.263  1.00  0.00    -0.744 OA
ENDBRANCH  84  87
ENDBRANCH  57  80
ENDBRANCH  31  32
ENDBRANCH  24  26
ENDBRANCH  23  24
ENDBRANCH   1  23
TORSDOF 16
