REMARK SMILES O=C(OCCOC(=O)c1cc(=O)[nH]c2c(Br)cccc12)c1ccc(-c2c3nc(c(-c4cccc(S(=O)(=O)[O-])c4F)c4ccc([nH]4)c(-c4cccc(S(=O)(=O)[O-])c4F)c4nc(c(-c5cccc(S(=O)(=O)[O-])c5F)c5ccc2[nH]5)C=C4)C=C3)cc1
REMARK SMILES IDX 3 1 2 2 1 3 21 4 22 5 83 6 23 7 82 8 24 9 25 10 26 11 76 12
REMARK SMILES IDX 27 13 81 14 75 15 77 16 28 17 80 18 74 19 73 20 29 22 61 23
REMARK SMILES IDX 41 24 60 25 42 26 45 27 59 28 78 29 43 30 44 31 58 33 79 34
REMARK SMILES IDX 46 35 30 36 31 37 39 38 32 39 34 40 40 41 33 42 35 43 36 44
REMARK SMILES IDX 37 45 38 46 62 47 63 48 71 49 64 50 66 51 72 52 65 53 67 54
REMARK SMILES IDX 68 55 69 56 70 57 47 58 48 59 56 60 49 61 51 62 57 63 50 64
REMARK SMILES IDX 52 65 53 66 54 67 55 68 4 69 5 70 6 71 7 72 8 73 9 74 10 75
REMARK SMILES IDX 20 76 11 77 14 78 19 79 12 80 13 81 15 82 18 83 16 85 17 86
REMARK H PARENT 77 21 45 32 13 84
REMARK Flexibility Score: inf
ROOT
ATOM      1  O   UNL     1       3.196   0.650  -0.924  1.00  0.00    -0.458 OA
ENDROOT
BRANCH   1   2
ATOM      2  C   UNL     1       3.290  -0.701  -1.056  1.00  0.00     0.338 C 
ATOM      3  O   UNL     1       2.651  -1.289  -1.921  1.00  0.00    -0.246 OA
BRANCH   2   4
ATOM      4  C   UNL     1       3.906  -1.477   0.053  1.00  0.00     0.060 A 
ATOM      5  C   UNL     1       3.106  -2.463   0.640  1.00  0.00     0.016 A 
ATOM      6  C   UNL     1       5.208  -1.297   0.526  1.00  0.00     0.016 A 
ATOM      7  C   UNL     1       3.539  -3.146   1.778  1.00  0.00     0.010 A 
ATOM      8  C   UNL     1       5.654  -1.992   1.655  1.00  0.00     0.010 A 
ATOM      9  C   UNL     1       4.816  -2.904   2.303  1.00  0.00    -0.014 A 
BRANCH   9  10
ATOM     10  C   UNL     1       5.354  -3.781   3.365  1.00  0.00     0.031 A 
ATOM     11  C   UNL     1       5.612  -3.305   4.763  1.00  0.00     0.074 A 
ATOM     12  C   UNL     1       5.664  -5.041   3.007  1.00  0.00     0.049 A 
ATOM     13  N   UNL     1       5.946  -4.013   5.811  1.00  0.00    -0.248 NA
ATOM     14  C   UNL     1       5.474  -1.867   5.032  1.00  0.00     0.031 C 
ATOM     15  C   UNL     1       5.543  -5.574   1.647  1.00  0.00     0.029 A 
ATOM     16  N   UNL     1       6.171  -6.083   3.733  1.00  0.00    -0.354 N 
ATOM     17  C   UNL     1       5.995  -3.121   6.875  1.00  0.00     0.074 A 
ATOM     18  C   UNL     1       5.703  -1.810   6.341  1.00  0.00     0.031 C 
ATOM     19  C   UNL     1       5.984  -6.838   1.633  1.00  0.00     0.029 A 
ATOM     20  C   UNL     1       6.433  -7.196   2.973  1.00  0.00     0.049 A 
ATOM     21  H   UNL     1       6.333  -6.039   4.703  1.00  0.00     0.167 HD
ATOM     22  C   UNL     1       6.240  -3.388   8.179  1.00  0.00     0.034 A 
ATOM     23  C   UNL     1       6.989  -8.373   3.309  1.00  0.00     0.034 A 
ATOM     24  C   UNL     1       6.616  -4.686   8.674  1.00  0.00     0.049 A 
ATOM     25  C   UNL     1       7.346  -8.622   4.739  1.00  0.00     0.074 A 
ATOM     26  C   UNL     1       6.857  -5.069   9.981  1.00  0.00     0.029 A 
ATOM     27  N   UNL     1       6.855  -5.795   7.878  1.00  0.00    -0.354 N 
ATOM     28  N   UNL     1       7.189  -7.824   5.767  1.00  0.00    -0.248 NA
ATOM     29  C   UNL     1       7.923  -9.930   5.070  1.00  0.00     0.031 C 
ATOM     30  C   UNL     1       7.285  -6.399   9.971  1.00  0.00     0.029 A 
ATOM     31  C   UNL     1       7.285  -6.851   8.661  1.00  0.00     0.049 A 
ATOM     32  H   UNL     1       6.736  -5.827   6.902  1.00  0.00     0.167 HD
ATOM     33  C   UNL     1       7.628  -8.538   6.872  1.00  0.00     0.074 A 
ATOM     34  C   UNL     1       8.054  -9.837   6.389  1.00  0.00     0.031 C 
ATOM     35  C   UNL     1       7.677  -8.146   8.167  1.00  0.00     0.034 A 
BRANCH  22  36
ATOM     36  C   UNL     1       6.051  -2.296   9.197  1.00  0.00     0.023 A 
ATOM     37  C   UNL     1       4.750  -2.058   9.683  1.00  0.00     0.012 A 
ATOM     38  C   UNL     1       7.146  -1.649   9.801  1.00  0.00     0.148 A 
ATOM     39  C   UNL     1       4.541  -1.208  10.769  1.00  0.00     0.002 A 
ATOM     40  C   UNL     1       6.931  -0.810  10.891  1.00  0.00     0.091 A 
ATOM     41  F   UNL     1       8.373  -1.891   9.320  1.00  0.00    -0.205 F 
ATOM     42  C   UNL     1       5.631  -0.594  11.379  1.00  0.00     0.022 A 
BRANCH  40  43
ATOM     43  S   UNL     1       8.265   0.013  11.771  1.00  0.00     0.127 S 
ATOM     44  O   UNL     1       7.915   1.422  11.590  1.00  0.00    -0.237 OA
ATOM     45  O   UNL     1       8.090  -0.488  13.134  1.00  0.00    -0.237 OA
ATOM     46  O   UNL     1       9.498  -0.398  11.115  1.00  0.00    -0.744 OA
ENDBRANCH  40  43
ENDBRANCH  22  36
BRANCH  23  47
ATOM     47  C   UNL     1       7.176  -9.388   2.242  1.00  0.00     0.023 A 
ATOM     48  C   UNL     1       6.268 -10.456   2.137  1.00  0.00     0.012 A 
ATOM     49  C   UNL     1       8.148  -9.198   1.239  1.00  0.00     0.148 A 
ATOM     50  C   UNL     1       6.320 -11.317   1.041  1.00  0.00     0.002 A 
ATOM     51  C   UNL     1       8.163 -10.030   0.128  1.00  0.00     0.091 A 
ATOM     52  F   UNL     1       8.997  -8.168   1.367  1.00  0.00    -0.205 F 
ATOM     53  C   UNL     1       7.255 -11.096   0.031  1.00  0.00     0.022 A 
BRANCH  51  54
ATOM     54  S   UNL     1       9.235  -9.731  -1.282  1.00  0.00     0.127 S 
ATOM     55  O   UNL     1      10.176 -10.844  -1.182  1.00  0.00    -0.237 OA
ATOM     56  O   UNL     1       8.295  -9.817  -2.400  1.00  0.00    -0.237 OA
ATOM     57  O   UNL     1       9.801  -8.405  -1.075  1.00  0.00    -0.744 OA
ENDBRANCH  51  54
ENDBRANCH  23  47
BRANCH  35  58
ATOM     58  C   UNL     1       8.213  -9.115   9.179  1.00  0.00     0.023 A 
ATOM     59  C   UNL     1       9.605  -9.245   9.333  1.00  0.00     0.012 A 
ATOM     60  C   UNL     1       7.343  -9.760  10.079  1.00  0.00     0.148 A 
ATOM     61  C   UNL     1      10.129 -10.003  10.378  1.00  0.00     0.002 A 
ATOM     62  C   UNL     1       7.872 -10.485  11.138  1.00  0.00     0.091 A 
ATOM     63  F   UNL     1       6.022  -9.616   9.902  1.00  0.00    -0.205 F 
ATOM     64  C   UNL     1       9.264 -10.611  11.287  1.00  0.00     0.022 A 
BRANCH  62  65
ATOM     65  S   UNL     1       6.846 -11.237  12.405  1.00  0.00     0.127 S 
ATOM     66  O   UNL     1       7.178 -12.654  12.255  1.00  0.00    -0.237 OA
ATOM     67  O   UNL     1       7.361 -10.615  13.624  1.00  0.00    -0.237 OA
ATOM     68  O   UNL     1       5.471 -10.892  12.073  1.00  0.00    -0.744 OA
ENDBRANCH  62  65
ENDBRANCH  35  58
ENDBRANCH   9  10
ENDBRANCH   2   4
ENDBRANCH   1   2
BRANCH   1  69
ATOM     69  C   UNL     1       4.253   1.500  -0.449  1.00  0.00     0.275 C 
BRANCH  69  70
ATOM     70  C   UNL     1       4.090   1.971   1.000  1.00  0.00     0.275 C 
BRANCH  70  71
ATOM     71  O   UNL     1       3.567   0.974   1.888  1.00  0.00    -0.458 OA
BRANCH  71  72
ATOM     72  C   UNL     1       2.211   0.981   2.034  1.00  0.00     0.339 C 
ATOM     73  O   UNL     1       1.435   1.729   1.472  1.00  0.00    -0.246 OA
BRANCH  72  74
ATOM     74  C   UNL     1       1.791  -0.107   2.952  1.00  0.00     0.074 A 
ATOM     75  C   UNL     1       2.366  -0.128   4.164  1.00  0.00     0.088 A 
ATOM     76  C   UNL     1       0.785  -1.126   2.593  1.00  0.00     0.014 A 
ATOM     77  C   UNL     1       2.027  -1.168   5.155  1.00  0.00     0.249 A 
ATOM     78  C   UNL     1       0.550  -2.182   3.493  1.00  0.00     0.063 A 
ATOM     79  C   UNL     1       0.123  -1.138   1.356  1.00  0.00     0.011 A 
ATOM     80  O   UNL     1       2.488  -1.119   6.288  1.00  0.00    -0.270 OA
ATOM     81  N   UNL     1       1.192  -2.162   4.742  1.00  0.00    -0.321 N 
ATOM     82  C   UNL     1      -0.304  -3.237   3.145  1.00  0.00     0.042 A 
ATOM     83  C   UNL     1      -0.723  -2.195   1.010  1.00  0.00     0.002 A 
ATOM     84  H   UNL     1       1.028  -2.913   5.356  1.00  0.00     0.170 HD
ATOM     85  Br  UNL     1      -0.623  -4.689   4.323  1.00  0.00    -0.049 Br
ATOM     86  C   UNL     1      -0.932  -3.247   1.900  1.00  0.00     0.018 A 
ENDBRANCH  72  74
ENDBRANCH  71  72
ENDBRANCH  70  71
ENDBRANCH  69  70
ENDBRANCH   1  69
TORSDOF 14
