REMARK SMILES CC(C)C(=O)Nc1ccc(NC(=O)[C@@H]2[C@@H](C(=O)OCCOC(=O)c3ccc(-c4c5nc(c(-c6cccc(S(=O)(=O)[O-])c6F)c6ccc([nH]6)c(-c6cccc(S(=O)(=O)[O-])c6F)c6nc(c(-c7cccc(S(=O)(=O)[O-])c7F)c7ccc4[nH]7)C=C6)C=C5)cc3)C2(C)C)cc1Cl
REMARK SMILES IDX 19 1 18 2 16 3 17 4 15 5 14 6 87 7 88 8 89 9 12 10 11 11
REMARK SMILES IDX 13 13 10 14 7 15 8 16 91 17 9 18 90 19 92 20 6 21 4 22 5 23
REMARK SMILES IDX 2 25 1 26 3 27 20 28 21 29 22 30 23 31 24 32 25 33 86 34
REMARK SMILES IDX 26 35 85 36 27 37 28 38 29 39 79 40 30 41 84 42 78 43 80 44
REMARK SMILES IDX 31 45 83 46 77 47 76 48 32 50 64 51 44 52 63 53 45 54 48 55
REMARK SMILES IDX 62 56 81 57 46 58 47 59 61 61 82 62 49 63 33 64 34 65 42 66
REMARK SMILES IDX 35 67 37 68 43 69 36 70 38 71 39 72 40 73 41 74 65 75 66 76
REMARK SMILES IDX 74 77 67 78 69 79 75 80 68 81 70 82 71 83 72 84 73 85 50 86
REMARK SMILES IDX 51 87 59 88 52 89 54 90 60 91 53 92 55 93 56 94 57 95 58 96
REMARK H PARENT 11 12 6 24 80 49 48 60
REMARK Flexibility Score: inf
ROOT
ATOM      1  C   UNL     1       3.007   6.532   7.573  1.00  0.00     0.274 C 
ENDROOT
BRANCH   1   2
ATOM      2  O   UNL     1       2.002   6.498   6.544  1.00  0.00    -0.462 OA
BRANCH   2   3
ATOM      3  C   UNL     1       1.444   5.287   6.308  1.00  0.00     0.310 C 
ATOM      4  O   UNL     1       1.878   4.223   6.728  1.00  0.00    -0.252 OA
BRANCH   3   5
ATOM      5  C   UNL     1       0.176   5.319   5.539  1.00  0.00     0.118 C 
ATOM      6  C   UNL     1       0.114   5.891   4.135  1.00  0.00     0.100 C 
ATOM      7  C   UNL     1      -0.755   6.489   5.252  1.00  0.00    -0.009 C 
ATOM      8  C   UNL     1      -0.454   7.914   5.686  1.00  0.00     0.013 C 
ATOM      9  C   UNL     1      -2.241   6.182   5.279  1.00  0.00     0.013 C 
BRANCH   6  10
ATOM     10  C   UNL     1      -0.365   4.946   3.085  1.00  0.00     0.228 C 
ATOM     11  N   UNL     1      -1.063   5.343   1.972  1.00  0.00    -0.326 N 
ATOM     12  H   UNL     1      -1.244   4.604   1.348  1.00  0.00     0.169 HD
ATOM     13  O   UNL     1      -0.100   3.750   3.196  1.00  0.00    -0.274 OA
BRANCH  11  14
ATOM     14  C   UNL     1      -1.574   6.570   1.530  1.00  0.00     0.042 A 
ATOM     15  C   UNL     1      -3.006   8.866   0.759  1.00  0.00     0.060 A 
ATOM     16  C   UNL     1      -2.091   8.921   1.807  1.00  0.00     0.030 A 
ATOM     17  C   UNL     1      -3.016   7.725  -0.046  1.00  0.00     0.066 A 
ATOM     18  C   UNL     1      -1.364   7.784   2.164  1.00  0.00     0.028 A 
ATOM     19  C   UNL     1      -2.353   6.564   0.370  1.00  0.00     0.048 A 
ATOM     20  Cl  UNL     1      -3.587   7.771  -1.678  1.00  0.00    -0.082 Cl
BRANCH  15  21
ATOM     21  N   UNL     1      -3.787  10.008   0.548  1.00  0.00    -0.325 N 
ATOM     22  C   UNL     1      -5.142  10.166   0.493  1.00  0.00     0.226 C 
ATOM     23  O   UNL     1      -5.546  11.309   0.241  1.00  0.00    -0.274 OA
ATOM     24  H   UNL     1      -3.273  10.837   0.418  1.00  0.00     0.169 HD
BRANCH  22  25
ATOM     25  C   UNL     1      -6.167   9.074   0.833  1.00  0.00     0.072 C 
ATOM     26  C   UNL     1      -6.436   8.064  -0.269  1.00  0.00     0.018 C 
ATOM     27  C   UNL     1      -5.955   8.403   2.186  1.00  0.00     0.018 C 
ENDBRANCH  22  25
ENDBRANCH  15  21
ENDBRANCH  11  14
ENDBRANCH   6  10
ENDBRANCH   3   5
ENDBRANCH   2   3
ENDBRANCH   1   2
BRANCH   1  28
ATOM     28  C   UNL     1       2.402   7.007   8.899  1.00  0.00     0.275 C 
BRANCH  28  29
ATOM     29  O   UNL     1       1.453   6.053   9.416  1.00  0.00    -0.458 OA
BRANCH  29  30
ATOM     30  C   UNL     1       0.149   6.371   9.240  1.00  0.00     0.338 C 
ATOM     31  O   UNL     1      -0.300   7.380   8.724  1.00  0.00    -0.246 OA
BRANCH  30  32
ATOM     32  C   UNL     1      -0.707   5.258   9.675  1.00  0.00     0.060 A 
ATOM     33  C   UNL     1      -1.408   4.545   8.700  1.00  0.00     0.016 A 
ATOM     34  C   UNL     1      -0.914   4.993  11.028  1.00  0.00     0.016 A 
ATOM     35  C   UNL     1      -2.330   3.571   9.067  1.00  0.00     0.010 A 
ATOM     36  C   UNL     1      -1.839   4.009  11.398  1.00  0.00     0.010 A 
ATOM     37  C   UNL     1      -2.567   3.307  10.420  1.00  0.00    -0.014 A 
BRANCH  37  38
ATOM     38  C   UNL     1      -3.634   2.349  10.801  1.00  0.00     0.031 A 
ATOM     39  C   UNL     1      -4.920   2.864  11.385  1.00  0.00     0.074 A 
ATOM     40  C   UNL     1      -3.459   1.030  10.601  1.00  0.00     0.049 A 
ATOM     41  N   UNL     1      -5.951   2.195  11.831  1.00  0.00    -0.248 NA
ATOM     42  C   UNL     1      -5.064   4.326  11.480  1.00  0.00     0.031 C 
ATOM     43  C   UNL     1      -2.266   0.417  10.015  1.00  0.00     0.029 A 
ATOM     44  N   UNL     1      -4.281  -0.033  10.878  1.00  0.00    -0.354 N 
ATOM     45  C   UNL     1      -6.848   3.148  12.298  1.00  0.00     0.074 A 
ATOM     46  C   UNL     1      -6.238   4.443  12.084  1.00  0.00     0.031 C 
ATOM     47  C   UNL     1      -2.432  -0.916   9.980  1.00  0.00     0.029 A 
ATOM     48  C   UNL     1      -3.721  -1.253  10.577  1.00  0.00     0.049 A 
ATOM     49  H   UNL     1      -5.184   0.067  11.255  1.00  0.00     0.167 HD
ATOM     50  C   UNL     1      -8.074   2.962  12.843  1.00  0.00     0.034 A 
ATOM     51  C   UNL     1      -4.189  -2.500  10.777  1.00  0.00     0.034 A 
ATOM     52  C   UNL     1      -8.691   1.675  13.018  1.00  0.00     0.049 A 
ATOM     53  C   UNL     1      -5.548  -2.679  11.399  1.00  0.00     0.074 A 
ATOM     54  C   UNL     1      -9.937   1.381  13.543  1.00  0.00     0.029 A 
ATOM     55  N   UNL     1      -8.108   0.465  12.670  1.00  0.00    -0.354 N 
ATOM     56  N   UNL     1      -6.413  -1.765  11.771  1.00  0.00    -0.248 NA
ATOM     57  C   UNL     1      -6.008  -4.060  11.606  1.00  0.00     0.031 C 
ATOM     58  C   UNL     1     -10.103  -0.009  13.522  1.00  0.00     0.029 A 
ATOM     59  C   UNL     1      -8.968  -0.578  12.967  1.00  0.00     0.049 A 
ATOM     60  H   UNL     1      -7.214   0.364  12.271  1.00  0.00     0.167 HD
ATOM     61  C   UNL     1      -7.530  -2.458  12.223  1.00  0.00     0.074 A 
ATOM     62  C   UNL     1      -7.240  -3.869  12.060  1.00  0.00     0.031 C 
ATOM     63  C   UNL     1      -8.686  -1.973  12.741  1.00  0.00     0.034 A 
BRANCH  50  64
ATOM     64  C   UNL     1      -8.840   4.188  13.265  1.00  0.00     0.023 A 
ATOM     65  C   UNL     1      -9.420   5.019  12.285  1.00  0.00     0.012 A 
ATOM     66  C   UNL     1      -9.017   4.499  14.627  1.00  0.00     0.148 A 
ATOM     67  C   UNL     1     -10.136   6.158  12.653  1.00  0.00     0.002 A 
ATOM     68  C   UNL     1      -9.766   5.614  14.987  1.00  0.00     0.091 A 
ATOM     69  F   UNL     1      -8.437   3.712  15.545  1.00  0.00    -0.205 F 
ATOM     70  C   UNL     1     -10.316   6.450  14.002  1.00  0.00     0.022 A 
BRANCH  68  71
ATOM     71  S   UNL     1     -10.110   6.032  16.701  1.00  0.00     0.127 S 
ATOM     72  O   UNL     1      -9.207   7.162  16.916  1.00  0.00    -0.237 OA
ATOM     73  O   UNL     1     -11.529   6.386  16.656  1.00  0.00    -0.237 OA
ATOM     74  O   UNL     1      -9.812   4.832  17.470  1.00  0.00    -0.744 OA
ENDBRANCH  68  71
ENDBRANCH  50  64
BRANCH  51  75
ATOM     75  C   UNL     1      -3.383  -3.677  10.343  1.00  0.00     0.023 A 
ATOM     76  C   UNL     1      -3.829  -4.457   9.258  1.00  0.00     0.012 A 
ATOM     77  C   UNL     1      -2.170  -4.011  10.976  1.00  0.00     0.148 A 
ATOM     78  C   UNL     1      -3.093  -5.561   8.827  1.00  0.00     0.002 A 
ATOM     79  C   UNL     1      -1.415  -5.080  10.507  1.00  0.00     0.091 A 
ATOM     80  F   UNL     1      -1.773  -3.271  12.021  1.00  0.00    -0.205 F 
ATOM     81  C   UNL     1      -1.882  -5.865   9.442  1.00  0.00     0.022 A 
BRANCH  79  82
ATOM     82  S   UNL     1       0.214  -5.465  11.160  1.00  0.00     0.127 S 
ATOM     83  O   UNL     1      -0.052  -6.677  11.931  1.00  0.00    -0.237 OA
ATOM     84  O   UNL     1       0.991  -5.672   9.937  1.00  0.00    -0.237 OA
ATOM     85  O   UNL     1       0.612  -4.296  11.932  1.00  0.00    -0.744 OA
ENDBRANCH  79  82
ENDBRANCH  51  75
BRANCH  63  86
ATOM     86  C   UNL     1      -9.744  -2.969  13.136  1.00  0.00     0.023 A 
ATOM     87  C   UNL     1      -9.579  -3.739  14.304  1.00  0.00     0.012 A 
ATOM     88  C   UNL     1     -10.935  -3.085  12.392  1.00  0.00     0.148 A 
ATOM     89  C   UNL     1     -10.571  -4.631  14.709  1.00  0.00     0.002 A 
ATOM     90  C   UNL     1     -11.938  -3.943  12.827  1.00  0.00     0.091 A 
ATOM     91  F   UNL     1     -11.064  -2.359  11.271  1.00  0.00    -0.205 F 
ATOM     92  C   UNL     1     -11.754  -4.725  13.979  1.00  0.00     0.022 A 
BRANCH  90  93
ATOM     93  S   UNL     1     -13.529  -4.055  11.999  1.00  0.00     0.127 S 
ATOM     94  O   UNL     1     -13.402  -5.320  11.278  1.00  0.00    -0.237 OA
ATOM     95  O   UNL     1     -14.466  -4.084  13.123  1.00  0.00    -0.237 OA
ATOM     96  O   UNL     1     -13.627  -2.864  11.166  1.00  0.00    -0.744 OA
ENDBRANCH  90  93
ENDBRANCH  63  86
ENDBRANCH  37  38
ENDBRANCH  30  32
ENDBRANCH  29  30
ENDBRANCH  28  29
ENDBRANCH   1  28
TORSDOF 18
