REMARK SMILES Cc1ccc(C(=O)OCCOC(=O)c2ccc(-c3c4nc(c(-c5cccc(S(=O)(=O)[O-])c5F)c5ccc([nH]5)c(-c5cccc(S(=O)(=O)[O-])c5F)c5nc(c(-c6cccc(S(=O)(=O)[O-])c6F)c6ccc3[nH]6)C=C5)C=C4)cc2)cc1N1C(=O)/C(=C/c2ccc([N+](=O)[O-])cc2)SC1=S
REMARK SMILES IDX 9 1 8 2 6 3 7 4 5 5 1 6 2 7 3 8 78 9 4 10 77 11 79 12 80 13
REMARK SMILES IDX 94 14 81 15 82 16 93 17 95 18 83 19 84 20 85 21 92 22 86 23
REMARK SMILES IDX 91 24 87 25 88 26 89 27 90 28 10 29 11 30 12 31 13 32 14 33
REMARK SMILES IDX 15 34 76 35 16 36 75 37 17 38 18 39 19 40 69 41 20 42 74 43
REMARK SMILES IDX 68 44 70 45 21 46 73 47 67 48 66 49 22 51 54 52 34 53 53 54
REMARK SMILES IDX 35 55 38 56 52 57 71 58 36 59 37 60 51 62 72 63 39 64 23 65
REMARK SMILES IDX 24 66 32 67 25 68 27 69 33 70 26 71 28 72 29 73 30 74 31 75
REMARK SMILES IDX 55 76 56 77 64 78 57 79 59 80 65 81 58 82 60 83 61 84 62 85
REMARK SMILES IDX 63 86 40 87 41 88 49 89 42 90 44 91 50 92 43 93 45 94 46 95
REMARK SMILES IDX 47 96 48 97
REMARK H PARENT 70 50 38 61
REMARK Flexibility Score: inf
ROOT
ATOM      1  C   UNL     1      -4.835   1.972  -1.950  1.00  0.00     0.275 C 
ENDROOT
BRANCH   1   2
ATOM      2  O   UNL     1      -3.556   1.579  -1.454  1.00  0.00    -0.458 OA
BRANCH   2   3
ATOM      3  C   UNL     1      -2.708   0.949  -2.282  1.00  0.00     0.338 C 
ATOM      4  O   UNL     1      -2.908   0.654  -3.452  1.00  0.00    -0.246 OA
BRANCH   3   5
ATOM      5  C   UNL     1      -1.464   0.645  -1.552  1.00  0.00     0.062 A 
ATOM      6  C   UNL     1       2.508  -0.094  -0.075  1.00  0.00     0.046 C 
ATOM      7  C   UNL     1       1.124   0.254  -0.551  1.00  0.00    -0.027 A 
ATOM      8  C   UNL     1       0.381  -0.816  -1.095  1.00  0.00     0.006 A 
ATOM      9  C   UNL     1       0.531   1.537  -0.517  1.00  0.00     0.054 A 
ATOM     10  C   UNL     1      -0.858  -0.597  -1.688  1.00  0.00     0.016 A 
ATOM     11  C   UNL     1      -0.821   1.665  -0.856  1.00  0.00     0.042 A 
BRANCH   9  12
ATOM     12  N   UNL     1       1.304   2.741  -0.518  1.00  0.00    -0.261 N 
ATOM     13  C   UNL     1       2.182   3.087   0.504  1.00  0.00     0.270 C 
ATOM     14  C   UNL     1       1.280   3.633  -1.597  1.00  0.00     0.152 C 
ATOM     15  O   UNL     1       2.431   2.505   1.548  1.00  0.00    -0.268 OA
ATOM     16  C   UNL     1       2.815   4.390   0.142  1.00  0.00     0.081 C 
ATOM     17  S   UNL     1       2.744   4.605  -1.556  1.00  0.00    -0.054 SA
ATOM     18  S   UNL     1       0.187   3.902  -2.838  1.00  0.00    -0.051 S 
ATOM     19  C   UNL     1       3.170   5.339   1.015  1.00  0.00     0.029 C 
BRANCH  19  20
ATOM     20  C   UNL     1       3.737   6.627   0.600  1.00  0.00    -0.024 A 
ATOM     21  C   UNL     1       2.948   7.775   0.445  1.00  0.00     0.015 A 
ATOM     22  C   UNL     1       5.108   6.682   0.323  1.00  0.00     0.015 A 
ATOM     23  C   UNL     1       3.544   8.994   0.093  1.00  0.00     0.086 A 
ATOM     24  C   UNL     1       5.710   7.889  -0.025  1.00  0.00     0.086 A 
ATOM     25  C   UNL     1       4.930   9.049  -0.108  1.00  0.00     0.269 A 
BRANCH  25  26
ATOM     26  N   UNL     1       5.588  10.335  -0.372  1.00  0.00     0.062 N 
ATOM     27  O   UNL     1       4.876  11.342  -0.482  1.00  0.00    -0.258 OA
ATOM     28  O   UNL     1       6.825  10.340  -0.468  1.00  0.00    -0.258 OA
ENDBRANCH  25  26
ENDBRANCH  19  20
ENDBRANCH   9  12
ENDBRANCH   3   5
ENDBRANCH   2   3
ENDBRANCH   1   2
BRANCH   1  29
ATOM     29  C   UNL     1      -5.690   0.994  -2.795  1.00  0.00     0.275 C 
BRANCH  29  30
ATOM     30  O   UNL     1      -5.471  -0.450  -2.907  1.00  0.00    -0.458 OA
BRANCH  30  31
ATOM     31  C   UNL     1      -5.044  -1.402  -2.047  1.00  0.00     0.338 C 
ATOM     32  O   UNL     1      -4.841  -2.562  -2.378  1.00  0.00    -0.246 OA
BRANCH  31  33
ATOM     33  C   UNL     1      -4.814  -0.973  -0.677  1.00  0.00     0.060 A 
ATOM     34  C   UNL     1      -3.612  -1.301  -0.027  1.00  0.00     0.016 A 
ATOM     35  C   UNL     1      -5.768  -0.142  -0.109  1.00  0.00     0.016 A 
ATOM     36  C   UNL     1      -3.320  -0.721   1.193  1.00  0.00     0.010 A 
ATOM     37  C   UNL     1      -5.417   0.562   1.003  1.00  0.00     0.010 A 
ATOM     38  C   UNL     1      -4.258   0.172   1.697  1.00  0.00    -0.014 A 
BRANCH  38  39
ATOM     39  C   UNL     1      -4.447   0.345   3.122  1.00  0.00     0.031 A 
ATOM     40  C   UNL     1      -3.802   1.466   3.803  1.00  0.00     0.074 A 
ATOM     41  C   UNL     1      -5.507  -0.412   3.500  1.00  0.00     0.049 A 
ATOM     42  N   UNL     1      -3.648   1.545   5.074  1.00  0.00    -0.248 NA
ATOM     43  C   UNL     1      -3.206   2.595   3.084  1.00  0.00     0.031 C 
ATOM     44  C   UNL     1      -6.504  -0.249   4.533  1.00  0.00     0.029 A 
ATOM     45  N   UNL     1      -5.890  -1.625   2.887  1.00  0.00    -0.354 N 
ATOM     46  C   UNL     1      -3.391   2.878   5.335  1.00  0.00     0.074 A 
ATOM     47  C   UNL     1      -2.899   3.419   4.094  1.00  0.00     0.031 C 
ATOM     48  C   UNL     1      -7.144  -1.430   4.693  1.00  0.00     0.029 A 
ATOM     49  C   UNL     1      -6.440  -2.422   3.877  1.00  0.00     0.049 A 
ATOM     50  H   UNL     1      -5.785  -1.860   1.936  1.00  0.00     0.167 HD
ATOM     51  C   UNL     1      -3.930   3.425   6.463  1.00  0.00     0.034 A 
ATOM     52  C   UNL     1      -5.732  -3.507   4.322  1.00  0.00     0.034 A 
ATOM     53  C   UNL     1      -4.709   2.389   7.171  1.00  0.00     0.049 A 
ATOM     54  C   UNL     1      -5.296  -3.261   5.750  1.00  0.00     0.074 A 
ATOM     55  C   UNL     1      -6.067   2.109   7.167  1.00  0.00     0.029 A 
ATOM     56  N   UNL     1      -4.077   1.259   7.680  1.00  0.00    -0.354 N 
ATOM     57  N   UNL     1      -5.144  -2.071   6.261  1.00  0.00    -0.248 NA
ATOM     58  C   UNL     1      -5.037  -4.323   6.713  1.00  0.00     0.031 C 
ATOM     59  C   UNL     1      -6.238   0.766   7.598  1.00  0.00     0.029 A 
ATOM     60  C   UNL     1      -4.988   0.225   7.852  1.00  0.00     0.049 A 
ATOM     61  H   UNL     1      -3.117   1.200   7.890  1.00  0.00     0.167 HD
ATOM     62  C   UNL     1      -4.792  -2.170   7.572  1.00  0.00     0.074 A 
ATOM     63  C   UNL     1      -4.748  -3.606   7.813  1.00  0.00     0.031 C 
ATOM     64  C   UNL     1      -4.546  -1.073   8.348  1.00  0.00     0.034 A 
BRANCH  51  65
ATOM     65  C   UNL     1      -4.135   4.913   6.740  1.00  0.00     0.023 A 
ATOM     66  C   UNL     1      -5.114   5.242   7.709  1.00  0.00     0.012 A 
ATOM     67  C   UNL     1      -3.484   6.013   6.131  1.00  0.00     0.148 A 
ATOM     68  C   UNL     1      -5.497   6.555   7.996  1.00  0.00     0.002 A 
ATOM     69  C   UNL     1      -3.882   7.333   6.399  1.00  0.00     0.091 A 
ATOM     70  F   UNL     1      -2.435   5.806   5.331  1.00  0.00    -0.205 F 
ATOM     71  C   UNL     1      -4.895   7.604   7.324  1.00  0.00     0.022 A 
BRANCH  69  72
ATOM     72  S   UNL     1      -3.164   8.769   5.575  1.00  0.00     0.127 S 
ATOM     73  O   UNL     1      -4.349   9.431   5.023  1.00  0.00    -0.237 OA
ATOM     74  O   UNL     1      -2.533   9.483   6.683  1.00  0.00    -0.237 OA
ATOM     75  O   UNL     1      -2.248   8.248   4.568  1.00  0.00    -0.744 OA
ENDBRANCH  69  72
ENDBRANCH  51  65
BRANCH  52  76
ATOM     76  C   UNL     1      -4.874  -4.181   3.273  1.00  0.00     0.023 A 
ATOM     77  C   UNL     1      -5.510  -4.596   2.072  1.00  0.00     0.012 A 
ATOM     78  C   UNL     1      -3.467  -4.125   3.282  1.00  0.00     0.148 A 
ATOM     79  C   UNL     1      -4.784  -4.815   0.895  1.00  0.00     0.002 A 
ATOM     80  C   UNL     1      -2.747  -4.364   2.103  1.00  0.00     0.091 A 
ATOM     81  F   UNL     1      -2.834  -3.773   4.408  1.00  0.00    -0.205 F 
ATOM     82  C   UNL     1      -3.402  -4.681   0.906  1.00  0.00     0.022 A 
BRANCH  80  83
ATOM     83  S   UNL     1      -0.958  -4.159   2.083  1.00  0.00     0.127 S 
ATOM     84  O   UNL     1      -0.599  -4.447   0.693  1.00  0.00    -0.237 OA
ATOM     85  O   UNL     1      -0.786  -2.762   2.457  1.00  0.00    -0.237 OA
ATOM     86  O   UNL     1      -0.513  -5.165   3.042  1.00  0.00    -0.744 OA
ENDBRANCH  80  83
ENDBRANCH  52  76
BRANCH  64  87
ATOM     87  C   UNL     1      -3.866  -1.130   9.689  1.00  0.00     0.023 A 
ATOM     88  C   UNL     1      -2.971  -2.164  10.017  1.00  0.00     0.012 A 
ATOM     89  C   UNL     1      -3.961  -0.040  10.588  1.00  0.00     0.148 A 
ATOM     90  C   UNL     1      -2.263  -2.160  11.218  1.00  0.00     0.002 A 
ATOM     91  C   UNL     1      -3.151   0.023  11.711  1.00  0.00     0.091 A 
ATOM     92  F   UNL     1      -4.847   0.942  10.364  1.00  0.00    -0.205 F 
ATOM     93  C   UNL     1      -2.332  -1.054  12.054  1.00  0.00     0.022 A 
BRANCH  91  94
ATOM     94  S   UNL     1      -3.002   1.549  12.647  1.00  0.00     0.127 S 
ATOM     95  O   UNL     1      -3.962   1.335  13.727  1.00  0.00    -0.237 OA
ATOM     96  O   UNL     1      -1.599   1.524  13.063  1.00  0.00    -0.237 OA
ATOM     97  O   UNL     1      -3.323   2.611  11.703  1.00  0.00    -0.744 OA
ENDBRANCH  91  94
ENDBRANCH  64  87
ENDBRANCH  38  39
ENDBRANCH  31  33
ENDBRANCH  30  31
ENDBRANCH  29  30
ENDBRANCH   1  29
TORSDOF 17
