REMARK SMILES COc1ccc(-c2noc(CC(=O)OCCOC(=O)c3ccc(-c4c5nc(c(-c6cccc(S(=O)(=O)[O-])c6F)c6ccc([nH]6)c(-c6cccc(S(=O)(=O)[O-])c6F)c6nc(c(-c7cccc(S(=O)(=O)[O-])c7F)c7ccc4[nH]7)C=C6)C=C5)cc3)c2-c2ccc(OC)cc2)cc1
REMARK SMILES IDX 15 1 14 2 12 3 13 4 11 5 10 6 7 7 8 8 83 9 9 10 6 11 3 12
REMARK SMILES IDX 4 13 93 14 5 15 92 16 2 17 1 18 84 19 85 20 91 21 86 22
REMARK SMILES IDX 90 23 87 24 88 25 89 26 16 27 17 28 18 29 19 30 20 31 21 32
REMARK SMILES IDX 82 33 22 34 81 35 23 36 24 37 25 38 75 39 26 40 80 41 74 42
REMARK SMILES IDX 76 43 27 44 79 45 73 46 72 47 28 49 60 50 40 51 59 52 41 53
REMARK SMILES IDX 44 54 58 55 77 56 42 57 43 58 57 60 78 61 45 62 29 63 30 64
REMARK SMILES IDX 38 65 31 66 33 67 39 68 32 69 34 70 35 71 36 72 37 73 61 74
REMARK SMILES IDX 62 75 70 76 63 77 65 78 71 79 64 80 66 81 67 82 68 83 69 84
REMARK SMILES IDX 46 85 47 86 55 87 48 88 50 89 56 90 49 91 51 92 52 93 53 94
REMARK SMILES IDX 54 95
REMARK H PARENT 76 48 44 59
REMARK Flexibility Score: inf
ROOT
ATOM      1  C   UNL     1       2.317   8.987  -7.728  1.00  0.00     0.274 C 
ENDROOT
BRANCH   1   2
ATOM      2  O   UNL     1       2.819   8.054  -6.752  1.00  0.00    -0.462 OA
BRANCH   2   3
ATOM      3  C   UNL     1       4.129   8.204  -6.427  1.00  0.00     0.313 C 
ATOM      4  O   UNL     1       4.876   9.036  -6.936  1.00  0.00    -0.252 OA
BRANCH   3   5
ATOM      5  C   UNL     1       4.655   7.189  -5.452  1.00  0.00     0.201 C 
BRANCH   5   6
ATOM      6  C   UNL     1       3.645   6.505  -4.612  1.00  0.00     0.156 A 
ATOM      7  C   UNL     1       2.376   5.196  -3.350  1.00  0.00     0.122 A 
ATOM      8  N   UNL     1       2.019   6.456  -3.064  1.00  0.00    -0.079 NA
ATOM      9  C   UNL     1       3.383   5.179  -4.351  1.00  0.00     0.053 A 
ATOM     10  O   UNL     1       2.832   7.272  -3.837  1.00  0.00    -0.359 OA
BRANCH   7  11
ATOM     11  C   UNL     1       1.804   4.048  -2.662  1.00  0.00     0.005 A 
ATOM     12  C   UNL     1       0.765   1.736  -1.452  1.00  0.00     0.118 A 
ATOM     13  C   UNL     1      -0.070   2.603  -2.162  1.00  0.00     0.047 A 
ATOM     14  C   UNL     1       2.124   2.029  -1.344  1.00  0.00     0.047 A 
ATOM     15  C   UNL     1       0.440   3.763  -2.753  1.00  0.00     0.014 A 
ATOM     16  C   UNL     1       2.640   3.180  -1.947  1.00  0.00     0.014 A 
BRANCH  12  17
ATOM     17  O   UNL     1       0.153   0.625  -0.938  1.00  0.00    -0.497 OA
ATOM     18  C   UNL     1       0.826  -0.013   0.141  1.00  0.00     0.278 C 
ENDBRANCH  12  17
ENDBRANCH   7  11
BRANCH   9  19
ATOM     19  C   UNL     1       4.062   4.085  -5.000  1.00  0.00    -0.012 A 
ATOM     20  C   UNL     1       3.362   3.256  -5.878  1.00  0.00     0.013 A 
ATOM     21  C   UNL     1       5.428   3.877  -4.786  1.00  0.00     0.013 A 
ATOM     22  C   UNL     1       4.038   2.248  -6.566  1.00  0.00     0.047 A 
ATOM     23  C   UNL     1       6.101   2.870  -5.481  1.00  0.00     0.047 A 
ATOM     24  C   UNL     1       5.412   2.063  -6.387  1.00  0.00     0.118 A 
BRANCH  24  25
ATOM     25  O   UNL     1       5.961   1.066  -7.145  1.00  0.00    -0.497 OA
ATOM     26  C   UNL     1       7.382   1.009  -7.175  1.00  0.00     0.278 C 
ENDBRANCH  24  25
ENDBRANCH   9  19
ENDBRANCH   5   6
ENDBRANCH   3   5
ENDBRANCH   2   3
ENDBRANCH   1   2
BRANCH   1  27
ATOM     27  C   UNL     1       1.656  10.202  -7.078  1.00  0.00     0.275 C 
BRANCH  27  28
ATOM     28  O   UNL     1       2.591  10.947  -6.278  1.00  0.00    -0.458 OA
BRANCH  28  29
ATOM     29  C   UNL     1       2.450  10.789  -4.941  1.00  0.00     0.338 C 
ATOM     30  O   UNL     1       1.606  10.131  -4.360  1.00  0.00    -0.246 OA
BRANCH  29  31
ATOM     31  C   UNL     1       3.536  11.486  -4.236  1.00  0.00     0.060 A 
ATOM     32  C   UNL     1       4.608  10.734  -3.750  1.00  0.00     0.016 A 
ATOM     33  C   UNL     1       3.422  12.842  -3.932  1.00  0.00     0.016 A 
ATOM     34  C   UNL     1       5.564  11.331  -2.931  1.00  0.00     0.010 A 
ATOM     35  C   UNL     1       4.385  13.442  -3.114  1.00  0.00     0.010 A 
ATOM     36  C   UNL     1       5.444  12.683  -2.584  1.00  0.00    -0.014 A 
BRANCH  36  37
ATOM     37  C   UNL     1       6.370  13.274  -1.587  1.00  0.00     0.031 A 
ATOM     38  C   UNL     1       5.878  13.555  -0.193  1.00  0.00     0.074 A 
ATOM     39  C   UNL     1       7.643  13.552  -1.924  1.00  0.00     0.049 A 
ATOM     40  N   UNL     1       6.505  14.119   0.806  1.00  0.00    -0.248 NA
ATOM     41  C   UNL     1       4.496  13.151   0.115  1.00  0.00     0.031 C 
ATOM     42  C   UNL     1       8.238  13.320  -3.240  1.00  0.00     0.029 A 
ATOM     43  N   UNL     1       8.660  14.108  -1.189  1.00  0.00    -0.354 N 
ATOM     44  C   UNL     1       5.584  14.181   1.845  1.00  0.00     0.074 A 
ATOM     45  C   UNL     1       4.355  13.595   1.356  1.00  0.00     0.031 C 
ATOM     46  C   UNL     1       9.513  13.742  -3.223  1.00  0.00     0.029 A 
ATOM     47  C   UNL     1       9.817  14.298  -1.907  1.00  0.00     0.049 A 
ATOM     48  H   UNL     1       8.570  14.348  -0.238  1.00  0.00     0.167 HD
ATOM     49  C   UNL     1       5.751  14.665   3.098  1.00  0.00     0.034 A 
ATOM     50  C   UNL     1      10.984  14.868  -1.547  1.00  0.00     0.034 A 
ATOM     51  C   UNL     1       6.988  15.200   3.601  1.00  0.00     0.049 A 
ATOM     52  C   UNL     1      11.151  15.375  -0.139  1.00  0.00     0.074 A 
ATOM     53  C   UNL     1       7.265  15.688   4.866  1.00  0.00     0.029 A 
ATOM     54  N   UNL     1       8.159  15.307   2.865  1.00  0.00    -0.354 N 
ATOM     55  N   UNL     1      10.298  15.342   0.857  1.00  0.00    -0.248 NA
ATOM     56  C   UNL     1      12.451  15.969   0.205  1.00  0.00     0.031 C 
ATOM     57  C   UNL     1       8.606  16.089   4.896  1.00  0.00     0.029 A 
ATOM     58  C   UNL     1       9.163  15.846   3.651  1.00  0.00     0.049 A 
ATOM     59  H   UNL     1       8.260  15.040   1.923  1.00  0.00     0.167 HD
ATOM     60  C   UNL     1      10.966  15.881   1.950  1.00  0.00     0.074 A 
ATOM     61  C   UNL     1      12.303  16.213   1.500  1.00  0.00     0.031 C 
ATOM     62  C   UNL     1      10.508  16.104   3.206  1.00  0.00     0.034 A 
BRANCH  49  63
ATOM     63  C   UNL     1       4.574  14.600   4.032  1.00  0.00     0.023 A 
ATOM     64  C   UNL     1       4.224  13.367   4.619  1.00  0.00     0.012 A 
ATOM     65  C   UNL     1       3.845  15.757   4.368  1.00  0.00     0.148 A 
ATOM     66  C   UNL     1       3.152  13.282   5.506  1.00  0.00     0.002 A 
ATOM     67  C   UNL     1       2.799  15.671   5.280  1.00  0.00     0.091 A 
ATOM     68  F   UNL     1       4.174  16.915   3.778  1.00  0.00    -0.205 F 
ATOM     69  C   UNL     1       2.447  14.434   5.844  1.00  0.00     0.022 A 
BRANCH  67  70
ATOM     70  S   UNL     1       1.881  17.117   5.825  1.00  0.00     0.127 S 
ATOM     71  O   UNL     1       0.652  17.000   5.043  1.00  0.00    -0.237 OA
ATOM     72  O   UNL     1       1.718  16.864   7.257  1.00  0.00    -0.237 OA
ATOM     73  O   UNL     1       2.725  18.262   5.509  1.00  0.00    -0.744 OA
ENDBRANCH  67  70
ENDBRANCH  49  63
BRANCH  50  74
ATOM     74  C   UNL     1      12.107  14.933  -2.524  1.00  0.00     0.023 A 
ATOM     75  C   UNL     1      13.238  14.116  -2.330  1.00  0.00     0.012 A 
ATOM     76  C   UNL     1      12.049  15.766  -3.658  1.00  0.00     0.148 A 
ATOM     77  C   UNL     1      14.299  14.143  -3.236  1.00  0.00     0.002 A 
ATOM     78  C   UNL     1      13.085  15.749  -4.584  1.00  0.00     0.091 A 
ATOM     79  F   UNL     1      10.977  16.557  -3.813  1.00  0.00    -0.205 F 
ATOM     80  C   UNL     1      14.217  14.949  -4.368  1.00  0.00     0.022 A 
BRANCH  78  81
ATOM     81  S   UNL     1      12.992  16.656  -6.132  1.00  0.00     0.127 S 
ATOM     82  O   UNL     1      13.818  17.825  -5.846  1.00  0.00    -0.237 OA
ATOM     83  O   UNL     1      13.574  15.708  -7.083  1.00  0.00    -0.237 OA
ATOM     84  O   UNL     1      11.572  16.910  -6.341  1.00  0.00    -0.744 OA
ENDBRANCH  78  81
ENDBRANCH  50  74
BRANCH  62  85
ATOM     85  C   UNL     1      11.464  16.709   4.199  1.00  0.00     0.023 A 
ATOM     86  C   UNL     1      11.762  18.084   4.126  1.00  0.00     0.012 A 
ATOM     87  C   UNL     1      12.007  15.938   5.245  1.00  0.00     0.148 A 
ATOM     88  C   UNL     1      12.606  18.677   5.064  1.00  0.00     0.002 A 
ATOM     89  C   UNL     1      12.818  16.544   6.199  1.00  0.00     0.091 A 
ATOM     90  F   UNL     1      11.733  14.626   5.286  1.00  0.00    -0.205 F 
ATOM     91  C   UNL     1      13.124  17.911   6.106  1.00  0.00     0.022 A 
BRANCH  89  92
ATOM     92  S   UNL     1      13.450  15.635   7.614  1.00  0.00     0.127 S 
ATOM     93  O   UNL     1      14.783  15.252   7.155  1.00  0.00    -0.237 OA
ATOM     94  O   UNL     1      13.438  16.644   8.675  1.00  0.00    -0.237 OA
ATOM     95  O   UNL     1      12.510  14.540   7.823  1.00  0.00    -0.744 OA
ENDBRANCH  89  92
ENDBRANCH  62  85
ENDBRANCH  36  37
ENDBRANCH  29  31
ENDBRANCH  28  29
ENDBRANCH  27  28
ENDBRANCH   1  27
TORSDOF 19
