REMARK SMILES CC1=C(C(=O)OCCOC(=O)c2ccc(-c3c4nc(c(-c5cccc(S(=O)(=O)[O-])c5F)c5ccc([nH]5)c(-c5cccc(S(=O)(=O)[O-])c5F)c5nc(c(-c6cccc(S(=O)(=O)[O-])c6F)c6ccc3[nH]6)C=C5)C=C4)cc2)[C@H](c2ccc(Cl)cc2)n2ncnc2N1
REMARK SMILES IDX 8 1 7 2 6 3 4 4 5 5 3 6 1 7 2 8 88 9 75 10 87 11 83 13 86 14
REMARK SMILES IDX 84 15 85 16 76 17 77 18 82 19 78 20 81 21 79 22 80 23 9 24
REMARK SMILES IDX 10 25 11 26 12 27 13 28 74 29 14 30 73 31 15 32 16 33 17 34
REMARK SMILES IDX 67 35 18 36 72 37 66 38 68 39 19 40 71 41 65 42 64 43 20 45
REMARK SMILES IDX 52 46 32 47 51 48 33 49 36 50 50 51 69 52 34 53 35 54 49 56
REMARK SMILES IDX 70 57 37 58 21 59 22 60 30 61 23 62 25 63 31 64 24 65 26 66
REMARK SMILES IDX 27 67 28 68 29 69 53 70 54 71 62 72 55 73 57 74 63 75 56 76
REMARK SMILES IDX 58 77 59 78 60 79 61 80 38 81 39 82 47 83 40 84 42 85 48 86
REMARK SMILES IDX 41 87 43 88 44 89 45 90 46 91
REMARK H PARENT 88 12 68 44 36 55
REMARK Flexibility Score: inf
ROOT
ATOM      1  C   UNL     1      -0.247   3.761  -1.294  1.00  0.00     0.275 C 
ENDROOT
BRANCH   1   2
ATOM      2  C   UNL     1       1.178   3.314  -0.999  1.00  0.00     0.275 C 
BRANCH   2   3
ATOM      3  O   UNL     1       1.188   2.108  -0.207  1.00  0.00    -0.459 OA
BRANCH   3   4
ATOM      4  C   UNL     1       1.201   2.262   1.142  1.00  0.00     0.338 C 
ATOM      5  O   UNL     1       1.392   3.340   1.685  1.00  0.00    -0.246 OA
BRANCH   4   6
ATOM      6  C   UNL     1       0.816   1.020   1.885  1.00  0.00     0.085 C 
ATOM      7  C   UNL     1       1.308  -0.547  -0.064  1.00  0.00     0.065 C 
ATOM      8  C   UNL     1       0.848  -0.228   1.338  1.00  0.00     0.028 C 
ATOM      9  N   UNL     1       0.368  -1.321   2.049  1.00  0.00    -0.328 N 
ATOM     10  C   UNL     1       0.173   1.249   3.279  1.00  0.00     0.181 C 
ATOM     11  C   UNL     1      -0.319  -1.213   3.196  1.00  0.00     0.226 A 
ATOM     12  H   UNL     1       0.541  -2.222   1.692  1.00  0.00     0.169 HD
ATOM     13  N   UNL     1      -0.498   0.022   3.755  1.00  0.00    -0.219 N 
ATOM     14  N   UNL     1      -0.902  -2.125   3.931  1.00  0.00    -0.200 NA
ATOM     15  N   UNL     1      -1.272  -0.060   4.862  1.00  0.00    -0.157 NA
ATOM     16  C   UNL     1      -1.485  -1.380   4.922  1.00  0.00     0.248 A 
BRANCH  10  17
ATOM     17  C   UNL     1       1.125   1.793   4.362  1.00  0.00    -0.018 A 
ATOM     18  C   UNL     1       1.794   0.963   5.281  1.00  0.00     0.008 A 
ATOM     19  C   UNL     1       1.338   3.180   4.471  1.00  0.00     0.008 A 
ATOM     20  C   UNL     1       2.668   1.498   6.233  1.00  0.00     0.021 A 
ATOM     21  C   UNL     1       2.260   3.711   5.377  1.00  0.00     0.021 A 
ATOM     22  C   UNL     1       2.924   2.865   6.254  1.00  0.00     0.041 A 
ATOM     23  Cl  UNL     1       4.066   3.509   7.368  1.00  0.00    -0.084 Cl
ENDBRANCH  10  17
ENDBRANCH   4   6
ENDBRANCH   3   4
ENDBRANCH   2   3
ENDBRANCH   1   2
BRANCH   1  24
ATOM     24  O   UNL     1      -0.872   4.244  -0.108  1.00  0.00    -0.458 OA
BRANCH  24  25
ATOM     25  C   UNL     1      -1.562   3.322   0.595  1.00  0.00     0.338 C 
ATOM     26  O   UNL     1      -1.523   2.110   0.465  1.00  0.00    -0.246 OA
BRANCH  25  27
ATOM     27  C   UNL     1      -2.543   3.995   1.444  1.00  0.00     0.060 A 
ATOM     28  C   UNL     1      -3.370   3.165   2.211  1.00  0.00     0.016 A 
ATOM     29  C   UNL     1      -2.862   5.329   1.162  1.00  0.00     0.016 A 
ATOM     30  C   UNL     1      -4.642   3.600   2.487  1.00  0.00     0.010 A 
ATOM     31  C   UNL     1      -4.141   5.747   1.408  1.00  0.00     0.010 A 
ATOM     32  C   UNL     1      -5.030   4.839   1.981  1.00  0.00    -0.014 A 
BRANCH  32  33
ATOM     33  C   UNL     1      -6.425   5.194   2.053  1.00  0.00     0.031 A 
ATOM     34  C   UNL     1      -6.826   5.712   3.378  1.00  0.00     0.074 A 
ATOM     35  C   UNL     1      -7.176   5.171   0.935  1.00  0.00     0.049 A 
ATOM     36  N   UNL     1      -7.718   5.236   4.181  1.00  0.00    -0.248 NA
ATOM     37  C   UNL     1      -6.008   6.790   3.957  1.00  0.00     0.031 C 
ATOM     38  C   UNL     1      -6.724   4.968  -0.448  1.00  0.00     0.029 A 
ATOM     39  N   UNL     1      -8.476   5.526   0.784  1.00  0.00    -0.354 N 
ATOM     40  C   UNL     1      -7.710   6.090   5.282  1.00  0.00     0.074 A 
ATOM     41  C   UNL     1      -6.509   6.871   5.187  1.00  0.00     0.031 C 
ATOM     42  C   UNL     1      -7.645   5.491  -1.287  1.00  0.00     0.029 A 
ATOM     43  C   UNL     1      -8.777   5.955  -0.503  1.00  0.00     0.049 A 
ATOM     44  H   UNL     1      -9.138   5.483   1.510  1.00  0.00     0.167 HD
ATOM     45  C   UNL     1      -8.815   6.270   6.051  1.00  0.00     0.034 A 
ATOM     46  C   UNL     1      -9.804   6.772  -0.845  1.00  0.00     0.034 A 
ATOM     47  C   UNL     1      -9.784   5.232   5.824  1.00  0.00     0.049 A 
ATOM     48  C   UNL     1     -10.772   6.760   0.282  1.00  0.00     0.074 A 
ATOM     49  C   UNL     1      -9.792   3.861   5.985  1.00  0.00     0.029 A 
ATOM     50  N   UNL     1     -10.830   5.528   4.984  1.00  0.00    -0.354 N 
ATOM     51  N   UNL     1     -11.445   5.701   0.643  1.00  0.00    -0.248 NA
ATOM     52  C   UNL     1     -10.639   7.790   1.302  1.00  0.00     0.031 C 
ATOM     53  C   UNL     1     -10.538   3.369   4.877  1.00  0.00     0.029 A 
ATOM     54  C   UNL     1     -10.989   4.464   4.136  1.00  0.00     0.049 A 
ATOM     55  H   UNL     1     -11.367   6.354   4.989  1.00  0.00     0.167 HD
ATOM     56  C   UNL     1     -11.428   5.732   2.033  1.00  0.00     0.074 A 
ATOM     57  C   UNL     1     -11.010   7.090   2.379  1.00  0.00     0.031 C 
ATOM     58  C   UNL     1     -11.449   4.582   2.769  1.00  0.00     0.034 A 
BRANCH  45  59
ATOM     59  C   UNL     1      -9.185   7.561   6.741  1.00  0.00     0.023 A 
ATOM     60  C   UNL     1     -10.302   7.524   7.604  1.00  0.00     0.012 A 
ATOM     61  C   UNL     1      -8.689   8.839   6.391  1.00  0.00     0.148 A 
ATOM     62  C   UNL     1     -10.931   8.694   8.040  1.00  0.00     0.002 A 
ATOM     63  C   UNL     1      -9.269   9.998   6.891  1.00  0.00     0.091 A 
ATOM     64  F   UNL     1      -7.737   8.965   5.463  1.00  0.00    -0.205 F 
ATOM     65  C   UNL     1     -10.412   9.933   7.688  1.00  0.00     0.022 A 
BRANCH  63  66
ATOM     66  S   UNL     1      -8.604  11.622   6.500  1.00  0.00     0.127 S 
ATOM     67  O   UNL     1      -9.558  12.097   5.502  1.00  0.00    -0.237 OA
ATOM     68  O   UNL     1      -8.674  12.297   7.796  1.00  0.00    -0.237 OA
ATOM     69  O   UNL     1      -7.245  11.383   6.028  1.00  0.00    -0.744 OA
ENDBRANCH  63  66
ENDBRANCH  45  59
BRANCH  46  70
ATOM     70  C   UNL     1      -9.811   7.824  -1.892  1.00  0.00     0.023 A 
ATOM     71  C   UNL     1     -11.034   8.307  -2.393  1.00  0.00     0.012 A 
ATOM     72  C   UNL     1      -8.631   8.527  -2.232  1.00  0.00     0.148 A 
ATOM     73  C   UNL     1     -11.079   9.454  -3.198  1.00  0.00     0.002 A 
ATOM     74  C   UNL     1      -8.678   9.650  -3.050  1.00  0.00     0.091 A 
ATOM     75  F   UNL     1      -7.471   8.157  -1.674  1.00  0.00    -0.205 F 
ATOM     76  C   UNL     1      -9.903  10.125  -3.527  1.00  0.00     0.022 A 
BRANCH  74  77
ATOM     77  S   UNL     1      -7.190  10.553  -3.506  1.00  0.00     0.127 S 
ATOM     78  O   UNL     1      -7.399  10.784  -4.936  1.00  0.00    -0.237 OA
ATOM     79  O   UNL     1      -7.291  11.745  -2.670  1.00  0.00    -0.237 OA
ATOM     80  O   UNL     1      -6.079   9.657  -3.206  1.00  0.00    -0.744 OA
ENDBRANCH  74  77
ENDBRANCH  46  70
BRANCH  58  81
ATOM     81  C   UNL     1     -11.698   3.276   2.054  1.00  0.00     0.023 A 
ATOM     82  C   UNL     1     -10.786   2.753   1.112  1.00  0.00     0.012 A 
ATOM     83  C   UNL     1     -12.743   2.458   2.511  1.00  0.00     0.148 A 
ATOM     84  C   UNL     1     -10.920   1.448   0.631  1.00  0.00     0.002 A 
ATOM     85  C   UNL     1     -12.843   1.145   2.070  1.00  0.00     0.091 A 
ATOM     86  F   UNL     1     -13.599   2.968   3.411  1.00  0.00    -0.205 F 
ATOM     87  C   UNL     1     -11.939   0.638   1.123  1.00  0.00     0.022 A 
BRANCH  85  88
ATOM     88  S   UNL     1     -14.037   0.011   2.781  1.00  0.00     0.127 S 
ATOM     89  O   UNL     1     -15.050  -0.065   1.731  1.00  0.00    -0.237 OA
ATOM     90  O   UNL     1     -13.248  -1.210   2.959  1.00  0.00    -0.237 OA
ATOM     91  O   UNL     1     -14.472   0.622   4.032  1.00  0.00    -0.744 OA
ENDBRANCH  85  88
ENDBRANCH  58  81
ENDBRANCH  32  33
ENDBRANCH  25  27
ENDBRANCH  24  25
ENDBRANCH   1  24
TORSDOF 15
