REMARK SMILES O=C(OCCOC(=O)c1cc(-c2ccn(C(F)F)c(=O)c2)ccc1O)c1ccc(-c2c3nc(c(-c4cccc(S(=O)(=O)[O-])c4F)c4ccc([nH]4)c(-c4cccc(S(=O)(=O)[O-])c4F)c4nc(c(-c5cccc(S(=O)(=O)[O-])c5F)c5ccc2[nH]5)C=C4)C=C3)cc1
REMARK SMILES IDX 4 1 3 2 2 3 1 4 26 5 27 6 88 7 28 8 87 9 29 10 30 11 31 12
REMARK SMILES IDX 81 13 32 14 86 15 80 16 82 17 33 18 85 19 79 20 78 21 34 23
REMARK SMILES IDX 66 24 46 25 65 26 47 27 50 28 64 29 83 30 48 31 49 32 63 34
REMARK SMILES IDX 84 35 51 36 35 37 36 38 44 39 37 40 39 41 45 42 38 43 40 44
REMARK SMILES IDX 41 45 42 46 43 47 67 48 68 49 76 50 69 51 71 52 77 53 70 54
REMARK SMILES IDX 72 55 73 56 74 57 75 58 52 59 53 60 61 61 54 62 56 63 62 64
REMARK SMILES IDX 55 65 57 66 58 67 59 68 60 69 5 70 6 71 7 72 8 73 9 74 10 75
REMARK SMILES IDX 24 76 11 77 23 78 22 79 25 80 12 82 13 83 21 84 14 85 19 86
REMARK SMILES IDX 15 87 20 88 16 89 17 90 18 91
REMARK H PARENT 82 22 50 33 25 81
REMARK Flexibility Score: inf
ROOT
ATOM      1  C   UNL     1       4.335  -0.369  -1.321  1.00  0.00     0.275 C 
ENDROOT
BRANCH   1   2
ATOM      2  O   UNL     1       3.303  -1.045  -0.585  1.00  0.00    -0.458 OA
BRANCH   2   3
ATOM      3  C   UNL     1       3.051  -1.054   0.745  1.00  0.00     0.338 C 
ATOM      4  O   UNL     1       2.162  -1.797   1.162  1.00  0.00    -0.246 OA
BRANCH   3   5
ATOM      5  C   UNL     1       3.686  -0.112   1.722  1.00  0.00     0.060 A 
ATOM      6  C   UNL     1       2.894   0.239   2.824  1.00  0.00     0.016 A 
ATOM      7  C   UNL     1       4.968   0.438   1.652  1.00  0.00     0.016 A 
ATOM      8  C   UNL     1       3.308   1.210   3.740  1.00  0.00     0.010 A 
ATOM      9  C   UNL     1       5.400   1.397   2.582  1.00  0.00     0.010 A 
ATOM     10  C   UNL     1       4.561   1.819   3.614  1.00  0.00    -0.014 A 
BRANCH  10  11
ATOM     11  C   UNL     1       5.021   2.773   4.652  1.00  0.00     0.031 A 
ATOM     12  C   UNL     1       5.211   4.235   4.373  1.00  0.00     0.074 A 
ATOM     13  C   UNL     1       5.265   2.290   5.885  1.00  0.00     0.049 A 
ATOM     14  N   UNL     1       5.317   5.220   5.229  1.00  0.00    -0.248 NA
ATOM     15  C   UNL     1       5.275   4.663   2.968  1.00  0.00     0.031 C 
ATOM     16  C   UNL     1       5.184   0.875   6.257  1.00  0.00     0.029 A 
ATOM     17  N   UNL     1       5.633   2.921   7.042  1.00  0.00    -0.354 N 
ATOM     18  C   UNL     1       5.410   6.380   4.473  1.00  0.00     0.074 A 
ATOM     19  C   UNL     1       5.378   5.984   3.083  1.00  0.00     0.031 C 
ATOM     20  C   UNL     1       5.480   0.748   7.557  1.00  0.00     0.029 A 
ATOM     21  C   UNL     1       5.791   2.064   8.103  1.00  0.00     0.049 A 
ATOM     22  H   UNL     1       5.771   3.894   7.107  1.00  0.00     0.167 HD
ATOM     23  C   UNL     1       5.506   7.658   4.906  1.00  0.00     0.034 A 
ATOM     24  C   UNL     1       6.148   2.306   9.379  1.00  0.00     0.034 A 
ATOM     25  C   UNL     1       5.679   8.026   6.284  1.00  0.00     0.049 A 
ATOM     26  C   UNL     1       6.383   3.720   9.812  1.00  0.00     0.074 A 
ATOM     27  C   UNL     1       5.764   9.294   6.830  1.00  0.00     0.029 A 
ATOM     28  N   UNL     1       5.884   7.127   7.318  1.00  0.00    -0.354 N 
ATOM     29  N   UNL     1       6.216   4.822   9.121  1.00  0.00    -0.248 NA
ATOM     30  C   UNL     1       6.836   3.933  11.192  1.00  0.00     0.031 C 
ATOM     31  C   UNL     1       6.089   9.161   8.182  1.00  0.00     0.029 A 
ATOM     32  C   UNL     1       6.169   7.810   8.485  1.00  0.00     0.049 A 
ATOM     33  H   UNL     1       5.835   6.147   7.234  1.00  0.00     0.167 HD
ATOM     34  C   UNL     1       6.528   5.863   9.984  1.00  0.00     0.074 A 
ATOM     35  C   UNL     1       6.890   5.260  11.252  1.00  0.00     0.031 C 
ATOM     36  C   UNL     1       6.515   7.195   9.742  1.00  0.00     0.034 A 
BRANCH  23  37
ATOM     37  C   UNL     1       5.415   8.768   3.896  1.00  0.00     0.023 A 
ATOM     38  C   UNL     1       4.141   9.213   3.490  1.00  0.00     0.012 A 
ATOM     39  C   UNL     1       6.563   9.452   3.455  1.00  0.00     0.148 A 
ATOM     40  C   UNL     1       4.010  10.325   2.657  1.00  0.00     0.002 A 
ATOM     41  C   UNL     1       6.425  10.568   2.638  1.00  0.00     0.091 A 
ATOM     42  F   UNL     1       7.762   9.002   3.851  1.00  0.00    -0.205 F 
ATOM     43  C   UNL     1       5.150  11.006   2.239  1.00  0.00     0.022 A 
BRANCH  41  44
ATOM     44  S   UNL     1       7.824  11.534   2.061  1.00  0.00     0.127 S 
ATOM     45  O   UNL     1       7.744  11.326   0.615  1.00  0.00    -0.237 OA
ATOM     46  O   UNL     1       7.470  12.881   2.506  1.00  0.00    -0.237 OA
ATOM     47  O   UNL     1       9.000  10.961   2.701  1.00  0.00    -0.744 OA
ENDBRANCH  41  44
ENDBRANCH  23  37
BRANCH  24  48
ATOM     48  C   UNL     1       6.235   1.155  10.315  1.00  0.00     0.023 A 
ATOM     49  C   UNL     1       5.180   0.919  11.214  1.00  0.00     0.012 A 
ATOM     50  C   UNL     1       7.274   0.210  10.198  1.00  0.00     0.148 A 
ATOM     51  C   UNL     1       5.150  -0.252  11.972  1.00  0.00     0.002 A 
ATOM     52  C   UNL     1       7.217  -0.972  10.925  1.00  0.00     0.091 A 
ATOM     53  F   UNL     1       8.264   0.464   9.330  1.00  0.00    -0.205 F 
ATOM     54  C   UNL     1       6.157  -1.203  11.817  1.00  0.00     0.022 A 
BRANCH  52  55
ATOM     55  S   UNL     1       8.400  -2.304  10.700  1.00  0.00     0.127 S 
ATOM     56  O   UNL     1       9.063  -2.336  12.002  1.00  0.00    -0.237 OA
ATOM     57  O   UNL     1       7.523  -3.443  10.426  1.00  0.00    -0.237 OA
ATOM     58  O   UNL     1       9.241  -1.905   9.579  1.00  0.00    -0.744 OA
ENDBRANCH  52  55
ENDBRANCH  24  48
BRANCH  36  59
ATOM     59  C   UNL     1       6.921   8.123  10.849  1.00  0.00     0.023 A 
ATOM     60  C   UNL     1       8.290   8.340  11.096  1.00  0.00     0.012 A 
ATOM     61  C   UNL     1       5.957   8.908  11.509  1.00  0.00     0.148 A 
ATOM     62  C   UNL     1       8.694   9.336  11.984  1.00  0.00     0.002 A 
ATOM     63  C   UNL     1       6.368   9.923  12.362  1.00  0.00     0.091 A 
ATOM     64  F   UNL     1       4.662   8.675  11.251  1.00  0.00    -0.205 F 
ATOM     65  C   UNL     1       7.736  10.136  12.603  1.00  0.00     0.022 A 
BRANCH  63  66
ATOM     66  S   UNL     1       5.216  11.065  13.133  1.00  0.00     0.127 S 
ATOM     67  O   UNL     1       5.439  10.800  14.553  1.00  0.00    -0.237 OA
ATOM     68  O   UNL     1       5.712  12.360  12.667  1.00  0.00    -0.237 OA
ATOM     69  O   UNL     1       3.894  10.702  12.640  1.00  0.00    -0.744 OA
ENDBRANCH  63  66
ENDBRANCH  36  59
ENDBRANCH  10  11
ENDBRANCH   3   5
ENDBRANCH   2   3
ENDBRANCH   1   2
BRANCH   1  70
ATOM     70  C   UNL     1       4.012   1.077  -1.698  1.00  0.00     0.275 C 
BRANCH  70  71
ATOM     71  O   UNL     1       3.492   1.844  -0.605  1.00  0.00    -0.458 OA
BRANCH  71  72
ATOM     72  C   UNL     1       2.146   2.049  -0.610  1.00  0.00     0.342 C 
ATOM     73  O   UNL     1       1.347   1.610  -1.411  1.00  0.00    -0.246 OA
BRANCH  72  74
ATOM     74  C   UNL     1       1.747   2.783   0.612  1.00  0.00     0.102 A 
ATOM     75  C   UNL     1       0.719   2.236   1.402  1.00  0.00     0.028 A 
ATOM     76  C   UNL     1       2.345   3.990   0.983  1.00  0.00     0.130 A 
ATOM     77  C   UNL     1       0.343   2.860   2.601  1.00  0.00    -0.017 A 
ATOM     78  C   UNL     1       1.964   4.621   2.167  1.00  0.00     0.048 A 
ATOM     79  C   UNL     1       0.984   4.047   2.980  1.00  0.00     0.012 A 
BRANCH  76  80
ATOM     80  O   UNL     1       3.285   4.574   0.181  1.00  0.00    -0.507 OA
ATOM     81  H   UNL     1       3.545   4.156  -0.616  1.00  0.00     0.293 HD
ENDBRANCH  76  80
BRANCH  77  82
ATOM     82  C   UNL     1      -0.738   2.331   3.456  1.00  0.00    -0.011 A 
ATOM     83  C   UNL     1      -2.027   2.990   3.538  1.00  0.00     0.027 A 
ATOM     84  C   UNL     1      -0.514   1.260   4.236  1.00  0.00     0.080 A 
ATOM     85  C   UNL     1      -2.967   2.553   4.384  1.00  0.00     0.095 A 
ATOM     86  C   UNL     1      -1.557   0.743   5.166  1.00  0.00     0.255 A 
ATOM     87  N   UNL     1      -2.745   1.453   5.190  1.00  0.00    -0.258 N 
ATOM     88  O   UNL     1      -1.308  -0.252   5.839  1.00  0.00    -0.269 OA
BRANCH  87  89
ATOM     89  C   UNL     1      -3.756   0.999   6.107  1.00  0.00     0.451 C 
ATOM     90  F   UNL     1      -4.136  -0.274   5.832  1.00  0.00    -0.185 F 
ATOM     91  F   UNL     1      -3.317   1.038   7.388  1.00  0.00    -0.185 F 
ENDBRANCH  87  89
ENDBRANCH  77  82
ENDBRANCH  72  74
ENDBRANCH  71  72
ENDBRANCH  70  71
ENDBRANCH   1  70
TORSDOF 17
