REMARK SMILES O=C(OCCOC(=O)c1ccc(-c2c3nc(c(-c4cccc(S(=O)(=O)[O-])c4F)c4ccc([nH]4)c(-c4cccc(S(=O)(=O)[O-])c4F)c4nc(c(-c5cccc(S(=O)(=O)[O-])c5F)c5ccc2[nH]5)C=C4)C=C3)cc1)C1=Cc2cc(Cl)cc(-c3ccccc3)c2O[C@@H]1C(F)(F)F
REMARK SMILES IDX 5 1 4 2 3 3 2 4 1 5 72 6 73 7 88 8 74 9 87 10 75 11 86 12
REMARK SMILES IDX 76 13 79 14 77 15 78 16 89 17 90 18 91 19 92 20 80 21 81 22
REMARK SMILES IDX 85 23 82 24 84 25 83 26 6 27 7 28 8 29 9 30 10 31 71 32
REMARK SMILES IDX 11 33 70 34 12 35 13 36 14 37 64 38 15 39 69 40 63 41 65 42
REMARK SMILES IDX 16 43 68 44 62 45 61 46 17 48 49 49 29 50 48 51 30 52 33 53
REMARK SMILES IDX 47 54 66 55 31 56 32 57 46 59 67 60 34 61 18 62 19 63 27 64
REMARK SMILES IDX 20 65 22 66 28 67 21 68 23 69 24 70 25 71 26 72 50 73 51 74
REMARK SMILES IDX 59 75 52 76 54 77 60 78 53 79 55 80 56 81 57 82 58 83 35 84
REMARK SMILES IDX 36 85 44 86 37 87 39 88 45 89 38 90 40 91 41 92 42 93 43 94
REMARK H PARENT 65 47 33 58
REMARK Flexibility Score: inf
ROOT
ATOM      1  C   UNL     1       4.821   0.665  -0.530  1.00  0.00     0.275 C 
ENDROOT
BRANCH   1   2
ATOM      2  C   UNL     1       4.037  -0.456   1.148  1.00  0.00     0.275 C 
BRANCH   2   3
ATOM      3  O   UNL     1       3.136   0.093   2.289  1.00  0.00    -0.459 OA
BRANCH   3   4
ATOM      4  C   UNL     1       3.297   1.406   2.503  1.00  0.00     0.338 C 
ATOM      5  O   UNL     1       2.656   2.152   3.196  1.00  0.00    -0.246 OA
BRANCH   4   6
ATOM      6  C   UNL     1       4.153   1.615   1.359  1.00  0.00     0.087 C 
ATOM      7  C   UNL     1       5.525   1.196   1.589  1.00  0.00     0.027 C 
ATOM      8  C   UNL     1       2.942   0.853   0.072  1.00  0.00     0.316 C 
ATOM      9  C   UNL     1       6.244  -0.260   0.833  1.00  0.00     0.019 A 
ATOM     10  O   UNL     1       3.664  -0.780  -0.692  1.00  0.00    -0.475 OA
ATOM     11  C   UNL     1       7.479  -0.619   1.302  1.00  0.00     0.032 A 
ATOM     12  C   UNL     1       5.338  -1.338  -0.196  1.00  0.00     0.135 A 
ATOM     13  C   UNL     1       7.906  -1.882   0.905  1.00  0.00     0.042 A 
ATOM     14  C   UNL     1       5.820  -2.600  -0.472  1.00  0.00     0.026 A 
ATOM     15  Cl  UNL     1       9.442  -2.419   1.502  1.00  0.00    -0.084 Cl
ATOM     16  C   UNL     1       7.134  -2.796   0.091  1.00  0.00     0.033 A 
BRANCH   8  17
ATOM     17  C   UNL     1       2.505   2.292  -0.485  1.00  0.00     0.430 C 
ATOM     18  F   UNL     1       1.220   2.294  -0.861  1.00  0.00    -0.167 F 
ATOM     19  F   UNL     1       2.526   3.197   0.543  1.00  0.00    -0.167 F 
ATOM     20  F   UNL     1       3.289   2.888  -1.395  1.00  0.00    -0.167 F 
ENDBRANCH   8  17
BRANCH  14  21
ATOM     21  C   UNL     1       5.198  -3.765  -1.085  1.00  0.00    -0.015 A 
ATOM     22  C   UNL     1       4.966  -4.911  -0.290  1.00  0.00     0.009 A 
ATOM     23  C   UNL     1       5.061  -3.885  -2.469  1.00  0.00     0.009 A 
ATOM     24  C   UNL     1       4.628  -6.139  -0.861  1.00  0.00     0.001 A 
ATOM     25  C   UNL     1       4.722  -5.116  -3.042  1.00  0.00     0.001 A 
ATOM     26  C   UNL     1       4.512  -6.241  -2.242  1.00  0.00     0.000 A 
ENDBRANCH  14  21
ENDBRANCH   4   6
ENDBRANCH   3   4
ENDBRANCH   2   3
ENDBRANCH   1   2
BRANCH   1  27
ATOM     27  O   UNL     1       3.989   0.906  -2.049  1.00  0.00    -0.458 OA
BRANCH  27  28
ATOM     28  C   UNL     1       3.056   0.369  -2.910  1.00  0.00     0.338 C 
ATOM     29  O   UNL     1       2.606  -0.762  -2.948  1.00  0.00    -0.246 OA
BRANCH  28  30
ATOM     30  C   UNL     1       2.341   1.531  -3.552  1.00  0.00     0.060 A 
ATOM     31  C   UNL     1       0.982   1.740  -3.244  1.00  0.00     0.016 A 
ATOM     32  C   UNL     1       3.081   2.580  -4.096  1.00  0.00     0.016 A 
ATOM     33  C   UNL     1       0.458   3.053  -3.224  1.00  0.00     0.010 A 
ATOM     34  C   UNL     1       2.549   3.878  -4.089  1.00  0.00     0.010 A 
ATOM     35  C   UNL     1       1.270   4.144  -3.564  1.00  0.00    -0.014 A 
BRANCH  35  36
ATOM     36  C   UNL     1       0.764   5.550  -3.571  1.00  0.00     0.031 A 
ATOM     37  C   UNL     1       0.168   6.025  -4.862  1.00  0.00     0.074 A 
ATOM     38  C   UNL     1       0.925   6.426  -2.550  1.00  0.00     0.049 A 
ATOM     39  N   UNL     1      -0.240   7.216  -5.205  1.00  0.00    -0.248 NA
ATOM     40  C   UNL     1       0.050   5.010  -5.923  1.00  0.00     0.031 C 
ATOM     41  C   UNL     1       1.511   6.131  -1.244  1.00  0.00     0.029 A 
ATOM     42  N   UNL     1       0.636   7.776  -2.472  1.00  0.00    -0.354 N 
ATOM     43  C   UNL     1      -0.629   7.100  -6.531  1.00  0.00     0.074 A 
ATOM     44  C   UNL     1      -0.384   5.735  -6.937  1.00  0.00     0.031 C 
ATOM     45  C   UNL     1       1.569   7.263  -0.511  1.00  0.00     0.029 A 
ATOM     46  C   UNL     1       1.039   8.378  -1.294  1.00  0.00     0.049 A 
ATOM     47  H   UNL     1       0.183   8.268  -3.195  1.00  0.00     0.167 HD
ATOM     48  C   UNL     1      -1.159   8.037  -7.347  1.00  0.00     0.034 A 
ATOM     49  C   UNL     1       0.994   9.674  -0.903  1.00  0.00     0.034 A 
ATOM     50  C   UNL     1      -1.400   9.396  -6.965  1.00  0.00     0.049 A 
ATOM     51  C   UNL     1       0.403  10.708  -1.845  1.00  0.00     0.074 A 
ATOM     52  C   UNL     1      -1.976  10.405  -7.712  1.00  0.00     0.029 A 
ATOM     53  N   UNL     1      -1.056   9.942  -5.740  1.00  0.00    -0.354 N 
ATOM     54  N   UNL     1      -0.120  10.543  -3.036  1.00  0.00    -0.248 NA
ATOM     55  C   UNL     1       0.366  12.106  -1.375  1.00  0.00     0.031 C 
ATOM     56  C   UNL     1      -1.954  11.575  -6.948  1.00  0.00     0.029 A 
ATOM     57  C   UNL     1      -1.398  11.280  -5.712  1.00  0.00     0.049 A 
ATOM     58  H   UNL     1      -0.632   9.450  -5.000  1.00  0.00     0.167 HD
ATOM     59  C   UNL     1      -0.587  11.795  -3.432  1.00  0.00     0.074 A 
ATOM     60  C   UNL     1      -0.305  12.709  -2.347  1.00  0.00     0.031 C 
ATOM     61  C   UNL     1      -1.181  12.161  -4.595  1.00  0.00     0.034 A 
BRANCH  48  62
ATOM     62  C   UNL     1      -1.521   7.593  -8.733  1.00  0.00     0.023 A 
ATOM     63  C   UNL     1      -2.620   6.730  -8.920  1.00  0.00     0.012 A 
ATOM     64  C   UNL     1      -0.765   8.013  -9.841  1.00  0.00     0.148 A 
ATOM     65  C   UNL     1      -2.935   6.253 -10.189  1.00  0.00     0.002 A 
ATOM     66  C   UNL     1      -1.117   7.574 -11.110  1.00  0.00     0.091 A 
ATOM     67  F   UNL     1       0.292   8.810  -9.631  1.00  0.00    -0.205 F 
ATOM     68  C   UNL     1      -2.189   6.681 -11.284  1.00  0.00     0.022 A 
BRANCH  66  69
ATOM     69  S   UNL     1      -0.266   8.118 -12.593  1.00  0.00     0.127 S 
ATOM     70  O   UNL     1       0.307   6.864 -13.081  1.00  0.00    -0.237 OA
ATOM     71  O   UNL     1      -1.370   8.639 -13.398  1.00  0.00    -0.237 OA
ATOM     72  O   UNL     1       0.704   9.114 -12.162  1.00  0.00    -0.744 OA
ENDBRANCH  66  69
ENDBRANCH  48  62
BRANCH  49  73
ATOM     73  C   UNL     1       1.476  10.117   0.449  1.00  0.00     0.023 A 
ATOM     74  C   UNL     1       0.548  10.645   1.375  1.00  0.00     0.012 A 
ATOM     75  C   UNL     1       2.843  10.116   0.795  1.00  0.00     0.148 A 
ATOM     76  C   UNL     1       0.972  11.213   2.580  1.00  0.00     0.002 A 
ATOM     77  C   UNL     1       3.254  10.636   2.023  1.00  0.00     0.091 A 
ATOM     78  F   UNL     1       3.723   9.636  -0.095  1.00  0.00    -0.205 F 
ATOM     79  C   UNL     1       2.324  11.205   2.906  1.00  0.00     0.022 A 
BRANCH  77  80
ATOM     80  S   UNL     1       4.965  10.592   2.577  1.00  0.00     0.127 S 
ATOM     81  O   UNL     1       5.332  12.006   2.536  1.00  0.00    -0.237 OA
ATOM     82  O   UNL     1       4.833  10.032   3.922  1.00  0.00    -0.237 OA
ATOM     83  O   UNL     1       5.663   9.731   1.632  1.00  0.00    -0.744 OA
ENDBRANCH  77  80
ENDBRANCH  49  73
BRANCH  61  84
ATOM     84  C   UNL     1      -1.629  13.592  -4.756  1.00  0.00     0.023 A 
ATOM     85  C   UNL     1      -0.679  14.614  -4.943  1.00  0.00     0.012 A 
ATOM     86  C   UNL     1      -3.003  13.899  -4.851  1.00  0.00     0.148 A 
ATOM     87  C   UNL     1      -1.089  15.923  -5.198  1.00  0.00     0.002 A 
ATOM     88  C   UNL     1      -3.402  15.193  -5.160  1.00  0.00     0.091 A 
ATOM     89  F   UNL     1      -3.892  12.914  -4.656  1.00  0.00    -0.205 F 
ATOM     90  C   UNL     1      -2.447  16.209  -5.322  1.00  0.00     0.022 A 
BRANCH  88  91
ATOM     91  S   UNL     1      -5.120  15.627  -5.454  1.00  0.00     0.127 S 
ATOM     92  O   UNL     1      -5.429  16.434  -4.275  1.00  0.00    -0.237 OA
ATOM     93  O   UNL     1      -5.040  16.381  -6.705  1.00  0.00    -0.237 OA
ATOM     94  O   UNL     1      -5.844  14.367  -5.554  1.00  0.00    -0.744 OA
ENDBRANCH  88  91
ENDBRANCH  61  84
ENDBRANCH  35  36
ENDBRANCH  28  30
ENDBRANCH  27  28
ENDBRANCH   1  27
TORSDOF 16
