REMARK SMILES CCC(=O)Nc1ccc(NC(=O)[C@@H]2CC=CC[C@@H]2C(=O)OCCOC(=O)c2ccc(-c3c4nc(c(-c5cccc(S(=O)(=O)[O-])c5F)c5ccc([nH]5)c(-c5cccc(S(=O)(=O)[O-])c5F)c5nc(c(-c6cccc(S(=O)(=O)[O-])c6F)c6ccc3[nH]6)C=C5)C=C4)cc2)cc1
REMARK SMILES IDX 22 1 21 2 19 3 20 4 18 5 13 6 14 7 15 8 17 9 16 10 11 11
REMARK SMILES IDX 10 12 12 14 9 15 6 16 7 17 91 18 8 19 90 20 5 21 3 22 4 23
REMARK SMILES IDX 2 25 1 26 23 27 24 28 25 29 26 30 27 31 28 32 89 33 29 34
REMARK SMILES IDX 88 35 30 36 31 37 32 38 82 39 33 40 87 41 81 42 83 43 34 44
REMARK SMILES IDX 86 45 80 46 79 47 35 49 67 50 47 51 66 52 48 53 51 54 65 55
REMARK SMILES IDX 84 56 49 57 50 58 64 60 85 61 52 62 36 63 37 64 45 65 38 66
REMARK SMILES IDX 40 67 46 68 39 69 41 70 42 71 43 72 44 73 68 74 69 75 77 76
REMARK SMILES IDX 70 77 72 78 78 79 71 80 73 81 74 82 75 83 76 84 53 85 54 86
REMARK SMILES IDX 62 87 55 88 57 89 63 90 56 91 58 92 59 93 60 94 61 95
REMARK H PARENT 10 13 5 24 83 48 51 59
REMARK Flexibility Score: inf
ROOT
ATOM      1  C   UNL     1      12.119   0.246   3.748  1.00  0.00     0.274 C 
ENDROOT
BRANCH   1   2
ATOM      2  O   UNL     1      10.778   0.001   3.212  1.00  0.00    -0.462 OA
BRANCH   2   3
ATOM      3  C   UNL     1       9.768   0.155   4.121  1.00  0.00     0.310 C 
ATOM      4  O   UNL     1       9.986   0.516   5.278  1.00  0.00    -0.252 OA
BRANCH   3   5
ATOM      5  C   UNL     1       8.328  -0.189   3.626  1.00  0.00     0.116 C 
ATOM      6  C   UNL     1       7.493   0.519   2.487  1.00  0.00     0.097 C 
ATOM      7  C   UNL     1       6.567   1.719   2.842  1.00  0.00     0.041 C 
ATOM      8  C   UNL     1       6.429   2.021   4.298  1.00  0.00    -0.030 C 
ATOM      9  C   UNL     1       7.437  -0.170   4.916  1.00  0.00     0.043 C 
ATOM     10  C   UNL     1       6.845   1.174   5.245  1.00  0.00    -0.030 C 
BRANCH   6  11
ATOM     11  C   UNL     1       7.978   0.671   1.037  1.00  0.00     0.228 C 
ATOM     12  N   UNL     1       8.750   1.685   0.560  1.00  0.00    -0.326 N 
ATOM     13  H   UNL     1       8.739   1.772  -0.420  1.00  0.00     0.169 HD
ATOM     14  O   UNL     1       7.545  -0.126   0.190  1.00  0.00    -0.274 OA
BRANCH  12  15
ATOM     15  C   UNL     1       9.554   2.623   1.205  1.00  0.00     0.041 A 
ATOM     16  C   UNL     1      11.902   4.858   2.895  1.00  0.00     0.041 A 
ATOM     17  C   UNL     1      10.839   3.776   3.865  1.00  0.00     0.028 A 
ATOM     18  C   UNL     1      11.901   4.754   1.088  1.00  0.00     0.028 A 
ATOM     19  C   UNL     1       9.716   2.623   3.002  1.00  0.00     0.028 A 
ATOM     20  C   UNL     1      10.667   3.691   0.215  1.00  0.00     0.028 A 
BRANCH  16  21
ATOM     21  N   UNL     1      12.863   5.563   3.612  1.00  0.00    -0.326 N 
ATOM     22  C   UNL     1      12.802   6.862   4.030  1.00  0.00     0.224 C 
ATOM     23  O   UNL     1      13.635   7.234   4.861  1.00  0.00    -0.275 OA
ATOM     24  H   UNL     1      13.682   5.069   3.845  1.00  0.00     0.169 HD
BRANCH  22  25
ATOM     25  C   UNL     1      11.719   7.798   3.538  1.00  0.00     0.097 C 
ATOM     26  C   UNL     1      11.887   8.185   2.086  1.00  0.00     0.014 C 
ENDBRANCH  22  25
ENDBRANCH  16  21
ENDBRANCH  12  15
ENDBRANCH   6  11
ENDBRANCH   3   5
ENDBRANCH   2   3
ENDBRANCH   1   2
BRANCH   1  27
ATOM     27  C   UNL     1      12.980   1.264   2.985  1.00  0.00     0.275 C 
BRANCH  27  28
ATOM     28  O   UNL     1      12.396   2.592   3.063  1.00  0.00    -0.458 OA
BRANCH  28  29
ATOM     29  C   UNL     1      11.443   2.993   2.000  1.00  0.00     0.338 C 
ATOM     30  O   UNL     1      11.746   2.148   1.111  1.00  0.00    -0.246 OA
BRANCH  29  31
ATOM     31  C   UNL     1       9.949   4.553   2.056  1.00  0.00     0.060 A 
ATOM     32  C   UNL     1       8.786   4.725   3.006  1.00  0.00     0.016 A 
ATOM     33  C   UNL     1       9.625   5.656   1.059  1.00  0.00     0.016 A 
ATOM     34  C   UNL     1       7.550   5.317   2.777  1.00  0.00     0.010 A 
ATOM     35  C   UNL     1       8.483   6.486   0.971  1.00  0.00     0.010 A 
ATOM     36  C   UNL     1       7.414   6.265   1.804  1.00  0.00    -0.014 A 
BRANCH  36  37
ATOM     37  C   UNL     1       6.196   7.077   1.769  1.00  0.00     0.031 A 
ATOM     38  C   UNL     1       5.457   7.222   0.482  1.00  0.00     0.074 A 
ATOM     39  C   UNL     1       5.833   7.692   2.912  1.00  0.00     0.049 A 
ATOM     40  N   UNL     1       4.576   8.119   0.153  1.00  0.00    -0.248 NA
ATOM     41  C   UNL     1       5.788   6.273  -0.599  1.00  0.00     0.031 C 
ATOM     42  C   UNL     1       6.526   7.570   4.207  1.00  0.00     0.029 A 
ATOM     43  N   UNL     1       4.812   8.557   3.181  1.00  0.00    -0.354 N 
ATOM     44  C   UNL     1       4.317   7.913  -1.195  1.00  0.00     0.074 A 
ATOM     45  C   UNL     1       5.119   6.789  -1.622  1.00  0.00     0.031 C 
ATOM     46  C   UNL     1       5.890   8.287   5.134  1.00  0.00     0.029 A 
ATOM     47  C   UNL     1       4.871   9.062   4.460  1.00  0.00     0.049 A 
ATOM     48  H   UNL     1       4.110   8.794   2.532  1.00  0.00     0.167 HD
ATOM     49  C   UNL     1       3.489   8.633  -1.984  1.00  0.00     0.034 A 
ATOM     50  C   UNL     1       4.263  10.128   5.000  1.00  0.00     0.034 A 
ATOM     51  C   UNL     1       2.698   9.718  -1.468  1.00  0.00     0.049 A 
ATOM     52  C   UNL     1       3.353  10.896   4.101  1.00  0.00     0.074 A 
ATOM     53  C   UNL     1       1.783  10.513  -2.128  1.00  0.00     0.029 A 
ATOM     54  N   UNL     1       2.734  10.156  -0.147  1.00  0.00    -0.354 N 
ATOM     55  N   UNL     1       3.107  10.699   2.827  1.00  0.00    -0.248 NA
ATOM     56  C   UNL     1       2.627  12.011   4.705  1.00  0.00     0.031 C 
ATOM     57  C   UNL     1       1.291  11.451  -1.214  1.00  0.00     0.029 A 
ATOM     58  C   UNL     1       1.858  11.208   0.030  1.00  0.00     0.049 A 
ATOM     59  H   UNL     1       3.302   9.771   0.559  1.00  0.00     0.167 HD
ATOM     60  C   UNL     1       2.167  11.650   2.476  1.00  0.00     0.074 A 
ATOM     61  C   UNL     1       1.877  12.403   3.686  1.00  0.00     0.031 C 
ATOM     62  C   UNL     1       1.596  11.892   1.271  1.00  0.00     0.034 A 
BRANCH  49  63
ATOM     63  C   UNL     1       3.410   8.284  -3.448  1.00  0.00     0.023 A 
ATOM     64  C   UNL     1       2.839   7.064  -3.862  1.00  0.00     0.012 A 
ATOM     65  C   UNL     1       3.867   9.193  -4.425  1.00  0.00     0.148 A 
ATOM     66  C   UNL     1       2.754   6.740  -5.218  1.00  0.00     0.002 A 
ATOM     67  C   UNL     1       3.733   8.886  -5.774  1.00  0.00     0.091 A 
ATOM     68  F   UNL     1       4.431  10.338  -4.016  1.00  0.00    -0.205 F 
ATOM     69  C   UNL     1       3.189   7.655  -6.172  1.00  0.00     0.022 A 
BRANCH  67  70
ATOM     70  S   UNL     1       4.195  10.026  -7.084  1.00  0.00     0.127 S 
ATOM     71  O   UNL     1       5.264   9.288  -7.755  1.00  0.00    -0.237 OA
ATOM     72  O   UNL     1       2.952  10.129  -7.848  1.00  0.00    -0.237 OA
ATOM     73  O   UNL     1       4.614  11.255  -6.424  1.00  0.00    -0.744 OA
ENDBRANCH  67  70
ENDBRANCH  49  63
BRANCH  50  74
ATOM     74  C   UNL     1       4.549  10.518   6.406  1.00  0.00     0.023 A 
ATOM     75  C   UNL     1       3.548  10.369   7.381  1.00  0.00     0.012 A 
ATOM     76  C   UNL     1       5.835  10.947   6.800  1.00  0.00     0.148 A 
ATOM     77  C   UNL     1       3.812  10.668   8.719  1.00  0.00     0.002 A 
ATOM     78  C   UNL     1       6.109  11.179   8.142  1.00  0.00     0.091 A 
ATOM     79  F   UNL     1       6.780  11.076   5.858  1.00  0.00    -0.205 F 
ATOM     80  C   UNL     1       5.093  11.060   9.101  1.00  0.00     0.022 A 
BRANCH  78  81
ATOM     81  S   UNL     1       7.768  11.528   8.738  1.00  0.00     0.127 S 
ATOM     82  O   UNL     1       7.669  12.944   9.079  1.00  0.00    -0.237 OA
ATOM     83  O   UNL     1       7.874  10.623   9.884  1.00  0.00    -0.237 OA
ATOM     84  O   UNL     1       8.658  11.198   7.633  1.00  0.00    -0.744 OA
ENDBRANCH  78  81
ENDBRANCH  50  74
BRANCH  62  85
ATOM     85  C   UNL     1       0.557  12.972   1.246  1.00  0.00     0.023 A 
ATOM     86  C   UNL     1       0.934  14.323   1.360  1.00  0.00     0.012 A 
ATOM     87  C   UNL     1      -0.795  12.628   1.072  1.00  0.00     0.148 A 
ATOM     88  C   UNL     1      -0.035  15.321   1.346  1.00  0.00     0.002 A 
ATOM     89  C   UNL     1      -1.746  13.631   0.992  1.00  0.00     0.091 A 
ATOM     90  F   UNL     1      -1.121  11.330   0.991  1.00  0.00    -0.205 F 
ATOM     91  C   UNL     1      -1.372  14.976   1.148  1.00  0.00     0.022 A 
BRANCH  89  92
ATOM     92  S   UNL     1      -3.467  13.287   0.629  1.00  0.00     0.127 S 
ATOM     93  O   UNL     1      -4.111  13.628   1.896  1.00  0.00    -0.237 OA
ATOM     94  O   UNL     1      -3.739  14.217  -0.467  1.00  0.00    -0.237 OA
ATOM     95  O   UNL     1      -3.530  11.879   0.259  1.00  0.00    -0.744 OA
ENDBRANCH  89  92
ENDBRANCH  62  85
ENDBRANCH  36  37
ENDBRANCH  29  31
ENDBRANCH  28  29
ENDBRANCH  27  28
ENDBRANCH   1  27
TORSDOF 18
