REMARK SMILES CCN(C(=O)Cc1c(C(=O)OCCOC(=O)c2ccc(-c3c4nc(c(-c5cccc(S(=O)(=O)[O-])c5F)c5ccc([nH]5)c(-c5cccc(S(=O)(=O)[O-])c5F)c5nc(c(-c6cccc(S(=O)(=O)[O-])c6F)c6ccc3[nH]6)C=C5)C=C4)cc2)[nH]c2ccc(Cl)cc12)c1ccc(C)c(C)c1
REMARK SMILES IDX 12 1 11 2 9 3 10 4 8 5 7 6 87 7 80 8 81 9 86 10 82 12 84 13
REMARK SMILES IDX 83 14 85 15 6 16 4 17 5 18 3 19 2 20 1 21 88 22 89 23 95 24
REMARK SMILES IDX 90 25 93 26 91 27 94 28 92 29 13 30 14 31 15 32 16 33 17 34
REMARK SMILES IDX 18 35 79 36 19 37 78 38 20 39 21 40 22 41 72 42 23 43 77 44
REMARK SMILES IDX 71 45 73 46 24 47 76 48 70 49 69 50 25 52 57 53 37 54 56 55
REMARK SMILES IDX 38 56 41 57 55 58 74 59 39 60 40 61 54 63 75 64 42 65 26 66
REMARK SMILES IDX 27 67 35 68 28 69 30 70 36 71 29 72 31 73 32 74 33 75 34 76
REMARK SMILES IDX 58 77 59 78 67 79 60 80 62 81 68 82 61 83 63 84 64 85 65 86
REMARK SMILES IDX 66 87 43 88 44 89 52 90 45 91 47 92 53 93 46 94 48 95 49 96
REMARK SMILES IDX 50 97 51 98
REMARK H PARENT 80 11 73 51 41 62
REMARK Flexibility Score: inf
ROOT
ATOM      1  C   UNL     1      -1.354  -1.075  -3.192  1.00  0.00     0.275 C 
ENDROOT
BRANCH   1   2
ATOM      2  O   UNL     1      -1.832  -1.501  -1.899  1.00  0.00    -0.457 OA
BRANCH   2   3
ATOM      3  C   UNL     1      -1.598  -0.635  -0.879  1.00  0.00     0.355 C 
ATOM      4  O   UNL     1      -1.095   0.473  -1.000  1.00  0.00    -0.244 OA
BRANCH   3   5
ATOM      5  C   UNL     1      -1.951  -1.211   0.395  1.00  0.00     0.129 A 
ATOM      6  C   UNL     1      -1.492  -2.364   1.032  1.00  0.00     0.002 A 
ATOM      7  C   UNL     1      -2.040  -2.353   2.365  1.00  0.00     0.005 A 
ATOM      8  N   UNL     1      -2.747  -0.544   1.291  1.00  0.00    -0.349 N 
ATOM      9  C   UNL     1      -2.804  -1.196   2.494  1.00  0.00     0.046 A 
ATOM     10  C   UNL     1      -1.931  -3.201   3.488  1.00  0.00     0.031 A 
ATOM     11  H   UNL     1      -3.218   0.298   1.095  1.00  0.00     0.167 HD
ATOM     12  C   UNL     1      -3.460  -0.829   3.674  1.00  0.00     0.028 A 
ATOM     13  C   UNL     1      -2.580  -2.846   4.678  1.00  0.00     0.041 A 
ATOM     14  C   UNL     1      -3.331  -1.678   4.774  1.00  0.00     0.022 A 
ATOM     15  Cl  UNL     1      -2.440  -3.871   6.058  1.00  0.00    -0.084 Cl
BRANCH   6  16
ATOM     16  C   UNL     1      -0.564  -3.390   0.455  1.00  0.00     0.139 C 
BRANCH  16  17
ATOM     17  C   UNL     1       0.764  -3.556   1.194  1.00  0.00     0.231 C 
ATOM     18  O   UNL     1       0.862  -4.483   2.009  1.00  0.00    -0.274 OA
BRANCH  17  19
ATOM     19  N   UNL     1       1.837  -2.711   0.863  1.00  0.00    -0.312 N 
BRANCH  19  20
ATOM     20  C   UNL     1       1.673  -1.424   0.164  1.00  0.00     0.122 C 
ATOM     21  C   UNL     1       1.359  -0.255   1.088  1.00  0.00     0.028 C 
ENDBRANCH  19  20
BRANCH  19  22
ATOM     22  C   UNL     1       3.191  -3.115   1.150  1.00  0.00     0.044 A 
ATOM     23  C   UNL     1       3.570  -4.456   1.047  1.00  0.00     0.026 A 
ATOM     24  C   UNL     1       4.192  -2.177   1.442  1.00  0.00     0.030 A 
ATOM     25  C   UNL     1       4.911  -4.834   1.165  1.00  0.00     0.006 A 
ATOM     26  C   UNL     1       5.538  -2.547   1.622  1.00  0.00    -0.046 A 
ATOM     27  C   UNL     1       5.911  -3.885   1.420  1.00  0.00    -0.048 A 
ATOM     28  C   UNL     1       6.535  -1.480   1.986  1.00  0.00     0.044 C 
ATOM     29  C   UNL     1       7.336  -4.351   1.508  1.00  0.00     0.044 C 
ENDBRANCH  19  22
ENDBRANCH  17  19
ENDBRANCH  16  17
ENDBRANCH   6  16
ENDBRANCH   3   5
ENDBRANCH   2   3
ENDBRANCH   1   2
BRANCH   1  30
ATOM     30  C   UNL     1      -2.364  -0.234  -3.986  1.00  0.00     0.275 C 
BRANCH  30  31
ATOM     31  O   UNL     1      -2.386   1.143  -3.560  1.00  0.00    -0.458 OA
BRANCH  31  32
ATOM     32  C   UNL     1      -3.322   1.433  -2.626  1.00  0.00     0.338 C 
ATOM     33  O   UNL     1      -4.157   0.658  -2.178  1.00  0.00    -0.246 OA
BRANCH  32  34
ATOM     34  C   UNL     1      -3.103   2.774  -2.045  1.00  0.00     0.060 A 
ATOM     35  C   UNL     1      -3.156   2.855  -0.651  1.00  0.00     0.016 A 
ATOM     36  C   UNL     1      -2.924   3.932  -2.805  1.00  0.00     0.016 A 
ATOM     37  C   UNL     1      -3.059   4.077  -0.005  1.00  0.00     0.010 A 
ATOM     38  C   UNL     1      -2.851   5.176  -2.155  1.00  0.00     0.010 A 
ATOM     39  C   UNL     1      -2.945   5.252  -0.755  1.00  0.00    -0.014 A 
BRANCH  39  40
ATOM     40  C   UNL     1      -3.089   6.529  -0.021  1.00  0.00     0.031 A 
ATOM     41  C   UNL     1      -4.463   7.111   0.151  1.00  0.00     0.074 A 
ATOM     42  C   UNL     1      -2.045   7.047   0.652  1.00  0.00     0.049 A 
ATOM     43  N   UNL     1      -4.848   8.110   0.900  1.00  0.00    -0.248 NA
ATOM     44  C   UNL     1      -5.552   6.457  -0.593  1.00  0.00     0.031 C 
ATOM     45  C   UNL     1      -0.684   6.516   0.632  1.00  0.00     0.029 A 
ATOM     46  N   UNL     1      -1.985   8.104   1.525  1.00  0.00    -0.354 N 
ATOM     47  C   UNL     1      -6.220   8.212   0.712  1.00  0.00     0.074 A 
ATOM     48  C   UNL     1      -6.604   7.167  -0.212  1.00  0.00     0.031 C 
ATOM     49  C   UNL     1       0.071   7.223   1.491  1.00  0.00     0.029 A 
ATOM     50  C   UNL     1      -0.751   8.262   2.110  1.00  0.00     0.049 A 
ATOM     51  H   UNL     1      -2.751   8.693   1.714  1.00  0.00     0.167 HD
ATOM     52  C   UNL     1      -7.088   9.085   1.271  1.00  0.00     0.034 A 
ATOM     53  C   UNL     1      -0.339   9.128   3.057  1.00  0.00     0.034 A 
ATOM     54  C   UNL     1      -6.722  10.110   2.207  1.00  0.00     0.049 A 
ATOM     55  C   UNL     1      -1.317  10.116   3.633  1.00  0.00     0.074 A 
ATOM     56  C   UNL     1      -7.520  11.093   2.765  1.00  0.00     0.029 A 
ATOM     57  N   UNL     1      -5.451  10.274   2.733  1.00  0.00    -0.354 N 
ATOM     58  N   UNL     1      -2.612  10.200   3.445  1.00  0.00    -0.248 NA
ATOM     59  C   UNL     1      -0.776  11.124   4.558  1.00  0.00     0.031 C 
ATOM     60  C   UNL     1      -6.733  11.841   3.650  1.00  0.00     0.029 A 
ATOM     61  C   UNL     1      -5.443  11.335   3.621  1.00  0.00     0.049 A 
ATOM     62  H   UNL     1      -4.670   9.719   2.509  1.00  0.00     0.167 HD
ATOM     63  C   UNL     1      -3.041  11.266   4.227  1.00  0.00     0.074 A 
ATOM     64  C   UNL     1      -1.874  11.779   4.916  1.00  0.00     0.031 C 
ATOM     65  C   UNL     1      -4.283  11.796   4.337  1.00  0.00     0.034 A 
BRANCH  52  66
ATOM     66  C   UNL     1      -8.534   8.931   0.908  1.00  0.00     0.023 A 
ATOM     67  C   UNL     1      -9.368   8.175   1.752  1.00  0.00     0.012 A 
ATOM     68  C   UNL     1      -9.068   9.519  -0.250  1.00  0.00     0.148 A 
ATOM     69  C   UNL     1     -10.717   8.002   1.442  1.00  0.00     0.002 A 
ATOM     70  C   UNL     1     -10.414   9.341  -0.553  1.00  0.00     0.091 A 
ATOM     71  F   UNL     1      -8.256  10.213  -1.062  1.00  0.00    -0.205 F 
ATOM     72  C   UNL     1     -11.242   8.586   0.290  1.00  0.00     0.022 A 
BRANCH  70  73
ATOM     73  S   UNL     1     -11.090  10.070  -2.046  1.00  0.00     0.127 S 
ATOM     74  O   UNL     1     -10.449   9.284  -3.096  1.00  0.00    -0.237 OA
ATOM     75  O   UNL     1     -12.530   9.835  -1.914  1.00  0.00    -0.237 OA
ATOM     76  O   UNL     1     -10.702  11.473  -1.952  1.00  0.00    -0.744 OA
ENDBRANCH  70  73
ENDBRANCH  52  66
BRANCH  53  77
ATOM     77  C   UNL     1       1.053   9.049   3.574  1.00  0.00     0.023 A 
ATOM     78  C   UNL     1       1.277   8.548   4.870  1.00  0.00     0.012 A 
ATOM     79  C   UNL     1       2.155   9.422   2.786  1.00  0.00     0.148 A 
ATOM     80  C   UNL     1       2.575   8.428   5.372  1.00  0.00     0.002 A 
ATOM     81  C   UNL     1       3.447   9.263   3.279  1.00  0.00     0.091 A 
ATOM     82  F   UNL     1       1.937   9.906   1.554  1.00  0.00    -0.205 F 
ATOM     83  C   UNL     1       3.662   8.777   4.574  1.00  0.00     0.022 A 
BRANCH  81  84
ATOM     84  S   UNL     1       4.845   9.612   2.209  1.00  0.00     0.127 S 
ATOM     85  O   UNL     1       4.745  11.054   2.009  1.00  0.00    -0.237 OA
ATOM     86  O   UNL     1       5.995   9.187   3.007  1.00  0.00    -0.237 OA
ATOM     87  O   UNL     1       4.582   8.769   1.046  1.00  0.00    -0.744 OA
ENDBRANCH  81  84
ENDBRANCH  53  77
BRANCH  65  88
ATOM     88  C   UNL     1      -4.447  13.009   5.205  1.00  0.00     0.023 A 
ATOM     89  C   UNL     1      -4.198  14.277   4.644  1.00  0.00     0.012 A 
ATOM     90  C   UNL     1      -4.918  12.916   6.525  1.00  0.00     0.148 A 
ATOM     91  C   UNL     1      -4.412  15.435   5.389  1.00  0.00     0.002 A 
ATOM     92  C   UNL     1      -5.143  14.079   7.258  1.00  0.00     0.091 A 
ATOM     93  F   UNL     1      -5.149  11.704   7.052  1.00  0.00    -0.205 F 
ATOM     94  C   UNL     1      -4.890  15.338   6.695  1.00  0.00     0.022 A 
BRANCH  92  95
ATOM     95  S   UNL     1      -5.791  13.965   8.928  1.00  0.00     0.127 S 
ATOM     96  O   UNL     1      -4.690  13.341   9.656  1.00  0.00    -0.237 OA
ATOM     97  O   UNL     1      -6.037  15.362   9.292  1.00  0.00    -0.237 OA
ATOM     98  O   UNL     1      -7.002  13.168   8.771  1.00  0.00    -0.744 OA
ENDBRANCH  92  95
ENDBRANCH  65  88
ENDBRANCH  39  40
ENDBRANCH  32  34
ENDBRANCH  31  32
ENDBRANCH  30  31
ENDBRANCH   1  30
TORSDOF 19
