REMARK SMILES O=C(Cc1c(C(=O)c2cc3c(cn2)CCCC3)[nH]c2cc(Cl)ccc12)OCCOC(=O)c1ccc(-c2c3nc(c(-c4cccc(S(=O)(=O)[O-])c4F)c4ccc([nH]4)c(-c4cccc(S(=O)(=O)[O-])c4F)c4nc(c(-c5cccc(S(=O)(=O)[O-])c5F)c5ccc2[nH]5)C=C4)C=C3)cc1
REMARK SMILES IDX 27 1 26 2 2 3 1 4 3 5 4 6 5 7 25 8 18 9 19 10 24 11 20 13
REMARK SMILES IDX 23 14 21 15 22 16 6 17 7 18 8 19 9 20 13 21 10 22 12 23
REMARK SMILES IDX 11 24 17 25 14 26 16 27 15 28 28 29 29 30 30 31 31 32 32 33
REMARK SMILES IDX 33 34 94 35 34 36 93 37 35 38 36 39 37 40 87 41 38 42 92 43
REMARK SMILES IDX 86 44 88 45 39 46 91 47 85 48 84 49 40 51 72 52 52 53 71 54
REMARK SMILES IDX 53 55 56 56 70 57 89 58 54 59 55 60 69 62 90 63 57 64 41 65
REMARK SMILES IDX 42 66 50 67 43 68 45 69 51 70 44 71 46 72 47 73 48 74 49 75
REMARK SMILES IDX 73 76 74 77 82 78 75 79 77 80 83 81 76 82 78 83 79 84 80 85
REMARK SMILES IDX 81 86 58 87 59 88 67 89 60 90 62 91 68 92 61 93 63 94 64 95
REMARK SMILES IDX 65 96 66 97
REMARK H PARENT 18 12 88 50 56 61
REMARK Flexibility Score: inf
ROOT
ATOM      1  C   UNL     1       3.826   1.531  -0.689  1.00  0.00     0.274 C 
ENDROOT
BRANCH   1   2
ATOM      2  O   UNL     1       2.568   0.836  -0.777  1.00  0.00    -0.462 OA
BRANCH   2   3
ATOM      3  C   UNL     1       2.444  -0.491  -0.505  1.00  0.00     0.310 C 
ATOM      4  O   UNL     1       1.585  -1.152  -1.088  1.00  0.00    -0.252 OA
BRANCH   3   5
ATOM      5  C   UNL     1       3.298  -1.085   0.598  1.00  0.00     0.161 C 
BRANCH   5   6
ATOM      6  C   UNL     1       4.136  -2.248   0.164  1.00  0.00     0.000 A 
ATOM      7  C   UNL     1       5.468  -2.215  -0.250  1.00  0.00     0.093 A 
ATOM      8  C   UNL     1       3.750  -3.623   0.262  1.00  0.00     0.004 A 
ATOM      9  N   UNL     1       5.826  -3.514  -0.538  1.00  0.00    -0.351 N 
ATOM     10  C   UNL     1       4.829  -4.387  -0.173  1.00  0.00     0.048 A 
ATOM     11  C   UNL     1       2.598  -4.285   0.739  1.00  0.00     0.012 A 
ATOM     12  H   UNL     1       6.680  -3.780  -0.950  1.00  0.00     0.167 HD
ATOM     13  C   UNL     1       4.818  -5.787  -0.156  1.00  0.00     0.047 A 
ATOM     14  C   UNL     1       2.581  -5.684   0.798  1.00  0.00     0.021 A 
ATOM     15  C   UNL     1       3.678  -6.416   0.355  1.00  0.00     0.043 A 
ATOM     16  Cl  UNL     1       3.648  -8.136   0.451  1.00  0.00    -0.084 Cl
BRANCH   7  17
ATOM     17  C   UNL     1       6.383  -1.081  -0.253  1.00  0.00     0.227 C 
ATOM     18  O   UNL     1       6.320  -0.197   0.600  1.00  0.00    -0.285 OA
BRANCH  17  19
ATOM     19  C   UNL     1       7.424  -0.949  -1.320  1.00  0.00     0.113 A 
ATOM     20  C   UNL     1       7.213  -1.414  -2.615  1.00  0.00     0.036 A 
ATOM     21  N   UNL     1       8.556  -0.306  -0.941  1.00  0.00    -0.252 NA
ATOM     22  C   UNL     1       8.236  -1.255  -3.558  1.00  0.00    -0.041 A 
ATOM     23  C   UNL     1       9.524  -0.160  -1.863  1.00  0.00     0.115 A 
ATOM     24  C   UNL     1       9.434  -0.640  -3.163  1.00  0.00    -0.026 A 
ATOM     25  C   UNL     1       8.055  -1.806  -4.952  1.00  0.00     0.036 C 
ATOM     26  C   UNL     1      10.587  -0.456  -4.109  1.00  0.00     0.037 C 
ATOM     27  C   UNL     1       9.152  -1.383  -5.931  1.00  0.00     0.005 C 
ATOM     28  C   UNL     1      10.527  -1.439  -5.274  1.00  0.00     0.005 C 
ENDBRANCH  17  19
ENDBRANCH   7  17
ENDBRANCH   5   6
ENDBRANCH   3   5
ENDBRANCH   2   3
ENDBRANCH   1   2
BRANCH   1  29
ATOM     29  C   UNL     1       3.904   2.511   0.485  1.00  0.00     0.275 C 
BRANCH  29  30
ATOM     30  O   UNL     1       3.681   1.860   1.744  1.00  0.00    -0.458 OA
BRANCH  30  31
ATOM     31  C   UNL     1       2.389   1.817   2.162  1.00  0.00     0.338 C 
ATOM     32  O   UNL     1       1.450   2.389   1.646  1.00  0.00    -0.246 OA
BRANCH  31  33
ATOM     33  C   UNL     1       2.252   0.807   3.245  1.00  0.00     0.060 A 
ATOM     34  C   UNL     1       3.309   0.479   4.103  1.00  0.00     0.016 A 
ATOM     35  C   UNL     1       1.027   0.138   3.365  1.00  0.00     0.016 A 
ATOM     36  C   UNL     1       3.126  -0.494   5.092  1.00  0.00     0.010 A 
ATOM     37  C   UNL     1       0.844  -0.829   4.358  1.00  0.00     0.010 A 
ATOM     38  C   UNL     1       1.885  -1.140   5.243  1.00  0.00    -0.014 A 
BRANCH  38  39
ATOM     39  C   UNL     1       1.634  -2.001   6.426  1.00  0.00     0.031 A 
ATOM     40  C   UNL     1       1.555  -3.496   6.333  1.00  0.00     0.074 A 
ATOM     41  C   UNL     1       1.431  -1.396   7.614  1.00  0.00     0.049 A 
ATOM     42  N   UNL     1       1.432  -4.367   7.303  1.00  0.00    -0.248 NA
ATOM     43  C   UNL     1       1.610  -4.096   4.992  1.00  0.00     0.031 C 
ATOM     44  C   UNL     1       1.407   0.054   7.821  1.00  0.00     0.029 A 
ATOM     45  N   UNL     1       1.202  -1.916   8.863  1.00  0.00    -0.354 N 
ATOM     46  C   UNL     1       1.381  -5.614   6.697  1.00  0.00     0.074 A 
ATOM     47  C   UNL     1       1.474  -5.389   5.269  1.00  0.00     0.031 C 
ATOM     48  C   UNL     1       1.199   0.306   9.122  1.00  0.00     0.029 A 
ATOM     49  C   UNL     1       1.065  -0.959   9.839  1.00  0.00     0.049 A 
ATOM     50  H   UNL     1       1.142  -2.882   9.042  1.00  0.00     0.167 HD
ATOM     51  C   UNL     1       1.289  -6.833   7.282  1.00  0.00     0.034 A 
ATOM     52  C   UNL     1       0.872  -1.076  11.167  1.00  0.00     0.034 A 
ATOM     53  C   UNL     1       1.228  -7.056   8.704  1.00  0.00     0.049 A 
ATOM     54  C   UNL     1       0.808  -2.439  11.792  1.00  0.00     0.074 A 
ATOM     55  C   UNL     1       1.239  -8.264   9.381  1.00  0.00     0.029 A 
ATOM     56  N   UNL     1       1.129  -6.062   9.664  1.00  0.00    -0.354 N 
ATOM     57  N   UNL     1       0.939  -3.609  11.218  1.00  0.00    -0.248 NA
ATOM     58  C   UNL     1       0.602  -2.501  13.247  1.00  0.00     0.031 C 
ATOM     59  C   UNL     1       1.127  -8.002  10.749  1.00  0.00     0.029 A 
ATOM     60  C   UNL     1       1.062  -6.630  10.925  1.00  0.00     0.049 A 
ATOM     61  H   UNL     1       1.109  -5.096   9.477  1.00  0.00     0.167 HD
ATOM     62  C   UNL     1       0.859  -4.546  12.242  1.00  0.00     0.074 A 
ATOM     63  C   UNL     1       0.674  -3.808  13.474  1.00  0.00     0.031 C 
ATOM     64  C   UNL     1       0.926  -5.895  12.156  1.00  0.00     0.034 A 
BRANCH  51  65
ATOM     65  C   UNL     1       1.319  -8.054   6.402  1.00  0.00     0.023 A 
ATOM     66  C   UNL     1       2.557  -8.504   5.904  1.00  0.00     0.012 A 
ATOM     67  C   UNL     1       0.162  -8.832   6.197  1.00  0.00     0.148 A 
ATOM     68  C   UNL     1       2.644  -9.708   5.208  1.00  0.00     0.002 A 
ATOM     69  C   UNL     1       0.262 -10.046   5.527  1.00  0.00     0.091 A 
ATOM     70  F   UNL     1      -1.004  -8.379   6.678  1.00  0.00    -0.205 F 
ATOM     71  C   UNL     1       1.501 -10.483   5.030  1.00  0.00     0.022 A 
BRANCH  69  72
ATOM     72  S   UNL     1      -1.135 -11.152   5.299  1.00  0.00     0.127 S 
ATOM     73  O   UNL     1      -1.309 -11.112   3.848  1.00  0.00    -0.237 OA
ATOM     74  O   UNL     1      -0.614 -12.417   5.816  1.00  0.00    -0.237 OA
ATOM     75  O   UNL     1      -2.232 -10.582   6.069  1.00  0.00    -0.744 OA
ENDBRANCH  69  72
ENDBRANCH  51  65
BRANCH  52  76
ATOM     76  C   UNL     1       0.838   0.154  12.000  1.00  0.00     0.023 A 
ATOM     77  C   UNL     1       1.981   0.503  12.744  1.00  0.00     0.012 A 
ATOM     78  C   UNL     1      -0.273   1.019  11.986  1.00  0.00     0.148 A 
ATOM     79  C   UNL     1       2.017   1.694  13.467  1.00  0.00     0.002 A 
ATOM     80  C   UNL     1      -0.216   2.221  12.680  1.00  0.00     0.091 A 
ATOM     81  F   UNL     1      -1.344   0.661  11.265  1.00  0.00    -0.205 F 
ATOM     82  C   UNL     1       0.925   2.557  13.428  1.00  0.00     0.022 A 
BRANCH  80  83
ATOM     83  S   UNL     1      -1.528   3.445  12.613  1.00  0.00     0.127 S 
ATOM     84  O   UNL     1      -1.952   3.504  14.011  1.00  0.00    -0.237 OA
ATOM     85  O   UNL     1      -0.809   4.627  12.137  1.00  0.00    -0.237 OA
ATOM     86  O   UNL     1      -2.517   2.918  11.684  1.00  0.00    -0.744 OA
ENDBRANCH  80  83
ENDBRANCH  52  76
BRANCH  64  87
ATOM     87  C   UNL     1       0.813  -6.700  13.422  1.00  0.00     0.023 A 
ATOM     88  C   UNL     1      -0.459  -6.937  13.977  1.00  0.00     0.012 A 
ATOM     89  C   UNL     1       1.942  -7.339  13.972  1.00  0.00     0.148 A 
ATOM     90  C   UNL     1      -0.607  -7.801  15.061  1.00  0.00     0.002 A 
ATOM     91  C   UNL     1       1.783  -8.225  15.031  1.00  0.00     0.091 A 
ATOM     92  F   UNL     1       3.142  -7.091  13.427  1.00  0.00    -0.205 F 
ATOM     93  C   UNL     1       0.510  -8.454  15.579  1.00  0.00     0.022 A 
BRANCH  91  94
ATOM     94  S   UNL     1       3.145  -9.173  15.720  1.00  0.00     0.127 S 
ATOM     95  O   UNL     1       3.198  -8.666  17.091  1.00  0.00    -0.237 OA
ATOM     96  O   UNL     1       2.658 -10.546  15.596  1.00  0.00    -0.237 OA
ATOM     97  O   UNL     1       4.311  -8.861  14.904  1.00  0.00    -0.744 OA
ENDBRANCH  91  94
ENDBRANCH  64  87
ENDBRANCH  38  39
ENDBRANCH  31  33
ENDBRANCH  30  31
ENDBRANCH  29  30
ENDBRANCH   1  29
TORSDOF 17
