REMARK SMILES C=C(c1ccccc1)[C@@H](C(=O)OCCOC(=O)c1ccc(-c2c3nc(c(-c4cccc(S(=O)(=O)[O-])c4F)c4ccc([nH]4)c(-c4cccc(S(=O)(=O)[O-])c4F)c4nc(c(-c5cccc(S(=O)(=O)[O-])c5F)c5ccc2[nH]5)C=C4)C=C3)cc1)S(C)(=O)=O
REMARK SMILES IDX 14 1 13 2 12 3 10 4 11 5 9 6 2 7 1 8 3 9 4 10 8 11 5 12 7 13
REMARK SMILES IDX 6 14 81 15 82 16 83 17 84 18 15 19 16 20 17 21 18 22 19 23
REMARK SMILES IDX 80 24 20 25 79 26 21 27 22 28 23 29 73 30 24 31 78 32 72 33
REMARK SMILES IDX 74 34 25 35 77 36 71 37 70 38 26 40 58 41 38 42 57 43 39 44
REMARK SMILES IDX 42 45 56 46 75 47 40 48 41 49 55 51 76 52 43 53 27 54 28 55
REMARK SMILES IDX 36 56 29 57 31 58 37 59 30 60 32 61 33 62 34 63 35 64 59 65
REMARK SMILES IDX 60 66 68 67 61 68 63 69 69 70 62 71 64 72 65 73 66 74 67 75
REMARK SMILES IDX 44 76 45 77 53 78 46 79 48 80 54 81 47 82 49 83 50 84 51 85
REMARK SMILES IDX 52 86
REMARK H PARENT 74 39 42 50
REMARK Flexibility Score: inf
ROOT
ATOM      1  C   UNL     1       3.142  -3.744  -0.435  1.00  0.00     0.275 C 
ENDROOT
BRANCH   1   2
ATOM      2  C   UNL     1       1.907  -4.068   0.400  1.00  0.00     0.274 C 
BRANCH   2   3
ATOM      3  O   UNL     1       1.180  -2.865   0.734  1.00  0.00    -0.461 OA
BRANCH   3   4
ATOM      4  C   UNL     1       1.382  -2.365   1.991  1.00  0.00     0.329 C 
ATOM      5  O   UNL     1       2.097  -2.921   2.816  1.00  0.00    -0.250 OA
BRANCH   4   6
ATOM      6  C   UNL     1       0.497  -1.167   2.304  1.00  0.00     0.247 C 
BRANCH   6   7
ATOM      7  C   UNL     1      -0.191  -0.519   1.104  1.00  0.00    -0.019 C 
ATOM      8  C   UNL     1       0.460   0.130   0.117  1.00  0.00     0.015 C 
BRANCH   7   9
ATOM      9  C   UNL     1      -1.670  -0.649   1.014  1.00  0.00    -0.021 A 
ATOM     10  C   UNL     1      -2.495  -0.473   2.134  1.00  0.00     0.008 A 
ATOM     11  C   UNL     1      -2.281  -0.985  -0.205  1.00  0.00     0.008 A 
ATOM     12  C   UNL     1      -3.882  -0.614   2.039  1.00  0.00     0.001 A 
ATOM     13  C   UNL     1      -3.668  -1.121  -0.303  1.00  0.00     0.001 A 
ATOM     14  C   UNL     1      -4.469  -0.935   0.820  1.00  0.00     0.000 A 
ENDBRANCH   7   9
ENDBRANCH   6   7
BRANCH   6  15
ATOM     15  S   UNL     1       1.440   0.043   3.253  1.00  0.00     0.165 S 
ATOM     16  C   UNL     1       0.235   1.207   3.832  1.00  0.00     0.159 C 
ATOM     17  O   UNL     1       1.959  -0.584   4.455  1.00  0.00    -0.228 OA
ATOM     18  O   UNL     1       2.324   0.786   2.376  1.00  0.00    -0.228 OA
ENDBRANCH   6  15
ENDBRANCH   4   6
ENDBRANCH   3   4
ENDBRANCH   2   3
ENDBRANCH   1   2
BRANCH   1  19
ATOM     19  O   UNL     1       4.017  -2.900   0.328  1.00  0.00    -0.458 OA
BRANCH  19  20
ATOM     20  C   UNL     1       4.548  -1.847  -0.338  1.00  0.00     0.338 C 
ATOM     21  O   UNL     1       4.421  -1.606  -1.528  1.00  0.00    -0.246 OA
BRANCH  20  22
ATOM     22  C   UNL     1       5.300  -0.976   0.593  1.00  0.00     0.060 A 
ATOM     23  C   UNL     1       4.869  -0.784   1.904  1.00  0.00     0.016 A 
ATOM     24  C   UNL     1       6.378  -0.234   0.108  1.00  0.00     0.016 A 
ATOM     25  C   UNL     1       5.415   0.242   2.678  1.00  0.00     0.010 A 
ATOM     26  C   UNL     1       6.995   0.717   0.928  1.00  0.00     0.010 A 
ATOM     27  C   UNL     1       6.481   1.016   2.202  1.00  0.00    -0.014 A 
BRANCH  27  28
ATOM     28  C   UNL     1       7.009   2.182   2.976  1.00  0.00     0.031 A 
ATOM     29  C   UNL     1       7.105   3.538   2.316  1.00  0.00     0.074 A 
ATOM     30  C   UNL     1       7.417   2.053   4.255  1.00  0.00     0.049 A 
ATOM     31  N   UNL     1       7.780   4.596   2.687  1.00  0.00    -0.248 NA
ATOM     32  C   UNL     1       6.365   3.718   1.054  1.00  0.00     0.031 C 
ATOM     33  C   UNL     1       7.359   0.827   5.050  1.00  0.00     0.029 A 
ATOM     34  N   UNL     1       7.979   2.973   5.111  1.00  0.00    -0.354 N 
ATOM     35  C   UNL     1       7.633   5.523   1.659  1.00  0.00     0.074 A 
ATOM     36  C   UNL     1       6.786   4.912   0.659  1.00  0.00     0.031 C 
ATOM     37  C   UNL     1       7.842   1.071   6.277  1.00  0.00     0.029 A 
ATOM     38  C   UNL     1       8.326   2.446   6.334  1.00  0.00     0.049 A 
ATOM     39  H   UNL     1       8.119   3.917   4.871  1.00  0.00     0.167 HD
ATOM     40  C   UNL     1       8.149   6.772   1.563  1.00  0.00     0.034 A 
ATOM     41  C   UNL     1       8.996   2.986   7.371  1.00  0.00     0.034 A 
ATOM     42  C   UNL     1       8.889   7.424   2.611  1.00  0.00     0.049 A 
ATOM     43  C   UNL     1       9.488   4.403   7.273  1.00  0.00     0.074 A 
ATOM     44  C   UNL     1       9.454   8.688   2.610  1.00  0.00     0.029 A 
ATOM     45  N   UNL     1       9.120   6.885   3.866  1.00  0.00    -0.354 N 
ATOM     46  N   UNL     1       9.367   5.252   6.282  1.00  0.00    -0.248 NA
ATOM     47  C   UNL     1      10.200   4.943   8.441  1.00  0.00     0.031 C 
ATOM     48  C   UNL     1      10.008   8.922   3.874  1.00  0.00     0.029 A 
ATOM     49  C   UNL     1       9.787   7.803   4.659  1.00  0.00     0.049 A 
ATOM     50  H   UNL     1       8.851   5.982   4.151  1.00  0.00     0.167 HD
ATOM     51  C   UNL     1       9.972   6.427   6.710  1.00  0.00     0.074 A 
ATOM     52  C   UNL     1      10.428   6.195   8.065  1.00  0.00     0.031 C 
ATOM     53  C   UNL     1      10.165   7.584   6.030  1.00  0.00     0.034 A 
BRANCH  40  54
ATOM     54  C   UNL     1       7.898   7.546   0.294  1.00  0.00     0.023 A 
ATOM     55  C   UNL     1       6.634   8.124   0.069  1.00  0.00     0.012 A 
ATOM     56  C   UNL     1       8.935   7.767  -0.635  1.00  0.00     0.148 A 
ATOM     57  C   UNL     1       6.397   8.890  -1.072  1.00  0.00     0.002 A 
ATOM     58  C   UNL     1       8.704   8.565  -1.750  1.00  0.00     0.091 A 
ATOM     59  F   UNL     1      10.126   7.191  -0.415  1.00  0.00    -0.205 F 
ATOM     60  C   UNL     1       7.434   9.120  -1.974  1.00  0.00     0.022 A 
BRANCH  58  61
ATOM     61  S   UNL     1       9.999   8.986  -2.922  1.00  0.00     0.127 S 
ATOM     62  O   UNL     1       9.650   8.144  -4.065  1.00  0.00    -0.237 OA
ATOM     63  O   UNL     1       9.778  10.418  -3.131  1.00  0.00    -0.237 OA
ATOM     64  O   UNL     1      11.256   8.661  -2.262  1.00  0.00    -0.744 OA
ENDBRANCH  58  61
ENDBRANCH  40  54
BRANCH  41  65
ATOM     65  C   UNL     1       9.222   2.178   8.604  1.00  0.00     0.023 A 
ATOM     66  C   UNL     1       8.541   2.519   9.789  1.00  0.00     0.012 A 
ATOM     67  C   UNL     1      10.062   1.048   8.599  1.00  0.00     0.148 A 
ATOM     68  C   UNL     1       8.707   1.760  10.948  1.00  0.00     0.002 A 
ATOM     69  C   UNL     1      10.171   0.259   9.739  1.00  0.00     0.091 A 
ATOM     70  F   UNL     1      10.729   0.751   7.474  1.00  0.00    -0.205 F 
ATOM     71  C   UNL     1       9.508   0.621  10.919  1.00  0.00     0.022 A 
BRANCH  69  72
ATOM     72  S   UNL     1      11.057  -1.304   9.710  1.00  0.00     0.127 S 
ATOM     73  O   UNL     1      12.375  -0.915  10.202  1.00  0.00    -0.237 OA
ATOM     74  O   UNL     1      10.275  -2.128  10.634  1.00  0.00    -0.237 OA
ATOM     75  O   UNL     1      10.990  -1.748   8.323  1.00  0.00    -0.744 OA
ENDBRANCH  69  72
ENDBRANCH  41  65
BRANCH  53  76
ATOM     76  C   UNL     1      10.869   8.702   6.748  1.00  0.00     0.023 A 
ATOM     77  C   UNL     1      12.267   8.645   6.915  1.00  0.00     0.012 A 
ATOM     78  C   UNL     1      10.162   9.833   7.199  1.00  0.00     0.148 A 
ATOM     79  C   UNL     1      12.947   9.687   7.544  1.00  0.00     0.002 A 
ATOM     80  C   UNL     1      10.852  10.884   7.794  1.00  0.00     0.091 A 
ATOM     81  F   UNL     1       8.829   9.859   7.053  1.00  0.00    -0.205 F 
ATOM     82  C   UNL     1      12.243  10.809   7.974  1.00  0.00     0.022 A 
BRANCH  80  83
ATOM     83  S   UNL     1      10.023  12.393   8.305  1.00  0.00     0.127 S 
ATOM     84  O   UNL     1       9.825  12.159   9.733  1.00  0.00    -0.237 OA
ATOM     85  O   UNL     1      11.014  13.424   7.989  1.00  0.00    -0.237 OA
ATOM     86  O   UNL     1       8.810  12.465   7.500  1.00  0.00    -0.744 OA
ENDBRANCH  80  83
ENDBRANCH  53  76
ENDBRANCH  27  28
ENDBRANCH  20  22
ENDBRANCH  19  20
ENDBRANCH   1  19
TORSDOF 17
