REMARK SMILES C[C@H](SC1CCOCC1)c1ccc(C(=O)OCCOC(=O)c2ccc(-c3c4nc(c(-c5cccc(S(=O)(=O)[O-])c5F)c5ccc([nH]5)c(-c5cccc(S(=O)(=O)[O-])c5F)c5nc(c(-c6cccc(S(=O)(=O)[O-])c6F)c6ccc3[nH]6)C=C5)C=C4)cc2)o1
REMARK SMILES IDX 17 1 16 2 14 3 15 4 13 5 10 6 11 7 85 8 12 9 2 10 1 11 3 12
REMARK SMILES IDX 4 13 5 14 9 15 6 16 8 17 7 18 18 19 19 20 20 21 21 22 22 23
REMARK SMILES IDX 23 24 84 25 24 26 83 27 25 28 26 29 27 30 77 31 28 32 82 33
REMARK SMILES IDX 76 34 78 35 29 36 81 37 75 38 74 39 30 41 62 42 42 43 61 44
REMARK SMILES IDX 43 45 46 46 60 47 79 48 44 49 45 50 59 52 80 53 47 54 31 55
REMARK SMILES IDX 32 56 40 57 33 58 35 59 41 60 34 61 36 62 37 63 38 64 39 65
REMARK SMILES IDX 63 66 64 67 72 68 65 69 67 70 73 71 66 72 68 73 69 74 70 75
REMARK SMILES IDX 71 76 48 77 49 78 57 79 50 80 52 81 58 82 51 83 53 84 54 85
REMARK SMILES IDX 55 86 56 87
REMARK H PARENT 78 40 46 51
REMARK Flexibility Score: inf
ROOT
ATOM      1  C   UNL     1      -6.395   1.870  -1.769  1.00  0.00     0.275 C 
ENDROOT
BRANCH   1   2
ATOM      2  O   UNL     1      -5.394   0.836  -1.735  1.00  0.00    -0.456 OA
BRANCH   2   3
ATOM      3  C   UNL     1      -4.206   1.135  -2.347  1.00  0.00     0.374 C 
ATOM      4  O   UNL     1      -4.012   2.131  -3.023  1.00  0.00    -0.242 OA
BRANCH   3   5
ATOM      5  C   UNL     1      -3.215   0.140  -2.001  1.00  0.00     0.211 A 
ATOM      6  C   UNL     1      -1.141  -0.541  -1.652  1.00  0.00     0.117 A 
ATOM      7  C   UNL     1      -1.970  -1.550  -1.199  1.00  0.00     0.048 A 
ATOM      8  O   UNL     1      -1.894   0.450  -2.209  1.00  0.00    -0.453 OA
ATOM      9  C   UNL     1      -3.297  -1.105  -1.405  1.00  0.00     0.058 A 
BRANCH   6  10
ATOM     10  C   UNL     1       0.350  -0.328  -1.635  1.00  0.00     0.110 C 
ATOM     11  C   UNL     1       0.987  -1.216  -2.697  1.00  0.00     0.028 C 
BRANCH  10  12
ATOM     12  S   UNL     1       0.922  -0.621   0.108  1.00  0.00    -0.147 SA
BRANCH  12  13
ATOM     13  C   UNL     1       2.755  -0.561   0.055  1.00  0.00     0.052 C 
ATOM     14  C   UNL     1       3.372   0.594  -0.733  1.00  0.00     0.043 C 
ATOM     15  C   UNL     1       3.336  -1.927  -0.317  1.00  0.00     0.043 C 
ATOM     16  C   UNL     1       4.894   0.466  -0.741  1.00  0.00     0.161 C 
ATOM     17  C   UNL     1       4.855  -1.867  -0.354  1.00  0.00     0.161 C 
ATOM     18  O   UNL     1       5.287  -0.822  -1.219  1.00  0.00    -0.381 OA
ENDBRANCH  12  13
ENDBRANCH  10  12
ENDBRANCH   6  10
ENDBRANCH   3   5
ENDBRANCH   2   3
ENDBRANCH   1   2
BRANCH   1  19
ATOM     19  C   UNL     1      -6.408   2.679  -0.467  1.00  0.00     0.275 C 
BRANCH  19  20
ATOM     20  O   UNL     1      -5.251   3.527  -0.348  1.00  0.00    -0.458 OA
BRANCH  20  21
ATOM     21  C   UNL     1      -4.205   2.991   0.327  1.00  0.00     0.338 C 
ATOM     22  O   UNL     1      -4.167   1.893   0.858  1.00  0.00    -0.246 OA
BRANCH  21  23
ATOM     23  C   UNL     1      -3.032   3.878   0.213  1.00  0.00     0.060 A 
ATOM     24  C   UNL     1      -1.855   3.337  -0.308  1.00  0.00     0.016 A 
ATOM     25  C   UNL     1      -3.065   5.204   0.650  1.00  0.00     0.016 A 
ATOM     26  C   UNL     1      -0.706   4.117  -0.409  1.00  0.00     0.010 A 
ATOM     27  C   UNL     1      -1.906   5.985   0.560  1.00  0.00     0.010 A 
ATOM     28  C   UNL     1      -0.720   5.443   0.036  1.00  0.00    -0.014 A 
BRANCH  28  29
ATOM     29  C   UNL     1       0.529   6.239  -0.015  1.00  0.00     0.031 A 
ATOM     30  C   UNL     1       1.331   6.455   1.235  1.00  0.00     0.074 A 
ATOM     31  C   UNL     1       0.947   6.754  -1.186  1.00  0.00     0.049 A 
ATOM     32  N   UNL     1       2.451   7.112   1.393  1.00  0.00    -0.248 NA
ATOM     33  C   UNL     1       0.807   5.851   2.470  1.00  0.00     0.031 C 
ATOM     34  C   UNL     1       0.252   6.608  -2.465  1.00  0.00     0.029 A 
ATOM     35  N   UNL     1       2.050   7.512  -1.487  1.00  0.00    -0.354 N 
ATOM     36  C   UNL     1       2.752   7.029   2.746  1.00  0.00     0.074 A 
ATOM     37  C   UNL     1       1.694   6.260   3.367  1.00  0.00     0.031 C 
ATOM     38  C   UNL     1       0.939   7.268  -3.412  1.00  0.00     0.029 A 
ATOM     39  C   UNL     1       2.109   7.899  -2.805  1.00  0.00     0.049 A 
ATOM     40  H   UNL     1       2.735   7.756  -0.822  1.00  0.00     0.167 HD
ATOM     41  C   UNL     1       3.821   7.531   3.407  1.00  0.00     0.034 A 
ATOM     42  C   UNL     1       2.999   8.681  -3.446  1.00  0.00     0.034 A 
ATOM     43  C   UNL     1       4.888   8.266   2.783  1.00  0.00     0.049 A 
ATOM     44  C   UNL     1       4.174   9.233  -2.685  1.00  0.00     0.074 A 
ATOM     45  C   UNL     1       6.040   8.769   3.361  1.00  0.00     0.029 A 
ATOM     46  N   UNL     1       4.931   8.612   1.440  1.00  0.00    -0.354 N 
ATOM     47  N   UNL     1       4.509   9.041  -1.432  1.00  0.00    -0.248 NA
ATOM     48  C   UNL     1       5.110  10.087  -3.432  1.00  0.00     0.031 C 
ATOM     49  C   UNL     1       6.775   9.428   2.369  1.00  0.00     0.029 A 
ATOM     50  C   UNL     1       6.084   9.329   1.172  1.00  0.00     0.049 A 
ATOM     51  H   UNL     1       4.242   8.381   0.776  1.00  0.00     0.167 HD
ATOM     52  C   UNL     1       5.703   9.728  -1.246  1.00  0.00     0.074 A 
ATOM     53  C   UNL     1       6.046  10.321  -2.522  1.00  0.00     0.031 C 
ATOM     54  C   UNL     1       6.439   9.870  -0.115  1.00  0.00     0.034 A 
BRANCH  41  55
ATOM     55  C   UNL     1       3.909   7.264   4.885  1.00  0.00     0.023 A 
ATOM     56  C   UNL     1       4.295   5.985   5.334  1.00  0.00     0.012 A 
ATOM     57  C   UNL     1       3.655   8.280   5.825  1.00  0.00     0.148 A 
ATOM     58  C   UNL     1       4.401   5.714   6.698  1.00  0.00     0.002 A 
ATOM     59  C   UNL     1       3.795   8.012   7.183  1.00  0.00     0.091 A 
ATOM     60  F   UNL     1       3.260   9.482   5.380  1.00  0.00    -0.205 F 
ATOM     61  C   UNL     1       4.161   6.728   7.620  1.00  0.00     0.022 A 
BRANCH  59  62
ATOM     62  S   UNL     1       3.566   9.278   8.436  1.00  0.00     0.127 S 
ATOM     63  O   UNL     1       2.216   8.983   8.912  1.00  0.00    -0.237 OA
ATOM     64  O   UNL     1       4.630   8.971   9.392  1.00  0.00    -0.237 OA
ATOM     65  O   UNL     1       3.729  10.550   7.744  1.00  0.00    -0.744 OA
ENDBRANCH  59  62
ENDBRANCH  41  55
BRANCH  42  66
ATOM     66  C   UNL     1       2.836   8.941  -4.904  1.00  0.00     0.023 A 
ATOM     67  C   UNL     1       3.732   8.348  -5.814  1.00  0.00     0.012 A 
ATOM     68  C   UNL     1       1.779   9.732  -5.395  1.00  0.00     0.148 A 
ATOM     69  C   UNL     1       3.587   8.550  -7.187  1.00  0.00     0.002 A 
ATOM     70  C   UNL     1       1.611   9.888  -6.766  1.00  0.00     0.091 A 
ATOM     71  F   UNL     1       0.953  10.308  -4.511  1.00  0.00    -0.205 F 
ATOM     72  C   UNL     1       2.521   9.309  -7.664  1.00  0.00     0.022 A 
BRANCH  70  73
ATOM     73  S   UNL     1       0.194  10.744  -7.466  1.00  0.00     0.127 S 
ATOM     74  O   UNL     1       0.790  12.004  -7.901  1.00  0.00    -0.237 OA
ATOM     75  O   UNL     1      -0.203   9.844  -8.550  1.00  0.00    -0.237 OA
ATOM     76  O   UNL     1      -0.776  10.838  -6.383  1.00  0.00    -0.744 OA
ENDBRANCH  70  73
ENDBRANCH  42  66
BRANCH  54  77
ATOM     77  C   UNL     1       7.697  10.693  -0.202  1.00  0.00     0.023 A 
ATOM     78  C   UNL     1       7.602  12.097  -0.262  1.00  0.00     0.012 A 
ATOM     79  C   UNL     1       8.967  10.087  -0.143  1.00  0.00     0.148 A 
ATOM     80  C   UNL     1       8.753  12.885  -0.286  1.00  0.00     0.002 A 
ATOM     81  C   UNL     1      10.109  10.880  -0.127  1.00  0.00     0.091 A 
ATOM     82  F   UNL     1       9.038   8.748  -0.110  1.00  0.00    -0.205 F 
ATOM     83  C   UNL     1      10.004  12.278  -0.206  1.00  0.00     0.022 A 
BRANCH  81  84
ATOM     84  S   UNL     1      11.754  10.182   0.062  1.00  0.00     0.127 S 
ATOM     85  O   UNL     1      12.251  10.209  -1.312  1.00  0.00    -0.237 OA
ATOM     86  O   UNL     1      12.401  11.136   0.964  1.00  0.00    -0.237 OA
ATOM     87  O   UNL     1      11.555   8.857   0.636  1.00  0.00    -0.744 OA
ENDBRANCH  81  84
ENDBRANCH  54  77
ENDBRANCH  28  29
ENDBRANCH  21  23
ENDBRANCH  20  21
ENDBRANCH  19  20
ENDBRANCH   1  19
TORSDOF 17
