REMARK SMILES CC(C)C[C@H](CNC(=O)[C@H]1CCCCC[C@H]1[NH3+])CC(=O)OCCOC(=O)c1ccc(-c2c3nc(c(-c4cccc(S(=O)(=O)[O-])c4F)c4ccc([nH]4)c(-c4cccc(S(=O)(=O)[O-])c4F)c4nc(c(-c5cccc(S(=O)(=O)[O-])c5F)c5ccc2[nH]5)C=C4)C=C3)cc1
REMARK SMILES IDX 19 1 20 2 18 3 5 4 4 5 2 6 1 7 3 8 6 9 7 10 8 11 9 13 10 14
REMARK SMILES IDX 11 15 12 16 13 17 14 18 16 20 15 21 17 23 21 27 22 28 23 29
REMARK SMILES IDX 24 30 25 31 26 32 27 33 28 34 89 35 29 36 88 37 30 38 31 39
REMARK SMILES IDX 32 40 82 41 33 42 87 43 81 44 83 45 34 46 86 47 80 48 79 49
REMARK SMILES IDX 35 51 67 52 47 53 66 54 48 55 51 56 65 57 84 58 49 59 50 60
REMARK SMILES IDX 64 62 85 63 52 64 36 65 37 66 45 67 38 68 40 69 46 70 39 71
REMARK SMILES IDX 41 72 42 73 43 74 44 75 68 76 69 77 77 78 70 79 72 80 78 81
REMARK SMILES IDX 71 82 73 83 74 84 75 85 76 86 53 87 54 88 62 89 55 90 57 91
REMARK SMILES IDX 63 92 56 93 58 94 59 95 60 96 61 97
REMARK H PARENT 7 12 17 24 17 25 17 26 83 50 51 61
REMARK Flexibility Score: 90.00
ROOT
ATOM      1  C   UNL     1      -3.284  -6.862  -2.876  1.00  0.00     0.306 C 
ATOM      2  O   UNL     1      -3.044  -8.029  -2.587  1.00  0.00    -0.252 OA
ENDROOT
BRANCH   1   3
ATOM      3  C   UNL     1      -3.260  -5.776  -1.812  1.00  0.00     0.128 C 
BRANCH   3   4
ATOM      4  C   UNL     1      -3.473  -4.267  -2.123  1.00  0.00     0.019 C 
BRANCH   4   5
ATOM      5  C   UNL     1      -3.174  -3.450  -0.755  1.00  0.00     0.009 C 
BRANCH   5   6
ATOM      6  C   UNL     1      -3.745  -2.044  -0.318  1.00  0.00    -0.017 C 
ATOM      7  C   UNL     1      -4.895  -2.025   0.727  1.00  0.00     0.007 C 
ATOM      8  C   UNL     1      -2.632  -1.291   0.448  1.00  0.00     0.007 C 
ENDBRANCH   5   6
ENDBRANCH   4   5
BRANCH   4   9
ATOM      9  C   UNL     1      -4.696  -3.904  -3.029  1.00  0.00     0.120 C 
BRANCH   9  10
ATOM     10  N   UNL     1      -5.638  -4.979  -3.454  1.00  0.00    -0.355 N 
ATOM     11  C   UNL     1      -6.877  -5.499  -3.222  1.00  0.00     0.229 C 
ATOM     12  H   UNL     1      -5.206  -5.508  -4.164  1.00  0.00     0.163 HD
ATOM     13  O   UNL     1      -7.174  -6.463  -3.944  1.00  0.00    -0.275 OA
BRANCH  11  14
ATOM     14  C   UNL     1      -7.934  -4.994  -2.202  1.00  0.00     0.136 C 
BRANCH  14  15
ATOM     15  C   UNL     1      -8.677  -6.158  -1.486  1.00  0.00     0.020 C 
BRANCH  15  16
ATOM     16  C   UNL     1      -7.903  -6.993  -0.444  1.00  0.00     0.001 C 
BRANCH  16  17
ATOM     17  C   UNL     1      -7.582  -6.280   0.881  1.00  0.00     0.000 C 
BRANCH  17  18
ATOM     18  C   UNL     1      -6.400  -5.326   0.842  1.00  0.00     0.006 CG0
ATOM     19  G   UNL     1      -6.223  -4.659  -0.499  1.00  0.00     0.000 G0
ENDBRANCH  17  18
ENDBRANCH  16  17
ENDBRANCH  15  16
ENDBRANCH  14  15
BRANCH  14  20
ATOM     20  C   UNL     1      -7.450  -4.016  -1.148  1.00  0.00     0.193 C 
BRANCH  20  21
ATOM     21  C   UNL     1      -6.223  -4.659  -0.499  1.00  0.00     0.066 CG0
ATOM     22  G   UNL     1      -6.400  -5.326   0.842  1.00  0.00     0.000 G0
ENDBRANCH  20  21
BRANCH  20  23
ATOM     23  N   UNL     1      -7.329  -2.689  -1.772  1.00  0.00    -0.354 N 
ATOM     24  H   UNL     1      -6.706  -2.749  -2.578  1.00  0.00     0.344 HD
ATOM     25  H   UNL     1      -6.947  -2.029  -1.095  1.00  0.00     0.344 HD
ATOM     26  H   UNL     1      -8.248  -2.371  -2.076  1.00  0.00     0.344 HD
ENDBRANCH  20  23
ENDBRANCH  14  20
ENDBRANCH  11  14
ENDBRANCH   9  10
ENDBRANCH   4   9
ENDBRANCH   3   4
ENDBRANCH   1   3
BRANCH   1  27
ATOM     27  O   UNL     1      -3.570  -6.431  -4.125  1.00  0.00    -0.462 OA
BRANCH  27  28
ATOM     28  C   UNL     1      -3.554  -7.412  -5.188  1.00  0.00     0.274 C 
BRANCH  28  29
ATOM     29  C   UNL     1      -2.558  -6.977  -6.263  1.00  0.00     0.275 C 
BRANCH  29  30
ATOM     30  O   UNL     1      -1.216  -7.129  -5.776  1.00  0.00    -0.458 OA
BRANCH  30  31
ATOM     31  C   UNL     1      -0.756  -6.115  -5.019  1.00  0.00     0.338 C 
ATOM     32  O   UNL     1      -1.282  -5.017  -4.824  1.00  0.00    -0.246 OA
BRANCH  31  33
ATOM     33  C   UNL     1       0.412  -6.589  -4.285  1.00  0.00     0.060 A 
ATOM     34  C   UNL     1       0.287  -6.836  -2.915  1.00  0.00     0.016 A 
ATOM     35  C   UNL     1       1.627  -6.766  -4.940  1.00  0.00     0.016 A 
ATOM     36  C   UNL     1       1.387  -7.234  -2.172  1.00  0.00     0.010 A 
ATOM     37  C   UNL     1       2.728  -7.184  -4.200  1.00  0.00     0.010 A 
ATOM     38  C   UNL     1       2.615  -7.401  -2.813  1.00  0.00    -0.014 A 
BRANCH  38  39
ATOM     39  C   UNL     1       3.826  -7.732  -2.040  1.00  0.00     0.031 A 
ATOM     40  C   UNL     1       4.884  -6.683  -1.896  1.00  0.00     0.074 A 
ATOM     41  C   UNL     1       3.992  -8.975  -1.556  1.00  0.00     0.049 A 
ATOM     42  N   UNL     1       6.125  -6.810  -1.518  1.00  0.00    -0.248 NA
ATOM     43  C   UNL     1       4.493  -5.306  -2.249  1.00  0.00     0.031 C 
ATOM     44  C   UNL     1       2.995 -10.045  -1.610  1.00  0.00     0.029 A 
ATOM     45  N   UNL     1       5.084  -9.560  -0.970  1.00  0.00    -0.354 N 
ATOM     46  C   UNL     1       6.686  -5.547  -1.656  1.00  0.00     0.074 A 
ATOM     47  C   UNL     1       5.646  -4.663  -2.132  1.00  0.00     0.031 C 
ATOM     48  C   UNL     1       3.537 -11.171  -1.120  1.00  0.00     0.029 A 
ATOM     49  C   UNL     1       4.932 -10.914  -0.779  1.00  0.00     0.049 A 
ATOM     50  H   UNL     1       5.894  -9.062  -0.712  1.00  0.00     0.167 HD
ATOM     51  C   UNL     1       7.961  -5.171  -1.410  1.00  0.00     0.034 A 
ATOM     52  C   UNL     1       5.839 -11.845  -0.427  1.00  0.00     0.034 A 
ATOM     53  C   UNL     1       8.962  -6.068  -0.902  1.00  0.00     0.049 A 
ATOM     54  C   UNL     1       7.255 -11.403  -0.170  1.00  0.00     0.074 A 
ATOM     55  C   UNL     1      10.278  -5.798  -0.582  1.00  0.00     0.029 A 
ATOM     56  N   UNL     1       8.749  -7.415  -0.640  1.00  0.00    -0.354 N 
ATOM     57  N   UNL     1       7.769 -10.199  -0.250  1.00  0.00    -0.248 NA
ATOM     58  C   UNL     1       8.211 -12.439   0.241  1.00  0.00     0.031 C 
ATOM     59  C   UNL     1      10.867  -6.987  -0.141  1.00  0.00     0.029 A 
ATOM     60  C   UNL     1       9.910  -7.991  -0.161  1.00  0.00     0.049 A 
ATOM     61  H   UNL     1       7.897  -7.889  -0.776  1.00  0.00     0.167 HD
ATOM     62  C   UNL     1       9.096 -10.323   0.141  1.00  0.00     0.074 A 
ATOM     63  C   UNL     1       9.305 -11.721   0.463  1.00  0.00     0.031 C 
ATOM     64  C   UNL     1      10.059  -9.373   0.219  1.00  0.00     0.034 A 
BRANCH  51  65
ATOM     65  C   UNL     1       8.337  -3.741  -1.680  1.00  0.00     0.023 A 
ATOM     66  C   UNL     1       7.879  -2.720  -0.822  1.00  0.00     0.012 A 
ATOM     67  C   UNL     1       9.176  -3.410  -2.762  1.00  0.00     0.148 A 
ATOM     68  C   UNL     1       8.225  -1.390  -1.055  1.00  0.00     0.002 A 
ATOM     69  C   UNL     1       9.552  -2.087  -2.963  1.00  0.00     0.091 A 
ATOM     70  F   UNL     1       9.577  -4.391  -3.583  1.00  0.00    -0.205 F 
ATOM     71  C   UNL     1       9.069  -1.075  -2.118  1.00  0.00     0.022 A 
BRANCH  69  72
ATOM     72  S   UNL     1      10.690  -1.592  -4.261  1.00  0.00     0.127 S 
ATOM     73  O   UNL     1       9.798  -0.896  -5.186  1.00  0.00    -0.237 OA
ATOM     74  O   UNL     1      11.619  -0.721  -3.539  1.00  0.00    -0.237 OA
ATOM     75  O   UNL     1      11.282  -2.822  -4.768  1.00  0.00    -0.744 OA
ENDBRANCH  69  72
ENDBRANCH  51  65
BRANCH  52  76
ATOM     76  C   UNL     1       5.428 -13.270  -0.287  1.00  0.00     0.023 A 
ATOM     77  C   UNL     1       5.384 -13.850   0.994  1.00  0.00     0.012 A 
ATOM     78  C   UNL     1       5.039 -14.038  -1.403  1.00  0.00     0.148 A 
ATOM     79  C   UNL     1       4.984 -15.177   1.161  1.00  0.00     0.002 A 
ATOM     80  C   UNL     1       4.591 -15.343  -1.224  1.00  0.00     0.091 A 
ATOM     81  F   UNL     1       5.101 -13.474  -2.617  1.00  0.00    -0.205 F 
ATOM     82  C   UNL     1       4.577 -15.919   0.055  1.00  0.00     0.022 A 
BRANCH  80  83
ATOM     83  S   UNL     1       3.929 -16.328  -2.573  1.00  0.00     0.127 S 
ATOM     84  O   UNL     1       4.995 -17.304  -2.782  1.00  0.00    -0.237 OA
ATOM     85  O   UNL     1       2.705 -16.870  -1.982  1.00  0.00    -0.237 OA
ATOM     86  O   UNL     1       3.702 -15.392  -3.667  1.00  0.00    -0.744 OA
ENDBRANCH  80  83
ENDBRANCH  52  76
BRANCH  64  87
ATOM     87  C   UNL     1      11.411  -9.785   0.732  1.00  0.00     0.023 A 
ATOM     88  C   UNL     1      12.296 -10.489  -0.106  1.00  0.00     0.012 A 
ATOM     89  C   UNL     1      11.842  -9.357   2.003  1.00  0.00     0.148 A 
ATOM     90  C   UNL     1      13.592 -10.772   0.321  1.00  0.00     0.002 A 
ATOM     91  C   UNL     1      13.149  -9.601   2.401  1.00  0.00     0.091 A 
ATOM     92  F   UNL     1      10.972  -8.703   2.786  1.00  0.00    -0.205 F 
ATOM     93  C   UNL     1      14.023 -10.316   1.565  1.00  0.00     0.022 A 
BRANCH  91  94
ATOM     94  S   UNL     1      13.823  -8.961   3.938  1.00  0.00     0.127 S 
ATOM     95  O   UNL     1      14.009 -10.187   4.714  1.00  0.00    -0.237 OA
ATOM     96  O   UNL     1      15.063  -8.326   3.491  1.00  0.00    -0.237 OA
ATOM     97  O   UNL     1      12.825  -8.039   4.464  1.00  0.00    -0.744 OA
ENDBRANCH  91  94
ENDBRANCH  64  87
ENDBRANCH  38  39
ENDBRANCH  31  33
ENDBRANCH  30  31
ENDBRANCH  29  30
ENDBRANCH  28  29
ENDBRANCH  27  28
ENDBRANCH   1  27
TORSDOF 21
